
  -OEChem-05262216503D

 51 50  0     1  0  0  0  0  0999 V2000
    1.5871   -5.1274    0.3303 C   0  0  0  0  0  0  0  0  0  0  0  0
    1.6484   -4.7291   -0.8225 O   0  0  0  0  0  0  0  0  0  0  0  0
    2.7384   -5.9196    0.9201 C   0  0  0  0  0  0  0  0  0  0  0  0
    3.5098   -6.0848    0.1628 H   0  0  0  0  0  0  0  0  0  0  0  0
    3.1779   -5.3705    1.7567 H   0  0  0  0  0  0  0  0  0  0  0  0
    2.3812   -6.8888    1.2761 H   0  0  0  0  0  0  0  0  0  0  0  0
    0.4914   -4.8336    1.1156 N   0  0  0  0  0  0  0  0  0  0  0  0
   -0.4984   -3.8139    0.7401 C   0  0  2  0  0  0  0  0  0  0  0  0
   -0.1422   -2.4338    1.3304 C   0  0  0  0  0  0  0  0  0  0  0  0
    0.4937   -2.3560    2.3769 O   0  0  0  0  0  0  0  0  0  0  0  0
   -1.8668   -4.2801    1.2414 C   0  0  0  0  0  0  0  0  0  0  0  0
    0.6255   -4.9819    2.1128 H   0  0  0  0  0  0  0  0  0  0  0  0
   -0.5486   -3.7123   -0.3495 H   0  0  0  0  0  0  0  0  0  0  0  0
   -1.8635   -4.3799    2.3315 H   0  0  0  0  0  0  0  0  0  0  0  0
   -2.6422   -3.5604    0.9609 H   0  0  0  0  0  0  0  0  0  0  0  0
   -2.1203   -5.2496    0.8014 H   0  0  0  0  0  0  0  0  0  0  0  0
   -0.6964   -1.2854    0.8059 N   0  0  0  0  0  0  0  0  0  0  0  0
   -0.2004    0.1085    0.8776 C   0  0  2  0  0  0  0  0  0  0  0  0
   -1.2890    0.9281    0.1008 C   0  0  0  0  0  0  0  0  0  0  0  0
   -2.2242    0.3489   -0.4521 O   0  0  0  0  0  0  0  0  0  0  0  0
    1.2105    0.3131    0.1704 C   0  0  2  0  0  0  0  0  0  0  0  0
    2.3945   -0.4823    0.7922 C   0  0  0  0  0  0  0  0  0  0  0  0
    1.6332    1.8054    0.1582 C   0  0  0  0  0  0  0  0  0  0  0  0
    3.6786   -0.4807   -0.0522 C   0  0  0  0  0  0  0  0  0  0  0  0
   -1.3769   -1.4366    0.0593 H   0  0  0  0  0  0  0  0  0  0  0  0
   -0.1553    0.4425    1.9187 H   0  0  0  0  0  0  0  0  0  0  0  0
    1.1078   -0.0226   -0.8675 H   0  0  0  0  0  0  0  0  0  0  0  0
    2.1384   -1.5348    0.8468 H   0  0  0  0  0  0  0  0  0  0  0  0
    2.6017   -0.1285    1.8075 H   0  0  0  0  0  0  0  0  0  0  0  0
    1.3476    2.2947    1.0946 H   0  0  0  0  0  0  0  0  0  0  0  0
    2.7074    1.9430    0.0357 H   0  0  0  0  0  0  0  0  0  0  0  0
    1.1734    2.3282   -0.6841 H   0  0  0  0  0  0  0  0  0  0  0  0
    3.4468   -0.6799   -1.1030 H   0  0  0  0  0  0  0  0  0  0  0  0
    4.3527   -1.2652    0.3052 H   0  0  0  0  0  0  0  0  0  0  0  0
    4.2151    0.4682    0.0190 H   0  0  0  0  0  0  0  0  0  0  0  0
   -1.2358    2.2980   -0.0786 N   0  0  0  0  0  0  0  0  0  0  0  0
   -2.1504    3.0872   -0.9146 C   0  0  2  0  0  0  0  0  0  0  0  0
   -1.4690    4.3722   -1.4298 C   0  0  0  0  0  0  0  0  0  0  0  0
   -0.3962    4.7321   -0.9559 O   0  0  0  0  0  0  0  0  0  0  0  0
   -3.3927    3.4346   -0.0873 C   0  0  0  0  0  0  0  0  0  0  0  0
   -0.4112    2.7842    0.2725 H   0  0  0  0  0  0  0  0  0  0  0  0
   -2.4489    2.5012   -1.7904 H   0  0  0  0  0  0  0  0  0  0  0  0
   -3.1143    4.0275    0.7899 H   0  0  0  0  0  0  0  0  0  0  0  0
   -4.1053    4.0100   -0.6856 H   0  0  0  0  0  0  0  0  0  0  0  0
   -3.8903    2.5213    0.2538 H   0  0  0  0  0  0  0  0  0  0  0  0
   -2.0540    5.1228   -2.4326 N   0  0  0  0  0  0  0  0  0  0  0  0
   -1.4703    6.3507   -2.9581 C   0  0  0  0  0  0  0  0  0  0  0  0
   -2.9404    4.7989   -2.8085 H   0  0  0  0  0  0  0  0  0  0  0  0
   -1.4330    7.1197   -2.1797 H   0  0  0  0  0  0  0  0  0  0  0  0
   -0.4541    6.1677   -3.3226 H   0  0  0  0  0  0  0  0  0  0  0  0
   -2.0710    6.7292   -3.7906 H   0  0  0  0  0  0  0  0  0  0  0  0
  1  2  2  0  0  0  0
  1  3  1  0  0  0  0
  1  7  1  0  0  0  0
  3  4  1  0  0  0  0
  3  5  1  0  0  0  0
  3  6  1  0  0  0  0
  7  8  1  0  0  0  0
  7 12  1  0  0  0  0
  8  9  1  0  0  0  0
  8 11  1  0  0  0  0
  8 13  1  0  0  0  0
  9 10  2  0  0  0  0
  9 17  1  0  0  0  0
 11 14  1  0  0  0  0
 11 15  1  0  0  0  0
 11 16  1  0  0  0  0
 17 18  1  0  0  0  0
 17 25  1  0  0  0  0
 18 19  1  0  0  0  0
 18 21  1  0  0  0  0
 18 26  1  0  0  0  0
 19 20  2  0  0  0  0
 19 36  1  0  0  0  0
 21 22  1  0  0  0  0
 21 23  1  0  0  0  0
 21 27  1  0  0  0  0
 22 24  1  0  0  0  0
 22 28  1  0  0  0  0
 22 29  1  0  0  0  0
 23 30  1  0  0  0  0
 23 31  1  0  0  0  0
 23 32  1  0  0  0  0
 24 33  1  0  0  0  0
 24 34  1  0  0  0  0
 24 35  1  0  0  0  0
 36 37  1  0  0  0  0
 36 41  1  0  0  0  0
 37 38  1  0  0  0  0
 37 40  1  0  0  0  0
 37 42  1  0  0  0  0
 38 39  2  0  0  0  0
 38 46  1  0  0  0  0
 40 43  1  0  0  0  0
 40 44  1  0  0  0  0
 40 45  1  0  0  0  0
 46 47  1  0  0  0  0
 46 48  1  0  0  0  0
 47 49  1  0  0  0  0
 47 50  1  0  0  0  0
 47 51  1  0  0  0  0
M  END
$$$$

  -OEChem-05262216503D

 51 50  0     1  0  0  0  0  0999 V2000
    1.4922   -5.2036    0.2926 C   0  0  0  0  0  0  0  0  0  0  0  0
    1.5778   -4.8344   -0.8683 O   0  0  0  0  0  0  0  0  0  0  0  0
    2.5927   -6.0521    0.9014 C   0  0  0  0  0  0  0  0  0  0  0  0
    3.3453   -6.2933    0.1455 H   0  0  0  0  0  0  0  0  0  0  0  0
    3.0742   -5.5071    1.7172 H   0  0  0  0  0  0  0  0  0  0  0  0
    2.1741   -6.9833    1.2910 H   0  0  0  0  0  0  0  0  0  0  0  0
    0.4145   -4.8309    1.0690 N   0  0  0  0  0  0  0  0  0  0  0  0
   -0.5188   -3.7675    0.6713 C   0  0  2  0  0  0  0  0  0  0  0  0
   -0.1028   -2.4011    1.2539 C   0  0  0  0  0  0  0  0  0  0  0  0
    0.5255   -2.3498    2.3064 O   0  0  0  0  0  0  0  0  0  0  0  0
   -1.9131   -4.1628    1.1622 C   0  0  0  0  0  0  0  0  0  0  0  0
    0.5375   -4.9669    2.0694 H   0  0  0  0  0  0  0  0  0  0  0  0
   -0.5527   -3.6741   -0.4194 H   0  0  0  0  0  0  0  0  0  0  0  0
   -1.9275   -4.2439    2.2540 H   0  0  0  0  0  0  0  0  0  0  0  0
   -2.6515   -3.4138    0.8597 H   0  0  0  0  0  0  0  0  0  0  0  0
   -2.2049   -5.1275    0.7355 H   0  0  0  0  0  0  0  0  0  0  0  0
   -0.6162   -1.2348    0.7262 N   0  0  0  0  0  0  0  0  0  0  0  0
   -0.1125    0.1537    0.8437 C   0  0  2  0  0  0  0  0  0  0  0  0
   -1.1732    0.9787    0.0215 C   0  0  0  0  0  0  0  0  0  0  0  0
   -2.2180    0.4403   -0.3458 O   0  0  0  0  0  0  0  0  0  0  0  0
    1.3297    0.3695    0.2106 C   0  0  2  0  0  0  0  0  0  0  0  0
    2.4855   -0.4395    0.8647 C   0  0  0  0  0  0  0  0  0  0  0  0
    1.7542    1.8623    0.3118 C   0  0  0  0  0  0  0  0  0  0  0  0
    3.8009   -0.4111    0.0678 C   0  0  0  0  0  0  0  0  0  0  0  0
   -1.3273   -1.3581    0.0038 H   0  0  0  0  0  0  0  0  0  0  0  0
   -0.1186    0.4724    1.8908 H   0  0  0  0  0  0  0  0  0  0  0  0
    1.2797    0.0810   -0.8453 H   0  0  0  0  0  0  0  0  0  0  0  0
    2.6499   -0.1084    1.8957 H   0  0  0  0  0  0  0  0  0  0  0  0
    2.2281   -1.4934    0.8838 H   0  0  0  0  0  0  0  0  0  0  0  0
    1.2095    2.3706    1.1137 H   0  0  0  0  0  0  0  0  0  0  0  0
    2.8137    1.9976    0.5317 H   0  0  0  0  0  0  0  0  0  0  0  0
    1.5656    2.3729   -0.6374 H   0  0  0  0  0  0  0  0  0  0  0  0
    3.6161   -0.6650   -0.9805 H   0  0  0  0  0  0  0  0  0  0  0  0
    4.4949   -1.1494    0.4811 H   0  0  0  0  0  0  0  0  0  0  0  0
    4.2930    0.5629    0.1102 H   0  0  0  0  0  0  0  0  0  0  0  0
   -1.0042    2.2805   -0.4150 N   0  0  0  0  0  0  0  0  0  0  0  0
   -1.9198    3.0212   -1.2945 C   0  0  2  0  0  0  0  0  0  0  0  0
   -1.1796    4.1447   -2.0502 C   0  0  0  0  0  0  0  0  0  0  0  0
   -0.0434    4.4655   -1.7166 O   0  0  0  0  0  0  0  0  0  0  0  0
   -3.0533    3.6080   -0.4454 C   0  0  0  0  0  0  0  0  0  0  0  0
   -0.1132    2.7313   -0.2132 H   0  0  0  0  0  0  0  0  0  0  0  0
   -2.3400    2.3426   -2.0445 H   0  0  0  0  0  0  0  0  0  0  0  0
   -2.6503    4.2924    0.3079 H   0  0  0  0  0  0  0  0  0  0  0  0
   -3.7608    4.1574   -1.0734 H   0  0  0  0  0  0  0  0  0  0  0  0
   -3.5991    2.8094    0.0666 H   0  0  0  0  0  0  0  0  0  0  0  0
   -1.7846    4.7954   -3.1097 N   0  0  0  0  0  0  0  0  0  0  0  0
   -1.1439    5.8659   -3.8641 C   0  0  0  0  0  0  0  0  0  0  0  0
   -2.7226    4.5036   -3.3689 H   0  0  0  0  0  0  0  0  0  0  0  0
   -0.8901    6.7019   -3.2037 H   0  0  0  0  0  0  0  0  0  0  0  0
   -0.2276    5.5033   -4.3418 H   0  0  0  0  0  0  0  0  0  0  0  0
   -1.8176    6.2344   -4.6439 H   0  0  0  0  0  0  0  0  0  0  0  0
  1  2  2  0  0  0  0
  1  3  1  0  0  0  0
  1  7  1  0  0  0  0
  3  4  1  0  0  0  0
  3  5  1  0  0  0  0
  3  6  1  0  0  0  0
  7  8  1  0  0  0  0
  7 12  1  0  0  0  0
  8  9  1  0  0  0  0
  8 11  1  0  0  0  0
  8 13  1  0  0  0  0
  9 10  2  0  0  0  0
  9 17  1  0  0  0  0
 11 14  1  0  0  0  0
 11 15  1  0  0  0  0
 11 16  1  0  0  0  0
 17 18  1  0  0  0  0
 17 25  1  0  0  0  0
 18 19  1  0  0  0  0
 18 21  1  0  0  0  0
 18 26  1  0  0  0  0
 19 20  2  0  0  0  0
 19 36  1  0  0  0  0
 21 22  1  0  0  0  0
 21 23  1  0  0  0  0
 21 27  1  0  0  0  0
 22 24  1  0  0  0  0
 22 28  1  0  0  0  0
 22 29  1  0  0  0  0
 23 30  1  0  0  0  0
 23 31  1  0  0  0  0
 23 32  1  0  0  0  0
 24 33  1  0  0  0  0
 24 34  1  0  0  0  0
 24 35  1  0  0  0  0
 36 37  1  0  0  0  0
 36 41  1  0  0  0  0
 37 38  1  0  0  0  0
 37 40  1  0  0  0  0
 37 42  1  0  0  0  0
 38 39  2  0  0  0  0
 38 46  1  0  0  0  0
 40 43  1  0  0  0  0
 40 44  1  0  0  0  0
 40 45  1  0  0  0  0
 46 47  1  0  0  0  0
 46 48  1  0  0  0  0
 47 49  1  0  0  0  0
 47 50  1  0  0  0  0
 47 51  1  0  0  0  0
M  END
$$$$

  -OEChem-05262216503D

 51 50  0     1  0  0  0  0  0999 V2000
    0.2686   -3.4018   -0.7074 C   0  0  0  0  0  0  0  0  0  0  0  0
   -0.4818   -2.5253   -1.1110 O   0  0  0  0  0  0  0  0  0  0  0  0
    1.4299   -3.8633   -1.5667 C   0  0  0  0  0  0  0  0  0  0  0  0
    1.3993   -3.3654   -2.5399 H   0  0  0  0  0  0  0  0  0  0  0  0
    2.3762   -3.6216   -1.0761 H   0  0  0  0  0  0  0  0  0  0  0  0
    1.3731   -4.9434   -1.7224 H   0  0  0  0  0  0  0  0  0  0  0  0
    0.0940   -3.9330    0.5543 N   0  0  0  0  0  0  0  0  0  0  0  0
   -0.8712   -3.3902    1.5187 C   0  0  2  0  0  0  0  0  0  0  0  0
   -0.4020   -2.0214    2.0584 C   0  0  0  0  0  0  0  0  0  0  0  0
    0.3663   -1.9463    3.0099 O   0  0  0  0  0  0  0  0  0  0  0  0
   -1.0629   -4.4221    2.6353 C   0  0  0  0  0  0  0  0  0  0  0  0
    0.8377   -4.5274    0.9091 H   0  0  0  0  0  0  0  0  0  0  0  0
   -1.8404   -3.2458    1.0292 H   0  0  0  0  0  0  0  0  0  0  0  0
   -0.1163   -4.6212    3.1479 H   0  0  0  0  0  0  0  0  0  0  0  0
   -1.7830   -4.0512    3.3715 H   0  0  0  0  0  0  0  0  0  0  0  0
   -1.4419   -5.3620    2.2231 H   0  0  0  0  0  0  0  0  0  0  0  0
   -0.8842   -0.8701    1.4736 N   0  0  0  0  0  0  0  0  0  0  0  0
   -0.2143    0.4463    1.3771 C   0  0  2  0  0  0  0  0  0  0  0  0
   -1.3337    1.2523    0.6162 C   0  0  0  0  0  0  0  0  0  0  0  0
   -2.4912    1.1811    1.0064 O   0  0  0  0  0  0  0  0  0  0  0  0
    1.1490    0.4849    0.5861 C   0  0  2  0  0  0  0  0  0  0  0  0
    2.3006   -0.3709    1.1804 C   0  0  0  0  0  0  0  0  0  0  0  0
    1.7452    1.9243    0.6282 C   0  0  0  0  0  0  0  0  0  0  0  0
    3.5008   -0.4990    0.2335 C   0  0  0  0  0  0  0  0  0  0  0  0
   -1.5828   -1.0433    0.7517 H   0  0  0  0  0  0  0  0  0  0  0  0
   -0.0711    0.8701    2.3762 H   0  0  0  0  0  0  0  0  0  0  0  0
    0.9584    0.1646   -0.4424 H   0  0  0  0  0  0  0  0  0  0  0  0
    2.6121   -0.0023    2.1635 H   0  0  0  0  0  0  0  0  0  0  0  0
    1.9589   -1.3941    1.3060 H   0  0  0  0  0  0  0  0  0  0  0  0
    1.0029    2.7121    0.5218 H   0  0  0  0  0  0  0  0  0  0  0  0
    2.4761    2.0571   -0.1744 H   0  0  0  0  0  0  0  0  0  0  0  0
    2.2443    2.1122    1.5845 H   0  0  0  0  0  0  0  0  0  0  0  0
    3.1739   -0.8176   -0.7611 H   0  0  0  0  0  0  0  0  0  0  0  0
    4.2005   -1.2451    0.6224 H   0  0  0  0  0  0  0  0  0  0  0  0
    4.0377    0.4494    0.1420 H   0  0  0  0  0  0  0  0  0  0  0  0
   -1.2421    2.3064   -0.2661 N   0  0  0  0  0  0  0  0  0  0  0  0
   -0.7240    2.1621   -1.6402 C   0  0  2  0  0  0  0  0  0  0  0  0
   -1.0313    3.4177   -2.4875 C   0  0  0  0  0  0  0  0  0  0  0  0
   -1.8767    4.2248   -2.1221 O   0  0  0  0  0  0  0  0  0  0  0  0
   -1.3652    0.9437   -2.3243 C   0  0  0  0  0  0  0  0  0  0  0  0
   -2.1042    2.8535   -0.2351 H   0  0  0  0  0  0  0  0  0  0  0  0
    0.3601    2.0398   -1.6298 H   0  0  0  0  0  0  0  0  0  0  0  0
   -2.4565    1.0363   -2.3205 H   0  0  0  0  0  0  0  0  0  0  0  0
   -1.0284    0.8615   -3.3621 H   0  0  0  0  0  0  0  0  0  0  0  0
   -1.0943    0.0177   -1.8099 H   0  0  0  0  0  0  0  0  0  0  0  0
   -0.3618    3.6387   -3.6779 N   0  0  0  0  0  0  0  0  0  0  0  0
   -0.6328    4.7795   -4.5453 C   0  0  0  0  0  0  0  0  0  0  0  0
    0.3140    2.9428   -3.9777 H   0  0  0  0  0  0  0  0  0  0  0  0
   -1.6740    4.7644   -4.8845 H   0  0  0  0  0  0  0  0  0  0  0  0
   -0.4496    5.7186   -4.0124 H   0  0  0  0  0  0  0  0  0  0  0  0
    0.0176    4.7494   -5.4247 H   0  0  0  0  0  0  0  0  0  0  0  0
  1  2  2  0  0  0  0
  1  3  1  0  0  0  0
  1  7  1  0  0  0  0
  3  4  1  0  0  0  0
  3  5  1  0  0  0  0
  3  6  1  0  0  0  0
  7  8  1  0  0  0  0
  7 12  1  0  0  0  0
  8  9  1  0  0  0  0
  8 11  1  0  0  0  0
  8 13  1  0  0  0  0
  9 10  2  0  0  0  0
  9 17  1  0  0  0  0
 11 14  1  0  0  0  0
 11 15  1  0  0  0  0
 11 16  1  0  0  0  0
 17 18  1  0  0  0  0
 17 25  1  0  0  0  0
 18 19  1  0  0  0  0
 18 21  1  0  0  0  0
 18 26  1  0  0  0  0
 19 20  2  0  0  0  0
 19 36  1  0  0  0  0
 21 22  1  0  0  0  0
 21 23  1  0  0  0  0
 21 27  1  0  0  0  0
 22 24  1  0  0  0  0
 22 28  1  0  0  0  0
 22 29  1  0  0  0  0
 23 30  1  0  0  0  0
 23 31  1  0  0  0  0
 23 32  1  0  0  0  0
 24 33  1  0  0  0  0
 24 34  1  0  0  0  0
 24 35  1  0  0  0  0
 36 37  1  0  0  0  0
 36 41  1  0  0  0  0
 37 38  1  0  0  0  0
 37 40  1  0  0  0  0
 37 42  1  0  0  0  0
 38 39  2  0  0  0  0
 38 46  1  0  0  0  0
 40 43  1  0  0  0  0
 40 44  1  0  0  0  0
 40 45  1  0  0  0  0
 46 47  1  0  0  0  0
 46 48  1  0  0  0  0
 47 49  1  0  0  0  0
 47 50  1  0  0  0  0
 47 51  1  0  0  0  0
M  END
$$$$

  -OEChem-05262216503D

 51 50  0     1  0  0  0  0  0999 V2000
    1.4034   -5.2682    0.2972 C   0  0  0  0  0  0  0  0  0  0  0  0
    1.4317   -4.9973   -0.8930 O   0  0  0  0  0  0  0  0  0  0  0  0
    2.5069   -6.1106    0.9090 C   0  0  0  0  0  0  0  0  0  0  0  0
    3.2238   -6.4113    0.1398 H   0  0  0  0  0  0  0  0  0  0  0  0
    3.0330   -5.5350    1.6749 H   0  0  0  0  0  0  0  0  0  0  0  0
    2.0821   -7.0084    1.3643 H   0  0  0  0  0  0  0  0  0  0  0  0
    0.3889   -4.7900    1.1007 N   0  0  0  0  0  0  0  0  0  0  0  0
   -0.5330   -3.7271    0.6752 C   0  0  2  0  0  0  0  0  0  0  0  0
   -0.0817   -2.3449    1.1905 C   0  0  0  0  0  0  0  0  0  0  0  0
    0.5463   -2.2642    2.2404 O   0  0  0  0  0  0  0  0  0  0  0  0
   -1.9238   -4.0718    1.2118 C   0  0  0  0  0  0  0  0  0  0  0  0
    0.5610   -4.8579    2.1011 H   0  0  0  0  0  0  0  0  0  0  0  0
   -0.5880   -3.6791   -0.4175 H   0  0  0  0  0  0  0  0  0  0  0  0
   -1.9149   -4.1062    2.3061 H   0  0  0  0  0  0  0  0  0  0  0  0
   -2.6535   -3.3203    0.8940 H   0  0  0  0  0  0  0  0  0  0  0  0
   -2.2447   -5.0472    0.8331 H   0  0  0  0  0  0  0  0  0  0  0  0
   -0.5668   -1.1953    0.6005 N   0  0  0  0  0  0  0  0  0  0  0  0
   -0.0791    0.1951    0.7364 C   0  0  2  0  0  0  0  0  0  0  0  0
   -1.0911    0.9646   -0.1852 C   0  0  0  0  0  0  0  0  0  0  0  0
   -2.2770    0.6437   -0.1736 O   0  0  0  0  0  0  0  0  0  0  0  0
    1.3895    0.4748    0.2237 C   0  0  2  0  0  0  0  0  0  0  0  0
    2.5255   -0.2854    0.9551 C   0  0  0  0  0  0  0  0  0  0  0  0
    1.7536    1.9814    0.3959 C   0  0  0  0  0  0  0  0  0  0  0  0
    3.8733   -0.1621    0.2316 C   0  0  0  0  0  0  0  0  0  0  0  0
   -1.3021   -1.3319   -0.0922 H   0  0  0  0  0  0  0  0  0  0  0  0
   -0.1834    0.5338    1.7722 H   0  0  0  0  0  0  0  0  0  0  0  0
    1.4248    0.2040   -0.8378 H   0  0  0  0  0  0  0  0  0  0  0  0
    2.6065    0.0324    2.0001 H   0  0  0  0  0  0  0  0  0  0  0  0
    2.3165   -1.3517    0.9453 H   0  0  0  0  0  0  0  0  0  0  0  0
    0.8938    2.5881    0.6913 H   0  0  0  0  0  0  0  0  0  0  0  0
    2.1542    2.3765   -0.5434 H   0  0  0  0  0  0  0  0  0  0  0  0
    2.5077    2.1380    1.1738 H   0  0  0  0  0  0  0  0  0  0  0  0
    3.7807   -0.4928   -0.8077 H   0  0  0  0  0  0  0  0  0  0  0  0
    4.6193   -0.7900    0.7284 H   0  0  0  0  0  0  0  0  0  0  0  0
    4.2389    0.8685    0.2396 H   0  0  0  0  0  0  0  0  0  0  0  0
   -0.7402    1.9332   -1.1097 N   0  0  0  0  0  0  0  0  0  0  0  0
   -1.6443    2.5880   -2.0643 C   0  0  2  0  0  0  0  0  0  0  0  0
   -0.8579    3.1681   -3.2591 C   0  0  0  0  0  0  0  0  0  0  0  0
    0.3662    3.2364   -3.2132 O   0  0  0  0  0  0  0  0  0  0  0  0
   -2.4072    3.7021   -1.3386 C   0  0  0  0  0  0  0  0  0  0  0  0
    0.2553    2.1204   -1.2309 H   0  0  0  0  0  0  0  0  0  0  0  0
   -2.3563    1.8557   -2.4594 H   0  0  0  0  0  0  0  0  0  0  0  0
   -1.7085    4.4383   -0.9287 H   0  0  0  0  0  0  0  0  0  0  0  0
   -3.0891    4.2124   -2.0250 H   0  0  0  0  0  0  0  0  0  0  0  0
   -2.9976    3.2871   -0.5159 H   0  0  0  0  0  0  0  0  0  0  0  0
   -1.5199    3.6124   -4.3889 N   0  0  0  0  0  0  0  0  0  0  0  0
   -0.8386    4.1965   -5.5382 C   0  0  0  0  0  0  0  0  0  0  0  0
   -2.5338    3.5499   -4.3970 H   0  0  0  0  0  0  0  0  0  0  0  0
   -0.3273    5.1213   -5.2504 H   0  0  0  0  0  0  0  0  0  0  0  0
   -0.0999    3.4968   -5.9436 H   0  0  0  0  0  0  0  0  0  0  0  0
   -1.5599    4.4309   -6.3272 H   0  0  0  0  0  0  0  0  0  0  0  0
  1  2  2  0  0  0  0
  1  3  1  0  0  0  0
  1  7  1  0  0  0  0
  3  4  1  0  0  0  0
  3  5  1  0  0  0  0
  3  6  1  0  0  0  0
  7  8  1  0  0  0  0
  7 12  1  0  0  0  0
  8  9  1  0  0  0  0
  8 11  1  0  0  0  0
  8 13  1  0  0  0  0
  9 10  2  0  0  0  0
  9 17  1  0  0  0  0
 11 14  1  0  0  0  0
 11 15  1  0  0  0  0
 11 16  1  0  0  0  0
 17 18  1  0  0  0  0
 17 25  1  0  0  0  0
 18 19  1  0  0  0  0
 18 21  1  0  0  0  0
 18 26  1  0  0  0  0
 19 20  2  0  0  0  0
 19 36  1  0  0  0  0
 21 22  1  0  0  0  0
 21 23  1  0  0  0  0
 21 27  1  0  0  0  0
 22 24  1  0  0  0  0
 22 28  1  0  0  0  0
 22 29  1  0  0  0  0
 23 30  1  0  0  0  0
 23 31  1  0  0  0  0
 23 32  1  0  0  0  0
 24 33  1  0  0  0  0
 24 34  1  0  0  0  0
 24 35  1  0  0  0  0
 36 37  1  0  0  0  0
 36 41  1  0  0  0  0
 37 38  1  0  0  0  0
 37 40  1  0  0  0  0
 37 42  1  0  0  0  0
 38 39  2  0  0  0  0
 38 46  1  0  0  0  0
 40 43  1  0  0  0  0
 40 44  1  0  0  0  0
 40 45  1  0  0  0  0
 46 47  1  0  0  0  0
 46 48  1  0  0  0  0
 47 49  1  0  0  0  0
 47 50  1  0  0  0  0
 47 51  1  0  0  0  0
M  END
$$$$

  -OEChem-05262216503D

 51 50  0     1  0  0  0  0  0999 V2000
    1.4078   -5.1098    0.2081 C   0  0  0  0  0  0  0  0  0  0  0  0
    1.4646   -4.7423   -0.9551 O   0  0  0  0  0  0  0  0  0  0  0  0
    2.5153   -5.9700    0.7869 C   0  0  0  0  0  0  0  0  0  0  0  0
    3.2494   -6.2111    0.0130 H   0  0  0  0  0  0  0  0  0  0  0  0
    3.0190   -5.4346    1.5956 H   0  0  0  0  0  0  0  0  0  0  0  0
    2.0986   -6.9010    1.1790 H   0  0  0  0  0  0  0  0  0  0  0  0
    0.3525   -4.7279    1.0106 N   0  0  0  0  0  0  0  0  0  0  0  0
   -0.5931   -3.6703    0.6275 C   0  0  2  0  0  0  0  0  0  0  0  0
   -0.1563   -2.2934    1.1683 C   0  0  0  0  0  0  0  0  0  0  0  0
    0.4422   -2.2223    2.2359 O   0  0  0  0  0  0  0  0  0  0  0  0
   -1.9698   -4.0532    1.1751 C   0  0  0  0  0  0  0  0  0  0  0  0
    0.4938   -4.8665    2.0083 H   0  0  0  0  0  0  0  0  0  0  0  0
   -0.6652   -3.5991   -0.4630 H   0  0  0  0  0  0  0  0  0  0  0  0
   -1.9442   -4.1197    2.2677 H   0  0  0  0  0  0  0  0  0  0  0  0
   -2.7161   -3.3046    0.8909 H   0  0  0  0  0  0  0  0  0  0  0  0
   -2.2813   -5.0224    0.7729 H   0  0  0  0  0  0  0  0  0  0  0  0
   -0.6109   -1.1367    0.5676 N   0  0  0  0  0  0  0  0  0  0  0  0
   -0.0839    0.2388    0.7095 C   0  0  2  0  0  0  0  0  0  0  0  0
   -1.0642    1.0257   -0.2207 C   0  0  0  0  0  0  0  0  0  0  0  0
   -2.2723    0.9157   -0.0392 O   0  0  0  0  0  0  0  0  0  0  0  0
    1.3989    0.4953    0.2300 C   0  0  2  0  0  0  0  0  0  0  0  0
    2.4956   -0.2914    0.9927 C   0  0  0  0  0  0  0  0  0  0  0  0
    1.7855    1.9882    0.4422 C   0  0  0  0  0  0  0  0  0  0  0  0
    3.8722   -0.2073    0.3221 C   0  0  0  0  0  0  0  0  0  0  0  0
   -1.3042   -1.2696   -0.1659 H   0  0  0  0  0  0  0  0  0  0  0  0
   -0.1997    0.5803    1.7433 H   0  0  0  0  0  0  0  0  0  0  0  0
    1.4626    0.2355   -0.8323 H   0  0  0  0  0  0  0  0  0  0  0  0
    2.2584   -1.3518    0.9694 H   0  0  0  0  0  0  0  0  0  0  0  0
    2.5514    0.0200    2.0411 H   0  0  0  0  0  0  0  0  0  0  0  0
    2.0332    2.1756    1.4920 H   0  0  0  0  0  0  0  0  0  0  0  0
    2.6547    2.2458   -0.1699 H   0  0  0  0  0  0  0  0  0  0  0  0
    0.9922    2.6890    0.1821 H   0  0  0  0  0  0  0  0  0  0  0  0
    3.8012   -0.4725   -0.7375 H   0  0  0  0  0  0  0  0  0  0  0  0
    4.5626   -0.9050    0.8058 H   0  0  0  0  0  0  0  0  0  0  0  0
    4.2947    0.7975    0.4081 H   0  0  0  0  0  0  0  0  0  0  0  0
   -0.6747    1.7505   -1.3342 N   0  0  0  0  0  0  0  0  0  0  0  0
   -1.5764    2.3764   -2.3092 C   0  0  2  0  0  0  0  0  0  0  0  0
   -0.8984    2.5057   -3.6889 C   0  0  0  0  0  0  0  0  0  0  0  0
    0.3133    2.3475   -3.7942 O   0  0  0  0  0  0  0  0  0  0  0  0
   -1.9851    3.7553   -1.7806 C   0  0  0  0  0  0  0  0  0  0  0  0
    0.3163    1.7356   -1.5766 H   0  0  0  0  0  0  0  0  0  0  0  0
   -2.4699    1.7566   -2.4382 H   0  0  0  0  0  0  0  0  0  0  0  0
   -1.1040    4.3919   -1.6500 H   0  0  0  0  0  0  0  0  0  0  0  0
   -2.6701    4.2467   -2.4778 H   0  0  0  0  0  0  0  0  0  0  0  0
   -2.4901    3.6577   -0.8143 H   0  0  0  0  0  0  0  0  0  0  0  0
   -1.6472    2.7841   -4.8173 N   0  0  0  0  0  0  0  0  0  0  0  0
   -1.0710    2.8891   -6.1524 C   0  0  0  0  0  0  0  0  0  0  0  0
   -2.6508    2.8931   -4.7038 H   0  0  0  0  0  0  0  0  0  0  0  0
   -0.3288    3.6937   -6.1875 H   0  0  0  0  0  0  0  0  0  0  0  0
   -0.5852    1.9491   -6.4349 H   0  0  0  0  0  0  0  0  0  0  0  0
   -1.8527    3.1080   -6.8862 H   0  0  0  0  0  0  0  0  0  0  0  0
  1  2  2  0  0  0  0
  1  3  1  0  0  0  0
  1  7  1  0  0  0  0
  3  4  1  0  0  0  0
  3  5  1  0  0  0  0
  3  6  1  0  0  0  0
  7  8  1  0  0  0  0
  7 12  1  0  0  0  0
  8  9  1  0  0  0  0
  8 11  1  0  0  0  0
  8 13  1  0  0  0  0
  9 10  2  0  0  0  0
  9 17  1  0  0  0  0
 11 14  1  0  0  0  0
 11 15  1  0  0  0  0
 11 16  1  0  0  0  0
 17 18  1  0  0  0  0
 17 25  1  0  0  0  0
 18 19  1  0  0  0  0
 18 21  1  0  0  0  0
 18 26  1  0  0  0  0
 19 20  2  0  0  0  0
 19 36  1  0  0  0  0
 21 22  1  0  0  0  0
 21 23  1  0  0  0  0
 21 27  1  0  0  0  0
 22 24  1  0  0  0  0
 22 28  1  0  0  0  0
 22 29  1  0  0  0  0
 23 30  1  0  0  0  0
 23 31  1  0  0  0  0
 23 32  1  0  0  0  0
 24 33  1  0  0  0  0
 24 34  1  0  0  0  0
 24 35  1  0  0  0  0
 36 37  1  0  0  0  0
 36 41  1  0  0  0  0
 37 38  1  0  0  0  0
 37 40  1  0  0  0  0
 37 42  1  0  0  0  0
 38 39  2  0  0  0  0
 38 46  1  0  0  0  0
 40 43  1  0  0  0  0
 40 44  1  0  0  0  0
 40 45  1  0  0  0  0
 46 47  1  0  0  0  0
 46 48  1  0  0  0  0
 47 49  1  0  0  0  0
 47 50  1  0  0  0  0
 47 51  1  0  0  0  0
M  END
$$$$

  -OEChem-05262216503D

 51 50  0     1  0  0  0  0  0999 V2000
    1.4787   -5.0011    0.2842 C   0  0  0  0  0  0  0  0  0  0  0  0
    1.5359   -4.6050   -0.8696 O   0  0  0  0  0  0  0  0  0  0  0  0
    2.6337   -5.7863    0.8764 C   0  0  0  0  0  0  0  0  0  0  0  0
    3.3885   -5.9836    0.1102 H   0  0  0  0  0  0  0  0  0  0  0  0
    3.0943   -5.2155    1.6865 H   0  0  0  0  0  0  0  0  0  0  0  0
    2.2752   -6.7404    1.2701 H   0  0  0  0  0  0  0  0  0  0  0  0
    0.3827   -4.7053    1.0682 N   0  0  0  0  0  0  0  0  0  0  0  0
   -0.6165   -3.7016    0.6768 C   0  0  2  0  0  0  0  0  0  0  0  0
   -0.2331   -2.2958    1.1819 C   0  0  0  0  0  0  0  0  0  0  0  0
    0.3236   -2.1724    2.2672 O   0  0  0  0  0  0  0  0  0  0  0  0
   -1.9670   -4.1308    1.2544 C   0  0  0  0  0  0  0  0  0  0  0  0
    0.5120   -4.8496    2.0666 H   0  0  0  0  0  0  0  0  0  0  0  0
   -0.7067   -3.6606   -0.4139 H   0  0  0  0  0  0  0  0  0  0  0  0
   -1.9221   -4.1692    2.3476 H   0  0  0  0  0  0  0  0  0  0  0  0
   -2.7487   -3.4216    0.9646 H   0  0  0  0  0  0  0  0  0  0  0  0
   -2.2426   -5.1217    0.8803 H   0  0  0  0  0  0  0  0  0  0  0  0
   -0.6882   -1.1707    0.5234 N   0  0  0  0  0  0  0  0  0  0  0  0
   -0.1480    0.2039    0.6131 C   0  0  2  0  0  0  0  0  0  0  0  0
   -1.0931    0.9915   -0.3414 C   0  0  0  0  0  0  0  0  0  0  0  0
   -2.2643    1.1520   -0.0224 O   0  0  0  0  0  0  0  0  0  0  0  0
    1.3460    0.4276    0.1490 C   0  0  2  0  0  0  0  0  0  0  0  0
    2.4247   -0.3294    0.9643 C   0  0  0  0  0  0  0  0  0  0  0  0
    1.7155    1.9309    0.2702 C   0  0  0  0  0  0  0  0  0  0  0  0
    3.8152   -0.2885    0.3186 C   0  0  0  0  0  0  0  0  0  0  0  0
   -1.2948   -1.3571   -0.2713 H   0  0  0  0  0  0  0  0  0  0  0  0
   -0.2695    0.5801    1.6346 H   0  0  0  0  0  0  0  0  0  0  0  0
    1.4331    0.1065   -0.8945 H   0  0  0  0  0  0  0  0  0  0  0  0
    2.1796   -1.3878    0.9881 H   0  0  0  0  0  0  0  0  0  0  0  0
    2.4636    0.0347    1.9961 H   0  0  0  0  0  0  0  0  0  0  0  0
    1.7973    2.2163    1.3239 H   0  0  0  0  0  0  0  0  0  0  0  0
    2.6707    2.1354   -0.2205 H   0  0  0  0  0  0  0  0  0  0  0  0
    0.9807    2.5928   -0.1906 H   0  0  0  0  0  0  0  0  0  0  0  0
    3.7604   -0.5803   -0.7348 H   0  0  0  0  0  0  0  0  0  0  0  0
    4.4825   -0.9858    0.8342 H   0  0  0  0  0  0  0  0  0  0  0  0
    4.2563    0.7095    0.3871 H   0  0  0  0  0  0  0  0  0  0  0  0
   -0.7215    1.4140   -1.6063 N   0  0  0  0  0  0  0  0  0  0  0  0
   -1.6005    2.0640   -2.5859 C   0  0  2  0  0  0  0  0  0  0  0  0
   -1.0639    1.8781   -4.0207 C   0  0  0  0  0  0  0  0  0  0  0  0
    0.0796    1.4725   -4.1997 O   0  0  0  0  0  0  0  0  0  0  0  0
   -1.7015    3.5543   -2.2427 C   0  0  0  0  0  0  0  0  0  0  0  0
    0.2199    1.1802   -1.9223 H   0  0  0  0  0  0  0  0  0  0  0  0
   -2.5972    1.6124   -2.5425 H   0  0  0  0  0  0  0  0  0  0  0  0
   -0.7119    4.0215   -2.2735 H   0  0  0  0  0  0  0  0  0  0  0  0
   -2.3527    4.0700   -2.9545 H   0  0  0  0  0  0  0  0  0  0  0  0
   -2.1180    3.6867   -1.2391 H   0  0  0  0  0  0  0  0  0  0  0  0
   -1.8643    2.1536   -5.1138 N   0  0  0  0  0  0  0  0  0  0  0  0
   -1.4179    1.9873   -6.4917 C   0  0  0  0  0  0  0  0  0  0  0  0
   -2.8103    2.4791   -4.9370 H   0  0  0  0  0  0  0  0  0  0  0  0
   -0.5575    2.6334   -6.6957 H   0  0  0  0  0  0  0  0  0  0  0  0
   -1.1299    0.9474   -6.6788 H   0  0  0  0  0  0  0  0  0  0  0  0
   -2.2216    2.2525   -7.1851 H   0  0  0  0  0  0  0  0  0  0  0  0
  1  2  2  0  0  0  0
  1  3  1  0  0  0  0
  1  7  1  0  0  0  0
  3  4  1  0  0  0  0
  3  5  1  0  0  0  0
  3  6  1  0  0  0  0
  7  8  1  0  0  0  0
  7 12  1  0  0  0  0
  8  9  1  0  0  0  0
  8 11  1  0  0  0  0
  8 13  1  0  0  0  0
  9 10  2  0  0  0  0
  9 17  1  0  0  0  0
 11 14  1  0  0  0  0
 11 15  1  0  0  0  0
 11 16  1  0  0  0  0
 17 18  1  0  0  0  0
 17 25  1  0  0  0  0
 18 19  1  0  0  0  0
 18 21  1  0  0  0  0
 18 26  1  0  0  0  0
 19 20  2  0  0  0  0
 19 36  1  0  0  0  0
 21 22  1  0  0  0  0
 21 23  1  0  0  0  0
 21 27  1  0  0  0  0
 22 24  1  0  0  0  0
 22 28  1  0  0  0  0
 22 29  1  0  0  0  0
 23 30  1  0  0  0  0
 23 31  1  0  0  0  0
 23 32  1  0  0  0  0
 24 33  1  0  0  0  0
 24 34  1  0  0  0  0
 24 35  1  0  0  0  0
 36 37  1  0  0  0  0
 36 41  1  0  0  0  0
 37 38  1  0  0  0  0
 37 40  1  0  0  0  0
 37 42  1  0  0  0  0
 38 39  2  0  0  0  0
 38 46  1  0  0  0  0
 40 43  1  0  0  0  0
 40 44  1  0  0  0  0
 40 45  1  0  0  0  0
 46 47  1  0  0  0  0
 46 48  1  0  0  0  0
 47 49  1  0  0  0  0
 47 50  1  0  0  0  0
 47 51  1  0  0  0  0
M  END
$$$$

  -OEChem-05262216503D

 51 50  0     1  0  0  0  0  0999 V2000
    1.5718   -4.3650    0.1449 C   0  0  0  0  0  0  0  0  0  0  0  0
    1.5197   -3.6929   -0.8741 O   0  0  0  0  0  0  0  0  0  0  0  0
    2.8902   -4.9647    0.5947 C   0  0  0  0  0  0  0  0  0  0  0  0
    3.6593   -4.7964   -0.1643 H   0  0  0  0  0  0  0  0  0  0  0  0
    3.2110   -4.4996    1.5304 H   0  0  0  0  0  0  0  0  0  0  0  0
    2.7785   -6.0406    0.7492 H   0  0  0  0  0  0  0  0  0  0  0  0
    0.4437   -4.5218    0.9244 N   0  0  0  0  0  0  0  0  0  0  0  0
   -0.7548   -3.7010    0.7103 C   0  0  2  0  0  0  0  0  0  0  0  0
   -0.5506   -2.2738    1.2588 C   0  0  0  0  0  0  0  0  0  0  0  0
   -0.1309   -2.1130    2.3993 O   0  0  0  0  0  0  0  0  0  0  0  0
   -1.9384   -4.3872    1.3960 C   0  0  0  0  0  0  0  0  0  0  0  0
    0.6069   -4.8627    1.8680 H   0  0  0  0  0  0  0  0  0  0  0  0
   -0.9710   -3.6350   -0.3614 H   0  0  0  0  0  0  0  0  0  0  0  0
   -1.7632   -4.4714    2.4735 H   0  0  0  0  0  0  0  0  0  0  0  0
   -2.8552   -3.8103    1.2388 H   0  0  0  0  0  0  0  0  0  0  0  0
   -2.0852   -5.3912    0.9859 H   0  0  0  0  0  0  0  0  0  0  0  0
   -0.9223   -1.1721    0.5152 N   0  0  0  0  0  0  0  0  0  0  0  0
   -0.2861    0.1633    0.5721 C   0  0  2  0  0  0  0  0  0  0  0  0
   -1.0969    1.0101   -0.4434 C   0  0  0  0  0  0  0  0  0  0  0  0
   -2.1073    1.5915   -0.0719 O   0  0  0  0  0  0  0  0  0  0  0  0
    1.2434    0.2446    0.1837 C   0  0  2  0  0  0  0  0  0  0  0  0
    2.2127   -0.5481    1.0984 C   0  0  0  0  0  0  0  0  0  0  0  0
    1.7119    1.7226    0.2091 C   0  0  0  0  0  0  0  0  0  0  0  0
    3.6360   -0.6567    0.5383 C   0  0  0  0  0  0  0  0  0  0  0  0
   -1.3420   -1.4106   -0.3793 H   0  0  0  0  0  0  0  0  0  0  0  0
   -0.4218    0.5855    1.5740 H   0  0  0  0  0  0  0  0  0  0  0  0
    1.3591   -0.1536   -0.8299 H   0  0  0  0  0  0  0  0  0  0  0  0
    1.8811   -1.5786    1.1779 H   0  0  0  0  0  0  0  0  0  0  0  0
    2.2279   -0.1179    2.1051 H   0  0  0  0  0  0  0  0  0  0  0  0
    1.6672    2.1153    1.2301 H   0  0  0  0  0  0  0  0  0  0  0  0
    2.7383    1.8158   -0.1536 H   0  0  0  0  0  0  0  0  0  0  0  0
    1.1008    2.3668   -0.4269 H   0  0  0  0  0  0  0  0  0  0  0  0
    3.6153   -1.0189   -0.4944 H   0  0  0  0  0  0  0  0  0  0  0  0
    4.2154   -1.3644    1.1390 H   0  0  0  0  0  0  0  0  0  0  0  0
    4.1517    0.3065    0.5672 H   0  0  0  0  0  0  0  0  0  0  0  0
   -0.7528    1.1009   -1.7815 N   0  0  0  0  0  0  0  0  0  0  0  0
   -1.5310    1.8126   -2.8040 C   0  0  2  0  0  0  0  0  0  0  0  0
   -1.4029    1.1412   -4.1867 C   0  0  0  0  0  0  0  0  0  0  0  0
   -0.5339    0.2993   -4.3832 O   0  0  0  0  0  0  0  0  0  0  0  0
   -1.0365    3.2611   -2.8591 C   0  0  0  0  0  0  0  0  0  0  0  0
    0.0175    0.5188   -2.1108 H   0  0  0  0  0  0  0  0  0  0  0  0
   -2.5930    1.8040   -2.5362 H   0  0  0  0  0  0  0  0  0  0  0  0
    0.0231    3.2938   -3.1324 H   0  0  0  0  0  0  0  0  0  0  0  0
   -1.6052    3.8343   -3.5973 H   0  0  0  0  0  0  0  0  0  0  0  0
   -1.1593    3.7402   -1.8826 H   0  0  0  0  0  0  0  0  0  0  0  0
   -2.2732    1.4696   -5.2099 N   0  0  0  0  0  0  0  0  0  0  0  0
   -2.2202    0.8586   -6.5326 C   0  0  0  0  0  0  0  0  0  0  0  0
   -2.9919    2.1605   -5.0148 H   0  0  0  0  0  0  0  0  0  0  0  0
   -1.2504    1.0495   -7.0041 H   0  0  0  0  0  0  0  0  0  0  0  0
   -2.3708   -0.2238   -6.4613 H   0  0  0  0  0  0  0  0  0  0  0  0
   -3.0036    1.2743   -7.1738 H   0  0  0  0  0  0  0  0  0  0  0  0
  1  2  2  0  0  0  0
  1  3  1  0  0  0  0
  1  7  1  0  0  0  0
  3  4  1  0  0  0  0
  3  5  1  0  0  0  0
  3  6  1  0  0  0  0
  7  8  1  0  0  0  0
  7 12  1  0  0  0  0
  8  9  1  0  0  0  0
  8 11  1  0  0  0  0
  8 13  1  0  0  0  0
  9 10  2  0  0  0  0
  9 17  1  0  0  0  0
 11 14  1  0  0  0  0
 11 15  1  0  0  0  0
 11 16  1  0  0  0  0
 17 18  1  0  0  0  0
 17 25  1  0  0  0  0
 18 19  1  0  0  0  0
 18 21  1  0  0  0  0
 18 26  1  0  0  0  0
 19 20  2  0  0  0  0
 19 36  1  0  0  0  0
 21 22  1  0  0  0  0
 21 23  1  0  0  0  0
 21 27  1  0  0  0  0
 22 24  1  0  0  0  0
 22 28  1  0  0  0  0
 22 29  1  0  0  0  0
 23 30  1  0  0  0  0
 23 31  1  0  0  0  0
 23 32  1  0  0  0  0
 24 33  1  0  0  0  0
 24 34  1  0  0  0  0
 24 35  1  0  0  0  0
 36 37  1  0  0  0  0
 36 41  1  0  0  0  0
 37 38  1  0  0  0  0
 37 40  1  0  0  0  0
 37 42  1  0  0  0  0
 38 39  2  0  0  0  0
 38 46  1  0  0  0  0
 40 43  1  0  0  0  0
 40 44  1  0  0  0  0
 40 45  1  0  0  0  0
 46 47  1  0  0  0  0
 46 48  1  0  0  0  0
 47 49  1  0  0  0  0
 47 50  1  0  0  0  0
 47 51  1  0  0  0  0
M  END
$$$$

  -OEChem-05262216503D

 51 50  0     1  0  0  0  0  0999 V2000
    1.5110   -3.4599   -0.7335 C   0  0  0  0  0  0  0  0  0  0  0  0
    1.3852   -2.4832   -1.4589 O   0  0  0  0  0  0  0  0  0  0  0  0
    2.8932   -4.0182   -0.4534 C   0  0  0  0  0  0  0  0  0  0  0  0
    3.6451   -3.4710   -1.0288 H   0  0  0  0  0  0  0  0  0  0  0  0
    3.1252   -3.9224    0.6102 H   0  0  0  0  0  0  0  0  0  0  0  0
    2.9334   -5.0732   -0.7354 H   0  0  0  0  0  0  0  0  0  0  0  0
    0.4115   -4.0247   -0.1170 N   0  0  0  0  0  0  0  0  0  0  0  0
   -0.9189   -3.4032   -0.1508 C   0  0  2  0  0  0  0  0  0  0  0  0
   -0.9433   -2.1053    0.6832 C   0  0  0  0  0  0  0  0  0  0  0  0
   -0.9048   -2.1351    1.9081 O   0  0  0  0  0  0  0  0  0  0  0  0
   -1.9452   -4.4200    0.3562 C   0  0  0  0  0  0  0  0  0  0  0  0
    0.6008   -4.6946    0.6226 H   0  0  0  0  0  0  0  0  0  0  0  0
   -1.1770   -3.1502   -1.1857 H   0  0  0  0  0  0  0  0  0  0  0  0
   -1.7232   -4.7141    1.3871 H   0  0  0  0  0  0  0  0  0  0  0  0
   -2.9500   -3.9867    0.3289 H   0  0  0  0  0  0  0  0  0  0  0  0
   -1.9369   -5.3146   -0.2736 H   0  0  0  0  0  0  0  0  0  0  0  0
   -0.9586   -0.9028    0.0159 N   0  0  0  0  0  0  0  0  0  0  0  0
   -0.3372    0.3697    0.4337 C   0  0  2  0  0  0  0  0  0  0  0  0
   -0.7219    1.3095   -0.7280 C   0  0  0  0  0  0  0  0  0  0  0  0
   -1.7098    2.0300   -0.6541 O   0  0  0  0  0  0  0  0  0  0  0  0
    1.2271    0.3964    0.6098 C   0  0  2  0  0  0  0  0  0  0  0  0
    1.7850   -0.5355    1.7132 C   0  0  0  0  0  0  0  0  0  0  0  0
    1.6854    1.8410    0.9200 C   0  0  0  0  0  0  0  0  0  0  0  0
    3.3110   -0.6774    1.6740 C   0  0  0  0  0  0  0  0  0  0  0  0
   -1.0839   -1.0126   -0.9965 H   0  0  0  0  0  0  0  0  0  0  0  0
   -0.8107    0.7203    1.3566 H   0  0  0  0  0  0  0  0  0  0  0  0
    1.6812    0.0785   -0.3340 H   0  0  0  0  0  0  0  0  0  0  0  0
    1.4106   -1.5442    1.5630 H   0  0  0  0  0  0  0  0  0  0  0  0
    1.4575   -0.1963    2.7014 H   0  0  0  0  0  0  0  0  0  0  0  0
    1.2706    2.1735    1.8770 H   0  0  0  0  0  0  0  0  0  0  0  0
    2.7745    1.9071    0.9729 H   0  0  0  0  0  0  0  0  0  0  0  0
    1.3666    2.5438    0.1456 H   0  0  0  0  0  0  0  0  0  0  0  0
    3.6475   -0.9345    0.6648 H   0  0  0  0  0  0  0  0  0  0  0  0
    3.6251   -1.4733    2.3558 H   0  0  0  0  0  0  0  0  0  0  0  0
    3.8045    0.2462    1.9879 H   0  0  0  0  0  0  0  0  0  0  0  0
   -0.0632    1.1864   -1.9401 N   0  0  0  0  0  0  0  0  0  0  0  0
   -0.8190    1.3671   -3.1855 C   0  0  2  0  0  0  0  0  0  0  0  0
   -1.8184    0.2077   -3.4203 C   0  0  0  0  0  0  0  0  0  0  0  0
   -1.6610   -0.8760   -2.8609 O   0  0  0  0  0  0  0  0  0  0  0  0
    0.1860    1.4497   -4.3356 C   0  0  0  0  0  0  0  0  0  0  0  0
    0.6127    0.4234   -1.9469 H   0  0  0  0  0  0  0  0  0  0  0  0
   -1.3817    2.3060   -3.1451 H   0  0  0  0  0  0  0  0  0  0  0  0
    0.7596    0.5200   -4.4114 H   0  0  0  0  0  0  0  0  0  0  0  0
   -0.3323    1.6171   -5.2847 H   0  0  0  0  0  0  0  0  0  0  0  0
    0.8826    2.2779   -4.1714 H   0  0  0  0  0  0  0  0  0  0  0  0
   -2.9066    0.3809   -4.2551 N   0  0  0  0  0  0  0  0  0  0  0  0
   -3.9359   -0.6350   -4.4391 C   0  0  0  0  0  0  0  0  0  0  0  0
   -3.0757    1.3174   -4.6105 H   0  0  0  0  0  0  0  0  0  0  0  0
   -3.4976   -1.5575   -4.8344 H   0  0  0  0  0  0  0  0  0  0  0  0
   -4.4282   -0.8574   -3.4864 H   0  0  0  0  0  0  0  0  0  0  0  0
   -4.6934   -0.2834   -5.1463 H   0  0  0  0  0  0  0  0  0  0  0  0
  1  2  2  0  0  0  0
  1  3  1  0  0  0  0
  1  7  1  0  0  0  0
  3  4  1  0  0  0  0
  3  5  1  0  0  0  0
  3  6  1  0  0  0  0
  7  8  1  0  0  0  0
  7 12  1  0  0  0  0
  8  9  1  0  0  0  0
  8 11  1  0  0  0  0
  8 13  1  0  0  0  0
  9 10  2  0  0  0  0
  9 17  1  0  0  0  0
 11 14  1  0  0  0  0
 11 15  1  0  0  0  0
 11 16  1  0  0  0  0
 17 18  1  0  0  0  0
 17 25  1  0  0  0  0
 18 19  1  0  0  0  0
 18 21  1  0  0  0  0
 18 26  1  0  0  0  0
 19 20  2  0  0  0  0
 19 36  1  0  0  0  0
 21 22  1  0  0  0  0
 21 23  1  0  0  0  0
 21 27  1  0  0  0  0
 22 24  1  0  0  0  0
 22 28  1  0  0  0  0
 22 29  1  0  0  0  0
 23 30  1  0  0  0  0
 23 31  1  0  0  0  0
 23 32  1  0  0  0  0
 24 33  1  0  0  0  0
 24 34  1  0  0  0  0
 24 35  1  0  0  0  0
 36 37  1  0  0  0  0
 36 41  1  0  0  0  0
 37 38  1  0  0  0  0
 37 40  1  0  0  0  0
 37 42  1  0  0  0  0
 38 39  2  0  0  0  0
 38 46  1  0  0  0  0
 40 43  1  0  0  0  0
 40 44  1  0  0  0  0
 40 45  1  0  0  0  0
 46 47  1  0  0  0  0
 46 48  1  0  0  0  0
 47 49  1  0  0  0  0
 47 50  1  0  0  0  0
 47 51  1  0  0  0  0
M  END
$$$$

  -OEChem-05262216503D

 51 50  0     1  0  0  0  0  0999 V2000
    1.2418   -3.2745   -1.0385 C   0  0  0  0  0  0  0  0  0  0  0  0
    0.8604   -2.3441   -1.7373 O   0  0  0  0  0  0  0  0  0  0  0  0
    2.6950   -3.7054   -1.0999 C   0  0  0  0  0  0  0  0  0  0  0  0
    3.2266   -3.1363   -1.8677 H   0  0  0  0  0  0  0  0  0  0  0  0
    3.1775   -3.5302   -0.1351 H   0  0  0  0  0  0  0  0  0  0  0  0
    2.7592   -4.7686   -1.3438 H   0  0  0  0  0  0  0  0  0  0  0  0
    0.3877   -3.9043   -0.1515 N   0  0  0  0  0  0  0  0  0  0  0  0
   -1.0028   -3.4919    0.1000 C   0  0  2  0  0  0  0  0  0  0  0  0
   -1.0649   -2.1339    0.8333 C   0  0  0  0  0  0  0  0  0  0  0  0
   -1.0842   -2.0468    2.0550 O   0  0  0  0  0  0  0  0  0  0  0  0
   -1.6936   -4.6088    0.8894 C   0  0  0  0  0  0  0  0  0  0  0  0
    0.8055   -4.5738    0.4882 H   0  0  0  0  0  0  0  0  0  0  0  0
   -1.5283   -3.3791   -0.8553 H   0  0  0  0  0  0  0  0  0  0  0  0
   -1.1926   -4.7727    1.8490 H   0  0  0  0  0  0  0  0  0  0  0  0
   -2.7369   -4.3419    1.0861 H   0  0  0  0  0  0  0  0  0  0  0  0
   -1.6768   -5.5432    0.3205 H   0  0  0  0  0  0  0  0  0  0  0  0
   -0.9845   -1.0096    0.0488 N   0  0  0  0  0  0  0  0  0  0  0  0
   -0.3574    0.2900    0.3544 C   0  0  2  0  0  0  0  0  0  0  0  0
   -0.6315    1.0849   -0.9378 C   0  0  0  0  0  0  0  0  0  0  0  0
   -1.4201    2.0221   -0.9545 O   0  0  0  0  0  0  0  0  0  0  0  0
    1.1942    0.3037    0.6043 C   0  0  2  0  0  0  0  0  0  0  0  0
    1.6634   -0.5145    1.8309 C   0  0  0  0  0  0  0  0  0  0  0  0
    1.6774    1.7632    0.7739 C   0  0  0  0  0  0  0  0  0  0  0  0
    3.1841   -0.6985    1.8941 C   0  0  0  0  0  0  0  0  0  0  0  0
   -1.0891   -1.2221   -0.9498 H   0  0  0  0  0  0  0  0  0  0  0  0
   -0.8733    0.7609    1.1978 H   0  0  0  0  0  0  0  0  0  0  0  0
    1.6835   -0.1223   -0.2774 H   0  0  0  0  0  0  0  0  0  0  0  0
    1.2631   -1.5232    1.7695 H   0  0  0  0  0  0  0  0  0  0  0  0
    1.2942   -0.0598    2.7560 H   0  0  0  0  0  0  0  0  0  0  0  0
    1.2070    2.2204    1.6504 H   0  0  0  0  0  0  0  0  0  0  0  0
    2.7616    1.8095    0.8986 H   0  0  0  0  0  0  0  0  0  0  0  0
    1.4369    2.3726   -0.1018 H   0  0  0  0  0  0  0  0  0  0  0  0
    3.5676   -1.0726    0.9400 H   0  0  0  0  0  0  0  0  0  0  0  0
    3.4360   -1.4221    2.6753 H   0  0  0  0  0  0  0  0  0  0  0  0
    3.6878    0.2415    2.1337 H   0  0  0  0  0  0  0  0  0  0  0  0
   -0.1247    0.5919   -2.1306 N   0  0  0  0  0  0  0  0  0  0  0  0
   -0.9076    0.7325   -3.3619 C   0  0  2  0  0  0  0  0  0  0  0  0
   -2.1491   -0.1903   -3.3493 C   0  0  0  0  0  0  0  0  0  0  0  0
   -2.1442   -1.2347   -2.7008 O   0  0  0  0  0  0  0  0  0  0  0  0
    0.0051    0.3836   -4.5381 C   0  0  0  0  0  0  0  0  0  0  0  0
    0.3678   -0.3001   -2.0250 H   0  0  0  0  0  0  0  0  0  0  0  0
   -1.2433    1.7689   -3.4735 H   0  0  0  0  0  0  0  0  0  0  0  0
    0.3560   -0.6507   -4.4565 H   0  0  0  0  0  0  0  0  0  0  0  0
   -0.5317    0.4953   -5.4851 H   0  0  0  0  0  0  0  0  0  0  0  0
    0.8749    1.0475   -4.5523 H   0  0  0  0  0  0  0  0  0  0  0  0
   -3.2818    0.1576   -4.0613 N   0  0  0  0  0  0  0  0  0  0  0  0
   -4.5238   -0.6026   -3.9953 C   0  0  0  0  0  0  0  0  0  0  0  0
   -3.3001    1.0855   -4.4744 H   0  0  0  0  0  0  0  0  0  0  0  0
   -4.3616   -1.6310   -4.3349 H   0  0  0  0  0  0  0  0  0  0  0  0
   -4.9043   -0.6251   -2.9685 H   0  0  0  0  0  0  0  0  0  0  0  0
   -5.2835   -0.1443   -4.6360 H   0  0  0  0  0  0  0  0  0  0  0  0
  1  2  2  0  0  0  0
  1  3  1  0  0  0  0
  1  7  1  0  0  0  0
  3  4  1  0  0  0  0
  3  5  1  0  0  0  0
  3  6  1  0  0  0  0
  7  8  1  0  0  0  0
  7 12  1  0  0  0  0
  8  9  1  0  0  0  0
  8 11  1  0  0  0  0
  8 13  1  0  0  0  0
  9 10  2  0  0  0  0
  9 17  1  0  0  0  0
 11 14  1  0  0  0  0
 11 15  1  0  0  0  0
 11 16  1  0  0  0  0
 17 18  1  0  0  0  0
 17 25  1  0  0  0  0
 18 19  1  0  0  0  0
 18 21  1  0  0  0  0
 18 26  1  0  0  0  0
 19 20  2  0  0  0  0
 19 36  1  0  0  0  0
 21 22  1  0  0  0  0
 21 23  1  0  0  0  0
 21 27  1  0  0  0  0
 22 24  1  0  0  0  0
 22 28  1  0  0  0  0
 22 29  1  0  0  0  0
 23 30  1  0  0  0  0
 23 31  1  0  0  0  0
 23 32  1  0  0  0  0
 24 33  1  0  0  0  0
 24 34  1  0  0  0  0
 24 35  1  0  0  0  0
 36 37  1  0  0  0  0
 36 41  1  0  0  0  0
 37 38  1  0  0  0  0
 37 40  1  0  0  0  0
 37 42  1  0  0  0  0
 38 39  2  0  0  0  0
 38 46  1  0  0  0  0
 40 43  1  0  0  0  0
 40 44  1  0  0  0  0
 40 45  1  0  0  0  0
 46 47  1  0  0  0  0
 46 48  1  0  0  0  0
 47 49  1  0  0  0  0
 47 50  1  0  0  0  0
 47 51  1  0  0  0  0
M  END
$$$$

  -OEChem-05262216503D

 51 50  0     1  0  0  0  0  0999 V2000
    1.1225   -3.4528   -1.0525 C   0  0  0  0  0  0  0  0  0  0  0  0
    0.6753   -2.5899   -1.7973 O   0  0  0  0  0  0  0  0  0  0  0  0
    2.5762   -3.8668   -1.1784 C   0  0  0  0  0  0  0  0  0  0  0  0
    3.0519   -3.3323   -2.0055 H   0  0  0  0  0  0  0  0  0  0  0  0
    3.1114   -3.6321   -0.2552 H   0  0  0  0  0  0  0  0  0  0  0  0
    2.6438   -4.9408   -1.3690 H   0  0  0  0  0  0  0  0  0  0  0  0
    0.3427   -4.0121   -0.0569 N   0  0  0  0  0  0  0  0  0  0  0  0
   -1.0311   -3.5878    0.2594 C   0  0  2  0  0  0  0  0  0  0  0  0
   -1.0517   -2.1829    0.9019 C   0  0  0  0  0  0  0  0  0  0  0  0
   -1.0778   -2.0118    2.1145 O   0  0  0  0  0  0  0  0  0  0  0  0
   -1.6601   -4.6539    1.1628 C   0  0  0  0  0  0  0  0  0  0  0  0
    0.8145   -4.6206    0.6058 H   0  0  0  0  0  0  0  0  0  0  0  0
   -1.6203   -3.5394   -0.6637 H   0  0  0  0  0  0  0  0  0  0  0  0
   -1.0954   -4.7544    2.0954 H   0  0  0  0  0  0  0  0  0  0  0  0
   -2.6900   -4.3776    1.4106 H   0  0  0  0  0  0  0  0  0  0  0  0
   -1.6745   -5.6232    0.6551 H   0  0  0  0  0  0  0  0  0  0  0  0
   -0.9581   -1.1164    0.0409 N   0  0  0  0  0  0  0  0  0  0  0  0
   -0.3737    0.2222    0.2556 C   0  0  2  0  0  0  0  0  0  0  0  0
   -0.6015    0.9290   -1.0994 C   0  0  0  0  0  0  0  0  0  0  0  0
   -1.2626    1.9585   -1.1612 O   0  0  0  0  0  0  0  0  0  0  0  0
    1.1747    0.2684    0.5238 C   0  0  2  0  0  0  0  0  0  0  0  0
    1.6374   -0.4541    1.8126 C   0  0  0  0  0  0  0  0  0  0  0  0
    1.6523    1.7389    0.5989 C   0  0  0  0  0  0  0  0  0  0  0  0
    3.1582   -0.6191    1.9095 C   0  0  0  0  0  0  0  0  0  0  0  0
   -1.1046   -1.3892   -0.9363 H   0  0  0  0  0  0  0  0  0  0  0  0
   -0.9141    0.7465    1.0506 H   0  0  0  0  0  0  0  0  0  0  0  0
    1.6734   -0.2159   -0.3229 H   0  0  0  0  0  0  0  0  0  0  0  0
    1.2518   -1.4700    1.8187 H   0  0  0  0  0  0  0  0  0  0  0  0
    1.2506    0.0609    2.6982 H   0  0  0  0  0  0  0  0  0  0  0  0
    1.1691    2.2529    1.4361 H   0  0  0  0  0  0  0  0  0  0  0  0
    2.7346    1.7976    0.7344 H   0  0  0  0  0  0  0  0  0  0  0  0
    1.4244    2.2880   -0.3187 H   0  0  0  0  0  0  0  0  0  0  0  0
    3.5574   -1.0563    0.9892 H   0  0  0  0  0  0  0  0  0  0  0  0
    3.4045   -1.2840    2.7429 H   0  0  0  0  0  0  0  0  0  0  0  0
    3.6511    0.3396    2.0901 H   0  0  0  0  0  0  0  0  0  0  0  0
   -0.3164    0.2399   -2.2697 N   0  0  0  0  0  0  0  0  0  0  0  0
   -1.2156    0.3345   -3.4227 C   0  0  2  0  0  0  0  0  0  0  0  0
   -2.5086   -0.4765   -3.1799 C   0  0  0  0  0  0  0  0  0  0  0  0
   -2.4744   -1.5095   -2.5149 O   0  0  0  0  0  0  0  0  0  0  0  0
   -0.4692   -0.2008   -4.6456 C   0  0  0  0  0  0  0  0  0  0  0  0
    0.1200   -0.6761   -2.1247 H   0  0  0  0  0  0  0  0  0  0  0  0
   -1.4832    1.3804   -3.6060 H   0  0  0  0  0  0  0  0  0  0  0  0
   -0.1875   -1.2481   -4.4936 H   0  0  0  0  0  0  0  0  0  0  0  0
   -1.1004   -0.1361   -5.5370 H   0  0  0  0  0  0  0  0  0  0  0  0
    0.4397    0.3829   -4.8209 H   0  0  0  0  0  0  0  0  0  0  0  0
   -3.7158   -0.0375   -3.6900 N   0  0  0  0  0  0  0  0  0  0  0  0
   -4.9871   -0.6750   -3.3698 C   0  0  0  0  0  0  0  0  0  0  0  0
   -3.7288    0.8910   -4.1023 H   0  0  0  0  0  0  0  0  0  0  0  0
   -4.9729   -1.7307   -3.6611 H   0  0  0  0  0  0  0  0  0  0  0  0
   -5.1875   -0.6084   -2.2951 H   0  0  0  0  0  0  0  0  0  0  0  0
   -5.8032   -0.1822   -3.9069 H   0  0  0  0  0  0  0  0  0  0  0  0
  1  2  2  0  0  0  0
  1  3  1  0  0  0  0
  1  7  1  0  0  0  0
  3  4  1  0  0  0  0
  3  5  1  0  0  0  0
  3  6  1  0  0  0  0
  7  8  1  0  0  0  0
  7 12  1  0  0  0  0
  8  9  1  0  0  0  0
  8 11  1  0  0  0  0
  8 13  1  0  0  0  0
  9 10  2  0  0  0  0
  9 17  1  0  0  0  0
 11 14  1  0  0  0  0
 11 15  1  0  0  0  0
 11 16  1  0  0  0  0
 17 18  1  0  0  0  0
 17 25  1  0  0  0  0
 18 19  1  0  0  0  0
 18 21  1  0  0  0  0
 18 26  1  0  0  0  0
 19 20  2  0  0  0  0
 19 36  1  0  0  0  0
 21 22  1  0  0  0  0
 21 23  1  0  0  0  0
 21 27  1  0  0  0  0
 22 24  1  0  0  0  0
 22 28  1  0  0  0  0
 22 29  1  0  0  0  0
 23 30  1  0  0  0  0
 23 31  1  0  0  0  0
 23 32  1  0  0  0  0
 24 33  1  0  0  0  0
 24 34  1  0  0  0  0
 24 35  1  0  0  0  0
 36 37  1  0  0  0  0
 36 41  1  0  0  0  0
 37 38  1  0  0  0  0
 37 40  1  0  0  0  0
 37 42  1  0  0  0  0
 38 39  2  0  0  0  0
 38 46  1  0  0  0  0
 40 43  1  0  0  0  0
 40 44  1  0  0  0  0
 40 45  1  0  0  0  0
 46 47  1  0  0  0  0
 46 48  1  0  0  0  0
 47 49  1  0  0  0  0
 47 50  1  0  0  0  0
 47 51  1  0  0  0  0
M  END
$$$$

  -OEChem-05262216503D

 51 50  0     1  0  0  0  0  0999 V2000
    0.8108   -3.7204   -1.1131 C   0  0  0  0  0  0  0  0  0  0  0  0
    0.3076   -2.8525   -1.8147 O   0  0  0  0  0  0  0  0  0  0  0  0
    2.1664   -4.2915   -1.4833 C   0  0  0  0  0  0  0  0  0  0  0  0
    2.4995   -3.8848   -2.4424 H   0  0  0  0  0  0  0  0  0  0  0  0
    2.9017   -4.0337   -0.7168 H   0  0  0  0  0  0  0  0  0  0  0  0
    2.1033   -5.3793   -1.5668 H   0  0  0  0  0  0  0  0  0  0  0  0
    0.1876   -4.1518    0.0428 N   0  0  0  0  0  0  0  0  0  0  0  0
   -1.0862   -3.6206    0.5549 C   0  0  2  0  0  0  0  0  0  0  0  0
   -0.9261   -2.1867    1.1101 C   0  0  0  0  0  0  0  0  0  0  0  0
   -0.8851   -1.9462    2.3101 O   0  0  0  0  0  0  0  0  0  0  0  0
   -1.6166   -4.6039    1.6044 C   0  0  0  0  0  0  0  0  0  0  0  0
    0.7083   -4.7927    0.6344 H   0  0  0  0  0  0  0  0  0  0  0  0
   -1.8168   -3.5769   -0.2612 H   0  0  0  0  0  0  0  0  0  0  0  0
   -0.9139   -4.6967    2.4387 H   0  0  0  0  0  0  0  0  0  0  0  0
   -2.5759   -4.2532    1.9985 H   0  0  0  0  0  0  0  0  0  0  0  0
   -1.7667   -5.5922    1.1595 H   0  0  0  0  0  0  0  0  0  0  0  0
   -0.8607   -1.1745    0.1817 N   0  0  0  0  0  0  0  0  0  0  0  0
   -0.3265    0.1999    0.2811 C   0  0  2  0  0  0  0  0  0  0  0  0
   -0.5718    0.8117   -1.1226 C   0  0  0  0  0  0  0  0  0  0  0  0
   -1.0890    1.9182   -1.2186 O   0  0  0  0  0  0  0  0  0  0  0  0
    1.2266    0.3086    0.5164 C   0  0  2  0  0  0  0  0  0  0  0  0
    1.7356   -0.3003    1.8458 C   0  0  0  0  0  0  0  0  0  0  0  0
    1.6712    1.7921    0.4769 C   0  0  0  0  0  0  0  0  0  0  0  0
    3.2628   -0.4158    1.9273 C   0  0  0  0  0  0  0  0  0  0  0  0
   -1.1370   -1.4871   -0.7537 H   0  0  0  0  0  0  0  0  0  0  0  0
   -0.8726    0.7658    1.0431 H   0  0  0  0  0  0  0  0  0  0  0  0
    1.7218   -0.2250   -0.3024 H   0  0  0  0  0  0  0  0  0  0  0  0
    1.3848   -1.3247    1.9293 H   0  0  0  0  0  0  0  0  0  0  0  0
    1.3457    0.2641    2.6994 H   0  0  0  0  0  0  0  0  0  0  0  0
    1.1532    2.3637    1.2538 H   0  0  0  0  0  0  0  0  0  0  0  0
    2.7471    1.8920    0.6341 H   0  0  0  0  0  0  0  0  0  0  0  0
    1.4594    2.2544   -0.4909 H   0  0  0  0  0  0  0  0  0  0  0  0
    3.6619   -0.8898    1.0253 H   0  0  0  0  0  0  0  0  0  0  0  0
    3.5400   -1.0282    2.7907 H   0  0  0  0  0  0  0  0  0  0  0  0
    3.7309    0.5641    2.0500 H   0  0  0  0  0  0  0  0  0  0  0  0
   -0.5659   -0.0097   -2.2420 N   0  0  0  0  0  0  0  0  0  0  0  0
   -1.5984    0.0935   -3.2775 C   0  0  2  0  0  0  0  0  0  0  0  0
   -2.8739   -0.6776   -2.8699 C   0  0  0  0  0  0  0  0  0  0  0  0
   -2.8084   -1.6147   -2.0777 O   0  0  0  0  0  0  0  0  0  0  0  0
   -1.0159   -0.4781   -4.5708 C   0  0  0  0  0  0  0  0  0  0  0  0
   -0.1944   -0.9513   -2.0828 H   0  0  0  0  0  0  0  0  0  0  0  0
   -1.8641    1.1420   -3.4480 H   0  0  0  0  0  0  0  0  0  0  0  0
   -0.7440   -1.5303   -4.4361 H   0  0  0  0  0  0  0  0  0  0  0  0
   -1.7457   -0.4081   -5.3829 H   0  0  0  0  0  0  0  0  0  0  0  0
   -0.1198    0.0791   -4.8608 H   0  0  0  0  0  0  0  0  0  0  0  0
   -4.1021   -0.3196   -3.3934 N   0  0  0  0  0  0  0  0  0  0  0  0
   -5.3546   -0.9363   -2.9738 C   0  0  0  0  0  0  0  0  0  0  0  0
   -4.1375    0.5228   -3.9601 H   0  0  0  0  0  0  0  0  0  0  0  0
   -5.3192   -2.0203   -3.1261 H   0  0  0  0  0  0  0  0  0  0  0  0
   -5.5435   -0.7352   -1.9139 H   0  0  0  0  0  0  0  0  0  0  0  0
   -6.1885   -0.5343   -3.5574 H   0  0  0  0  0  0  0  0  0  0  0  0
  1  2  2  0  0  0  0
  1  3  1  0  0  0  0
  1  7  1  0  0  0  0
  3  4  1  0  0  0  0
  3  5  1  0  0  0  0
  3  6  1  0  0  0  0
  7  8  1  0  0  0  0
  7 12  1  0  0  0  0
  8  9  1  0  0  0  0
  8 11  1  0  0  0  0
  8 13  1  0  0  0  0
  9 10  2  0  0  0  0
  9 17  1  0  0  0  0
 11 14  1  0  0  0  0
 11 15  1  0  0  0  0
 11 16  1  0  0  0  0
 17 18  1  0  0  0  0
 17 25  1  0  0  0  0
 18 19  1  0  0  0  0
 18 21  1  0  0  0  0
 18 26  1  0  0  0  0
 19 20  2  0  0  0  0
 19 36  1  0  0  0  0
 21 22  1  0  0  0  0
 21 23  1  0  0  0  0
 21 27  1  0  0  0  0
 22 24  1  0  0  0  0
 22 28  1  0  0  0  0
 22 29  1  0  0  0  0
 23 30  1  0  0  0  0
 23 31  1  0  0  0  0
 23 32  1  0  0  0  0
 24 33  1  0  0  0  0
 24 34  1  0  0  0  0
 24 35  1  0  0  0  0
 36 37  1  0  0  0  0
 36 41  1  0  0  0  0
 37 38  1  0  0  0  0
 37 40  1  0  0  0  0
 37 42  1  0  0  0  0
 38 39  2  0  0  0  0
 38 46  1  0  0  0  0
 40 43  1  0  0  0  0
 40 44  1  0  0  0  0
 40 45  1  0  0  0  0
 46 47  1  0  0  0  0
 46 48  1  0  0  0  0
 47 49  1  0  0  0  0
 47 50  1  0  0  0  0
 47 51  1  0  0  0  0
M  END
$$$$

  -OEChem-05262216503D

 51 50  0     1  0  0  0  0  0999 V2000
    0.7336   -4.0534   -0.9612 C   0  0  0  0  0  0  0  0  0  0  0  0
   -0.1603   -3.4619   -1.5542 O   0  0  0  0  0  0  0  0  0  0  0  0
    1.9961   -4.4563   -1.6991 C   0  0  0  0  0  0  0  0  0  0  0  0
    1.9035   -4.2211   -2.7632 H   0  0  0  0  0  0  0  0  0  0  0  0
    2.8561   -3.9171   -1.2939 H   0  0  0  0  0  0  0  0  0  0  0  0
    2.1652   -5.5307   -1.5917 H   0  0  0  0  0  0  0  0  0  0  0  0
    0.6204   -4.2960    0.3947 N   0  0  0  0  0  0  0  0  0  0  0  0
   -0.5802   -4.0264    1.2075 C   0  0  2  0  0  0  0  0  0  0  0  0
   -0.7874   -2.5197    1.5026 C   0  0  0  0  0  0  0  0  0  0  0  0
   -0.9010   -2.0821    2.6394 O   0  0  0  0  0  0  0  0  0  0  0  0
   -0.4626   -4.8660    2.4855 C   0  0  0  0  0  0  0  0  0  0  0  0
    1.4059   -4.7577    0.8458 H   0  0  0  0  0  0  0  0  0  0  0  0
   -1.4665   -4.3704    0.6631 H   0  0  0  0  0  0  0  0  0  0  0  0
    0.3981   -4.5439    3.0806 H   0  0  0  0  0  0  0  0  0  0  0  0
   -1.3647   -4.7549    3.0959 H   0  0  0  0  0  0  0  0  0  0  0  0
   -0.3439   -5.9255    2.2392 H   0  0  0  0  0  0  0  0  0  0  0  0
   -0.9901   -1.6839    0.4270 N   0  0  0  0  0  0  0  0  0  0  0  0
   -0.7654   -0.2254    0.3172 C   0  0  2  0  0  0  0  0  0  0  0  0
   -1.1797    0.1782   -1.1292 C   0  0  0  0  0  0  0  0  0  0  0  0
   -1.6292    1.2999   -1.3390 O   0  0  0  0  0  0  0  0  0  0  0  0
    0.7478    0.2105    0.4826 C   0  0  2  0  0  0  0  0  0  0  0  0
    1.3836   -0.0972    1.8649 C   0  0  0  0  0  0  0  0  0  0  0  0
    0.9223    1.7272    0.2184 C   0  0  0  0  0  0  0  0  0  0  0  0
    2.9064    0.0910    1.9140 C   0  0  0  0  0  0  0  0  0  0  0  0
   -0.9477   -2.2029   -0.4486 H   0  0  0  0  0  0  0  0  0  0  0  0
   -1.3936    0.3043    1.0412 H   0  0  0  0  0  0  0  0  0  0  0  0
    1.3266   -0.3347   -0.2708 H   0  0  0  0  0  0  0  0  0  0  0  0
    1.2450   -1.1462    2.1056 H   0  0  0  0  0  0  0  0  0  0  0  0
    0.8990    0.4975    2.6465 H   0  0  0  0  0  0  0  0  0  0  0  0
    0.2305    2.3034    0.8411 H   0  0  0  0  0  0  0  0  0  0  0  0
    1.9371    2.0664    0.4312 H   0  0  0  0  0  0  0  0  0  0  0  0
    0.7392    1.9729   -0.8307 H   0  0  0  0  0  0  0  0  0  0  0  0
    3.3833   -0.3933    1.0565 H   0  0  0  0  0  0  0  0  0  0  0  0
    3.3029   -0.3595    2.8292 H   0  0  0  0  0  0  0  0  0  0  0  0
    3.1805    1.1490    1.9221 H   0  0  0  0  0  0  0  0  0  0  0  0
   -1.3570   -0.7584   -2.1412 N   0  0  0  0  0  0  0  0  0  0  0  0
   -1.8944   -0.4560   -3.4771 C   0  0  2  0  0  0  0  0  0  0  0  0
   -3.4413   -0.3837   -3.4965 C   0  0  0  0  0  0  0  0  0  0  0  0
   -4.1127   -1.0817   -4.2476 O   0  0  0  0  0  0  0  0  0  0  0  0
   -1.3365   -1.5193   -4.4316 C   0  0  0  0  0  0  0  0  0  0  0  0
   -0.9954   -1.7004   -1.9888 H   0  0  0  0  0  0  0  0  0  0  0  0
   -1.5240    0.5194   -3.8093 H   0  0  0  0  0  0  0  0  0  0  0  0
   -1.6936   -2.5152   -4.1489 H   0  0  0  0  0  0  0  0  0  0  0  0
   -1.6587   -1.3143   -5.4575 H   0  0  0  0  0  0  0  0  0  0  0  0
   -0.2425   -1.5199   -4.4066 H   0  0  0  0  0  0  0  0  0  0  0  0
   -4.0829    0.5036   -2.6559 N   0  0  0  0  0  0  0  0  0  0  0  0
   -5.5281    0.6627   -2.5793 C   0  0  0  0  0  0  0  0  0  0  0  0
   -3.4792    1.0619   -2.0466 H   0  0  0  0  0  0  0  0  0  0  0  0
   -5.9290    0.9869   -3.5452 H   0  0  0  0  0  0  0  0  0  0  0  0
   -6.0033   -0.2830   -2.2989 H   0  0  0  0  0  0  0  0  0  0  0  0
   -5.7845    1.4153   -1.8274 H   0  0  0  0  0  0  0  0  0  0  0  0
  1  2  2  0  0  0  0
  1  3  1  0  0  0  0
  1  7  1  0  0  0  0
  3  4  1  0  0  0  0
  3  5  1  0  0  0  0
  3  6  1  0  0  0  0
  7  8  1  0  0  0  0
  7 12  1  0  0  0  0
  8  9  1  0  0  0  0
  8 11  1  0  0  0  0
  8 13  1  0  0  0  0
  9 10  2  0  0  0  0
  9 17  1  0  0  0  0
 11 14  1  0  0  0  0
 11 15  1  0  0  0  0
 11 16  1  0  0  0  0
 17 18  1  0  0  0  0
 17 25  1  0  0  0  0
 18 19  1  0  0  0  0
 18 21  1  0  0  0  0
 18 26  1  0  0  0  0
 19 20  2  0  0  0  0
 19 36  1  0  0  0  0
 21 22  1  0  0  0  0
 21 23  1  0  0  0  0
 21 27  1  0  0  0  0
 22 24  1  0  0  0  0
 22 28  1  0  0  0  0
 22 29  1  0  0  0  0
 23 30  1  0  0  0  0
 23 31  1  0  0  0  0
 23 32  1  0  0  0  0
 24 33  1  0  0  0  0
 24 34  1  0  0  0  0
 24 35  1  0  0  0  0
 36 37  1  0  0  0  0
 36 41  1  0  0  0  0
 37 38  1  0  0  0  0
 37 40  1  0  0  0  0
 37 42  1  0  0  0  0
 38 39  2  0  0  0  0
 38 46  1  0  0  0  0
 40 43  1  0  0  0  0
 40 44  1  0  0  0  0
 40 45  1  0  0  0  0
 46 47  1  0  0  0  0
 46 48  1  0  0  0  0
 47 49  1  0  0  0  0
 47 50  1  0  0  0  0
 47 51  1  0  0  0  0
M  END
$$$$

  -OEChem-05262216503D

 51 50  0     1  0  0  0  0  0999 V2000
    0.5648   -3.9393   -0.5721 C   0  0  0  0  0  0  0  0  0  0  0  0
   -0.3464   -3.3656   -1.1510 O   0  0  0  0  0  0  0  0  0  0  0  0
    1.8315   -4.3126   -1.3180 C   0  0  0  0  0  0  0  0  0  0  0  0
    1.7384   -4.0486   -2.3754 H   0  0  0  0  0  0  0  0  0  0  0  0
    2.6856   -3.7773   -0.8956 H   0  0  0  0  0  0  0  0  0  0  0  0
    2.0091   -5.3879   -1.2393 H   0  0  0  0  0  0  0  0  0  0  0  0
    0.4679   -4.1712    0.7851 N   0  0  0  0  0  0  0  0  0  0  0  0
   -0.6835   -3.7732    1.6112 C   0  0  2  0  0  0  0  0  0  0  0  0
   -0.7172   -2.2462    1.8587 C   0  0  0  0  0  0  0  0  0  0  0  0
   -0.5695   -1.7615    2.9734 O   0  0  0  0  0  0  0  0  0  0  0  0
   -0.6229   -4.5843    2.9110 C   0  0  0  0  0  0  0  0  0  0  0  0
    1.2813   -4.5666    1.2488 H   0  0  0  0  0  0  0  0  0  0  0  0
   -1.6128   -4.0392    1.0953 H   0  0  0  0  0  0  0  0  0  0  0  0
    0.2902   -4.3527    3.4692 H   0  0  0  0  0  0  0  0  0  0  0  0
   -1.4841   -4.3475    3.5444 H   0  0  0  0  0  0  0  0  0  0  0  0
   -0.6397   -5.6566    2.6936 H   0  0  0  0  0  0  0  0  0  0  0  0
   -0.9786   -1.4094    0.7951 N   0  0  0  0  0  0  0  0  0  0  0  0
   -0.4123   -0.0552    0.5733 C   0  0  2  0  0  0  0  0  0  0  0  0
   -1.0384    0.4686   -0.7591 C   0  0  0  0  0  0  0  0  0  0  0  0
   -0.9652    1.6496   -1.0772 O   0  0  0  0  0  0  0  0  0  0  0  0
    1.1694   -0.0635    0.3991 C   0  0  2  0  0  0  0  0  0  0  0  0
    1.9880   -0.5544    1.6286 C   0  0  0  0  0  0  0  0  0  0  0  0
    1.7096    1.3405    0.0265 C   0  0  0  0  0  0  0  0  0  0  0  0
    3.4770   -0.7996    1.3440 C   0  0  0  0  0  0  0  0  0  0  0  0
   -1.0405   -1.9655   -0.0618 H   0  0  0  0  0  0  0  0  0  0  0  0
   -0.6999    0.6106    1.3934 H   0  0  0  0  0  0  0  0  0  0  0  0
    1.3956   -0.7414   -0.4309 H   0  0  0  0  0  0  0  0  0  0  0  0
    1.6308   -1.5249    1.9536 H   0  0  0  0  0  0  0  0  0  0  0  0
    1.8696    0.1450    2.4626 H   0  0  0  0  0  0  0  0  0  0  0  0
    1.2772    2.1021    0.6833 H   0  0  0  0  0  0  0  0  0  0  0  0
    2.7950    1.4064    0.1027 H   0  0  0  0  0  0  0  0  0  0  0  0
    1.4720    1.5877   -1.0109 H   0  0  0  0  0  0  0  0  0  0  0  0
    3.6038   -1.3587    0.4120 H   0  0  0  0  0  0  0  0  0  0  0  0
    3.9151   -1.3840    2.1591 H   0  0  0  0  0  0  0  0  0  0  0  0
    4.0350    0.1378    1.2758 H   0  0  0  0  0  0  0  0  0  0  0  0
   -1.9337   -0.3045   -1.4828 N   0  0  0  0  0  0  0  0  0  0  0  0
   -2.8126    0.1858   -2.5512 C   0  0  2  0  0  0  0  0  0  0  0  0
   -4.1713   -0.5462   -2.5358 C   0  0  0  0  0  0  0  0  0  0  0  0
   -4.3218   -1.5610   -1.8630 O   0  0  0  0  0  0  0  0  0  0  0  0
   -2.0956   -0.0252   -3.8872 C   0  0  0  0  0  0  0  0  0  0  0  0
   -2.1989   -1.1990   -1.0738 H   0  0  0  0  0  0  0  0  0  0  0  0
   -3.0188    1.2523   -2.4130 H   0  0  0  0  0  0  0  0  0  0  0  0
   -1.8845   -1.0882   -4.0429 H   0  0  0  0  0  0  0  0  0  0  0  0
   -2.7113    0.3343   -4.7168 H   0  0  0  0  0  0  0  0  0  0  0  0
   -1.1483    0.5232   -3.8971 H   0  0  0  0  0  0  0  0  0  0  0  0
   -5.2378   -0.0577   -3.2682 N   0  0  0  0  0  0  0  0  0  0  0  0
   -6.5560   -0.6802   -3.2745 C   0  0  0  0  0  0  0  0  0  0  0  0
   -5.0954    0.8018   -3.7905 H   0  0  0  0  0  0  0  0  0  0  0  0
   -6.4944   -1.7052   -3.6553 H   0  0  0  0  0  0  0  0  0  0  0  0
   -6.9725   -0.7050   -2.2620 H   0  0  0  0  0  0  0  0  0  0  0  0
   -7.2387   -0.1144   -3.9156 H   0  0  0  0  0  0  0  0  0  0  0  0
  1  2  2  0  0  0  0
  1  3  1  0  0  0  0
  1  7  1  0  0  0  0
  3  4  1  0  0  0  0
  3  5  1  0  0  0  0
  3  6  1  0  0  0  0
  7  8  1  0  0  0  0
  7 12  1  0  0  0  0
  8  9  1  0  0  0  0
  8 11  1  0  0  0  0
  8 13  1  0  0  0  0
  9 10  2  0  0  0  0
  9 17  1  0  0  0  0
 11 14  1  0  0  0  0
 11 15  1  0  0  0  0
 11 16  1  0  0  0  0
 17 18  1  0  0  0  0
 17 25  1  0  0  0  0
 18 19  1  0  0  0  0
 18 21  1  0  0  0  0
 18 26  1  0  0  0  0
 19 20  2  0  0  0  0
 19 36  1  0  0  0  0
 21 22  1  0  0  0  0
 21 23  1  0  0  0  0
 21 27  1  0  0  0  0
 22 24  1  0  0  0  0
 22 28  1  0  0  0  0
 22 29  1  0  0  0  0
 23 30  1  0  0  0  0
 23 31  1  0  0  0  0
 23 32  1  0  0  0  0
 24 33  1  0  0  0  0
 24 34  1  0  0  0  0
 24 35  1  0  0  0  0
 36 37  1  0  0  0  0
 36 41  1  0  0  0  0
 37 38  1  0  0  0  0
 37 40  1  0  0  0  0
 37 42  1  0  0  0  0
 38 39  2  0  0  0  0
 38 46  1  0  0  0  0
 40 43  1  0  0  0  0
 40 44  1  0  0  0  0
 40 45  1  0  0  0  0
 46 47  1  0  0  0  0
 46 48  1  0  0  0  0
 47 49  1  0  0  0  0
 47 50  1  0  0  0  0
 47 51  1  0  0  0  0
M  END
$$$$

  -OEChem-05262216503D

 51 50  0     1  0  0  0  0  0999 V2000
    0.2851   -3.9936   -0.6263 C   0  0  0  0  0  0  0  0  0  0  0  0
   -0.6800   -3.3811   -1.0582 O   0  0  0  0  0  0  0  0  0  0  0  0
    1.3751   -4.4688   -1.5677 C   0  0  0  0  0  0  0  0  0  0  0  0
    1.0886   -4.2748   -2.6053 H   0  0  0  0  0  0  0  0  0  0  0  0
    2.3082   -3.9408   -1.3557 H   0  0  0  0  0  0  0  0  0  0  0  0
    1.5356   -5.5426   -1.4433 H   0  0  0  0  0  0  0  0  0  0  0  0
    0.4073   -4.1955    0.7335 N   0  0  0  0  0  0  0  0  0  0  0  0
   -0.5907   -3.7687    1.7277 C   0  0  2  0  0  0  0  0  0  0  0  0
   -0.5525   -2.2421    1.9808 C   0  0  0  0  0  0  0  0  0  0  0  0
   -0.3191   -1.7712    3.0867 O   0  0  0  0  0  0  0  0  0  0  0  0
   -0.3473   -4.5877    3.0015 C   0  0  0  0  0  0  0  0  0  0  0  0
    1.2513   -4.6558    1.0625 H   0  0  0  0  0  0  0  0  0  0  0  0
   -1.5950   -4.0100    1.3624 H   0  0  0  0  0  0  0  0  0  0  0  0
    0.6449   -4.3760    3.4131 H   0  0  0  0  0  0  0  0  0  0  0  0
   -1.0956   -4.3384    3.7609 H   0  0  0  0  0  0  0  0  0  0  0  0
   -0.4184   -5.6584    2.7877 H   0  0  0  0  0  0  0  0  0  0  0  0
   -0.8914   -1.3852    0.9552 N   0  0  0  0  0  0  0  0  0  0  0  0
   -0.3461   -0.0257    0.7083 C   0  0  2  0  0  0  0  0  0  0  0  0
   -1.1055    0.4682   -0.5719 C   0  0  0  0  0  0  0  0  0  0  0  0
   -0.8453    1.5076   -1.1641 O   0  0  0  0  0  0  0  0  0  0  0  0
    1.2222   -0.0095    0.4348 C   0  0  2  0  0  0  0  0  0  0  0  0
    2.1206   -0.5016    1.6070 C   0  0  0  0  0  0  0  0  0  0  0  0
    1.7085    1.4234    0.0867 C   0  0  0  0  0  0  0  0  0  0  0  0
    3.5937   -0.7246    1.2280 C   0  0  0  0  0  0  0  0  0  0  0  0
   -1.0641   -1.9170    0.0955 H   0  0  0  0  0  0  0  0  0  0  0  0
   -0.5876    0.6322    1.5491 H   0  0  0  0  0  0  0  0  0  0  0  0
    1.4141   -0.6604   -0.4248 H   0  0  0  0  0  0  0  0  0  0  0  0
    1.7956   -1.4812    1.9388 H   0  0  0  0  0  0  0  0  0  0  0  0
    2.0438    0.1846    2.4568 H   0  0  0  0  0  0  0  0  0  0  0  0
    1.1542    2.1666    0.6686 H   0  0  0  0  0  0  0  0  0  0  0  0
    2.7681    1.5793    0.2855 H   0  0  0  0  0  0  0  0  0  0  0  0
    1.5701    1.6289   -0.9780 H   0  0  0  0  0  0  0  0  0  0  0  0
    3.6686   -1.2889    0.2936 H   0  0  0  0  0  0  0  0  0  0  0  0
    4.0915   -1.2973    2.0165 H   0  0  0  0  0  0  0  0  0  0  0  0
    4.1365    0.2166    1.1163 H   0  0  0  0  0  0  0  0  0  0  0  0
   -2.2447   -0.1945   -1.0012 N   0  0  0  0  0  0  0  0  0  0  0  0
   -3.1115    0.2124   -2.1132 C   0  0  2  0  0  0  0  0  0  0  0  0
   -4.5465   -0.3272   -1.9355 C   0  0  0  0  0  0  0  0  0  0  0  0
   -4.7947   -1.1592   -1.0688 O   0  0  0  0  0  0  0  0  0  0  0  0
   -2.4972   -0.3108   -3.4162 C   0  0  0  0  0  0  0  0  0  0  0  0
   -2.6052   -0.9276   -0.3904 H   0  0  0  0  0  0  0  0  0  0  0  0
   -3.1751    1.3049   -2.1523 H   0  0  0  0  0  0  0  0  0  0  0  0
   -2.4202   -1.4029   -3.3895 H   0  0  0  0  0  0  0  0  0  0  0  0
   -3.1108   -0.0240   -4.2751 H   0  0  0  0  0  0  0  0  0  0  0  0
   -1.4942    0.1048   -3.5567 H   0  0  0  0  0  0  0  0  0  0  0  0
   -5.5714    0.1329   -2.7421 N   0  0  0  0  0  0  0  0  0  0  0  0
   -6.9518   -0.3200   -2.6193 C   0  0  0  0  0  0  0  0  0  0  0  0
   -5.3425    0.8382   -3.4362 H   0  0  0  0  0  0  0  0  0  0  0  0
   -7.0140   -1.4036   -2.7655 H   0  0  0  0  0  0  0  0  0  0  0  0
   -7.3484   -0.0748   -1.6284 H   0  0  0  0  0  0  0  0  0  0  0  0
   -7.5790    0.1661   -3.3728 H   0  0  0  0  0  0  0  0  0  0  0  0
  1  2  2  0  0  0  0
  1  3  1  0  0  0  0
  1  7  1  0  0  0  0
  3  4  1  0  0  0  0
  3  5  1  0  0  0  0
  3  6  1  0  0  0  0
  7  8  1  0  0  0  0
  7 12  1  0  0  0  0
  8  9  1  0  0  0  0
  8 11  1  0  0  0  0
  8 13  1  0  0  0  0
  9 10  2  0  0  0  0
  9 17  1  0  0  0  0
 11 14  1  0  0  0  0
 11 15  1  0  0  0  0
 11 16  1  0  0  0  0
 17 18  1  0  0  0  0
 17 25  1  0  0  0  0
 18 19  1  0  0  0  0
 18 21  1  0  0  0  0
 18 26  1  0  0  0  0
 19 20  2  0  0  0  0
 19 36  1  0  0  0  0
 21 22  1  0  0  0  0
 21 23  1  0  0  0  0
 21 27  1  0  0  0  0
 22 24  1  0  0  0  0
 22 28  1  0  0  0  0
 22 29  1  0  0  0  0
 23 30  1  0  0  0  0
 23 31  1  0  0  0  0
 23 32  1  0  0  0  0
 24 33  1  0  0  0  0
 24 34  1  0  0  0  0
 24 35  1  0  0  0  0
 36 37  1  0  0  0  0
 36 41  1  0  0  0  0
 37 38  1  0  0  0  0
 37 40  1  0  0  0  0
 37 42  1  0  0  0  0
 38 39  2  0  0  0  0
 38 46  1  0  0  0  0
 40 43  1  0  0  0  0
 40 44  1  0  0  0  0
 40 45  1  0  0  0  0
 46 47  1  0  0  0  0
 46 48  1  0  0  0  0
 47 49  1  0  0  0  0
 47 50  1  0  0  0  0
 47 51  1  0  0  0  0
M  END
$$$$

  -OEChem-05262216503D

 51 50  0     1  0  0  0  0  0999 V2000
    1.9760   -4.6311    0.4957 C   0  0  0  0  0  0  0  0  0  0  0  0
    1.9127   -4.1732   -0.6351 O   0  0  0  0  0  0  0  0  0  0  0  0
    3.3113   -5.0701    1.0656 C   0  0  0  0  0  0  0  0  0  0  0  0
    4.0831   -5.0288    0.2921 H   0  0  0  0  0  0  0  0  0  0  0  0
    3.5994   -4.4094    1.8870 H   0  0  0  0  0  0  0  0  0  0  0  0
    3.2414   -6.0948    1.4380 H   0  0  0  0  0  0  0  0  0  0  0  0
    0.8414   -4.6930    1.2792 N   0  0  0  0  0  0  0  0  0  0  0  0
   -0.3933   -3.9903    0.9073 C   0  0  2  0  0  0  0  0  0  0  0  0
   -0.3269   -2.5026    1.3067 C   0  0  0  0  0  0  0  0  0  0  0  0
    0.0760   -2.1812    2.4185 O   0  0  0  0  0  0  0  0  0  0  0  0
   -1.5688   -4.6883    1.5947 C   0  0  0  0  0  0  0  0  0  0  0  0
    1.0022   -4.8472    2.2715 H   0  0  0  0  0  0  0  0  0  0  0  0
   -0.5460   -4.0518   -0.1754 H   0  0  0  0  0  0  0  0  0  0  0  0
   -1.4606   -4.6434    2.6834 H   0  0  0  0  0  0  0  0  0  0  0  0
   -2.5118   -4.2052    1.3200 H   0  0  0  0  0  0  0  0  0  0  0  0
   -1.6163   -5.7387    1.2909 H   0  0  0  0  0  0  0  0  0  0  0  0
   -0.8569   -1.5262    0.4893 N   0  0  0  0  0  0  0  0  0  0  0  0
   -0.3625   -0.1294    0.3737 C   0  0  2  0  0  0  0  0  0  0  0  0
   -1.3424    0.5085   -0.6711 C   0  0  0  0  0  0  0  0  0  0  0  0
   -1.0458    1.3652   -1.4925 O   0  0  0  0  0  0  0  0  0  0  0  0
    1.1392    0.0124   -0.1217 C   0  0  2  0  0  0  0  0  0  0  0  0
    2.2265   -0.6045    0.8033 C   0  0  0  0  0  0  0  0  0  0  0  0
    1.5010    1.5199   -0.2592 C   0  0  0  0  0  0  0  0  0  0  0  0
    3.6190   -0.6764    0.1562 C   0  0  0  0  0  0  0  0  0  0  0  0
   -1.2107   -1.9078   -0.3853 H   0  0  0  0  0  0  0  0  0  0  0  0
   -0.4782    0.3815    1.3351 H   0  0  0  0  0  0  0  0  0  0  0  0
    1.2208   -0.4698   -1.1022 H   0  0  0  0  0  0  0  0  0  0  0  0
    1.9892   -1.6397    1.0229 H   0  0  0  0  0  0  0  0  0  0  0  0
    2.2714   -0.0596    1.7522 H   0  0  0  0  0  0  0  0  0  0  0  0
    0.8390    2.1366    0.3566 H   0  0  0  0  0  0  0  0  0  0  0  0
    2.5207    1.7515    0.0512 H   0  0  0  0  0  0  0  0  0  0  0  0
    1.4050    1.8376   -1.3016 H   0  0  0  0  0  0  0  0  0  0  0  0
    3.5582   -1.1732   -0.8173 H   0  0  0  0  0  0  0  0  0  0  0  0
    4.2905   -1.2578    0.7951 H   0  0  0  0  0  0  0  0  0  0  0  0
    4.0653    0.3104    0.0167 H   0  0  0  0  0  0  0  0  0  0  0  0
   -2.6417    0.0316   -0.7396 N   0  0  0  0  0  0  0  0  0  0  0  0
   -3.7066    0.5679   -1.5971 C   0  0  2  0  0  0  0  0  0  0  0  0
   -5.0965    0.3031   -0.9824 C   0  0  0  0  0  0  0  0  0  0  0  0
   -5.2200   -0.5131   -0.0748 O   0  0  0  0  0  0  0  0  0  0  0  0
   -3.6023   -0.0841   -2.9800 C   0  0  0  0  0  0  0  0  0  0  0  0
   -2.9411   -0.5685    0.0303 H   0  0  0  0  0  0  0  0  0  0  0  0
   -3.5900    1.6524   -1.6959 H   0  0  0  0  0  0  0  0  0  0  0  0
   -3.7201   -1.1695   -2.9006 H   0  0  0  0  0  0  0  0  0  0  0  0
   -4.3780    0.3031   -3.6475 H   0  0  0  0  0  0  0  0  0  0  0  0
   -2.6266    0.1283   -3.4283 H   0  0  0  0  0  0  0  0  0  0  0  0
   -6.2096    0.9840   -1.4393 N   0  0  0  0  0  0  0  0  0  0  0  0
   -7.5461    0.7906   -0.8897 C   0  0  0  0  0  0  0  0  0  0  0  0
   -6.0752    1.6637   -2.1825 H   0  0  0  0  0  0  0  0  0  0  0  0
   -7.8743   -0.2438   -1.0366 H   0  0  0  0  0  0  0  0  0  0  0  0
   -7.5562    1.0148    0.1823 H   0  0  0  0  0  0  0  0  0  0  0  0
   -8.2599    1.4540   -1.3876 H   0  0  0  0  0  0  0  0  0  0  0  0
  1  2  2  0  0  0  0
  1  3  1  0  0  0  0
  1  7  1  0  0  0  0
  3  4  1  0  0  0  0
  3  5  1  0  0  0  0
  3  6  1  0  0  0  0
  7  8  1  0  0  0  0
  7 12  1  0  0  0  0
  8  9  1  0  0  0  0
  8 11  1  0  0  0  0
  8 13  1  0  0  0  0
  9 10  2  0  0  0  0
  9 17  1  0  0  0  0
 11 14  1  0  0  0  0
 11 15  1  0  0  0  0
 11 16  1  0  0  0  0
 17 18  1  0  0  0  0
 17 25  1  0  0  0  0
 18 19  1  0  0  0  0
 18 21  1  0  0  0  0
 18 26  1  0  0  0  0
 19 20  2  0  0  0  0
 19 36  1  0  0  0  0
 21 22  1  0  0  0  0
 21 23  1  0  0  0  0
 21 27  1  0  0  0  0
 22 24  1  0  0  0  0
 22 28  1  0  0  0  0
 22 29  1  0  0  0  0
 23 30  1  0  0  0  0
 23 31  1  0  0  0  0
 23 32  1  0  0  0  0
 24 33  1  0  0  0  0
 24 34  1  0  0  0  0
 24 35  1  0  0  0  0
 36 37  1  0  0  0  0
 36 41  1  0  0  0  0
 37 38  1  0  0  0  0
 37 40  1  0  0  0  0
 37 42  1  0  0  0  0
 38 39  2  0  0  0  0
 38 46  1  0  0  0  0
 40 43  1  0  0  0  0
 40 44  1  0  0  0  0
 40 45  1  0  0  0  0
 46 47  1  0  0  0  0
 46 48  1  0  0  0  0
 47 49  1  0  0  0  0
 47 50  1  0  0  0  0
 47 51  1  0  0  0  0
M  END
$$$$

  -OEChem-05262216503D

 51 50  0     1  0  0  0  0  0999 V2000
    1.9975   -4.7094    0.4672 C   0  0  0  0  0  0  0  0  0  0  0  0
    1.9627   -4.2591   -0.6674 O   0  0  0  0  0  0  0  0  0  0  0  0
    3.3129   -5.1743    1.0617 C   0  0  0  0  0  0  0  0  0  0  0  0
    4.0975   -5.1585    0.3003 H   0  0  0  0  0  0  0  0  0  0  0  0
    3.6044   -4.5136    1.8818 H   0  0  0  0  0  0  0  0  0  0  0  0
    3.2122   -6.1937    1.4415 H   0  0  0  0  0  0  0  0  0  0  0  0
    0.8493   -4.7472    1.2317 N   0  0  0  0  0  0  0  0  0  0  0  0
   -0.3629   -4.0140    0.8444 C   0  0  2  0  0  0  0  0  0  0  0  0
   -0.2823   -2.5365    1.2782 C   0  0  0  0  0  0  0  0  0  0  0  0
    0.1748   -2.2422    2.3770 O   0  0  0  0  0  0  0  0  0  0  0  0
   -1.5652   -4.7045    1.4915 C   0  0  0  0  0  0  0  0  0  0  0  0
    0.9945   -4.8963    2.2270 H   0  0  0  0  0  0  0  0  0  0  0  0
   -0.4916   -4.0490   -0.2427 H   0  0  0  0  0  0  0  0  0  0  0  0
   -1.4776   -4.6864    2.5828 H   0  0  0  0  0  0  0  0  0  0  0  0
   -2.4934   -4.1973    1.2100 H   0  0  0  0  0  0  0  0  0  0  0  0
   -1.6266   -5.7466    1.1627 H   0  0  0  0  0  0  0  0  0  0  0  0
   -0.8532   -1.5404    0.5134 N   0  0  0  0  0  0  0  0  0  0  0  0
   -0.3688   -0.1413    0.4291 C   0  0  2  0  0  0  0  0  0  0  0  0
   -1.4039    0.4936   -0.5552 C   0  0  0  0  0  0  0  0  0  0  0  0
   -1.1174    0.9827   -1.6411 O   0  0  0  0  0  0  0  0  0  0  0  0
    1.0993    0.0664   -0.1210 C   0  0  2  0  0  0  0  0  0  0  0  0
    2.2292   -0.5687    0.7356 C   0  0  0  0  0  0  0  0  0  0  0  0
    1.4503    1.5805   -0.1587 C   0  0  0  0  0  0  0  0  0  0  0  0
    3.5956   -0.5730    0.0396 C   0  0  0  0  0  0  0  0  0  0  0  0
   -1.2567   -1.8898   -0.3532 H   0  0  0  0  0  0  0  0  0  0  0  0
   -0.4548    0.3403    1.4083 H   0  0  0  0  0  0  0  0  0  0  0  0
    1.1453   -0.3488   -1.1341 H   0  0  0  0  0  0  0  0  0  0  0  0
    2.0174   -1.6213    0.8982 H   0  0  0  0  0  0  0  0  0  0  0  0
    2.2963   -0.0843    1.7152 H   0  0  0  0  0  0  0  0  0  0  0  0
    1.5781    1.9681    0.8569 H   0  0  0  0  0  0  0  0  0  0  0  0
    2.3765    1.7471   -0.7143 H   0  0  0  0  0  0  0  0  0  0  0  0
    0.6881    2.1900   -0.6437 H   0  0  0  0  0  0  0  0  0  0  0  0
    3.5108   -0.9877   -0.9698 H   0  0  0  0  0  0  0  0  0  0  0  0
    4.2971   -1.1917    0.6076 H   0  0  0  0  0  0  0  0  0  0  0  0
    4.0138    0.4348   -0.0245 H   0  0  0  0  0  0  0  0  0  0  0  0
   -2.7465    0.2172   -0.3576 N   0  0  0  0  0  0  0  0  0  0  0  0
   -3.8497    0.6797   -1.2100 C   0  0  2  0  0  0  0  0  0  0  0  0
   -5.1485    0.8530   -0.3959 C   0  0  0  0  0  0  0  0  0  0  0  0
   -5.2559    0.3287    0.7075 O   0  0  0  0  0  0  0  0  0  0  0  0
   -4.0592   -0.3372   -2.3363 C   0  0  0  0  0  0  0  0  0  0  0  0
   -3.0028   -0.1782    0.5482 H   0  0  0  0  0  0  0  0  0  0  0  0
   -3.5981    1.6538   -1.6429 H   0  0  0  0  0  0  0  0  0  0  0  0
   -4.3108   -1.3188   -1.9228 H   0  0  0  0  0  0  0  0  0  0  0  0
   -4.8714   -0.0181   -2.9962 H   0  0  0  0  0  0  0  0  0  0  0  0
   -3.1482   -0.4338   -2.9354 H   0  0  0  0  0  0  0  0  0  0  0  0
   -6.1980    1.6004   -0.8968 N   0  0  0  0  0  0  0  0  0  0  0  0
   -7.4419    1.8193   -0.1688 C   0  0  0  0  0  0  0  0  0  0  0  0
   -6.0718    2.0436   -1.8021 H   0  0  0  0  0  0  0  0  0  0  0  0
   -7.9293    0.8640    0.0528 H   0  0  0  0  0  0  0  0  0  0  0  0
   -7.2480    2.3428    0.7734 H   0  0  0  0  0  0  0  0  0  0  0  0
   -8.1284    2.4264   -0.7665 H   0  0  0  0  0  0  0  0  0  0  0  0
  1  2  2  0  0  0  0
  1  3  1  0  0  0  0
  1  7  1  0  0  0  0
  3  4  1  0  0  0  0
  3  5  1  0  0  0  0
  3  6  1  0  0  0  0
  7  8  1  0  0  0  0
  7 12  1  0  0  0  0
  8  9  1  0  0  0  0
  8 11  1  0  0  0  0
  8 13  1  0  0  0  0
  9 10  2  0  0  0  0
  9 17  1  0  0  0  0
 11 14  1  0  0  0  0
 11 15  1  0  0  0  0
 11 16  1  0  0  0  0
 17 18  1  0  0  0  0
 17 25  1  0  0  0  0
 18 19  1  0  0  0  0
 18 21  1  0  0  0  0
 18 26  1  0  0  0  0
 19 20  2  0  0  0  0
 19 36  1  0  0  0  0
 21 22  1  0  0  0  0
 21 23  1  0  0  0  0
 21 27  1  0  0  0  0
 22 24  1  0  0  0  0
 22 28  1  0  0  0  0
 22 29  1  0  0  0  0
 23 30  1  0  0  0  0
 23 31  1  0  0  0  0
 23 32  1  0  0  0  0
 24 33  1  0  0  0  0
 24 34  1  0  0  0  0
 24 35  1  0  0  0  0
 36 37  1  0  0  0  0
 36 41  1  0  0  0  0
 37 38  1  0  0  0  0
 37 40  1  0  0  0  0
 37 42  1  0  0  0  0
 38 39  2  0  0  0  0
 38 46  1  0  0  0  0
 40 43  1  0  0  0  0
 40 44  1  0  0  0  0
 40 45  1  0  0  0  0
 46 47  1  0  0  0  0
 46 48  1  0  0  0  0
 47 49  1  0  0  0  0
 47 50  1  0  0  0  0
 47 51  1  0  0  0  0
M  END
$$$$

  -OEChem-05262216503D

 51 50  0     1  0  0  0  0  0999 V2000
    2.0375   -4.7705    0.4635 C   0  0  0  0  0  0  0  0  0  0  0  0
    2.0000   -4.3469   -0.6812 O   0  0  0  0  0  0  0  0  0  0  0  0
    3.3580   -5.2077    1.0684 C   0  0  0  0  0  0  0  0  0  0  0  0
    4.1514   -5.1561    0.3176 H   0  0  0  0  0  0  0  0  0  0  0  0
    3.6200   -4.5524    1.9031 H   0  0  0  0  0  0  0  0  0  0  0  0
    3.2821   -6.2359    1.4301 H   0  0  0  0  0  0  0  0  0  0  0  0
    0.8899   -4.8004    1.2295 N   0  0  0  0  0  0  0  0  0  0  0  0
   -0.3255   -4.0762    0.8335 C   0  0  2  0  0  0  0  0  0  0  0  0
   -0.2643   -2.6017    1.2806 C   0  0  0  0  0  0  0  0  0  0  0  0
    0.2131   -2.3107    2.3719 O   0  0  0  0  0  0  0  0  0  0  0  0
   -1.5274   -4.7823    1.4639 C   0  0  0  0  0  0  0  0  0  0  0  0
    1.0389   -4.9269    2.2274 H   0  0  0  0  0  0  0  0  0  0  0  0
   -0.4430   -4.1027   -0.2552 H   0  0  0  0  0  0  0  0  0  0  0  0
   -1.4530   -4.7666    2.5561 H   0  0  0  0  0  0  0  0  0  0  0  0
   -2.4575   -4.2846    1.1725 H   0  0  0  0  0  0  0  0  0  0  0  0
   -1.5734   -5.8238    1.1313 H   0  0  0  0  0  0  0  0  0  0  0  0
   -0.8720   -1.6064    0.5434 N   0  0  0  0  0  0  0  0  0  0  0  0
   -0.4058   -0.2034    0.4693 C   0  0  2  0  0  0  0  0  0  0  0  0
   -1.4605    0.4463   -0.4729 C   0  0  0  0  0  0  0  0  0  0  0  0
   -1.2396    0.7315   -1.6444 O   0  0  0  0  0  0  0  0  0  0  0  0
    1.0424    0.0371   -0.1144 C   0  0  2  0  0  0  0  0  0  0  0  0
    2.2058   -0.5906    0.6991 C   0  0  0  0  0  0  0  0  0  0  0  0
    1.3387    1.5595   -0.1653 C   0  0  0  0  0  0  0  0  0  0  0  0
    3.5524   -0.5598   -0.0342 C   0  0  0  0  0  0  0  0  0  0  0  0
   -1.2881   -1.9489   -0.3200 H   0  0  0  0  0  0  0  0  0  0  0  0
   -0.4698    0.2584    1.4602 H   0  0  0  0  0  0  0  0  0  0  0  0
    1.0725   -0.3744   -1.1297 H   0  0  0  0  0  0  0  0  0  0  0  0
    2.0151   -1.6485    0.8541 H   0  0  0  0  0  0  0  0  0  0  0  0
    2.2914   -0.1158    1.6818 H   0  0  0  0  0  0  0  0  0  0  0  0
    1.3949    1.9698    0.8479 H   0  0  0  0  0  0  0  0  0  0  0  0
    2.2862    1.7567   -0.6724 H   0  0  0  0  0  0  0  0  0  0  0  0
    0.5765    2.1187   -0.7107 H   0  0  0  0  0  0  0  0  0  0  0  0
    3.4459   -0.9545   -1.0496 H   0  0  0  0  0  0  0  0  0  0  0  0
    4.2781   -1.1798    0.5010 H   0  0  0  0  0  0  0  0  0  0  0  0
    3.9551    0.4550   -0.0887 H   0  0  0  0  0  0  0  0  0  0  0  0
   -2.7860    0.4282   -0.0784 N   0  0  0  0  0  0  0  0  0  0  0  0
   -3.9069    0.9813   -0.8498 C   0  0  2  0  0  0  0  0  0  0  0  0
   -5.0263    1.5001    0.0769 C   0  0  0  0  0  0  0  0  0  0  0  0
   -5.0434    1.1787    1.2601 O   0  0  0  0  0  0  0  0  0  0  0  0
   -4.4464   -0.1101   -1.7797 C   0  0  0  0  0  0  0  0  0  0  0  0
   -2.9746    0.1877    0.8955 H   0  0  0  0  0  0  0  0  0  0  0  0
   -3.5581    1.8285   -1.4498 H   0  0  0  0  0  0  0  0  0  0  0  0
   -4.7986   -0.9683   -1.1984 H   0  0  0  0  0  0  0  0  0  0  0  0
   -5.2792    0.2712   -2.3782 H   0  0  0  0  0  0  0  0  0  0  0  0
   -3.6607   -0.4493   -2.4622 H   0  0  0  0  0  0  0  0  0  0  0  0
   -6.0162    2.3314   -0.4139 N   0  0  0  0  0  0  0  0  0  0  0  0
   -7.1026    2.8531    0.4068 C   0  0  0  0  0  0  0  0  0  0  0  0
   -5.9681    2.5954   -1.3936 H   0  0  0  0  0  0  0  0  0  0  0  0
   -7.6969    2.0328    0.8226 H   0  0  0  0  0  0  0  0  0  0  0  0
   -6.7060    3.4539    1.2319 H   0  0  0  0  0  0  0  0  0  0  0  0
   -7.7619    3.4855   -0.1955 H   0  0  0  0  0  0  0  0  0  0  0  0
  1  2  2  0  0  0  0
  1  3  1  0  0  0  0
  1  7  1  0  0  0  0
  3  4  1  0  0  0  0
  3  5  1  0  0  0  0
  3  6  1  0  0  0  0
  7  8  1  0  0  0  0
  7 12  1  0  0  0  0
  8  9  1  0  0  0  0
  8 11  1  0  0  0  0
  8 13  1  0  0  0  0
  9 10  2  0  0  0  0
  9 17  1  0  0  0  0
 11 14  1  0  0  0  0
 11 15  1  0  0  0  0
 11 16  1  0  0  0  0
 17 18  1  0  0  0  0
 17 25  1  0  0  0  0
 18 19  1  0  0  0  0
 18 21  1  0  0  0  0
 18 26  1  0  0  0  0
 19 20  2  0  0  0  0
 19 36  1  0  0  0  0
 21 22  1  0  0  0  0
 21 23  1  0  0  0  0
 21 27  1  0  0  0  0
 22 24  1  0  0  0  0
 22 28  1  0  0  0  0
 22 29  1  0  0  0  0
 23 30  1  0  0  0  0
 23 31  1  0  0  0  0
 23 32  1  0  0  0  0
 24 33  1  0  0  0  0
 24 34  1  0  0  0  0
 24 35  1  0  0  0  0
 36 37  1  0  0  0  0
 36 41  1  0  0  0  0
 37 38  1  0  0  0  0
 37 40  1  0  0  0  0
 37 42  1  0  0  0  0
 38 39  2  0  0  0  0
 38 46  1  0  0  0  0
 40 43  1  0  0  0  0
 40 44  1  0  0  0  0
 40 45  1  0  0  0  0
 46 47  1  0  0  0  0
 46 48  1  0  0  0  0
 47 49  1  0  0  0  0
 47 50  1  0  0  0  0
 47 51  1  0  0  0  0
M  END
$$$$

  -OEChem-05262216503D

 51 50  0     1  0  0  0  0  0999 V2000
    1.9501   -5.1899    0.4743 C   0  0  0  0  0  0  0  0  0  0  0  0
    1.8897   -5.0480   -0.7366 O   0  0  0  0  0  0  0  0  0  0  0  0
    3.2173   -5.7272    1.1116 C   0  0  0  0  0  0  0  0  0  0  0  0
    3.9589   -5.9563    0.3409 H   0  0  0  0  0  0  0  0  0  0  0  0
    3.6362   -4.9826    1.7934 H   0  0  0  0  0  0  0  0  0  0  0  0
    2.9958   -6.6400    1.6701 H   0  0  0  0  0  0  0  0  0  0  0  0
    0.8818   -4.8387    1.2734 N   0  0  0  0  0  0  0  0  0  0  0  0
   -0.2531   -4.0387    0.7921 C   0  0  2  0  0  0  0  0  0  0  0  0
   -0.1392   -2.5725    1.2540 C   0  0  0  0  0  0  0  0  0  0  0  0
    0.3972   -2.3057    2.3239 O   0  0  0  0  0  0  0  0  0  0  0  0
   -1.5366   -4.6751    1.3296 C   0  0  0  0  0  0  0  0  0  0  0  0
    1.0853   -4.7729    2.2684 H   0  0  0  0  0  0  0  0  0  0  0  0
   -0.2963   -4.0453   -0.3021 H   0  0  0  0  0  0  0  0  0  0  0  0
   -1.5397   -4.6685    2.4246 H   0  0  0  0  0  0  0  0  0  0  0  0
   -2.4136   -4.1240    0.9763 H   0  0  0  0  0  0  0  0  0  0  0  0
   -1.6174   -5.7111    0.9858 H   0  0  0  0  0  0  0  0  0  0  0  0
   -0.7911   -1.5665    0.5712 N   0  0  0  0  0  0  0  0  0  0  0  0
   -0.3857   -0.1458    0.5295 C   0  0  2  0  0  0  0  0  0  0  0  0
   -1.4813    0.4956   -0.3609 C   0  0  0  0  0  0  0  0  0  0  0  0
   -1.3697    0.5901   -1.5780 O   0  0  0  0  0  0  0  0  0  0  0  0
    1.0293    0.1813   -0.0866 C   0  0  2  0  0  0  0  0  0  0  0  0
    2.2430   -0.4162    0.6720 C   0  0  0  0  0  0  0  0  0  0  0  0
    1.2352    1.7161   -0.1396 C   0  0  0  0  0  0  0  0  0  0  0  0
    3.5635   -0.2983   -0.0977 C   0  0  0  0  0  0  0  0  0  0  0  0
   -1.2525   -1.8898   -0.2768 H   0  0  0  0  0  0  0  0  0  0  0  0
   -0.4375    0.2794    1.5368 H   0  0  0  0  0  0  0  0  0  0  0  0
    1.0499   -0.2147   -1.1081 H   0  0  0  0  0  0  0  0  0  0  0  0
    2.1045   -1.4866    0.8002 H   0  0  0  0  0  0  0  0  0  0  0  0
    2.3360    0.0357    1.6651 H   0  0  0  0  0  0  0  0  0  0  0  0
    1.2676    2.1311    0.8727 H   0  0  0  0  0  0  0  0  0  0  0  0
    2.1679    1.9696   -0.6488 H   0  0  0  0  0  0  0  0  0  0  0  0
    0.4371    2.2200   -0.6898 H   0  0  0  0  0  0  0  0  0  0  0  0
    3.4473   -0.6724   -1.1195 H   0  0  0  0  0  0  0  0  0  0  0  0
    4.3357   -0.8922    0.4008 H   0  0  0  0  0  0  0  0  0  0  0  0
    3.9108    0.7373   -0.1361 H   0  0  0  0  0  0  0  0  0  0  0  0
   -2.7339    0.7031    0.1840 N   0  0  0  0  0  0  0  0  0  0  0  0
   -3.8826    1.2701   -0.5339 C   0  0  2  0  0  0  0  0  0  0  0  0
   -4.7798    2.1018    0.4072 C   0  0  0  0  0  0  0  0  0  0  0  0
   -4.6492    2.0062    1.6227 O   0  0  0  0  0  0  0  0  0  0  0  0
   -4.6787    0.1198   -1.1588 C   0  0  0  0  0  0  0  0  0  0  0  0
   -2.8188    0.6295    1.1983 H   0  0  0  0  0  0  0  0  0  0  0  0
   -3.5291    1.9390   -1.3258 H   0  0  0  0  0  0  0  0  0  0  0  0
   -5.0446   -0.5583   -0.3811 H   0  0  0  0  0  0  0  0  0  0  0  0
   -5.5369    0.5042   -1.7181 H   0  0  0  0  0  0  0  0  0  0  0  0
   -4.0464   -0.4488   -1.8480 H   0  0  0  0  0  0  0  0  0  0  0  0
   -5.7299    2.9658   -0.1057 N   0  0  0  0  0  0  0  0  0  0  0  0
   -6.5972    3.7866    0.7314 C   0  0  0  0  0  0  0  0  0  0  0  0
   -5.8048    3.0404   -1.1162 H   0  0  0  0  0  0  0  0  0  0  0  0
   -7.2147    3.1544    1.3782 H   0  0  0  0  0  0  0  0  0  0  0  0
   -6.0013    4.4575    1.3594 H   0  0  0  0  0  0  0  0  0  0  0  0
   -7.2600    4.3952    0.1089 H   0  0  0  0  0  0  0  0  0  0  0  0
  1  2  2  0  0  0  0
  1  3  1  0  0  0  0
  1  7  1  0  0  0  0
  3  4  1  0  0  0  0
  3  5  1  0  0  0  0
  3  6  1  0  0  0  0
  7  8  1  0  0  0  0
  7 12  1  0  0  0  0
  8  9  1  0  0  0  0
  8 11  1  0  0  0  0
  8 13  1  0  0  0  0
  9 10  2  0  0  0  0
  9 17  1  0  0  0  0
 11 14  1  0  0  0  0
 11 15  1  0  0  0  0
 11 16  1  0  0  0  0
 17 18  1  0  0  0  0
 17 25  1  0  0  0  0
 18 19  1  0  0  0  0
 18 21  1  0  0  0  0
 18 26  1  0  0  0  0
 19 20  2  0  0  0  0
 19 36  1  0  0  0  0
 21 22  1  0  0  0  0
 21 23  1  0  0  0  0
 21 27  1  0  0  0  0
 22 24  1  0  0  0  0
 22 28  1  0  0  0  0
 22 29  1  0  0  0  0
 23 30  1  0  0  0  0
 23 31  1  0  0  0  0
 23 32  1  0  0  0  0
 24 33  1  0  0  0  0
 24 34  1  0  0  0  0
 24 35  1  0  0  0  0
 36 37  1  0  0  0  0
 36 41  1  0  0  0  0
 37 38  1  0  0  0  0
 37 40  1  0  0  0  0
 37 42  1  0  0  0  0
 38 39  2  0  0  0  0
 38 46  1  0  0  0  0
 40 43  1  0  0  0  0
 40 44  1  0  0  0  0
 40 45  1  0  0  0  0
 46 47  1  0  0  0  0
 46 48  1  0  0  0  0
 47 49  1  0  0  0  0
 47 50  1  0  0  0  0
 47 51  1  0  0  0  0
M  END
$$$$

  -OEChem-05262216503D

 51 50  0     1  0  0  0  0  0999 V2000
    1.9613   -5.2374    0.4522 C   0  0  0  0  0  0  0  0  0  0  0  0
    1.9094   -5.0910   -0.7587 O   0  0  0  0  0  0  0  0  0  0  0  0
    3.2122   -5.8103    1.0920 C   0  0  0  0  0  0  0  0  0  0  0  0
    3.9601   -6.0326    0.3256 H   0  0  0  0  0  0  0  0  0  0  0  0
    3.6343   -5.0896    1.7968 H   0  0  0  0  0  0  0  0  0  0  0  0
    2.9700   -6.7329    1.6251 H   0  0  0  0  0  0  0  0  0  0  0  0
    0.8970   -4.8687    1.2494 N   0  0  0  0  0  0  0  0  0  0  0  0
   -0.2311   -4.0579    0.7685 C   0  0  2  0  0  0  0  0  0  0  0  0
   -0.1374   -2.6048    1.2758 C   0  0  0  0  0  0  0  0  0  0  0  0
    0.4180   -2.3589    2.3412 O   0  0  0  0  0  0  0  0  0  0  0  0
   -1.5228   -4.7161    1.2575 C   0  0  0  0  0  0  0  0  0  0  0  0
    1.0970   -4.8113    2.2459 H   0  0  0  0  0  0  0  0  0  0  0  0
   -0.2494   -4.0294   -0.3261 H   0  0  0  0  0  0  0  0  0  0  0  0
   -1.5501   -4.7416    2.3519 H   0  0  0  0  0  0  0  0  0  0  0  0
   -2.3949   -4.1592    0.9007 H   0  0  0  0  0  0  0  0  0  0  0  0
   -1.5899   -5.7421    0.8820 H   0  0  0  0  0  0  0  0  0  0  0  0
   -0.8107   -1.5882    0.6302 N   0  0  0  0  0  0  0  0  0  0  0  0
   -0.4155   -0.1649    0.6133 C   0  0  2  0  0  0  0  0  0  0  0  0
   -1.5218    0.5075   -0.2352 C   0  0  0  0  0  0  0  0  0  0  0  0
   -1.5345    0.4113   -1.4575 O   0  0  0  0  0  0  0  0  0  0  0  0
    0.9776    0.1848   -0.0359 C   0  0  2  0  0  0  0  0  0  0  0  0
    2.2140   -0.4247    0.6735 C   0  0  0  0  0  0  0  0  0  0  0  0
    1.1637    1.7215   -0.0793 C   0  0  0  0  0  0  0  0  0  0  0  0
    3.5136   -0.2844   -0.1271 C   0  0  0  0  0  0  0  0  0  0  0  0
   -1.2833   -1.8915   -0.2197 H   0  0  0  0  0  0  0  0  0  0  0  0
   -0.4387    0.2319    1.6334 H   0  0  0  0  0  0  0  0  0  0  0  0
    0.9707   -0.1950   -1.0637 H   0  0  0  0  0  0  0  0  0  0  0  0
    2.0830   -1.4975    0.7855 H   0  0  0  0  0  0  0  0  0  0  0  0
    2.3319    0.0084    1.6719 H   0  0  0  0  0  0  0  0  0  0  0  0
    1.1842    2.1320    0.9351 H   0  0  0  0  0  0  0  0  0  0  0  0
    2.0955    1.9918   -0.5815 H   0  0  0  0  0  0  0  0  0  0  0  0
    0.3606    2.2132   -0.6346 H   0  0  0  0  0  0  0  0  0  0  0  0
    3.3749   -0.6430   -1.1517 H   0  0  0  0  0  0  0  0  0  0  0  0
    4.3018   -0.8810    0.3424 H   0  0  0  0  0  0  0  0  0  0  0  0
    3.8533    0.7538   -0.1573 H   0  0  0  0  0  0  0  0  0  0  0  0
   -2.6524    0.9958    0.3905 N   0  0  0  0  0  0  0  0  0  0  0  0
   -3.7777    1.6426   -0.2968 C   0  0  2  0  0  0  0  0  0  0  0  0
   -4.3980    2.7616    0.5661 C   0  0  0  0  0  0  0  0  0  0  0  0
   -4.1176    2.8461    1.7567 O   0  0  0  0  0  0  0  0  0  0  0  0
   -4.8221    0.5710   -0.6230 C   0  0  0  0  0  0  0  0  0  0  0  0
   -2.6200    1.0934    1.4056 H   0  0  0  0  0  0  0  0  0  0  0  0
   -3.4294    2.1025   -1.2277 H   0  0  0  0  0  0  0  0  0  0  0  0
   -5.1896    0.1027    0.2959 H   0  0  0  0  0  0  0  0  0  0  0  0
   -5.6713    1.0105   -1.1546 H   0  0  0  0  0  0  0  0  0  0  0  0
   -4.3832   -0.2048   -1.2584 H   0  0  0  0  0  0  0  0  0  0  0  0
   -5.2675    3.6811    0.0085 N   0  0  0  0  0  0  0  0  0  0  0  0
   -5.8855    4.7620    0.7679 C   0  0  0  0  0  0  0  0  0  0  0  0
   -5.4717    3.5972   -0.9830 H   0  0  0  0  0  0  0  0  0  0  0  0
   -6.5161    4.3577    1.5670 H   0  0  0  0  0  0  0  0  0  0  0  0
   -5.1191    5.4045    1.2148 H   0  0  0  0  0  0  0  0  0  0  0  0
   -6.5109    5.3761    0.1123 H   0  0  0  0  0  0  0  0  0  0  0  0
  1  2  2  0  0  0  0
  1  3  1  0  0  0  0
  1  7  1  0  0  0  0
  3  4  1  0  0  0  0
  3  5  1  0  0  0  0
  3  6  1  0  0  0  0
  7  8  1  0  0  0  0
  7 12  1  0  0  0  0
  8  9  1  0  0  0  0
  8 11  1  0  0  0  0
  8 13  1  0  0  0  0
  9 10  2  0  0  0  0
  9 17  1  0  0  0  0
 11 14  1  0  0  0  0
 11 15  1  0  0  0  0
 11 16  1  0  0  0  0
 17 18  1  0  0  0  0
 17 25  1  0  0  0  0
 18 19  1  0  0  0  0
 18 21  1  0  0  0  0
 18 26  1  0  0  0  0
 19 20  2  0  0  0  0
 19 36  1  0  0  0  0
 21 22  1  0  0  0  0
 21 23  1  0  0  0  0
 21 27  1  0  0  0  0
 22 24  1  0  0  0  0
 22 28  1  0  0  0  0
 22 29  1  0  0  0  0
 23 30  1  0  0  0  0
 23 31  1  0  0  0  0
 23 32  1  0  0  0  0
 24 33  1  0  0  0  0
 24 34  1  0  0  0  0
 24 35  1  0  0  0  0
 36 37  1  0  0  0  0
 36 41  1  0  0  0  0
 37 38  1  0  0  0  0
 37 40  1  0  0  0  0
 37 42  1  0  0  0  0
 38 39  2  0  0  0  0
 38 46  1  0  0  0  0
 40 43  1  0  0  0  0
 40 44  1  0  0  0  0
 40 45  1  0  0  0  0
 46 47  1  0  0  0  0
 46 48  1  0  0  0  0
 47 49  1  0  0  0  0
 47 50  1  0  0  0  0
 47 51  1  0  0  0  0
M  END
$$$$

  -OEChem-05262216503D

 51 50  0     1  0  0  0  0  0999 V2000
    1.8956   -5.2546    0.4467 C   0  0  0  0  0  0  0  0  0  0  0  0
    1.8720   -5.0614   -0.7585 O   0  0  0  0  0  0  0  0  0  0  0  0
    3.1182   -5.8808    1.0902 C   0  0  0  0  0  0  0  0  0  0  0  0
    3.8586   -6.1344    0.3265 H   0  0  0  0  0  0  0  0  0  0  0  0
    3.5678   -5.1797    1.7976 H   0  0  0  0  0  0  0  0  0  0  0  0
    2.8341   -6.7923    1.6215 H   0  0  0  0  0  0  0  0  0  0  0  0
    0.8230   -4.8939    1.2358 N   0  0  0  0  0  0  0  0  0  0  0  0
   -0.2770   -4.0411    0.7627 C   0  0  2  0  0  0  0  0  0  0  0  0
   -0.1332   -2.5951    1.2794 C   0  0  0  0  0  0  0  0  0  0  0  0
    0.4539   -2.3731    2.3332 O   0  0  0  0  0  0  0  0  0  0  0  0
   -1.5883   -4.6596    1.2514 C   0  0  0  0  0  0  0  0  0  0  0  0
    1.0082   -4.8715    2.2363 H   0  0  0  0  0  0  0  0  0  0  0  0
   -0.2971   -4.0060   -0.3317 H   0  0  0  0  0  0  0  0  0  0  0  0
   -1.6104   -4.6972    2.3452 H   0  0  0  0  0  0  0  0  0  0  0  0
   -2.4422   -4.0685    0.9065 H   0  0  0  0  0  0  0  0  0  0  0  0
   -1.6935   -5.6780    0.8641 H   0  0  0  0  0  0  0  0  0  0  0  0
   -0.8019   -1.5571    0.6641 N   0  0  0  0  0  0  0  0  0  0  0  0
   -0.3921   -0.1390    0.6740 C   0  0  2  0  0  0  0  0  0  0  0  0
   -1.4970    0.5663   -0.1458 C   0  0  0  0  0  0  0  0  0  0  0  0
   -1.6615    0.3009   -1.3320 O   0  0  0  0  0  0  0  0  0  0  0  0
    0.9840    0.2132   -0.0063 C   0  0  2  0  0  0  0  0  0  0  0  0
    2.2324   -0.4295    0.6503 C   0  0  0  0  0  0  0  0  0  0  0  0
    1.1850    1.7490   -0.0138 C   0  0  0  0  0  0  0  0  0  0  0  0
    3.5093   -0.2809   -0.1855 C   0  0  0  0  0  0  0  0  0  0  0  0
   -1.2992   -1.8322   -0.1822 H   0  0  0  0  0  0  0  0  0  0  0  0
   -0.3907    0.2333    1.7034 H   0  0  0  0  0  0  0  0  0  0  0  0
    0.9423   -0.1375   -1.0439 H   0  0  0  0  0  0  0  0  0  0  0  0
    2.0898   -1.5039    0.7372 H   0  0  0  0  0  0  0  0  0  0  0  0
    2.3843   -0.0252    1.6563 H   0  0  0  0  0  0  0  0  0  0  0  0
    1.2284    2.1322    1.0107 H   0  0  0  0  0  0  0  0  0  0  0  0
    2.1101    2.0249   -0.5252 H   0  0  0  0  0  0  0  0  0  0  0  0
    0.3767    2.2625   -0.5417 H   0  0  0  0  0  0  0  0  0  0  0  0
    3.3360   -0.6118   -1.2142 H   0  0  0  0  0  0  0  0  0  0  0  0
    4.3051   -0.8967    0.2443 H   0  0  0  0  0  0  0  0  0  0  0  0
    3.8593    0.7545   -0.1998 H   0  0  0  0  0  0  0  0  0  0  0  0
   -2.4548    1.3240    0.4987 N   0  0  0  0  0  0  0  0  0  0  0  0
   -3.5639    2.0185   -0.1671 C   0  0  2  0  0  0  0  0  0  0  0  0
   -3.9463    3.3127    0.5816 C   0  0  0  0  0  0  0  0  0  0  0  0
   -3.5284    3.5115    1.7174 O   0  0  0  0  0  0  0  0  0  0  0  0
   -4.7588    1.0626   -0.2364 C   0  0  0  0  0  0  0  0  0  0  0  0
   -2.2869    1.5631    1.4761 H   0  0  0  0  0  0  0  0  0  0  0  0
   -3.2670    2.3022   -1.1827 H   0  0  0  0  0  0  0  0  0  0  0  0
   -5.0748    0.7734    0.7711 H   0  0  0  0  0  0  0  0  0  0  0  0
   -5.6032    1.5372   -0.7448 H   0  0  0  0  0  0  0  0  0  0  0  0
   -4.4890    0.1576   -0.7900 H   0  0  0  0  0  0  0  0  0  0  0  0
   -4.7474    4.2647   -0.0217 N   0  0  0  0  0  0  0  0  0  0  0  0
   -5.1344    5.5112    0.6284 C   0  0  0  0  0  0  0  0  0  0  0  0
   -5.0799    4.0752   -0.9628 H   0  0  0  0  0  0  0  0  0  0  0  0
   -5.7566    5.3072    1.5061 H   0  0  0  0  0  0  0  0  0  0  0  0
   -4.2479    6.0699    0.9472 H   0  0  0  0  0  0  0  0  0  0  0  0
   -5.7050    6.1379   -0.0636 H   0  0  0  0  0  0  0  0  0  0  0  0
  1  2  2  0  0  0  0
  1  3  1  0  0  0  0
  1  7  1  0  0  0  0
  3  4  1  0  0  0  0
  3  5  1  0  0  0  0
  3  6  1  0  0  0  0
  7  8  1  0  0  0  0
  7 12  1  0  0  0  0
  8  9  1  0  0  0  0
  8 11  1  0  0  0  0
  8 13  1  0  0  0  0
  9 10  2  0  0  0  0
  9 17  1  0  0  0  0
 11 14  1  0  0  0  0
 11 15  1  0  0  0  0
 11 16  1  0  0  0  0
 17 18  1  0  0  0  0
 17 25  1  0  0  0  0
 18 19  1  0  0  0  0
 18 21  1  0  0  0  0
 18 26  1  0  0  0  0
 19 20  2  0  0  0  0
 19 36  1  0  0  0  0
 21 22  1  0  0  0  0
 21 23  1  0  0  0  0
 21 27  1  0  0  0  0
 22 24  1  0  0  0  0
 22 28  1  0  0  0  0
 22 29  1  0  0  0  0
 23 30  1  0  0  0  0
 23 31  1  0  0  0  0
 23 32  1  0  0  0  0
 24 33  1  0  0  0  0
 24 34  1  0  0  0  0
 24 35  1  0  0  0  0
 36 37  1  0  0  0  0
 36 41  1  0  0  0  0
 37 38  1  0  0  0  0
 37 40  1  0  0  0  0
 37 42  1  0  0  0  0
 38 39  2  0  0  0  0
 38 46  1  0  0  0  0
 40 43  1  0  0  0  0
 40 44  1  0  0  0  0
 40 45  1  0  0  0  0
 46 47  1  0  0  0  0
 46 48  1  0  0  0  0
 47 49  1  0  0  0  0
 47 50  1  0  0  0  0
 47 51  1  0  0  0  0
M  END
$$$$

  -OEChem-05262216503D

 51 50  0     1  0  0  0  0  0999 V2000
    1.8465   -5.2695    0.4313 C   0  0  0  0  0  0  0  0  0  0  0  0
    1.8251   -5.0649   -0.7720 O   0  0  0  0  0  0  0  0  0  0  0  0
    3.0661   -5.9082    1.0690 C   0  0  0  0  0  0  0  0  0  0  0  0
    3.8245   -6.1154    0.3087 H   0  0  0  0  0  0  0  0  0  0  0  0
    3.4924   -5.2345    1.8164 H   0  0  0  0  0  0  0  0  0  0  0  0
    2.7860   -6.8474    1.5523 H   0  0  0  0  0  0  0  0  0  0  0  0
    0.7781   -4.9047    1.2241 N   0  0  0  0  0  0  0  0  0  0  0  0
   -0.3079   -4.0283    0.7609 C   0  0  2  0  0  0  0  0  0  0  0  0
   -0.1410   -2.5911    1.2945 C   0  0  0  0  0  0  0  0  0  0  0  0
    0.4637   -2.3888    2.3427 O   0  0  0  0  0  0  0  0  0  0  0  0
   -1.6298   -4.6280    1.2444 C   0  0  0  0  0  0  0  0  0  0  0  0
    0.9649   -4.8938    2.2243 H   0  0  0  0  0  0  0  0  0  0  0  0
   -0.3286   -3.9804   -0.3332 H   0  0  0  0  0  0  0  0  0  0  0  0
   -1.6544   -4.6703    2.3382 H   0  0  0  0  0  0  0  0  0  0  0  0
   -2.4736   -4.0219    0.9007 H   0  0  0  0  0  0  0  0  0  0  0  0
   -1.7508   -5.6424    0.8520 H   0  0  0  0  0  0  0  0  0  0  0  0
   -0.8062   -1.5380    0.7018 N   0  0  0  0  0  0  0  0  0  0  0  0
   -0.3915   -0.1218    0.7303 C   0  0  2  0  0  0  0  0  0  0  0  0
   -1.4954    0.6079   -0.0699 C   0  0  0  0  0  0  0  0  0  0  0  0
   -1.8150    0.2145   -1.1878 O   0  0  0  0  0  0  0  0  0  0  0  0
    0.9753    0.2276    0.0312 C   0  0  2  0  0  0  0  0  0  0  0  0
    2.2290   -0.4366    0.6567 C   0  0  0  0  0  0  0  0  0  0  0  0
    1.1934    1.7608    0.0376 C   0  0  0  0  0  0  0  0  0  0  0  0
    3.4933   -0.2884   -0.1986 C   0  0  0  0  0  0  0  0  0  0  0  0
   -1.3259   -1.7919   -0.1386 H   0  0  0  0  0  0  0  0  0  0  0  0
   -0.3766    0.2338    1.7654 H   0  0  0  0  0  0  0  0  0  0  0  0
    0.9085   -0.1092   -1.0097 H   0  0  0  0  0  0  0  0  0  0  0  0
    2.0780   -1.5106    0.7310 H   0  0  0  0  0  0  0  0  0  0  0  0
    2.4025   -0.0485    1.6656 H   0  0  0  0  0  0  0  0  0  0  0  0
    1.2365    2.1352    1.0654 H   0  0  0  0  0  0  0  0  0  0  0  0
    2.1234    2.0318   -0.4670 H   0  0  0  0  0  0  0  0  0  0  0  0
    0.3932    2.2868   -0.4901 H   0  0  0  0  0  0  0  0  0  0  0  0
    3.2942   -0.5859   -1.2329 H   0  0  0  0  0  0  0  0  0  0  0  0
    4.2850   -0.9319    0.1976 H   0  0  0  0  0  0  0  0  0  0  0  0
    3.8640    0.7399   -0.1905 H   0  0  0  0  0  0  0  0  0  0  0  0
   -2.2494    1.5975    0.5297 N   0  0  0  0  0  0  0  0  0  0  0  0
   -3.3043    2.3677   -0.1406 C   0  0  2  0  0  0  0  0  0  0  0  0
   -3.3920    3.8041    0.4173 C   0  0  0  0  0  0  0  0  0  0  0  0
   -2.7799    4.1052    1.4365 O   0  0  0  0  0  0  0  0  0  0  0  0
   -4.6345    1.6312    0.0503 C   0  0  0  0  0  0  0  0  0  0  0  0
   -1.9237    1.9570    1.4269 H   0  0  0  0  0  0  0  0  0  0  0  0
   -3.0828    2.4455   -1.2104 H   0  0  0  0  0  0  0  0  0  0  0  0
   -4.8831    1.5612    1.1142 H   0  0  0  0  0  0  0  0  0  0  0  0
   -5.4446    2.1575   -0.4633 H   0  0  0  0  0  0  0  0  0  0  0  0
   -4.5694    0.6181   -0.3593 H   0  0  0  0  0  0  0  0  0  0  0  0
   -4.1487    4.7655   -0.2272 N   0  0  0  0  0  0  0  0  0  0  0  0
   -4.2726    6.1379    0.2501 C   0  0  0  0  0  0  0  0  0  0  0  0
   -4.6401    4.4913   -1.0731 H   0  0  0  0  0  0  0  0  0  0  0  0
   -4.7258    6.1576    1.2469 H   0  0  0  0  0  0  0  0  0  0  0  0
   -3.2893    6.6171    0.3010 H   0  0  0  0  0  0  0  0  0  0  0  0
   -4.9044    6.7192   -0.4283 H   0  0  0  0  0  0  0  0  0  0  0  0
  1  2  2  0  0  0  0
  1  3  1  0  0  0  0
  1  7  1  0  0  0  0
  3  4  1  0  0  0  0
  3  5  1  0  0  0  0
  3  6  1  0  0  0  0
  7  8  1  0  0  0  0
  7 12  1  0  0  0  0
  8  9  1  0  0  0  0
  8 11  1  0  0  0  0
  8 13  1  0  0  0  0
  9 10  2  0  0  0  0
  9 17  1  0  0  0  0
 11 14  1  0  0  0  0
 11 15  1  0  0  0  0
 11 16  1  0  0  0  0
 17 18  1  0  0  0  0
 17 25  1  0  0  0  0
 18 19  1  0  0  0  0
 18 21  1  0  0  0  0
 18 26  1  0  0  0  0
 19 20  2  0  0  0  0
 19 36  1  0  0  0  0
 21 22  1  0  0  0  0
 21 23  1  0  0  0  0
 21 27  1  0  0  0  0
 22 24  1  0  0  0  0
 22 28  1  0  0  0  0
 22 29  1  0  0  0  0
 23 30  1  0  0  0  0
 23 31  1  0  0  0  0
 23 32  1  0  0  0  0
 24 33  1  0  0  0  0
 24 34  1  0  0  0  0
 24 35  1  0  0  0  0
 36 37  1  0  0  0  0
 36 41  1  0  0  0  0
 37 38  1  0  0  0  0
 37 40  1  0  0  0  0
 37 42  1  0  0  0  0
 38 39  2  0  0  0  0
 38 46  1  0  0  0  0
 40 43  1  0  0  0  0
 40 44  1  0  0  0  0
 40 45  1  0  0  0  0
 46 47  1  0  0  0  0
 46 48  1  0  0  0  0
 47 49  1  0  0  0  0
 47 50  1  0  0  0  0
 47 51  1  0  0  0  0
M  END
$$$$

  -OEChem-05262216503D

 51 50  0     1  0  0  0  0  0999 V2000
    1.8457   -5.1946    0.3801 C   0  0  0  0  0  0  0  0  0  0  0  0
    1.8237   -4.9238   -0.8101 O   0  0  0  0  0  0  0  0  0  0  0  0
    3.0802   -5.8329    0.9888 C   0  0  0  0  0  0  0  0  0  0  0  0
    3.8392   -5.9959    0.2186 H   0  0  0  0  0  0  0  0  0  0  0  0
    3.4957   -5.1799    1.7603 H   0  0  0  0  0  0  0  0  0  0  0  0
    2.8207   -6.7953    1.4363 H   0  0  0  0  0  0  0  0  0  0  0  0
    0.7642   -4.9044    1.1860 N   0  0  0  0  0  0  0  0  0  0  0  0
   -0.3405   -4.0307    0.7640 C   0  0  2  0  0  0  0  0  0  0  0  0
   -0.1809   -2.6047    1.3296 C   0  0  0  0  0  0  0  0  0  0  0  0
    0.4312   -2.4217    2.3769 O   0  0  0  0  0  0  0  0  0  0  0  0
   -1.6463   -4.6617    1.2516 C   0  0  0  0  0  0  0  0  0  0  0  0
    0.9489   -4.9405    2.1859 H   0  0  0  0  0  0  0  0  0  0  0  0
   -0.3793   -3.9569   -0.3281 H   0  0  0  0  0  0  0  0  0  0  0  0
   -1.6569   -4.7264    2.3444 H   0  0  0  0  0  0  0  0  0  0  0  0
   -2.5040   -4.0626    0.9303 H   0  0  0  0  0  0  0  0  0  0  0  0
   -1.7554   -5.6702    0.8406 H   0  0  0  0  0  0  0  0  0  0  0  0
   -0.8486   -1.5407    0.7603 N   0  0  0  0  0  0  0  0  0  0  0  0
   -0.4435   -0.1216    0.8091 C   0  0  2  0  0  0  0  0  0  0  0  0
   -1.5499    0.6271    0.0268 C   0  0  0  0  0  0  0  0  0  0  0  0
   -2.0149    0.1486   -1.0044 O   0  0  0  0  0  0  0  0  0  0  0  0
    0.9202    0.2351    0.1031 C   0  0  2  0  0  0  0  0  0  0  0  0
    2.1789   -0.4366    0.7119 C   0  0  0  0  0  0  0  0  0  0  0  0
    1.1451    1.7676    0.1038 C   0  0  0  0  0  0  0  0  0  0  0  0
    3.4395   -0.2820   -0.1477 C   0  0  0  0  0  0  0  0  0  0  0  0
   -1.3924   -1.7777   -0.0703 H   0  0  0  0  0  0  0  0  0  0  0  0
   -0.4222    0.2162    1.8503 H   0  0  0  0  0  0  0  0  0  0  0  0
    0.8437   -0.0990   -0.9380 H   0  0  0  0  0  0  0  0  0  0  0  0
    2.0282   -1.5111    0.7745 H   0  0  0  0  0  0  0  0  0  0  0  0
    2.3596   -0.0592    1.7238 H   0  0  0  0  0  0  0  0  0  0  0  0
    1.1490    2.1531    1.1283 H   0  0  0  0  0  0  0  0  0  0  0  0
    2.0939    2.0330   -0.3670 H   0  0  0  0  0  0  0  0  0  0  0  0
    0.3698    2.2889   -0.4637 H   0  0  0  0  0  0  0  0  0  0  0  0
    3.2324   -0.5533   -1.1876 H   0  0  0  0  0  0  0  0  0  0  0  0
    4.2262   -0.9424    0.2298 H   0  0  0  0  0  0  0  0  0  0  0  0
    3.8209    0.7417   -0.1167 H   0  0  0  0  0  0  0  0  0  0  0  0
   -2.0906    1.7968    0.5260 N   0  0  0  0  0  0  0  0  0  0  0  0
   -3.0340    2.6527   -0.2042 C   0  0  2  0  0  0  0  0  0  0  0  0
   -2.7758    4.1465    0.0863 C   0  0  0  0  0  0  0  0  0  0  0  0
   -1.9778    4.4737    0.9583 O   0  0  0  0  0  0  0  0  0  0  0  0
   -4.4561    2.2552    0.2029 C   0  0  0  0  0  0  0  0  0  0  0  0
   -1.6055    2.2309    1.3116 H   0  0  0  0  0  0  0  0  0  0  0  0
   -2.9132    2.5068   -1.2830 H   0  0  0  0  0  0  0  0  0  0  0  0
   -4.6027    2.4060    1.2773 H   0  0  0  0  0  0  0  0  0  0  0  0
   -5.1940    2.8554   -0.3376 H   0  0  0  0  0  0  0  0  0  0  0  0
   -4.6347    1.2001   -0.0285 H   0  0  0  0  0  0  0  0  0  0  0  0
   -3.4274    5.1272   -0.6387 N   0  0  0  0  0  0  0  0  0  0  0  0
   -3.2358    6.5543   -0.4095 C   0  0  0  0  0  0  0  0  0  0  0  0
   -4.0781    4.8277   -1.3590 H   0  0  0  0  0  0  0  0  0  0  0  0
   -3.5197    6.8192    0.6146 H   0  0  0  0  0  0  0  0  0  0  0  0
   -2.1883    6.8320   -0.5683 H   0  0  0  0  0  0  0  0  0  0  0  0
   -3.8551    7.1345   -1.1005 H   0  0  0  0  0  0  0  0  0  0  0  0
  1  2  2  0  0  0  0
  1  3  1  0  0  0  0
  1  7  1  0  0  0  0
  3  4  1  0  0  0  0
  3  5  1  0  0  0  0
  3  6  1  0  0  0  0
  7  8  1  0  0  0  0
  7 12  1  0  0  0  0
  8  9  1  0  0  0  0
  8 11  1  0  0  0  0
  8 13  1  0  0  0  0
  9 10  2  0  0  0  0
  9 17  1  0  0  0  0
 11 14  1  0  0  0  0
 11 15  1  0  0  0  0
 11 16  1  0  0  0  0
 17 18  1  0  0  0  0
 17 25  1  0  0  0  0
 18 19  1  0  0  0  0
 18 21  1  0  0  0  0
 18 26  1  0  0  0  0
 19 20  2  0  0  0  0
 19 36  1  0  0  0  0
 21 22  1  0  0  0  0
 21 23  1  0  0  0  0
 21 27  1  0  0  0  0
 22 24  1  0  0  0  0
 22 28  1  0  0  0  0
 22 29  1  0  0  0  0
 23 30  1  0  0  0  0
 23 31  1  0  0  0  0
 23 32  1  0  0  0  0
 24 33  1  0  0  0  0
 24 34  1  0  0  0  0
 24 35  1  0  0  0  0
 36 37  1  0  0  0  0
 36 41  1  0  0  0  0
 37 38  1  0  0  0  0
 37 40  1  0  0  0  0
 37 42  1  0  0  0  0
 38 39  2  0  0  0  0
 38 46  1  0  0  0  0
 40 43  1  0  0  0  0
 40 44  1  0  0  0  0
 40 45  1  0  0  0  0
 46 47  1  0  0  0  0
 46 48  1  0  0  0  0
 47 49  1  0  0  0  0
 47 50  1  0  0  0  0
 47 51  1  0  0  0  0
M  END
$$$$

  -OEChem-05262216503D

 51 50  0     1  0  0  0  0  0999 V2000
    1.7985   -5.1464    0.3480 C   0  0  0  0  0  0  0  0  0  0  0  0
    1.8001   -4.8119   -0.8262 O   0  0  0  0  0  0  0  0  0  0  0  0
    3.0161   -5.8296    0.9425 C   0  0  0  0  0  0  0  0  0  0  0  0
    3.7890   -5.9548    0.1788 H   0  0  0  0  0  0  0  0  0  0  0  0
    3.4216   -5.2252    1.7580 H   0  0  0  0  0  0  0  0  0  0  0  0
    2.7404   -6.8139    1.3293 H   0  0  0  0  0  0  0  0  0  0  0  0
    0.7060   -4.8865    1.1499 N   0  0  0  0  0  0  0  0  0  0  0  0
   -0.3791   -3.9768    0.7539 C   0  0  2  0  0  0  0  0  0  0  0  0
   -0.1795   -2.5658    1.3444 C   0  0  0  0  0  0  0  0  0  0  0  0
    0.4483   -2.4159    2.3880 O   0  0  0  0  0  0  0  0  0  0  0  0
   -1.6971   -4.5835    1.2395 C   0  0  0  0  0  0  0  0  0  0  0  0
    0.8743   -4.9728    2.1494 H   0  0  0  0  0  0  0  0  0  0  0  0
   -0.4247   -3.8820   -0.3363 H   0  0  0  0  0  0  0  0  0  0  0  0
   -1.6970   -4.6787    2.3300 H   0  0  0  0  0  0  0  0  0  0  0  0
   -2.5411   -3.9514    0.9458 H   0  0  0  0  0  0  0  0  0  0  0  0
   -1.8406   -5.5762    0.8016 H   0  0  0  0  0  0  0  0  0  0  0  0
   -0.8354   -1.4780    0.8071 N   0  0  0  0  0  0  0  0  0  0  0  0
   -0.4217   -0.0605    0.8744 C   0  0  2  0  0  0  0  0  0  0  0  0
   -1.5371    0.7090    0.1162 C   0  0  0  0  0  0  0  0  0  0  0  0
   -2.1603    0.1666   -0.7940 O   0  0  0  0  0  0  0  0  0  0  0  0
    0.9419    0.2713    0.1455 C   0  0  2  0  0  0  0  0  0  0  0  0
    2.1969   -0.4329    0.7282 C   0  0  0  0  0  0  0  0  0  0  0  0
    1.2123    1.7964    0.1387 C   0  0  0  0  0  0  0  0  0  0  0  0
    3.4495   -0.3040   -0.1485 C   0  0  0  0  0  0  0  0  0  0  0  0
   -1.4227   -1.6893   -0.0011 H   0  0  0  0  0  0  0  0  0  0  0  0
   -0.3813    0.2647    1.9189 H   0  0  0  0  0  0  0  0  0  0  0  0
    0.8402   -0.0594   -0.8946 H   0  0  0  0  0  0  0  0  0  0  0  0
    2.0255   -1.5043    0.7818 H   0  0  0  0  0  0  0  0  0  0  0  0
    2.4006   -0.0701    1.7407 H   0  0  0  0  0  0  0  0  0  0  0  0
    1.1626    2.1993    1.1553 H   0  0  0  0  0  0  0  0  0  0  0  0
    2.1941    2.0335   -0.2743 H   0  0  0  0  0  0  0  0  0  0  0  0
    0.4915    2.3247   -0.4896 H   0  0  0  0  0  0  0  0  0  0  0  0
    3.2154   -0.5425   -1.1907 H   0  0  0  0  0  0  0  0  0  0  0  0
    4.2165   -1.0022    0.2005 H   0  0  0  0  0  0  0  0  0  0  0  0
    3.8722    0.7026   -0.1000 H   0  0  0  0  0  0  0  0  0  0  0  0
   -1.8619    2.0093    0.4556 N   0  0  0  0  0  0  0  0  0  0  0  0
   -2.7508    2.8767   -0.3276 C   0  0  2  0  0  0  0  0  0  0  0  0
   -2.2499    4.3366   -0.3240 C   0  0  0  0  0  0  0  0  0  0  0  0
   -1.3387    4.6710    0.4262 O   0  0  0  0  0  0  0  0  0  0  0  0
   -4.1589    2.7827    0.2666 C   0  0  0  0  0  0  0  0  0  0  0  0
   -1.2362    2.4827    1.1078 H   0  0  0  0  0  0  0  0  0  0  0  0
   -2.7754    2.5439   -1.3708 H   0  0  0  0  0  0  0  0  0  0  0  0
   -4.1582    3.1243    1.3068 H   0  0  0  0  0  0  0  0  0  0  0  0
   -4.8597    3.3999   -0.3034 H   0  0  0  0  0  0  0  0  0  0  0  0
   -4.5120    1.7469    0.2398 H   0  0  0  0  0  0  0  0  0  0  0  0
   -2.8100    5.2743   -1.1719 N   0  0  0  0  0  0  0  0  0  0  0  0
   -2.3888    6.6697   -1.2142 C   0  0  0  0  0  0  0  0  0  0  0  0
   -3.5553    4.9657   -1.7896 H   0  0  0  0  0  0  0  0  0  0  0  0
   -2.5869    7.1590   -0.2546 H   0  0  0  0  0  0  0  0  0  0  0  0
   -1.3178    6.7418   -1.4322 H   0  0  0  0  0  0  0  0  0  0  0  0
   -2.9363    7.2057   -1.9955 H   0  0  0  0  0  0  0  0  0  0  0  0
  1  2  2  0  0  0  0
  1  3  1  0  0  0  0
  1  7  1  0  0  0  0
  3  4  1  0  0  0  0
  3  5  1  0  0  0  0
  3  6  1  0  0  0  0
  7  8  1  0  0  0  0
  7 12  1  0  0  0  0
  8  9  1  0  0  0  0
  8 11  1  0  0  0  0
  8 13  1  0  0  0  0
  9 10  2  0  0  0  0
  9 17  1  0  0  0  0
 11 14  1  0  0  0  0
 11 15  1  0  0  0  0
 11 16  1  0  0  0  0
 17 18  1  0  0  0  0
 17 25  1  0  0  0  0
 18 19  1  0  0  0  0
 18 21  1  0  0  0  0
 18 26  1  0  0  0  0
 19 20  2  0  0  0  0
 19 36  1  0  0  0  0
 21 22  1  0  0  0  0
 21 23  1  0  0  0  0
 21 27  1  0  0  0  0
 22 24  1  0  0  0  0
 22 28  1  0  0  0  0
 22 29  1  0  0  0  0
 23 30  1  0  0  0  0
 23 31  1  0  0  0  0
 23 32  1  0  0  0  0
 24 33  1  0  0  0  0
 24 34  1  0  0  0  0
 24 35  1  0  0  0  0
 36 37  1  0  0  0  0
 36 41  1  0  0  0  0
 37 38  1  0  0  0  0
 37 40  1  0  0  0  0
 37 42  1  0  0  0  0
 38 39  2  0  0  0  0
 38 46  1  0  0  0  0
 40 43  1  0  0  0  0
 40 44  1  0  0  0  0
 40 45  1  0  0  0  0
 46 47  1  0  0  0  0
 46 48  1  0  0  0  0
 47 49  1  0  0  0  0
 47 50  1  0  0  0  0
 47 51  1  0  0  0  0
M  END
$$$$

  -OEChem-05262216503D

 51 50  0     1  0  0  0  0  0999 V2000
    1.6803   -5.1387    0.3869 C   0  0  0  0  0  0  0  0  0  0  0  0
    1.7364   -4.7553   -0.7710 O   0  0  0  0  0  0  0  0  0  0  0  0
    2.8519   -5.8873    0.9936 C   0  0  0  0  0  0  0  0  0  0  0  0
    3.6241   -6.0560    0.2378 H   0  0  0  0  0  0  0  0  0  0  0  0
    3.2815   -5.3043    1.8118 H   0  0  0  0  0  0  0  0  0  0  0  0
    2.5189   -6.8541    1.3788 H   0  0  0  0  0  0  0  0  0  0  0  0
    0.5704   -4.8695    1.1613 N   0  0  0  0  0  0  0  0  0  0  0  0
   -0.4505   -3.8890    0.7643 C   0  0  2  0  0  0  0  0  0  0  0  0
   -0.1484   -2.4904    1.3397 C   0  0  0  0  0  0  0  0  0  0  0  0
    0.4891   -2.3743    2.3816 O   0  0  0  0  0  0  0  0  0  0  0  0
   -1.8076   -4.3941    1.2594 C   0  0  0  0  0  0  0  0  0  0  0  0
    0.7023   -5.0001    2.1613 H   0  0  0  0  0  0  0  0  0  0  0  0
   -0.4939   -3.8024   -0.3267 H   0  0  0  0  0  0  0  0  0  0  0  0
   -1.8136   -4.4731    2.3515 H   0  0  0  0  0  0  0  0  0  0  0  0
   -2.6045   -3.7076    0.9563 H   0  0  0  0  0  0  0  0  0  0  0  0
   -2.0221   -5.3801    0.8355 H   0  0  0  0  0  0  0  0  0  0  0  0
   -0.7488   -1.3706    0.8052 N   0  0  0  0  0  0  0  0  0  0  0  0
   -0.2880    0.0337    0.8634 C   0  0  2  0  0  0  0  0  0  0  0  0
   -1.3892    0.8291    0.0961 C   0  0  0  0  0  0  0  0  0  0  0  0
   -2.1710    0.2455   -0.6534 O   0  0  0  0  0  0  0  0  0  0  0  0
    1.0972    0.2838    0.1304 C   0  0  2  0  0  0  0  0  0  0  0  0
    2.3172   -0.4720    0.7285 C   0  0  0  0  0  0  0  0  0  0  0  0
    1.4553    1.7907    0.0892 C   0  0  0  0  0  0  0  0  0  0  0  0
    3.5827   -0.4282   -0.1401 C   0  0  0  0  0  0  0  0  0  0  0  0
   -1.3848   -1.5545    0.0275 H   0  0  0  0  0  0  0  0  0  0  0  0
   -0.2354    0.3699    1.9036 H   0  0  0  0  0  0  0  0  0  0  0  0
    0.9809   -0.0635   -0.9026 H   0  0  0  0  0  0  0  0  0  0  0  0
    2.0949   -1.5321    0.7946 H   0  0  0  0  0  0  0  0  0  0  0  0
    2.5337   -0.1053    1.7370 H   0  0  0  0  0  0  0  0  0  0  0  0
    1.3033    2.2494    1.0713 H   0  0  0  0  0  0  0  0  0  0  0  0
    2.4913    1.9643   -0.2034 H   0  0  0  0  0  0  0  0  0  0  0  0
    0.8496    2.3155   -0.6537 H   0  0  0  0  0  0  0  0  0  0  0  0
    3.3429   -0.6561   -1.1833 H   0  0  0  0  0  0  0  0  0  0  0  0
    4.2981   -1.1751    0.2177 H   0  0  0  0  0  0  0  0  0  0  0  0
    4.0738    0.5467   -0.0924 H   0  0  0  0  0  0  0  0  0  0  0  0
   -1.5014    2.2043    0.1828 N   0  0  0  0  0  0  0  0  0  0  0  0
   -2.4071    3.0311   -0.6248 C   0  0  2  0  0  0  0  0  0  0  0  0
   -1.8384    4.4520   -0.8222 C   0  0  0  0  0  0  0  0  0  0  0  0
   -0.8461    4.8093   -0.1957 O   0  0  0  0  0  0  0  0  0  0  0  0
   -3.7716    3.0854    0.0708 C   0  0  0  0  0  0  0  0  0  0  0  0
   -0.7730    2.7003    0.6967 H   0  0  0  0  0  0  0  0  0  0  0  0
   -2.5246    2.5862   -1.6186 H   0  0  0  0  0  0  0  0  0  0  0  0
   -3.6777    3.5394    1.0625 H   0  0  0  0  0  0  0  0  0  0  0  0
   -4.4805    3.6750   -0.5177 H   0  0  0  0  0  0  0  0  0  0  0  0
   -4.1793    2.0763    0.1871 H   0  0  0  0  0  0  0  0  0  0  0  0
   -2.4275    5.3274   -1.7156 N   0  0  0  0  0  0  0  0  0  0  0  0
   -1.9414    6.6824   -1.9462 C   0  0  0  0  0  0  0  0  0  0  0  0
   -3.2445    5.0035   -2.2253 H   0  0  0  0  0  0  0  0  0  0  0  0
   -1.9933    7.2706   -1.0240 H   0  0  0  0  0  0  0  0  0  0  0  0
   -0.9030    6.6636   -2.2938 H   0  0  0  0  0  0  0  0  0  0  0  0
   -2.5512    7.1787   -2.7073 H   0  0  0  0  0  0  0  0  0  0  0  0
  1  2  2  0  0  0  0
  1  3  1  0  0  0  0
  1  7  1  0  0  0  0
  3  4  1  0  0  0  0
  3  5  1  0  0  0  0
  3  6  1  0  0  0  0
  7  8  1  0  0  0  0
  7 12  1  0  0  0  0
  8  9  1  0  0  0  0
  8 11  1  0  0  0  0
  8 13  1  0  0  0  0
  9 10  2  0  0  0  0
  9 17  1  0  0  0  0
 11 14  1  0  0  0  0
 11 15  1  0  0  0  0
 11 16  1  0  0  0  0
 17 18  1  0  0  0  0
 17 25  1  0  0  0  0
 18 19  1  0  0  0  0
 18 21  1  0  0  0  0
 18 26  1  0  0  0  0
 19 20  2  0  0  0  0
 19 36  1  0  0  0  0
 21 22  1  0  0  0  0
 21 23  1  0  0  0  0
 21 27  1  0  0  0  0
 22 24  1  0  0  0  0
 22 28  1  0  0  0  0
 22 29  1  0  0  0  0
 23 30  1  0  0  0  0
 23 31  1  0  0  0  0
 23 32  1  0  0  0  0
 24 33  1  0  0  0  0
 24 34  1  0  0  0  0
 24 35  1  0  0  0  0
 36 37  1  0  0  0  0
 36 41  1  0  0  0  0
 37 38  1  0  0  0  0
 37 40  1  0  0  0  0
 37 42  1  0  0  0  0
 38 39  2  0  0  0  0
 38 46  1  0  0  0  0
 40 43  1  0  0  0  0
 40 44  1  0  0  0  0
 40 45  1  0  0  0  0
 46 47  1  0  0  0  0
 46 48  1  0  0  0  0
 47 49  1  0  0  0  0
 47 50  1  0  0  0  0
 47 51  1  0  0  0  0
M  END
$$$$

  -OEChem-05262216503D

 51 50  0     1  0  0  0  0  0999 V2000
    1.3297   -5.5213    0.2803 C   0  0  0  0  0  0  0  0  0  0  0  0
    1.1675   -5.4251   -0.9259 O   0  0  0  0  0  0  0  0  0  0  0  0
    2.4808   -6.3448    0.8264 C   0  0  0  0  0  0  0  0  0  0  0  0
    3.0468   -6.7934    0.0053 H   0  0  0  0  0  0  0  0  0  0  0  0
    3.1509   -5.7078    1.4090 H   0  0  0  0  0  0  0  0  0  0  0  0
    2.0982   -7.1422    1.4678 H   0  0  0  0  0  0  0  0  0  0  0  0
    0.4879   -4.8697    1.1576 N   0  0  0  0  0  0  0  0  0  0  0  0
   -0.4529   -3.8170    0.7466 C   0  0  2  0  0  0  0  0  0  0  0  0
    0.0338   -2.4205    1.1865 C   0  0  0  0  0  0  0  0  0  0  0  0
    0.8318   -2.3091    2.1123 O   0  0  0  0  0  0  0  0  0  0  0  0
   -1.8135   -4.1367    1.3704 C   0  0  0  0  0  0  0  0  0  0  0  0
    0.8209   -4.8166    2.1180 H   0  0  0  0  0  0  0  0  0  0  0  0
   -0.5668   -3.8004   -0.3425 H   0  0  0  0  0  0  0  0  0  0  0  0
   -1.7465   -4.1294    2.4631 H   0  0  0  0  0  0  0  0  0  0  0  0
   -2.5592   -3.3972    1.0624 H   0  0  0  0  0  0  0  0  0  0  0  0
   -2.1546   -5.1253    1.0474 H   0  0  0  0  0  0  0  0  0  0  0  0
   -0.5370   -1.2833    0.6510 N   0  0  0  0  0  0  0  0  0  0  0  0
   -0.0768    0.1160    0.7804 C   0  0  2  0  0  0  0  0  0  0  0  0
   -1.3010    0.9803    0.3285 C   0  0  0  0  0  0  0  0  0  0  0  0
   -2.3177    0.4363   -0.1014 O   0  0  0  0  0  0  0  0  0  0  0  0
    1.1745    0.4022   -0.1504 C   0  0  2  0  0  0  0  0  0  0  0  0
    2.4367   -0.4347    0.2008 C   0  0  0  0  0  0  0  0  0  0  0  0
    1.5889    1.8942   -0.1229 C   0  0  0  0  0  0  0  0  0  0  0  0
    3.5601   -0.3633   -0.8447 C   0  0  0  0  0  0  0  0  0  0  0  0
   -1.3235   -1.4246    0.0156 H   0  0  0  0  0  0  0  0  0  0  0  0
    0.1654    0.3461    1.8231 H   0  0  0  0  0  0  0  0  0  0  0  0
    0.8868    0.1459   -1.1760 H   0  0  0  0  0  0  0  0  0  0  0  0
    2.8184   -0.1512    1.1871 H   0  0  0  0  0  0  0  0  0  0  0  0
    2.1747   -1.4890    0.2322 H   0  0  0  0  0  0  0  0  0  0  0  0
    1.5463    2.2863    0.8981 H   0  0  0  0  0  0  0  0  0  0  0  0
    2.6000    2.0562   -0.4970 H   0  0  0  0  0  0  0  0  0  0  0  0
    0.9398    2.4878   -0.7705 H   0  0  0  0  0  0  0  0  0  0  0  0
    3.1564   -0.4948   -1.8534 H   0  0  0  0  0  0  0  0  0  0  0  0
    4.2852   -1.1615   -0.6580 H   0  0  0  0  0  0  0  0  0  0  0  0
    4.0992    0.5861   -0.7998 H   0  0  0  0  0  0  0  0  0  0  0  0
   -1.2889    2.3626    0.3071 N   0  0  0  0  0  0  0  0  0  0  0  0
   -2.3401    3.2180   -0.2602 C   0  0  2  0  0  0  0  0  0  0  0  0
   -1.7641    4.5683   -0.7376 C   0  0  0  0  0  0  0  0  0  0  0  0
   -0.6082    4.8751   -0.4640 O   0  0  0  0  0  0  0  0  0  0  0  0
   -3.4183    3.4411    0.8056 C   0  0  0  0  0  0  0  0  0  0  0  0
   -0.4107    2.8242    0.5427 H   0  0  0  0  0  0  0  0  0  0  0  0
   -2.7865    2.7260   -1.1311 H   0  0  0  0  0  0  0  0  0  0  0  0
   -2.9900    3.9314    1.6858 H   0  0  0  0  0  0  0  0  0  0  0  0
   -4.2237    4.0694    0.4139 H   0  0  0  0  0  0  0  0  0  0  0  0
   -3.8496    2.4839    1.1150 H   0  0  0  0  0  0  0  0  0  0  0  0
   -2.5361    5.4372   -1.4864 N   0  0  0  0  0  0  0  0  0  0  0  0
   -2.0518    6.7245   -1.9706 C   0  0  0  0  0  0  0  0  0  0  0  0
   -3.4879    5.1555   -1.7033 H   0  0  0  0  0  0  0  0  0  0  0  0
   -1.7652    7.3664   -1.1308 H   0  0  0  0  0  0  0  0  0  0  0  0
   -1.1825    6.5872   -2.6224 H   0  0  0  0  0  0  0  0  0  0  0  0
   -2.8348    7.2322   -2.5421 H   0  0  0  0  0  0  0  0  0  0  0  0
  1  2  2  0  0  0  0
  1  3  1  0  0  0  0
  1  7  1  0  0  0  0
  3  4  1  0  0  0  0
  3  5  1  0  0  0  0
  3  6  1  0  0  0  0
  7  8  1  0  0  0  0
  7 12  1  0  0  0  0
  8  9  1  0  0  0  0
  8 11  1  0  0  0  0
  8 13  1  0  0  0  0
  9 10  2  0  0  0  0
  9 17  1  0  0  0  0
 11 14  1  0  0  0  0
 11 15  1  0  0  0  0
 11 16  1  0  0  0  0
 17 18  1  0  0  0  0
 17 25  1  0  0  0  0
 18 19  1  0  0  0  0
 18 21  1  0  0  0  0
 18 26  1  0  0  0  0
 19 20  2  0  0  0  0
 19 36  1  0  0  0  0
 21 22  1  0  0  0  0
 21 23  1  0  0  0  0
 21 27  1  0  0  0  0
 22 24  1  0  0  0  0
 22 28  1  0  0  0  0
 22 29  1  0  0  0  0
 23 30  1  0  0  0  0
 23 31  1  0  0  0  0
 23 32  1  0  0  0  0
 24 33  1  0  0  0  0
 24 34  1  0  0  0  0
 24 35  1  0  0  0  0
 36 37  1  0  0  0  0
 36 41  1  0  0  0  0
 37 38  1  0  0  0  0
 37 40  1  0  0  0  0
 37 42  1  0  0  0  0
 38 39  2  0  0  0  0
 38 46  1  0  0  0  0
 40 43  1  0  0  0  0
 40 44  1  0  0  0  0
 40 45  1  0  0  0  0
 46 47  1  0  0  0  0
 46 48  1  0  0  0  0
 47 49  1  0  0  0  0
 47 50  1  0  0  0  0
 47 51  1  0  0  0  0
M  END
$$$$

  -OEChem-05262216503D

 51 50  0     1  0  0  0  0  0999 V2000
    1.2682   -5.4337    0.2408 C   0  0  0  0  0  0  0  0  0  0  0  0
    1.1518   -5.2581   -0.9619 O   0  0  0  0  0  0  0  0  0  0  0  0
    2.4109   -6.2759    0.7763 C   0  0  0  0  0  0  0  0  0  0  0  0
    3.0391   -6.6265   -0.0475 H   0  0  0  0  0  0  0  0  0  0  0  0
    3.0241   -5.6808    1.4580 H   0  0  0  0  0  0  0  0  0  0  0  0
    2.0173   -7.1424    1.3134 H   0  0  0  0  0  0  0  0  0  0  0  0
    0.3868   -4.8480    1.1256 N   0  0  0  0  0  0  0  0  0  0  0  0
   -0.5311   -3.7653    0.7424 C   0  0  2  0  0  0  0  0  0  0  0  0
    0.0153   -2.3846    1.1604 C   0  0  0  0  0  0  0  0  0  0  0  0
    0.8086   -2.2942    2.0924 O   0  0  0  0  0  0  0  0  0  0  0  0
   -1.8799   -4.0368    1.4125 C   0  0  0  0  0  0  0  0  0  0  0  0
    0.6866   -4.8533    2.0978 H   0  0  0  0  0  0  0  0  0  0  0  0
   -0.6824   -3.7505   -0.3421 H   0  0  0  0  0  0  0  0  0  0  0  0
   -1.7747   -4.0352    2.5023 H   0  0  0  0  0  0  0  0  0  0  0  0
   -2.6083   -3.2691    1.1327 H   0  0  0  0  0  0  0  0  0  0  0  0
   -2.2676   -5.0113    1.0995 H   0  0  0  0  0  0  0  0  0  0  0  0
   -0.5101   -1.2338    0.6078 N   0  0  0  0  0  0  0  0  0  0  0  0
   -0.0135    0.1524    0.7437 C   0  0  2  0  0  0  0  0  0  0  0  0
   -1.2170    1.0346    0.2549 C   0  0  0  0  0  0  0  0  0  0  0  0
   -2.3181    0.5177    0.0680 O   0  0  0  0  0  0  0  0  0  0  0  0
    1.2749    0.4031   -0.1473 C   0  0  2  0  0  0  0  0  0  0  0  0
    2.5045   -0.4657    0.2428 C   0  0  0  0  0  0  0  0  0  0  0  0
    1.7355    1.8831   -0.0710 C   0  0  0  0  0  0  0  0  0  0  0  0
    3.6598   -0.4230   -0.7707 C   0  0  0  0  0  0  0  0  0  0  0  0
   -1.3244   -1.3501    0.0039 H   0  0  0  0  0  0  0  0  0  0  0  0
    0.2023    0.3810    1.7923 H   0  0  0  0  0  0  0  0  0  0  0  0
    1.0178    0.1683   -1.1862 H   0  0  0  0  0  0  0  0  0  0  0  0
    2.8623   -0.1941    1.2415 H   0  0  0  0  0  0  0  0  0  0  0  0
    2.2158   -1.5133    0.2625 H   0  0  0  0  0  0  0  0  0  0  0  0
    1.4754    2.3208    0.8982 H   0  0  0  0  0  0  0  0  0  0  0  0
    2.8120    2.0036   -0.1931 H   0  0  0  0  0  0  0  0  0  0  0  0
    1.2734    2.4670   -0.8719 H   0  0  0  0  0  0  0  0  0  0  0  0
    3.2828   -0.5741   -1.7869 H   0  0  0  0  0  0  0  0  0  0  0  0
    4.3713   -1.2239   -0.5470 H   0  0  0  0  0  0  0  0  0  0  0  0
    4.2070    0.5218   -0.7349 H   0  0  0  0  0  0  0  0  0  0  0  0
   -1.1288    2.3750   -0.0717 N   0  0  0  0  0  0  0  0  0  0  0  0
   -2.2029    3.1900   -0.6554 C   0  0  2  0  0  0  0  0  0  0  0  0
   -1.6299    4.3776   -1.4572 C   0  0  0  0  0  0  0  0  0  0  0  0
   -0.4383    4.6568   -1.3759 O   0  0  0  0  0  0  0  0  0  0  0  0
   -3.1076    3.6942    0.4746 C   0  0  0  0  0  0  0  0  0  0  0  0
   -0.2094    2.8107   -0.0223 H   0  0  0  0  0  0  0  0  0  0  0  0
   -2.7930    2.5811   -1.3484 H   0  0  0  0  0  0  0  0  0  0  0  0
   -2.5369    4.3121    1.1755 H   0  0  0  0  0  0  0  0  0  0  0  0
   -3.9298    4.2930    0.0713 H   0  0  0  0  0  0  0  0  0  0  0  0
   -3.5365    2.8502    1.0241 H   0  0  0  0  0  0  0  0  0  0  0  0
   -2.4479    5.1314   -2.2783 N   0  0  0  0  0  0  0  0  0  0  0  0
   -1.9688    6.2617   -3.0647 C   0  0  0  0  0  0  0  0  0  0  0  0
   -3.4298    4.8757   -2.3302 H   0  0  0  0  0  0  0  0  0  0  0  0
   -1.5370    7.0279   -2.4120 H   0  0  0  0  0  0  0  0  0  0  0  0
   -1.2056    5.9346   -3.7789 H   0  0  0  0  0  0  0  0  0  0  0  0
   -2.7951    6.7110   -3.6237 H   0  0  0  0  0  0  0  0  0  0  0  0
  1  2  2  0  0  0  0
  1  3  1  0  0  0  0
  1  7  1  0  0  0  0
  3  4  1  0  0  0  0
  3  5  1  0  0  0  0
  3  6  1  0  0  0  0
  7  8  1  0  0  0  0
  7 12  1  0  0  0  0
  8  9  1  0  0  0  0
  8 11  1  0  0  0  0
  8 13  1  0  0  0  0
  9 10  2  0  0  0  0
  9 17  1  0  0  0  0
 11 14  1  0  0  0  0
 11 15  1  0  0  0  0
 11 16  1  0  0  0  0
 17 18  1  0  0  0  0
 17 25  1  0  0  0  0
 18 19  1  0  0  0  0
 18 21  1  0  0  0  0
 18 26  1  0  0  0  0
 19 20  2  0  0  0  0
 19 36  1  0  0  0  0
 21 22  1  0  0  0  0
 21 23  1  0  0  0  0
 21 27  1  0  0  0  0
 22 24  1  0  0  0  0
 22 28  1  0  0  0  0
 22 29  1  0  0  0  0
 23 30  1  0  0  0  0
 23 31  1  0  0  0  0
 23 32  1  0  0  0  0
 24 33  1  0  0  0  0
 24 34  1  0  0  0  0
 24 35  1  0  0  0  0
 36 37  1  0  0  0  0
 36 41  1  0  0  0  0
 37 38  1  0  0  0  0
 37 40  1  0  0  0  0
 37 42  1  0  0  0  0
 38 39  2  0  0  0  0
 38 46  1  0  0  0  0
 40 43  1  0  0  0  0
 40 44  1  0  0  0  0
 40 45  1  0  0  0  0
 46 47  1  0  0  0  0
 46 48  1  0  0  0  0
 47 49  1  0  0  0  0
 47 50  1  0  0  0  0
 47 51  1  0  0  0  0
M  END
$$$$

  -OEChem-05262216503D

 51 50  0     1  0  0  0  0  0999 V2000
    0.7393   -4.7893   -0.1569 C   0  0  0  0  0  0  0  0  0  0  0  0
    0.2302   -4.2442   -1.1247 O   0  0  0  0  0  0  0  0  0  0  0  0
    1.9465   -5.6895   -0.3411 C   0  0  0  0  0  0  0  0  0  0  0  0
    2.2266   -5.7331   -1.3973 H   0  0  0  0  0  0  0  0  0  0  0  0
    2.7921   -5.2998    0.2311 H   0  0  0  0  0  0  0  0  0  0  0  0
    1.7157   -6.7002    0.0041 H   0  0  0  0  0  0  0  0  0  0  0  0
    0.2487   -4.5534    1.1111 N   0  0  0  0  0  0  0  0  0  0  0  0
   -0.6979   -3.4645    1.3859 C   0  0  2  0  0  0  0  0  0  0  0  0
    0.0324   -2.1180    1.5620 C   0  0  0  0  0  0  0  0  0  0  0  0
    1.0786   -2.0732    2.2003 O   0  0  0  0  0  0  0  0  0  0  0  0
   -1.4839   -3.8221    2.6488 C   0  0  0  0  0  0  0  0  0  0  0  0
    0.8633   -4.8261    1.8737 H   0  0  0  0  0  0  0  0  0  0  0  0
   -1.4080   -3.3661    0.5577 H   0  0  0  0  0  0  0  0  0  0  0  0
   -0.8098   -3.9193    3.5061 H   0  0  0  0  0  0  0  0  0  0  0  0
   -2.2192   -3.0426    2.8723 H   0  0  0  0  0  0  0  0  0  0  0  0
   -2.0145   -4.7692    2.5114 H   0  0  0  0  0  0  0  0  0  0  0  0
   -0.5533   -0.9501    1.1149 N   0  0  0  0  0  0  0  0  0  0  0  0
    0.0546    0.3968    1.0729 C   0  0  2  0  0  0  0  0  0  0  0  0
   -1.2351    1.2740    0.8688 C   0  0  0  0  0  0  0  0  0  0  0  0
   -2.2422    1.0161    1.5157 O   0  0  0  0  0  0  0  0  0  0  0  0
    1.1124    0.6115   -0.0701 C   0  0  2  0  0  0  0  0  0  0  0  0
    2.3612   -0.3048    0.0302 C   0  0  0  0  0  0  0  0  0  0  0  0
    1.7242    2.0398    0.0235 C   0  0  0  0  0  0  0  0  0  0  0  0
    3.2400   -0.2618   -1.2254 C   0  0  0  0  0  0  0  0  0  0  0  0
   -1.5361   -1.0129    0.8535 H   0  0  0  0  0  0  0  0  0  0  0  0
    0.5071    0.6418    2.0394 H   0  0  0  0  0  0  0  0  0  0  0  0
    0.6207    0.4565   -1.0348 H   0  0  0  0  0  0  0  0  0  0  0  0
    2.9497   -0.0883    0.9281 H   0  0  0  0  0  0  0  0  0  0  0  0
    2.0345   -1.3415    0.0923 H   0  0  0  0  0  0  0  0  0  0  0  0
    1.0027    2.8068    0.2963 H   0  0  0  0  0  0  0  0  0  0  0  0
    2.1624    2.3262   -0.9368 H   0  0  0  0  0  0  0  0  0  0  0  0
    2.5083    2.0819    0.7864 H   0  0  0  0  0  0  0  0  0  0  0  0
    2.6403   -0.4507   -2.1211 H   0  0  0  0  0  0  0  0  0  0  0  0
    4.0138   -1.0329   -1.1606 H   0  0  0  0  0  0  0  0  0  0  0  0
    3.7363    0.7069   -1.3291 H   0  0  0  0  0  0  0  0  0  0  0  0
   -1.4090    2.4795    0.2255 N   0  0  0  0  0  0  0  0  0  0  0  0
   -1.3128    2.6325   -1.2391 C   0  0  2  0  0  0  0  0  0  0  0  0
   -1.8335    4.0175   -1.6825 C   0  0  0  0  0  0  0  0  0  0  0  0
   -2.5933    4.6535   -0.9630 O   0  0  0  0  0  0  0  0  0  0  0  0
   -2.1414    1.5465   -1.9434 C   0  0  0  0  0  0  0  0  0  0  0  0
   -2.2295    2.9557    0.6052 H   0  0  0  0  0  0  0  0  0  0  0  0
   -0.2765    2.5593   -1.5701 H   0  0  0  0  0  0  0  0  0  0  0  0
   -3.1829    1.5847   -1.6064 H   0  0  0  0  0  0  0  0  0  0  0  0
   -2.1230    1.6933   -3.0279 H   0  0  0  0  0  0  0  0  0  0  0  0
   -1.7439    0.5496   -1.7313 H   0  0  0  0  0  0  0  0  0  0  0  0
   -1.4520    4.5512   -2.9001 N   0  0  0  0  0  0  0  0  0  0  0  0
   -1.9022    5.8541   -3.3758 C   0  0  0  0  0  0  0  0  0  0  0  0
   -0.8278    4.0040   -3.4848 H   0  0  0  0  0  0  0  0  0  0  0  0
   -2.9949    5.8815   -3.4446 H   0  0  0  0  0  0  0  0  0  0  0  0
   -1.5722    6.6454   -2.6944 H   0  0  0  0  0  0  0  0  0  0  0  0
   -1.4890    6.0578   -4.3683 H   0  0  0  0  0  0  0  0  0  0  0  0
  1  2  2  0  0  0  0
  1  3  1  0  0  0  0
  1  7  1  0  0  0  0
  3  4  1  0  0  0  0
  3  5  1  0  0  0  0
  3  6  1  0  0  0  0
  7  8  1  0  0  0  0
  7 12  1  0  0  0  0
  8  9  1  0  0  0  0
  8 11  1  0  0  0  0
  8 13  1  0  0  0  0
  9 10  2  0  0  0  0
  9 17  1  0  0  0  0
 11 14  1  0  0  0  0
 11 15  1  0  0  0  0
 11 16  1  0  0  0  0
 17 18  1  0  0  0  0
 17 25  1  0  0  0  0
 18 19  1  0  0  0  0
 18 21  1  0  0  0  0
 18 26  1  0  0  0  0
 19 20  2  0  0  0  0
 19 36  1  0  0  0  0
 21 22  1  0  0  0  0
 21 23  1  0  0  0  0
 21 27  1  0  0  0  0
 22 24  1  0  0  0  0
 22 28  1  0  0  0  0
 22 29  1  0  0  0  0
 23 30  1  0  0  0  0
 23 31  1  0  0  0  0
 23 32  1  0  0  0  0
 24 33  1  0  0  0  0
 24 34  1  0  0  0  0
 24 35  1  0  0  0  0
 36 37  1  0  0  0  0
 36 41  1  0  0  0  0
 37 38  1  0  0  0  0
 37 40  1  0  0  0  0
 37 42  1  0  0  0  0
 38 39  2  0  0  0  0
 38 46  1  0  0  0  0
 40 43  1  0  0  0  0
 40 44  1  0  0  0  0
 40 45  1  0  0  0  0
 46 47  1  0  0  0  0
 46 48  1  0  0  0  0
 47 49  1  0  0  0  0
 47 50  1  0  0  0  0
 47 51  1  0  0  0  0
M  END
$$$$

  -OEChem-05262216503D

 51 50  0     1  0  0  0  0  0999 V2000
    1.1710   -5.4666    0.2419 C   0  0  0  0  0  0  0  0  0  0  0  0
    1.0110   -5.3628   -0.9642 O   0  0  0  0  0  0  0  0  0  0  0  0
    2.2971   -6.3263    0.7846 C   0  0  0  0  0  0  0  0  0  0  0  0
    2.8478   -6.7906   -0.0384 H   0  0  0  0  0  0  0  0  0  0  0  0
    2.9877   -5.7116    1.3677 H   0  0  0  0  0  0  0  0  0  0  0  0
    1.8906   -7.1132    1.4246 H   0  0  0  0  0  0  0  0  0  0  0  0
    0.3509   -4.7888    1.1201 N   0  0  0  0  0  0  0  0  0  0  0  0
   -0.5473   -3.7005    0.7071 C   0  0  2  0  0  0  0  0  0  0  0  0
    0.0230   -2.3188    1.0905 C   0  0  0  0  0  0  0  0  0  0  0  0
    0.8153   -2.2231    2.0223 O   0  0  0  0  0  0  0  0  0  0  0  0
   -1.9013   -3.9325    1.3815 C   0  0  0  0  0  0  0  0  0  0  0  0
    0.6854   -4.7479    2.0805 H   0  0  0  0  0  0  0  0  0  0  0  0
   -0.6959   -3.7101   -0.3778 H   0  0  0  0  0  0  0  0  0  0  0  0
   -1.7982   -3.9032    2.4709 H   0  0  0  0  0  0  0  0  0  0  0  0
   -2.6171   -3.1616    1.0794 H   0  0  0  0  0  0  0  0  0  0  0  0
   -2.3041   -4.9088    1.0944 H   0  0  0  0  0  0  0  0  0  0  0  0
   -0.4764   -1.1752    0.4979 N   0  0  0  0  0  0  0  0  0  0  0  0
    0.0119    0.2088    0.6706 C   0  0  2  0  0  0  0  0  0  0  0  0
   -1.1701    1.0614    0.0974 C   0  0  0  0  0  0  0  0  0  0  0  0
   -2.3248    0.7195    0.3373 O   0  0  0  0  0  0  0  0  0  0  0  0
    1.3446    0.5231   -0.1109 C   0  0  2  0  0  0  0  0  0  0  0  0
    2.5714   -0.3134    0.3332 C   0  0  0  0  0  0  0  0  0  0  0  0
    1.7596    2.0114    0.0891 C   0  0  0  0  0  0  0  0  0  0  0  0
    3.7640   -0.1665   -0.6223 C   0  0  0  0  0  0  0  0  0  0  0  0
   -1.3129   -1.2917   -0.0721 H   0  0  0  0  0  0  0  0  0  0  0  0
    0.1410    0.4370    1.7338 H   0  0  0  0  0  0  0  0  0  0  0  0
    1.1638    0.3317   -1.1747 H   0  0  0  0  0  0  0  0  0  0  0  0
    2.8609   -0.0641    1.3597 H   0  0  0  0  0  0  0  0  0  0  0  0
    2.3213   -1.3725    0.3044 H   0  0  0  0  0  0  0  0  0  0  0  0
    1.0474    2.5541    0.7175 H   0  0  0  0  0  0  0  0  0  0  0  0
    1.8254    2.5143   -0.8813 H   0  0  0  0  0  0  0  0  0  0  0  0
    2.7310    2.1117    0.5830 H   0  0  0  0  0  0  0  0  0  0  0  0
    3.4696   -0.4329   -1.6422 H   0  0  0  0  0  0  0  0  0  0  0  0
    4.5719   -0.8357   -0.3110 H   0  0  0  0  0  0  0  0  0  0  0  0
    4.1545    0.8546   -0.6280 H   0  0  0  0  0  0  0  0  0  0  0  0
   -1.0214    2.1372   -0.7602 N   0  0  0  0  0  0  0  0  0  0  0  0
   -2.1123    2.8510   -1.4364 C   0  0  2  0  0  0  0  0  0  0  0  0
   -1.6289    3.4805   -2.7598 C   0  0  0  0  0  0  0  0  0  0  0  0
   -0.4286    3.5486   -3.0034 O   0  0  0  0  0  0  0  0  0  0  0  0
   -2.6492    3.9308   -0.4908 C   0  0  0  0  0  0  0  0  0  0  0  0
   -0.0781    2.3402   -1.0904 H   0  0  0  0  0  0  0  0  0  0  0  0
   -2.9172    2.1501   -1.6814 H   0  0  0  0  0  0  0  0  0  0  0  0
   -1.8575    4.6411   -0.2315 H   0  0  0  0  0  0  0  0  0  0  0  0
   -3.4706    4.4803   -0.9603 H   0  0  0  0  0  0  0  0  0  0  0  0
   -3.0238    3.4759    0.4318 H   0  0  0  0  0  0  0  0  0  0  0  0
   -2.5383    3.9549   -3.6873 N   0  0  0  0  0  0  0  0  0  0  0  0
   -2.1486    4.5463   -4.9620 C   0  0  0  0  0  0  0  0  0  0  0  0
   -3.5260    3.8766   -3.4624 H   0  0  0  0  0  0  0  0  0  0  0  0
   -1.5551    5.4521   -4.7988 H   0  0  0  0  0  0  0  0  0  0  0  0
   -1.5556    3.8371   -5.5494 H   0  0  0  0  0  0  0  0  0  0  0  0
   -3.0372    4.8150   -5.5415 H   0  0  0  0  0  0  0  0  0  0  0  0
  1  2  2  0  0  0  0
  1  3  1  0  0  0  0
  1  7  1  0  0  0  0
  3  4  1  0  0  0  0
  3  5  1  0  0  0  0
  3  6  1  0  0  0  0
  7  8  1  0  0  0  0
  7 12  1  0  0  0  0
  8  9  1  0  0  0  0
  8 11  1  0  0  0  0
  8 13  1  0  0  0  0
  9 10  2  0  0  0  0
  9 17  1  0  0  0  0
 11 14  1  0  0  0  0
 11 15  1  0  0  0  0
 11 16  1  0  0  0  0
 17 18  1  0  0  0  0
 17 25  1  0  0  0  0
 18 19  1  0  0  0  0
 18 21  1  0  0  0  0
 18 26  1  0  0  0  0
 19 20  2  0  0  0  0
 19 36  1  0  0  0  0
 21 22  1  0  0  0  0
 21 23  1  0  0  0  0
 21 27  1  0  0  0  0
 22 24  1  0  0  0  0
 22 28  1  0  0  0  0
 22 29  1  0  0  0  0
 23 30  1  0  0  0  0
 23 31  1  0  0  0  0
 23 32  1  0  0  0  0
 24 33  1  0  0  0  0
 24 34  1  0  0  0  0
 24 35  1  0  0  0  0
 36 37  1  0  0  0  0
 36 41  1  0  0  0  0
 37 38  1  0  0  0  0
 37 40  1  0  0  0  0
 37 42  1  0  0  0  0
 38 39  2  0  0  0  0
 38 46  1  0  0  0  0
 40 43  1  0  0  0  0
 40 44  1  0  0  0  0
 40 45  1  0  0  0  0
 46 47  1  0  0  0  0
 46 48  1  0  0  0  0
 47 49  1  0  0  0  0
 47 50  1  0  0  0  0
 47 51  1  0  0  0  0
M  END
$$$$

  -OEChem-05262216503D

 51 50  0     1  0  0  0  0  0999 V2000
    1.1832   -5.4523    0.3022 C   0  0  0  0  0  0  0  0  0  0  0  0
    1.0231   -5.3774   -0.9058 O   0  0  0  0  0  0  0  0  0  0  0  0
    2.3152   -6.2902    0.8659 C   0  0  0  0  0  0  0  0  0  0  0  0
    2.8517   -6.7927    0.0562 H   0  0  0  0  0  0  0  0  0  0  0  0
    3.0155   -5.6518    1.4102 H   0  0  0  0  0  0  0  0  0  0  0  0
    1.9168   -7.0458    1.5472 H   0  0  0  0  0  0  0  0  0  0  0  0
    0.3566   -4.7613    1.1635 N   0  0  0  0  0  0  0  0  0  0  0  0
   -0.5610   -3.6991    0.7261 C   0  0  2  0  0  0  0  0  0  0  0  0
   -0.0138   -2.2999    1.0765 C   0  0  0  0  0  0  0  0  0  0  0  0
    0.7574   -2.1689    2.0213 O   0  0  0  0  0  0  0  0  0  0  0  0
   -1.9077   -3.9379    1.4122 C   0  0  0  0  0  0  0  0  0  0  0  0
    0.6893   -4.6938    2.1230 H   0  0  0  0  0  0  0  0  0  0  0  0
   -0.7119   -3.7381   -0.3577 H   0  0  0  0  0  0  0  0  0  0  0  0
   -1.7983   -3.8841    2.5003 H   0  0  0  0  0  0  0  0  0  0  0  0
   -2.6372   -3.1846    1.0986 H   0  0  0  0  0  0  0  0  0  0  0  0
   -2.2965   -4.9264    1.1482 H   0  0  0  0  0  0  0  0  0  0  0  0
   -0.5070   -1.1787    0.4364 N   0  0  0  0  0  0  0  0  0  0  0  0
   -0.0169    0.2087    0.5770 C   0  0  2  0  0  0  0  0  0  0  0  0
   -1.1938    1.0255   -0.0436 C   0  0  0  0  0  0  0  0  0  0  0  0
   -2.3295    0.8480    0.3834 O   0  0  0  0  0  0  0  0  0  0  0  0
    1.3289    0.5222   -0.1796 C   0  0  2  0  0  0  0  0  0  0  0  0
    2.5434   -0.3018    0.3212 C   0  0  0  0  0  0  0  0  0  0  0  0
    1.7500    2.0033    0.0444 C   0  0  0  0  0  0  0  0  0  0  0  0
    3.7717   -0.1809   -0.5887 C   0  0  0  0  0  0  0  0  0  0  0  0
   -1.3108   -1.3239   -0.1707 H   0  0  0  0  0  0  0  0  0  0  0  0
    0.0860    0.4709    1.6354 H   0  0  0  0  0  0  0  0  0  0  0  0
    1.1811    0.3274   -1.2476 H   0  0  0  0  0  0  0  0  0  0  0  0
    2.7993   -0.0416    1.3538 H   0  0  0  0  0  0  0  0  0  0  0  0
    2.2887   -1.3603    0.2981 H   0  0  0  0  0  0  0  0  0  0  0  0
    2.1195    2.1447    1.0654 H   0  0  0  0  0  0  0  0  0  0  0  0
    2.5436    2.2853   -0.6530 H   0  0  0  0  0  0  0  0  0  0  0  0
    0.9396    2.7172   -0.0970 H   0  0  0  0  0  0  0  0  0  0  0  0
    3.4981   -0.3729   -1.6309 H   0  0  0  0  0  0  0  0  0  0  0  0
    4.5267   -0.9145   -0.2900 H   0  0  0  0  0  0  0  0  0  0  0  0
    4.2218    0.8128   -0.5178 H   0  0  0  0  0  0  0  0  0  0  0  0
   -1.0726    1.8571   -1.1429 N   0  0  0  0  0  0  0  0  0  0  0  0
   -2.1723    2.5574   -1.8183 C   0  0  2  0  0  0  0  0  0  0  0  0
   -1.7827    2.9346   -3.2630 C   0  0  0  0  0  0  0  0  0  0  0  0
   -0.6178    2.8282   -3.6323 O   0  0  0  0  0  0  0  0  0  0  0  0
   -2.5234    3.8154   -1.0148 C   0  0  0  0  0  0  0  0  0  0  0  0
   -0.1573    1.9102   -1.5908 H   0  0  0  0  0  0  0  0  0  0  0  0
   -3.0483    1.9022   -1.8713 H   0  0  0  0  0  0  0  0  0  0  0  0
   -1.6567    4.4809   -0.9487 H   0  0  0  0  0  0  0  0  0  0  0  0
   -3.3455    4.3592   -1.4894 H   0  0  0  0  0  0  0  0  0  0  0  0
   -2.8331    3.5463    0.0000 H   0  0  0  0  0  0  0  0  0  0  0  0
   -2.7381    3.3858   -4.1545 N   0  0  0  0  0  0  0  0  0  0  0  0
   -2.4333    3.7706   -5.5271 C   0  0  0  0  0  0  0  0  0  0  0  0
   -3.6951    3.4621   -3.8226 H   0  0  0  0  0  0  0  0  0  0  0  0
   -1.7169    4.5987   -5.5429 H   0  0  0  0  0  0  0  0  0  0  0  0
   -2.0064    2.9250   -6.0763 H   0  0  0  0  0  0  0  0  0  0  0  0
   -3.3441    4.0923   -6.0415 H   0  0  0  0  0  0  0  0  0  0  0  0
  1  2  2  0  0  0  0
  1  3  1  0  0  0  0
  1  7  1  0  0  0  0
  3  4  1  0  0  0  0
  3  5  1  0  0  0  0
  3  6  1  0  0  0  0
  7  8  1  0  0  0  0
  7 12  1  0  0  0  0
  8  9  1  0  0  0  0
  8 11  1  0  0  0  0
  8 13  1  0  0  0  0
  9 10  2  0  0  0  0
  9 17  1  0  0  0  0
 11 14  1  0  0  0  0
 11 15  1  0  0  0  0
 11 16  1  0  0  0  0
 17 18  1  0  0  0  0
 17 25  1  0  0  0  0
 18 19  1  0  0  0  0
 18 21  1  0  0  0  0
 18 26  1  0  0  0  0
 19 20  2  0  0  0  0
 19 36  1  0  0  0  0
 21 22  1  0  0  0  0
 21 23  1  0  0  0  0
 21 27  1  0  0  0  0
 22 24  1  0  0  0  0
 22 28  1  0  0  0  0
 22 29  1  0  0  0  0
 23 30  1  0  0  0  0
 23 31  1  0  0  0  0
 23 32  1  0  0  0  0
 24 33  1  0  0  0  0
 24 34  1  0  0  0  0
 24 35  1  0  0  0  0
 36 37  1  0  0  0  0
 36 41  1  0  0  0  0
 37 38  1  0  0  0  0
 37 40  1  0  0  0  0
 37 42  1  0  0  0  0
 38 39  2  0  0  0  0
 38 46  1  0  0  0  0
 40 43  1  0  0  0  0
 40 44  1  0  0  0  0
 40 45  1  0  0  0  0
 46 47  1  0  0  0  0
 46 48  1  0  0  0  0
 47 49  1  0  0  0  0
 47 50  1  0  0  0  0
 47 51  1  0  0  0  0
M  END
$$$$

  -OEChem-05262216503D

 51 50  0     1  0  0  0  0  0999 V2000
    1.2673   -5.3168    0.2452 C   0  0  0  0  0  0  0  0  0  0  0  0
    1.1618   -5.1731   -0.9627 O   0  0  0  0  0  0  0  0  0  0  0  0
    2.4158   -6.1272    0.8160 C   0  0  0  0  0  0  0  0  0  0  0  0
    3.0051   -6.5695    0.0080 H   0  0  0  0  0  0  0  0  0  0  0  0
    3.0651   -5.4824    1.4135 H   0  0  0  0  0  0  0  0  0  0  0  0
    2.0288   -6.9296    1.4488 H   0  0  0  0  0  0  0  0  0  0  0  0
    0.3639   -4.7244    1.1029 N   0  0  0  0  0  0  0  0  0  0  0  0
   -0.5896   -3.6891    0.6790 C   0  0  2  0  0  0  0  0  0  0  0  0
   -0.1110   -2.2791    1.0814 C   0  0  0  0  0  0  0  0  0  0  0  0
    0.6041   -2.1375    2.0676 O   0  0  0  0  0  0  0  0  0  0  0  0
   -1.9382   -4.0028    1.3302 C   0  0  0  0  0  0  0  0  0  0  0  0
    0.6467   -4.6973    2.0802 H   0  0  0  0  0  0  0  0  0  0  0  0
   -0.7190   -3.7038   -0.4082 H   0  0  0  0  0  0  0  0  0  0  0  0
   -1.8547   -3.9700    2.4214 H   0  0  0  0  0  0  0  0  0  0  0  0
   -2.6927   -3.2739    1.0180 H   0  0  0  0  0  0  0  0  0  0  0  0
   -2.2778   -5.0007    1.0353 H   0  0  0  0  0  0  0  0  0  0  0  0
   -0.5945   -1.1648    0.4220 N   0  0  0  0  0  0  0  0  0  0  0  0
   -0.0946    0.2191    0.5573 C   0  0  2  0  0  0  0  0  0  0  0  0
   -1.2304    1.0740   -0.0726 C   0  0  0  0  0  0  0  0  0  0  0  0
   -2.3084    1.1529    0.5023 O   0  0  0  0  0  0  0  0  0  0  0  0
    1.2749    0.5089   -0.1633 C   0  0  2  0  0  0  0  0  0  0  0  0
    2.4693   -0.3135    0.3839 C   0  0  0  0  0  0  0  0  0  0  0  0
    1.6699    1.9991    0.0156 C   0  0  0  0  0  0  0  0  0  0  0  0
    3.7256   -0.2183   -0.4901 C   0  0  0  0  0  0  0  0  0  0  0  0
   -1.2813   -1.3416   -0.3065 H   0  0  0  0  0  0  0  0  0  0  0  0
   -0.0065    0.4802    1.6174 H   0  0  0  0  0  0  0  0  0  0  0  0
    1.1603    0.2800   -1.2281 H   0  0  0  0  0  0  0  0  0  0  0  0
    2.6973   -0.0267    1.4159 H   0  0  0  0  0  0  0  0  0  0  0  0
    2.2107   -1.3711    0.3801 H   0  0  0  0  0  0  0  0  0  0  0  0
    1.9273    2.1999    1.0606 H   0  0  0  0  0  0  0  0  0  0  0  0
    2.5320    2.2485   -0.6081 H   0  0  0  0  0  0  0  0  0  0  0  0
    0.8733    2.6900   -0.2634 H   0  0  0  0  0  0  0  0  0  0  0  0
    3.4850   -0.4363   -1.5353 H   0  0  0  0  0  0  0  0  0  0  0  0
    4.4687   -0.9458   -0.1493 H   0  0  0  0  0  0  0  0  0  0  0  0
    4.1775    0.7753   -0.4306 H   0  0  0  0  0  0  0  0  0  0  0  0
   -1.1348    1.6577   -1.3241 N   0  0  0  0  0  0  0  0  0  0  0  0
   -2.2238    2.3463   -2.0279 C   0  0  2  0  0  0  0  0  0  0  0  0
   -2.0352    2.2712   -3.5572 C   0  0  0  0  0  0  0  0  0  0  0  0
   -0.9675    1.8907   -4.0257 O   0  0  0  0  0  0  0  0  0  0  0  0
   -2.2588    3.8046   -1.5598 C   0  0  0  0  0  0  0  0  0  0  0  0
   -0.2826    1.4864   -1.8578 H   0  0  0  0  0  0  0  0  0  0  0  0
   -3.1792    1.8664   -1.7908 H   0  0  0  0  0  0  0  0  0  0  0  0
   -1.3131    4.3042   -1.7935 H   0  0  0  0  0  0  0  0  0  0  0  0
   -3.0714    4.3474   -2.0516 H   0  0  0  0  0  0  0  0  0  0  0  0
   -2.4198    3.8522   -0.4780 H   0  0  0  0  0  0  0  0  0  0  0  0
   -3.0681    2.6119   -4.4106 N   0  0  0  0  0  0  0  0  0  0  0  0
   -2.9628    2.5402   -5.8631 C   0  0  0  0  0  0  0  0  0  0  0  0
   -3.9443    2.9142   -3.9947 H   0  0  0  0  0  0  0  0  0  0  0  0
   -2.1698    3.2038   -6.2239 H   0  0  0  0  0  0  0  0  0  0  0  0
   -2.7376    1.5168   -6.1811 H   0  0  0  0  0  0  0  0  0  0  0  0
   -3.9058    2.8456   -6.3268 H   0  0  0  0  0  0  0  0  0  0  0  0
  1  2  2  0  0  0  0
  1  3  1  0  0  0  0
  1  7  1  0  0  0  0
  3  4  1  0  0  0  0
  3  5  1  0  0  0  0
  3  6  1  0  0  0  0
  7  8  1  0  0  0  0
  7 12  1  0  0  0  0
  8  9  1  0  0  0  0
  8 11  1  0  0  0  0
  8 13  1  0  0  0  0
  9 10  2  0  0  0  0
  9 17  1  0  0  0  0
 11 14  1  0  0  0  0
 11 15  1  0  0  0  0
 11 16  1  0  0  0  0
 17 18  1  0  0  0  0
 17 25  1  0  0  0  0
 18 19  1  0  0  0  0
 18 21  1  0  0  0  0
 18 26  1  0  0  0  0
 19 20  2  0  0  0  0
 19 36  1  0  0  0  0
 21 22  1  0  0  0  0
 21 23  1  0  0  0  0
 21 27  1  0  0  0  0
 22 24  1  0  0  0  0
 22 28  1  0  0  0  0
 22 29  1  0  0  0  0
 23 30  1  0  0  0  0
 23 31  1  0  0  0  0
 23 32  1  0  0  0  0
 24 33  1  0  0  0  0
 24 34  1  0  0  0  0
 24 35  1  0  0  0  0
 36 37  1  0  0  0  0
 36 41  1  0  0  0  0
 37 38  1  0  0  0  0
 37 40  1  0  0  0  0
 37 42  1  0  0  0  0
 38 39  2  0  0  0  0
 38 46  1  0  0  0  0
 40 43  1  0  0  0  0
 40 44  1  0  0  0  0
 40 45  1  0  0  0  0
 46 47  1  0  0  0  0
 46 48  1  0  0  0  0
 47 49  1  0  0  0  0
 47 50  1  0  0  0  0
 47 51  1  0  0  0  0
M  END
$$$$

  -OEChem-05262216503D

 51 50  0     1  0  0  0  0  0999 V2000
    1.4263   -4.6396    0.0820 C   0  0  0  0  0  0  0  0  0  0  0  0
    1.3473   -4.0798   -1.0010 O   0  0  0  0  0  0  0  0  0  0  0  0
    2.7196   -5.3148    0.4967 C   0  0  0  0  0  0  0  0  0  0  0  0
    3.4792   -5.1836   -0.2789 H   0  0  0  0  0  0  0  0  0  0  0  0
    3.0884   -4.8752    1.4268 H   0  0  0  0  0  0  0  0  0  0  0  0
    2.5505   -6.3836    0.6479 H   0  0  0  0  0  0  0  0  0  0  0  0
    0.3571   -4.6114    0.9541 N   0  0  0  0  0  0  0  0  0  0  0  0
   -0.7760   -3.6994    0.7498 C   0  0  2  0  0  0  0  0  0  0  0  0
   -0.4294   -2.2677    1.2078 C   0  0  0  0  0  0  0  0  0  0  0  0
    0.1695   -2.0946    2.2638 O   0  0  0  0  0  0  0  0  0  0  0  0
   -1.9750   -4.2414    1.5304 C   0  0  0  0  0  0  0  0  0  0  0  0
    0.5722   -4.8667    1.9145 H   0  0  0  0  0  0  0  0  0  0  0  0
   -1.0426   -3.6707   -0.3122 H   0  0  0  0  0  0  0  0  0  0  0  0
   -1.7521   -4.2772    2.6019 H   0  0  0  0  0  0  0  0  0  0  0  0
   -2.8483   -3.5991    1.3798 H   0  0  0  0  0  0  0  0  0  0  0  0
   -2.2242   -5.2514    1.1905 H   0  0  0  0  0  0  0  0  0  0  0  0
   -0.8367   -1.1747    0.4667 N   0  0  0  0  0  0  0  0  0  0  0  0
   -0.2456    0.1771    0.5555 C   0  0  2  0  0  0  0  0  0  0  0  0
   -1.2676    1.1114   -0.1407 C   0  0  0  0  0  0  0  0  0  0  0  0
   -2.1898    1.5920    0.5044 O   0  0  0  0  0  0  0  0  0  0  0  0
    1.1664    0.3220   -0.1244 C   0  0  2  0  0  0  0  0  0  0  0  0
    2.2732   -0.5552    0.5147 C   0  0  0  0  0  0  0  0  0  0  0  0
    1.6448    1.7933   -0.0464 C   0  0  0  0  0  0  0  0  0  0  0  0
    3.5638   -0.6067   -0.3107 C   0  0  0  0  0  0  0  0  0  0  0  0
   -1.3278   -1.4007   -0.3939 H   0  0  0  0  0  0  0  0  0  0  0  0
   -0.1675    0.4762    1.6068 H   0  0  0  0  0  0  0  0  0  0  0  0
    1.0743    0.0284   -1.1754 H   0  0  0  0  0  0  0  0  0  0  0  0
    2.4859   -0.2193    1.5351 H   0  0  0  0  0  0  0  0  0  0  0  0
    1.9355   -1.5884    0.5667 H   0  0  0  0  0  0  0  0  0  0  0  0
    1.8049    2.0846    0.9967 H   0  0  0  0  0  0  0  0  0  0  0  0
    2.5813    1.9299   -0.5923 H   0  0  0  0  0  0  0  0  0  0  0  0
    0.9251    2.4882   -0.4844 H   0  0  0  0  0  0  0  0  0  0  0  0
    3.3439   -0.8690   -1.3502 H   0  0  0  0  0  0  0  0  0  0  0  0
    4.2348   -1.3666    0.1009 H   0  0  0  0  0  0  0  0  0  0  0  0
    4.0893    0.3514   -0.2897 H   0  0  0  0  0  0  0  0  0  0  0  0
   -1.2110    1.3823   -1.4969 N   0  0  0  0  0  0  0  0  0  0  0  0
   -2.2386    2.1126   -2.2500 C   0  0  2  0  0  0  0  0  0  0  0  0
   -2.3903    1.5540   -3.6798 C   0  0  0  0  0  0  0  0  0  0  0  0
   -1.5747    0.7473   -4.1133 O   0  0  0  0  0  0  0  0  0  0  0  0
   -1.8477    3.5931   -2.2794 C   0  0  0  0  0  0  0  0  0  0  0  0
   -0.5234    0.8668   -2.0459 H   0  0  0  0  0  0  0  0  0  0  0  0
   -3.2105    2.0059   -1.7565 H   0  0  0  0  0  0  0  0  0  0  0  0
   -0.8869    3.7260   -2.7871 H   0  0  0  0  0  0  0  0  0  0  0  0
   -2.6048    4.1820   -2.8057 H   0  0  0  0  0  0  0  0  0  0  0  0
   -1.7593    3.9800   -1.2591 H   0  0  0  0  0  0  0  0  0  0  0  0
   -3.4553    1.9352   -4.4748 N   0  0  0  0  0  0  0  0  0  0  0  0
   -3.6663    1.4278   -5.8254 C   0  0  0  0  0  0  0  0  0  0  0  0
   -4.1242    2.5930   -4.0848 H   0  0  0  0  0  0  0  0  0  0  0  0
   -2.8144    1.6782   -6.4664 H   0  0  0  0  0  0  0  0  0  0  0  0
   -3.7885    0.3395   -5.8121 H   0  0  0  0  0  0  0  0  0  0  0  0
   -4.5674    1.8708   -6.2603 H   0  0  0  0  0  0  0  0  0  0  0  0
  1  2  2  0  0  0  0
  1  3  1  0  0  0  0
  1  7  1  0  0  0  0
  3  4  1  0  0  0  0
  3  5  1  0  0  0  0
  3  6  1  0  0  0  0
  7  8  1  0  0  0  0
  7 12  1  0  0  0  0
  8  9  1  0  0  0  0
  8 11  1  0  0  0  0
  8 13  1  0  0  0  0
  9 10  2  0  0  0  0
  9 17  1  0  0  0  0
 11 14  1  0  0  0  0
 11 15  1  0  0  0  0
 11 16  1  0  0  0  0
 17 18  1  0  0  0  0
 17 25  1  0  0  0  0
 18 19  1  0  0  0  0
 18 21  1  0  0  0  0
 18 26  1  0  0  0  0
 19 20  2  0  0  0  0
 19 36  1  0  0  0  0
 21 22  1  0  0  0  0
 21 23  1  0  0  0  0
 21 27  1  0  0  0  0
 22 24  1  0  0  0  0
 22 28  1  0  0  0  0
 22 29  1  0  0  0  0
 23 30  1  0  0  0  0
 23 31  1  0  0  0  0
 23 32  1  0  0  0  0
 24 33  1  0  0  0  0
 24 34  1  0  0  0  0
 24 35  1  0  0  0  0
 36 37  1  0  0  0  0
 36 41  1  0  0  0  0
 37 38  1  0  0  0  0
 37 40  1  0  0  0  0
 37 42  1  0  0  0  0
 38 39  2  0  0  0  0
 38 46  1  0  0  0  0
 40 43  1  0  0  0  0
 40 44  1  0  0  0  0
 40 45  1  0  0  0  0
 46 47  1  0  0  0  0
 46 48  1  0  0  0  0
 47 49  1  0  0  0  0
 47 50  1  0  0  0  0
 47 51  1  0  0  0  0
M  END
$$$$

  -OEChem-05262216503D

 51 50  0     1  0  0  0  0  0999 V2000
    1.2836   -4.2272   -0.6398 C   0  0  0  0  0  0  0  0  0  0  0  0
    1.4270   -3.4159   -1.5421 O   0  0  0  0  0  0  0  0  0  0  0  0
    2.4626   -5.0646   -0.1826 C   0  0  0  0  0  0  0  0  0  0  0  0
    3.3371   -4.8553   -0.8049 H   0  0  0  0  0  0  0  0  0  0  0  0
    2.7053   -4.8293    0.8567 H   0  0  0  0  0  0  0  0  0  0  0  0
    2.2199   -6.1268   -0.2629 H   0  0  0  0  0  0  0  0  0  0  0  0
    0.0683   -4.3486    0.0035 N   0  0  0  0  0  0  0  0  0  0  0  0
   -0.9978   -3.3546   -0.1756 C   0  0  2  0  0  0  0  0  0  0  0  0
   -0.7007   -2.0728    0.6279 C   0  0  0  0  0  0  0  0  0  0  0  0
   -0.3590   -2.1453    1.8039 O   0  0  0  0  0  0  0  0  0  0  0  0
   -2.3235   -3.9787    0.2637 C   0  0  0  0  0  0  0  0  0  0  0  0
    0.0904   -4.8429    0.8910 H   0  0  0  0  0  0  0  0  0  0  0  0
   -1.0820   -3.0863   -1.2349 H   0  0  0  0  0  0  0  0  0  0  0  0
   -2.2863   -4.2590    1.3213 H   0  0  0  0  0  0  0  0  0  0  0  0
   -3.1416   -3.2654    0.1224 H   0  0  0  0  0  0  0  0  0  0  0  0
   -2.5366   -4.8731   -0.3295 H   0  0  0  0  0  0  0  0  0  0  0  0
   -0.8345   -0.8430    0.0202 N   0  0  0  0  0  0  0  0  0  0  0  0
   -0.2652    0.4387    0.4800 C   0  0  2  0  0  0  0  0  0  0  0  0
   -1.0424    1.5006   -0.3274 C   0  0  0  0  0  0  0  0  0  0  0  0
   -2.0607    2.0070    0.1263 O   0  0  0  0  0  0  0  0  0  0  0  0
    1.2767    0.6028    0.2360 C   0  0  2  0  0  0  0  0  0  0  0  0
    2.1474   -0.4249    0.9991 C   0  0  0  0  0  0  0  0  0  0  0  0
    1.7226    2.0255    0.6443 C   0  0  0  0  0  0  0  0  0  0  0  0
    3.6142   -0.4298    0.5556 C   0  0  0  0  0  0  0  0  0  0  0  0
   -1.2050   -0.8711   -0.9355 H   0  0  0  0  0  0  0  0  0  0  0  0
   -0.4805    0.5795    1.5450 H   0  0  0  0  0  0  0  0  0  0  0  0
    1.4721    0.4635   -0.8321 H   0  0  0  0  0  0  0  0  0  0  0  0
    2.0763   -0.2570    2.0787 H   0  0  0  0  0  0  0  0  0  0  0  0
    1.7876   -1.4313    0.7917 H   0  0  0  0  0  0  0  0  0  0  0  0
    1.5564    2.1830    1.7149 H   0  0  0  0  0  0  0  0  0  0  0  0
    2.7827    2.1829    0.4317 H   0  0  0  0  0  0  0  0  0  0  0  0
    1.1734    2.7948    0.0949 H   0  0  0  0  0  0  0  0  0  0  0  0
    3.6857   -0.5316   -0.5318 H   0  0  0  0  0  0  0  0  0  0  0  0
    4.1356   -1.2750    1.0155 H   0  0  0  0  0  0  0  0  0  0  0  0
    4.1257    0.4866    0.8611 H   0  0  0  0  0  0  0  0  0  0  0  0
   -0.7446    1.6829   -1.6676 N   0  0  0  0  0  0  0  0  0  0  0  0
   -1.8381    1.8863   -2.6262 C   0  0  2  0  0  0  0  0  0  0  0  0
   -2.6567    0.5891   -2.8332 C   0  0  0  0  0  0  0  0  0  0  0  0
   -2.1593   -0.5065   -2.5776 O   0  0  0  0  0  0  0  0  0  0  0  0
   -1.2218    2.3445   -3.9491 C   0  0  0  0  0  0  0  0  0  0  0  0
    0.0118    1.0855   -1.9913 H   0  0  0  0  0  0  0  0  0  0  0  0
   -2.5124    2.6700   -2.2639 H   0  0  0  0  0  0  0  0  0  0  0  0
   -0.5518    1.5754   -4.3474 H   0  0  0  0  0  0  0  0  0  0  0  0
   -2.0046    2.5394   -4.6886 H   0  0  0  0  0  0  0  0  0  0  0  0
   -0.6485    3.2652   -3.8015 H   0  0  0  0  0  0  0  0  0  0  0  0
   -3.9537    0.6470   -3.3065 N   0  0  0  0  0  0  0  0  0  0  0  0
   -4.8034   -0.5293   -3.4457 C   0  0  0  0  0  0  0  0  0  0  0  0
   -4.3725    1.5671   -3.4072 H   0  0  0  0  0  0  0  0  0  0  0  0
   -4.3465   -1.2537   -4.1284 H   0  0  0  0  0  0  0  0  0  0  0  0
   -4.9564   -1.0088   -2.4731 H   0  0  0  0  0  0  0  0  0  0  0  0
   -5.7801   -0.2450   -3.8493 H   0  0  0  0  0  0  0  0  0  0  0  0
  1  2  2  0  0  0  0
  1  3  1  0  0  0  0
  1  7  1  0  0  0  0
  3  4  1  0  0  0  0
  3  5  1  0  0  0  0
  3  6  1  0  0  0  0
  7  8  1  0  0  0  0
  7 12  1  0  0  0  0
  8  9  1  0  0  0  0
  8 11  1  0  0  0  0
  8 13  1  0  0  0  0
  9 10  2  0  0  0  0
  9 17  1  0  0  0  0
 11 14  1  0  0  0  0
 11 15  1  0  0  0  0
 11 16  1  0  0  0  0
 17 18  1  0  0  0  0
 17 25  1  0  0  0  0
 18 19  1  0  0  0  0
 18 21  1  0  0  0  0
 18 26  1  0  0  0  0
 19 20  2  0  0  0  0
 19 36  1  0  0  0  0
 21 22  1  0  0  0  0
 21 23  1  0  0  0  0
 21 27  1  0  0  0  0
 22 24  1  0  0  0  0
 22 28  1  0  0  0  0
 22 29  1  0  0  0  0
 23 30  1  0  0  0  0
 23 31  1  0  0  0  0
 23 32  1  0  0  0  0
 24 33  1  0  0  0  0
 24 34  1  0  0  0  0
 24 35  1  0  0  0  0
 36 37  1  0  0  0  0
 36 41  1  0  0  0  0
 37 38  1  0  0  0  0
 37 40  1  0  0  0  0
 37 42  1  0  0  0  0
 38 39  2  0  0  0  0
 38 46  1  0  0  0  0
 40 43  1  0  0  0  0
 40 44  1  0  0  0  0
 40 45  1  0  0  0  0
 46 47  1  0  0  0  0
 46 48  1  0  0  0  0
 47 49  1  0  0  0  0
 47 50  1  0  0  0  0
 47 51  1  0  0  0  0
M  END
$$$$

  -OEChem-05262216503D

 51 50  0     1  0  0  0  0  0999 V2000
    1.2319   -4.4607   -0.4954 C   0  0  0  0  0  0  0  0  0  0  0  0
    1.3922   -3.7283   -1.4603 O   0  0  0  0  0  0  0  0  0  0  0  0
    2.3785   -5.3203    0.0015 C   0  0  0  0  0  0  0  0  0  0  0  0
    3.2342   -5.2345   -0.6739 H   0  0  0  0  0  0  0  0  0  0  0  0
    2.6829   -4.9941    0.9992 H   0  0  0  0  0  0  0  0  0  0  0  0
    2.0684   -6.3670    0.0457 H   0  0  0  0  0  0  0  0  0  0  0  0
    0.0263   -4.4758    0.1763 N   0  0  0  0  0  0  0  0  0  0  0  0
   -0.9925   -3.4433   -0.0534 C   0  0  2  0  0  0  0  0  0  0  0  0
   -0.6204   -2.1260    0.6559 C   0  0  0  0  0  0  0  0  0  0  0  0
   -0.2202   -2.1410    1.8152 O   0  0  0  0  0  0  0  0  0  0  0  0
   -2.3375   -3.9690    0.4505 C   0  0  0  0  0  0  0  0  0  0  0  0
    0.0437   -4.9068    1.0963 H   0  0  0  0  0  0  0  0  0  0  0  0
   -1.0851   -3.2435   -1.1272 H   0  0  0  0  0  0  0  0  0  0  0  0
   -2.2948   -4.1687    1.5262 H   0  0  0  0  0  0  0  0  0  0  0  0
   -3.1248   -3.2314    0.2648 H   0  0  0  0  0  0  0  0  0  0  0  0
   -2.6013   -4.8956   -0.0686 H   0  0  0  0  0  0  0  0  0  0  0  0
   -0.7864   -0.9267   -0.0035 N   0  0  0  0  0  0  0  0  0  0  0  0
   -0.2507    0.3900    0.3998 C   0  0  2  0  0  0  0  0  0  0  0  0
   -1.0450    1.4104   -0.4418 C   0  0  0  0  0  0  0  0  0  0  0  0
   -1.9186    2.0965    0.0718 O   0  0  0  0  0  0  0  0  0  0  0  0
    1.2783    0.5896    0.1053 C   0  0  2  0  0  0  0  0  0  0  0  0
    2.2022   -0.3852    0.8752 C   0  0  0  0  0  0  0  0  0  0  0  0
    1.6957    2.0380    0.4500 C   0  0  0  0  0  0  0  0  0  0  0  0
    3.6552   -0.3622    0.3883 C   0  0  0  0  0  0  0  0  0  0  0  0
   -1.2696   -0.9905   -0.9049 H   0  0  0  0  0  0  0  0  0  0  0  0
   -0.4499    0.5669    1.4625 H   0  0  0  0  0  0  0  0  0  0  0  0
    1.4441    0.4223   -0.9641 H   0  0  0  0  0  0  0  0  0  0  0  0
    2.1573   -0.1826    1.9503 H   0  0  0  0  0  0  0  0  0  0  0  0
    1.8663   -1.4080    0.7114 H   0  0  0  0  0  0  0  0  0  0  0  0
    1.5450    2.2329    1.5167 H   0  0  0  0  0  0  0  0  0  0  0  0
    2.7472    2.2137    0.2111 H   0  0  0  0  0  0  0  0  0  0  0  0
    1.1182    2.7716   -0.1192 H   0  0  0  0  0  0  0  0  0  0  0  0
    3.6977   -0.4846   -0.6984 H   0  0  0  0  0  0  0  0  0  0  0  0
    4.2116   -1.1844    0.8487 H   0  0  0  0  0  0  0  0  0  0  0  0
    4.1513    0.5730    0.6603 H   0  0  0  0  0  0  0  0  0  0  0  0
   -0.9706    1.3315   -1.8224 N   0  0  0  0  0  0  0  0  0  0  0  0
   -2.1730    1.5120   -2.6451 C   0  0  2  0  0  0  0  0  0  0  0  0
   -3.0182    0.2172   -2.6837 C   0  0  0  0  0  0  0  0  0  0  0  0
   -2.5121   -0.8592   -2.3696 O   0  0  0  0  0  0  0  0  0  0  0  0
   -1.7219    1.9069   -4.0525 C   0  0  0  0  0  0  0  0  0  0  0  0
   -0.3232    0.6174   -2.1479 H   0  0  0  0  0  0  0  0  0  0  0  0
   -2.7939    2.3189   -2.2410 H   0  0  0  0  0  0  0  0  0  0  0  0
   -1.1152    1.1123   -4.4990 H   0  0  0  0  0  0  0  0  0  0  0  0
   -2.5884    2.0866   -4.6963 H   0  0  0  0  0  0  0  0  0  0  0  0
   -1.1243    2.8231   -4.0147 H   0  0  0  0  0  0  0  0  0  0  0  0
   -4.3448    0.2524   -3.0697 N   0  0  0  0  0  0  0  0  0  0  0  0
   -5.2067   -0.9236   -3.0726 C   0  0  0  0  0  0  0  0  0  0  0  0
   -4.7588    1.1642   -3.2430 H   0  0  0  0  0  0  0  0  0  0  0  0
   -4.7985   -1.6959   -3.7331 H   0  0  0  0  0  0  0  0  0  0  0  0
   -5.2969   -1.3352   -2.0619 H   0  0  0  0  0  0  0  0  0  0  0  0
   -6.2069   -0.6591   -3.4291 H   0  0  0  0  0  0  0  0  0  0  0  0
  1  2  2  0  0  0  0
  1  3  1  0  0  0  0
  1  7  1  0  0  0  0
  3  4  1  0  0  0  0
  3  5  1  0  0  0  0
  3  6  1  0  0  0  0
  7  8  1  0  0  0  0
  7 12  1  0  0  0  0
  8  9  1  0  0  0  0
  8 11  1  0  0  0  0
  8 13  1  0  0  0  0
  9 10  2  0  0  0  0
  9 17  1  0  0  0  0
 11 14  1  0  0  0  0
 11 15  1  0  0  0  0
 11 16  1  0  0  0  0
 17 18  1  0  0  0  0
 17 25  1  0  0  0  0
 18 19  1  0  0  0  0
 18 21  1  0  0  0  0
 18 26  1  0  0  0  0
 19 20  2  0  0  0  0
 19 36  1  0  0  0  0
 21 22  1  0  0  0  0
 21 23  1  0  0  0  0
 21 27  1  0  0  0  0
 22 24  1  0  0  0  0
 22 28  1  0  0  0  0
 22 29  1  0  0  0  0
 23 30  1  0  0  0  0
 23 31  1  0  0  0  0
 23 32  1  0  0  0  0
 24 33  1  0  0  0  0
 24 34  1  0  0  0  0
 24 35  1  0  0  0  0
 36 37  1  0  0  0  0
 36 41  1  0  0  0  0
 37 38  1  0  0  0  0
 37 40  1  0  0  0  0
 37 42  1  0  0  0  0
 38 39  2  0  0  0  0
 38 46  1  0  0  0  0
 40 43  1  0  0  0  0
 40 44  1  0  0  0  0
 40 45  1  0  0  0  0
 46 47  1  0  0  0  0
 46 48  1  0  0  0  0
 47 49  1  0  0  0  0
 47 50  1  0  0  0  0
 47 51  1  0  0  0  0
M  END
$$$$

  -OEChem-05262216503D

 51 50  0     1  0  0  0  0  0999 V2000
    1.1838   -4.8085   -0.2100 C   0  0  0  0  0  0  0  0  0  0  0  0
    1.4133   -4.2645   -1.2797 O   0  0  0  0  0  0  0  0  0  0  0  0
    2.2399   -5.6874    0.4334 C   0  0  0  0  0  0  0  0  0  0  0  0
    3.1272   -5.7395   -0.2040 H   0  0  0  0  0  0  0  0  0  0  0  0
    2.5277   -5.2745    1.4036 H   0  0  0  0  0  0  0  0  0  0  0  0
    1.8487   -6.6978    0.5751 H   0  0  0  0  0  0  0  0  0  0  0  0
   -0.0159   -4.5959    0.4384 N   0  0  0  0  0  0  0  0  0  0  0  0
   -0.9288   -3.5169    0.0369 C   0  0  2  0  0  0  0  0  0  0  0  0
   -0.4970   -2.1645    0.6378 C   0  0  0  0  0  0  0  0  0  0  0  0
   -0.0504   -2.1132    1.7791 O   0  0  0  0  0  0  0  0  0  0  0  0
   -2.3425   -3.8839    0.4921 C   0  0  0  0  0  0  0  0  0  0  0  0
   -0.0314   -4.8628    1.4191 H   0  0  0  0  0  0  0  0  0  0  0  0
   -0.9390   -3.4188   -1.0544 H   0  0  0  0  0  0  0  0  0  0  0  0
   -2.3871   -3.9684    1.5826 H   0  0  0  0  0  0  0  0  0  0  0  0
   -3.0544   -3.1155    0.1736 H   0  0  0  0  0  0  0  0  0  0  0  0
   -2.6455   -4.8392    0.0527 H   0  0  0  0  0  0  0  0  0  0  0  0
   -0.7111   -1.0016   -0.0733 N   0  0  0  0  0  0  0  0  0  0  0  0
   -0.2301    0.3537    0.2782 C   0  0  2  0  0  0  0  0  0  0  0  0
   -1.0494    1.3291   -0.5947 C   0  0  0  0  0  0  0  0  0  0  0  0
   -1.7734    2.1648   -0.0708 O   0  0  0  0  0  0  0  0  0  0  0  0
    1.2843    0.6031   -0.0548 C   0  0  2  0  0  0  0  0  0  0  0  0
    2.2636   -0.3067    0.7273 C   0  0  0  0  0  0  0  0  0  0  0  0
    1.6556    2.0782    0.2302 C   0  0  0  0  0  0  0  0  0  0  0  0
    3.7056   -0.2439    0.2107 C   0  0  0  0  0  0  0  0  0  0  0  0
   -1.3241   -1.1022   -0.8878 H   0  0  0  0  0  0  0  0  0  0  0  0
   -0.4216    0.5610    1.3367 H   0  0  0  0  0  0  0  0  0  0  0  0
    1.4312    0.4071   -1.1223 H   0  0  0  0  0  0  0  0  0  0  0  0
    2.2306   -0.0722    1.7963 H   0  0  0  0  0  0  0  0  0  0  0  0
    1.9674   -1.3471    0.6008 H   0  0  0  0  0  0  0  0  0  0  0  0
    1.4919    2.3139    1.2866 H   0  0  0  0  0  0  0  0  0  0  0  0
    2.7022    2.2773   -0.0104 H   0  0  0  0  0  0  0  0  0  0  0  0
    1.0611    2.7699   -0.3730 H   0  0  0  0  0  0  0  0  0  0  0  0
    3.7321   -0.3939   -0.8730 H   0  0  0  0  0  0  0  0  0  0  0  0
    4.3005   -1.0325    0.6815 H   0  0  0  0  0  0  0  0  0  0  0  0
    4.1730    0.7151    0.4484 H   0  0  0  0  0  0  0  0  0  0  0  0
   -1.2226    1.0355   -1.9369 N   0  0  0  0  0  0  0  0  0  0  0  0
   -2.5308    1.1839   -2.5867 C   0  0  2  0  0  0  0  0  0  0  0  0
   -3.3742   -0.1001   -2.4200 C   0  0  0  0  0  0  0  0  0  0  0  0
   -2.8285   -1.1557   -2.1019 O   0  0  0  0  0  0  0  0  0  0  0  0
   -2.2893    1.4887   -4.0662 C   0  0  0  0  0  0  0  0  0  0  0  0
   -0.6654    0.2449   -2.2524 H   0  0  0  0  0  0  0  0  0  0  0  0
   -3.0871    2.0193   -2.1485 H   0  0  0  0  0  0  0  0  0  0  0  0
   -1.7444    0.6686   -4.5449 H   0  0  0  0  0  0  0  0  0  0  0  0
   -3.2408    1.6256   -4.5891 H   0  0  0  0  0  0  0  0  0  0  0  0
   -1.7021    2.4064   -4.1718 H   0  0  0  0  0  0  0  0  0  0  0  0
   -4.7411   -0.0763   -2.6200 N   0  0  0  0  0  0  0  0  0  0  0  0
   -5.5976   -1.2412   -2.4342 C   0  0  0  0  0  0  0  0  0  0  0  0
   -5.1727    0.8247   -2.8066 H   0  0  0  0  0  0  0  0  0  0  0  0
   -5.2920   -2.0525   -3.1033 H   0  0  0  0  0  0  0  0  0  0  0  0
   -5.5423   -1.5969   -1.3999 H   0  0  0  0  0  0  0  0  0  0  0  0
   -6.6380   -0.9848   -2.6567 H   0  0  0  0  0  0  0  0  0  0  0  0
  1  2  2  0  0  0  0
  1  3  1  0  0  0  0
  1  7  1  0  0  0  0
  3  4  1  0  0  0  0
  3  5  1  0  0  0  0
  3  6  1  0  0  0  0
  7  8  1  0  0  0  0
  7 12  1  0  0  0  0
  8  9  1  0  0  0  0
  8 11  1  0  0  0  0
  8 13  1  0  0  0  0
  9 10  2  0  0  0  0
  9 17  1  0  0  0  0
 11 14  1  0  0  0  0
 11 15  1  0  0  0  0
 11 16  1  0  0  0  0
 17 18  1  0  0  0  0
 17 25  1  0  0  0  0
 18 19  1  0  0  0  0
 18 21  1  0  0  0  0
 18 26  1  0  0  0  0
 19 20  2  0  0  0  0
 19 36  1  0  0  0  0
 21 22  1  0  0  0  0
 21 23  1  0  0  0  0
 21 27  1  0  0  0  0
 22 24  1  0  0  0  0
 22 28  1  0  0  0  0
 22 29  1  0  0  0  0
 23 30  1  0  0  0  0
 23 31  1  0  0  0  0
 23 32  1  0  0  0  0
 24 33  1  0  0  0  0
 24 34  1  0  0  0  0
 24 35  1  0  0  0  0
 36 37  1  0  0  0  0
 36 41  1  0  0  0  0
 37 38  1  0  0  0  0
 37 40  1  0  0  0  0
 37 42  1  0  0  0  0
 38 39  2  0  0  0  0
 38 46  1  0  0  0  0
 40 43  1  0  0  0  0
 40 44  1  0  0  0  0
 40 45  1  0  0  0  0
 46 47  1  0  0  0  0
 46 48  1  0  0  0  0
 47 49  1  0  0  0  0
 47 50  1  0  0  0  0
 47 51  1  0  0  0  0
M  END
$$$$

  -OEChem-05262216503D

 51 50  0     1  0  0  0  0  0999 V2000
    1.0712   -4.6532   -0.4095 C   0  0  0  0  0  0  0  0  0  0  0  0
    1.0618   -4.0234   -1.4566 O   0  0  0  0  0  0  0  0  0  0  0  0
    2.2924   -5.4668   -0.0254 C   0  0  0  0  0  0  0  0  0  0  0  0
    3.0391   -5.4261   -0.8233 H   0  0  0  0  0  0  0  0  0  0  0  0
    2.7340   -5.0662    0.8906 H   0  0  0  0  0  0  0  0  0  0  0  0
    2.0096   -6.5093    0.1387 H   0  0  0  0  0  0  0  0  0  0  0  0
   -0.0064   -4.5879    0.4504 N   0  0  0  0  0  0  0  0  0  0  0  0
   -1.0692   -3.5892    0.2807 C   0  0  2  0  0  0  0  0  0  0  0  0
   -0.6108   -2.2061    0.7853 C   0  0  0  0  0  0  0  0  0  0  0  0
   -0.1847   -2.0821    1.9283 O   0  0  0  0  0  0  0  0  0  0  0  0
   -2.3106   -4.0681    1.0362 C   0  0  0  0  0  0  0  0  0  0  0  0
    0.1566   -4.9342    1.3917 H   0  0  0  0  0  0  0  0  0  0  0  0
   -1.3327   -3.5009   -0.7794 H   0  0  0  0  0  0  0  0  0  0  0  0
   -2.0994   -4.1627    2.1062 H   0  0  0  0  0  0  0  0  0  0  0  0
   -3.1305   -3.3548    0.9057 H   0  0  0  0  0  0  0  0  0  0  0  0
   -2.6342   -5.0413    0.6551 H   0  0  0  0  0  0  0  0  0  0  0  0
   -0.7649   -1.1021   -0.0287 N   0  0  0  0  0  0  0  0  0  0  0  0
   -0.3011    0.2784    0.2467 C   0  0  2  0  0  0  0  0  0  0  0  0
   -1.0409    1.2008   -0.7521 C   0  0  0  0  0  0  0  0  0  0  0  0
   -1.6105    2.2037   -0.3422 O   0  0  0  0  0  0  0  0  0  0  0  0
    1.2341    0.4873   -0.0251 C   0  0  2  0  0  0  0  0  0  0  0  0
    2.1648   -0.3658    0.8723 C   0  0  0  0  0  0  0  0  0  0  0  0
    1.6191    1.9756    0.1622 C   0  0  0  0  0  0  0  0  0  0  0  0
    3.6318   -0.3549    0.4271 C   0  0  0  0  0  0  0  0  0  0  0  0
   -1.4352   -1.2406   -0.7897 H   0  0  0  0  0  0  0  0  0  0  0  0
   -0.5518    0.5681    1.2732 H   0  0  0  0  0  0  0  0  0  0  0  0
    1.4293    0.2070   -1.0662 H   0  0  0  0  0  0  0  0  0  0  0  0
    2.0798   -0.0510    1.9177 H   0  0  0  0  0  0  0  0  0  0  0  0
    1.8669   -1.4107    0.8076 H   0  0  0  0  0  0  0  0  0  0  0  0
    1.3914    2.3017    1.1821 H   0  0  0  0  0  0  0  0  0  0  0  0
    2.6828    2.1386   -0.0235 H   0  0  0  0  0  0  0  0  0  0  0  0
    1.0827    2.6241   -0.5355 H   0  0  0  0  0  0  0  0  0  0  0  0
    3.7103   -0.5795   -0.6411 H   0  0  0  0  0  0  0  0  0  0  0  0
    4.1903   -1.1156    0.9808 H   0  0  0  0  0  0  0  0  0  0  0  0
    4.1011    0.6124    0.6225 H   0  0  0  0  0  0  0  0  0  0  0  0
   -1.3997    0.7009   -1.9935 N   0  0  0  0  0  0  0  0  0  0  0  0
   -2.7534    0.8696   -2.5354 C   0  0  2  0  0  0  0  0  0  0  0  0
   -3.6589   -0.3053   -2.1048 C   0  0  0  0  0  0  0  0  0  0  0  0
   -3.1533   -1.3578   -1.7175 O   0  0  0  0  0  0  0  0  0  0  0  0
   -2.6450    0.9409   -4.0595 C   0  0  0  0  0  0  0  0  0  0  0  0
   -0.9411   -0.1769   -2.2274 H   0  0  0  0  0  0  0  0  0  0  0  0
   -3.2023    1.8017   -2.1753 H   0  0  0  0  0  0  0  0  0  0  0  0
   -2.2184    0.0150   -4.4587 H   0  0  0  0  0  0  0  0  0  0  0  0
   -3.6322    1.0901   -4.5073 H   0  0  0  0  0  0  0  0  0  0  0  0
   -2.0019    1.7765   -4.3532 H   0  0  0  0  0  0  0  0  0  0  0  0
   -5.0347   -0.1850   -2.1436 N   0  0  0  0  0  0  0  0  0  0  0  0
   -5.9413   -1.2309   -1.6860 C   0  0  0  0  0  0  0  0  0  0  0  0
   -5.4195    0.7204   -2.3988 H   0  0  0  0  0  0  0  0  0  0  0  0
   -5.7679   -2.1593   -2.2406 H   0  0  0  0  0  0  0  0  0  0  0  0
   -5.7950   -1.4251   -0.6180 H   0  0  0  0  0  0  0  0  0  0  0  0
   -6.9805   -0.9255   -1.8433 H   0  0  0  0  0  0  0  0  0  0  0  0
  1  2  2  0  0  0  0
  1  3  1  0  0  0  0
  1  7  1  0  0  0  0
  3  4  1  0  0  0  0
  3  5  1  0  0  0  0
  3  6  1  0  0  0  0
  7  8  1  0  0  0  0
  7 12  1  0  0  0  0
  8  9  1  0  0  0  0
  8 11  1  0  0  0  0
  8 13  1  0  0  0  0
  9 10  2  0  0  0  0
  9 17  1  0  0  0  0
 11 14  1  0  0  0  0
 11 15  1  0  0  0  0
 11 16  1  0  0  0  0
 17 18  1  0  0  0  0
 17 25  1  0  0  0  0
 18 19  1  0  0  0  0
 18 21  1  0  0  0  0
 18 26  1  0  0  0  0
 19 20  2  0  0  0  0
 19 36  1  0  0  0  0
 21 22  1  0  0  0  0
 21 23  1  0  0  0  0
 21 27  1  0  0  0  0
 22 24  1  0  0  0  0
 22 28  1  0  0  0  0
 22 29  1  0  0  0  0
 23 30  1  0  0  0  0
 23 31  1  0  0  0  0
 23 32  1  0  0  0  0
 24 33  1  0  0  0  0
 24 34  1  0  0  0  0
 24 35  1  0  0  0  0
 36 37  1  0  0  0  0
 36 41  1  0  0  0  0
 37 38  1  0  0  0  0
 37 40  1  0  0  0  0
 37 42  1  0  0  0  0
 38 39  2  0  0  0  0
 38 46  1  0  0  0  0
 40 43  1  0  0  0  0
 40 44  1  0  0  0  0
 40 45  1  0  0  0  0
 46 47  1  0  0  0  0
 46 48  1  0  0  0  0
 47 49  1  0  0  0  0
 47 50  1  0  0  0  0
 47 51  1  0  0  0  0
M  END
$$$$

  -OEChem-05262216503D

 51 50  0     1  0  0  0  0  0999 V2000
    0.3201   -4.0221   -0.7054 C   0  0  0  0  0  0  0  0  0  0  0  0
   -0.5415   -3.3149   -1.2077 O   0  0  0  0  0  0  0  0  0  0  0  0
    1.4273   -4.6047   -1.5620 C   0  0  0  0  0  0  0  0  0  0  0  0
    1.2660   -4.3474   -2.6127 H   0  0  0  0  0  0  0  0  0  0  0  0
    2.3939   -4.2051   -1.2453 H   0  0  0  0  0  0  0  0  0  0  0  0
    1.4411   -5.6932   -1.4657 H   0  0  0  0  0  0  0  0  0  0  0  0
    0.3144   -4.2452    0.6568 N   0  0  0  0  0  0  0  0  0  0  0  0
   -0.7202   -3.7474    1.5784 C   0  0  2  0  0  0  0  0  0  0  0  0
   -0.6038   -2.2254    1.8332 C   0  0  0  0  0  0  0  0  0  0  0  0
   -0.2860   -1.7691    2.9243 O   0  0  0  0  0  0  0  0  0  0  0  0
   -0.6193   -4.5726    2.8668 C   0  0  0  0  0  0  0  0  0  0  0  0
    1.0823   -4.7879    1.0419 H   0  0  0  0  0  0  0  0  0  0  0  0
   -1.7103   -3.9258    1.1442 H   0  0  0  0  0  0  0  0  0  0  0  0
    0.3587   -4.4335    3.3388 H   0  0  0  0  0  0  0  0  0  0  0  0
   -1.3926   -4.2615    3.5766 H   0  0  0  0  0  0  0  0  0  0  0  0
   -0.7568   -5.6364    2.6510 H   0  0  0  0  0  0  0  0  0  0  0  0
   -0.8897   -1.3655    0.7931 N   0  0  0  0  0  0  0  0  0  0  0  0
   -0.3993    0.0242    0.6610 C   0  0  2  0  0  0  0  0  0  0  0  0
   -1.2646    0.7320   -0.4201 C   0  0  0  0  0  0  0  0  0  0  0  0
   -1.3854    1.9516   -0.4162 O   0  0  0  0  0  0  0  0  0  0  0  0
    1.1098    0.0677    0.1992 C   0  0  2  0  0  0  0  0  0  0  0  0
    2.1065   -0.5733    1.2033 C   0  0  0  0  0  0  0  0  0  0  0  0
    1.5728    1.5193   -0.0728 C   0  0  0  0  0  0  0  0  0  0  0  0
    3.5208   -0.7662    0.6413 C   0  0  0  0  0  0  0  0  0  0  0  0
   -1.0087   -1.8780   -0.0842 H   0  0  0  0  0  0  0  0  0  0  0  0
   -0.5178    0.5592    1.6095 H   0  0  0  0  0  0  0  0  0  0  0  0
    1.1796   -0.4916   -0.7400 H   0  0  0  0  0  0  0  0  0  0  0  0
    2.1431    0.0179    2.1242 H   0  0  0  0  0  0  0  0  0  0  0  0
    1.7766   -1.5756    1.4647 H   0  0  0  0  0  0  0  0  0  0  0  0
    1.3665    2.1532    0.7957 H   0  0  0  0  0  0  0  0  0  0  0  0
    2.6401    1.5738   -0.2926 H   0  0  0  0  0  0  0  0  0  0  0  0
    1.0646    1.9397   -0.9443 H   0  0  0  0  0  0  0  0  0  0  0  0
    3.4823   -1.2466   -0.3412 H   0  0  0  0  0  0  0  0  0  0  0  0
    4.1006   -1.4044    1.3149 H   0  0  0  0  0  0  0  0  0  0  0  0
    4.0500    0.1858    0.5512 H   0  0  0  0  0  0  0  0  0  0  0  0
   -2.0702    0.0141   -1.2900 N   0  0  0  0  0  0  0  0  0  0  0  0
   -3.1442    0.5953   -2.1058 C   0  0  2  0  0  0  0  0  0  0  0  0
   -4.3501   -0.3618   -2.2159 C   0  0  0  0  0  0  0  0  0  0  0  0
   -4.2606   -1.5212   -1.8262 O   0  0  0  0  0  0  0  0  0  0  0  0
   -2.5719    0.9173   -3.4890 C   0  0  0  0  0  0  0  0  0  0  0  0
   -2.1140   -0.9946   -1.1508 H   0  0  0  0  0  0  0  0  0  0  0  0
   -3.5096    1.5182   -1.6429 H   0  0  0  0  0  0  0  0  0  0  0  0
   -2.2160    0.0046   -3.9777 H   0  0  0  0  0  0  0  0  0  0  0  0
   -3.3336    1.3798   -4.1235 H   0  0  0  0  0  0  0  0  0  0  0  0
   -1.7323    1.6135   -3.3964 H   0  0  0  0  0  0  0  0  0  0  0  0
   -5.5518    0.0831   -2.7365 N   0  0  0  0  0  0  0  0  0  0  0  0
   -6.7386   -0.7577   -2.8408 C   0  0  0  0  0  0  0  0  0  0  0  0
   -5.6102    1.0572   -3.0186 H   0  0  0  0  0  0  0  0  0  0  0  0
   -6.5335   -1.6351   -3.4634 H   0  0  0  0  0  0  0  0  0  0  0  0
   -7.0564   -1.0960   -1.8490 H   0  0  0  0  0  0  0  0  0  0  0  0
   -7.5617   -0.1974   -3.2949 H   0  0  0  0  0  0  0  0  0  0  0  0
  1  2  2  0  0  0  0
  1  3  1  0  0  0  0
  1  7  1  0  0  0  0
  3  4  1  0  0  0  0
  3  5  1  0  0  0  0
  3  6  1  0  0  0  0
  7  8  1  0  0  0  0
  7 12  1  0  0  0  0
  8  9  1  0  0  0  0
  8 11  1  0  0  0  0
  8 13  1  0  0  0  0
  9 10  2  0  0  0  0
  9 17  1  0  0  0  0
 11 14  1  0  0  0  0
 11 15  1  0  0  0  0
 11 16  1  0  0  0  0
 17 18  1  0  0  0  0
 17 25  1  0  0  0  0
 18 19  1  0  0  0  0
 18 21  1  0  0  0  0
 18 26  1  0  0  0  0
 19 20  2  0  0  0  0
 19 36  1  0  0  0  0
 21 22  1  0  0  0  0
 21 23  1  0  0  0  0
 21 27  1  0  0  0  0
 22 24  1  0  0  0  0
 22 28  1  0  0  0  0
 22 29  1  0  0  0  0
 23 30  1  0  0  0  0
 23 31  1  0  0  0  0
 23 32  1  0  0  0  0
 24 33  1  0  0  0  0
 24 34  1  0  0  0  0
 24 35  1  0  0  0  0
 36 37  1  0  0  0  0
 36 41  1  0  0  0  0
 37 38  1  0  0  0  0
 37 40  1  0  0  0  0
 37 42  1  0  0  0  0
 38 39  2  0  0  0  0
 38 46  1  0  0  0  0
 40 43  1  0  0  0  0
 40 44  1  0  0  0  0
 40 45  1  0  0  0  0
 46 47  1  0  0  0  0
 46 48  1  0  0  0  0
 47 49  1  0  0  0  0
 47 50  1  0  0  0  0
 47 51  1  0  0  0  0
M  END
$$$$

  -OEChem-05262216503D

 51 50  0     1  0  0  0  0  0999 V2000
    0.3868   -4.0566   -0.6174 C   0  0  0  0  0  0  0  0  0  0  0  0
   -0.5372   -3.4238   -1.1069 O   0  0  0  0  0  0  0  0  0  0  0  0
    1.5087   -4.5755   -1.4962 C   0  0  0  0  0  0  0  0  0  0  0  0
    1.2918   -4.3663   -2.5477 H   0  0  0  0  0  0  0  0  0  0  0  0
    2.4495   -4.0889   -1.2273 H   0  0  0  0  0  0  0  0  0  0  0  0
    1.6146   -5.6556   -1.3686 H   0  0  0  0  0  0  0  0  0  0  0  0
    0.4339   -4.2446    0.7492 N   0  0  0  0  0  0  0  0  0  0  0  0
   -0.5949   -3.7666    1.6879 C   0  0  2  0  0  0  0  0  0  0  0  0
   -0.5280   -2.2355    1.9024 C   0  0  0  0  0  0  0  0  0  0  0  0
   -0.1951   -1.7427    2.9729 O   0  0  0  0  0  0  0  0  0  0  0  0
   -0.4286   -4.5530    2.9938 C   0  0  0  0  0  0  0  0  0  0  0  0
    1.2527   -4.7135    1.1269 H   0  0  0  0  0  0  0  0  0  0  0  0
   -1.5888   -3.9939    1.2863 H   0  0  0  0  0  0  0  0  0  0  0  0
    0.5573   -4.3684    3.4330 H   0  0  0  0  0  0  0  0  0  0  0  0
   -1.1911   -4.2478    3.7178 H   0  0  0  0  0  0  0  0  0  0  0  0
   -0.5370   -5.6265    2.8106 H   0  0  0  0  0  0  0  0  0  0  0  0
   -0.8672   -1.4050    0.8538 N   0  0  0  0  0  0  0  0  0  0  0  0
   -0.3930   -0.0133    0.6702 C   0  0  2  0  0  0  0  0  0  0  0  0
   -1.3209    0.6503   -0.3923 C   0  0  0  0  0  0  0  0  0  0  0  0
   -1.3124    1.8600   -0.5875 O   0  0  0  0  0  0  0  0  0  0  0  0
    1.1031    0.0123    0.1541 C   0  0  2  0  0  0  0  0  0  0  0  0
    2.1363   -0.6033    1.1396 C   0  0  0  0  0  0  0  0  0  0  0  0
    1.5690    1.4512   -0.1747 C   0  0  0  0  0  0  0  0  0  0  0  0
    3.5311   -0.8176    0.5357 C   0  0  0  0  0  0  0  0  0  0  0  0
   -0.9966   -1.9376   -0.0119 H   0  0  0  0  0  0  0  0  0  0  0  0
   -0.4789    0.5471    1.6075 H   0  0  0  0  0  0  0  0  0  0  0  0
    1.1387   -0.5741   -0.7705 H   0  0  0  0  0  0  0  0  0  0  0  0
    2.2065    0.0125    2.0425 H   0  0  0  0  0  0  0  0  0  0  0  0
    1.8183   -1.5974    1.4402 H   0  0  0  0  0  0  0  0  0  0  0  0
    1.3336    2.1270    0.6537 H   0  0  0  0  0  0  0  0  0  0  0  0
    2.6415    1.5064   -0.3645 H   0  0  0  0  0  0  0  0  0  0  0  0
    1.0863    1.8206   -1.0826 H   0  0  0  0  0  0  0  0  0  0  0  0
    3.4563   -1.3008   -0.4434 H   0  0  0  0  0  0  0  0  0  0  0  0
    4.1218   -1.4625    1.1936 H   0  0  0  0  0  0  0  0  0  0  0  0
    4.0720    0.1257    0.4261 H   0  0  0  0  0  0  0  0  0  0  0  0
   -2.3564   -0.0653   -0.9710 N   0  0  0  0  0  0  0  0  0  0  0  0
   -3.4588    0.5147   -1.7469 C   0  0  2  0  0  0  0  0  0  0  0  0
   -4.7500   -0.3156   -1.5868 C   0  0  0  0  0  0  0  0  0  0  0  0
   -4.7195   -1.4094   -1.0319 O   0  0  0  0  0  0  0  0  0  0  0  0
   -3.0307    0.5768   -3.2160 C   0  0  0  0  0  0  0  0  0  0  0  0
   -2.5141   -1.0052   -0.6084 H   0  0  0  0  0  0  0  0  0  0  0  0
   -3.6764    1.5261   -1.3875 H   0  0  0  0  0  0  0  0  0  0  0  0
   -2.8120   -0.4279   -3.5918 H   0  0  0  0  0  0  0  0  0  0  0  0
   -3.8220    1.0156   -3.8305 H   0  0  0  0  0  0  0  0  0  0  0  0
   -2.1316    1.1919   -3.3220 H   0  0  0  0  0  0  0  0  0  0  0  0
   -5.9581    0.1715   -2.0509 N   0  0  0  0  0  0  0  0  0  0  0  0
   -7.2171   -0.5500   -1.9122 C   0  0  0  0  0  0  0  0  0  0  0  0
   -5.9601    1.0903   -2.4839 H   0  0  0  0  0  0  0  0  0  0  0  0
   -7.1573   -1.5243   -2.4087 H   0  0  0  0  0  0  0  0  0  0  0  0
   -7.4539   -0.7071   -0.8546 H   0  0  0  0  0  0  0  0  0  0  0  0
   -8.0321    0.0200   -2.3684 H   0  0  0  0  0  0  0  0  0  0  0  0
  1  2  2  0  0  0  0
  1  3  1  0  0  0  0
  1  7  1  0  0  0  0
  3  4  1  0  0  0  0
  3  5  1  0  0  0  0
  3  6  1  0  0  0  0
  7  8  1  0  0  0  0
  7 12  1  0  0  0  0
  8  9  1  0  0  0  0
  8 11  1  0  0  0  0
  8 13  1  0  0  0  0
  9 10  2  0  0  0  0
  9 17  1  0  0  0  0
 11 14  1  0  0  0  0
 11 15  1  0  0  0  0
 11 16  1  0  0  0  0
 17 18  1  0  0  0  0
 17 25  1  0  0  0  0
 18 19  1  0  0  0  0
 18 21  1  0  0  0  0
 18 26  1  0  0  0  0
 19 20  2  0  0  0  0
 19 36  1  0  0  0  0
 21 22  1  0  0  0  0
 21 23  1  0  0  0  0
 21 27  1  0  0  0  0
 22 24  1  0  0  0  0
 22 28  1  0  0  0  0
 22 29  1  0  0  0  0
 23 30  1  0  0  0  0
 23 31  1  0  0  0  0
 23 32  1  0  0  0  0
 24 33  1  0  0  0  0
 24 34  1  0  0  0  0
 24 35  1  0  0  0  0
 36 37  1  0  0  0  0
 36 41  1  0  0  0  0
 37 38  1  0  0  0  0
 37 40  1  0  0  0  0
 37 42  1  0  0  0  0
 38 39  2  0  0  0  0
 38 46  1  0  0  0  0
 40 43  1  0  0  0  0
 40 44  1  0  0  0  0
 40 45  1  0  0  0  0
 46 47  1  0  0  0  0
 46 48  1  0  0  0  0
 47 49  1  0  0  0  0
 47 50  1  0  0  0  0
 47 51  1  0  0  0  0
M  END
$$$$

  -OEChem-05262216503D

 51 50  0     1  0  0  0  0  0999 V2000
    0.4061   -4.0892   -0.5366 C   0  0  0  0  0  0  0  0  0  0  0  0
   -0.5648   -3.5104   -1.0016 O   0  0  0  0  0  0  0  0  0  0  0  0
    1.5259   -4.5564   -1.4464 C   0  0  0  0  0  0  0  0  0  0  0  0
    1.2827   -4.3319   -2.4890 H   0  0  0  0  0  0  0  0  0  0  0  0
    2.4572   -4.0474   -1.1857 H   0  0  0  0  0  0  0  0  0  0  0  0
    1.6656   -5.6353   -1.3426 H   0  0  0  0  0  0  0  0  0  0  0  0
    0.5091   -4.2537    0.8301 N   0  0  0  0  0  0  0  0  0  0  0  0
   -0.4912   -3.7715    1.7962 C   0  0  2  0  0  0  0  0  0  0  0  0
   -0.4371   -2.2348    1.9706 C   0  0  0  0  0  0  0  0  0  0  0  0
   -0.0613   -1.7123    3.0125 O   0  0  0  0  0  0  0  0  0  0  0  0
   -0.2645   -4.5250    3.1127 C   0  0  0  0  0  0  0  0  0  0  0  0
    1.3710   -4.6564    1.1875 H   0  0  0  0  0  0  0  0  0  0  0  0
   -1.4956   -4.0222    1.4377 H   0  0  0  0  0  0  0  0  0  0  0  0
    0.7307   -4.3104    3.5153 H   0  0  0  0  0  0  0  0  0  0  0  0
   -1.0096   -4.2207    3.8549 H   0  0  0  0  0  0  0  0  0  0  0  0
   -0.3550   -5.6042    2.9562 H   0  0  0  0  0  0  0  0  0  0  0  0
   -0.8291   -1.4294    0.9200 N   0  0  0  0  0  0  0  0  0  0  0  0
   -0.3564   -0.0456    0.6743 C   0  0  2  0  0  0  0  0  0  0  0  0
   -1.3577    0.5699   -0.3558 C   0  0  0  0  0  0  0  0  0  0  0  0
   -1.2328    1.6943   -0.8238 O   0  0  0  0  0  0  0  0  0  0  0  0
    1.1212   -0.0416    0.0965 C   0  0  2  0  0  0  0  0  0  0  0  0
    2.1912   -0.6333    1.0594 C   0  0  0  0  0  0  0  0  0  0  0  0
    1.5841    1.3898   -0.2749 C   0  0  0  0  0  0  0  0  0  0  0  0
    3.5630   -0.8743    0.4122 C   0  0  0  0  0  0  0  0  0  0  0  0
   -1.0161   -1.9792    0.0747 H   0  0  0  0  0  0  0  0  0  0  0  0
   -0.4000    0.5420    1.5976 H   0  0  0  0  0  0  0  0  0  0  0  0
    1.1210   -0.6483   -0.8156 H   0  0  0  0  0  0  0  0  0  0  0  0
    2.2969    0.0066    1.9416 H   0  0  0  0  0  0  0  0  0  0  0  0
    1.8824   -1.6174    1.3991 H   0  0  0  0  0  0  0  0  0  0  0  0
    1.2877    2.1004    0.5032 H   0  0  0  0  0  0  0  0  0  0  0  0
    2.6641    1.4640   -0.4027 H   0  0  0  0  0  0  0  0  0  0  0  0
    1.1510    1.7032   -1.2279 H   0  0  0  0  0  0  0  0  0  0  0  0
    3.4498   -1.3815   -0.5508 H   0  0  0  0  0  0  0  0  0  0  0  0
    4.1700   -1.5081    1.0658 H   0  0  0  0  0  0  0  0  0  0  0  0
    4.1106    0.0588    0.2590 H   0  0  0  0  0  0  0  0  0  0  0  0
   -2.5707   -0.0552   -0.5944 N   0  0  0  0  0  0  0  0  0  0  0  0
   -3.6988    0.5179   -1.3389 C   0  0  2  0  0  0  0  0  0  0  0  0
   -5.0387   -0.1150   -0.9075 C   0  0  0  0  0  0  0  0  0  0  0  0
   -5.0523   -1.1069   -0.1858 O   0  0  0  0  0  0  0  0  0  0  0  0
   -3.4586    0.2973   -2.8364 C   0  0  0  0  0  0  0  0  0  0  0  0
   -2.7724   -0.8791   -0.0278 H   0  0  0  0  0  0  0  0  0  0  0  0
   -3.7646    1.5918   -1.1353 H   0  0  0  0  0  0  0  0  0  0  0  0
   -3.3957   -0.7726   -3.0598 H   0  0  0  0  0  0  0  0  0  0  0  0
   -4.2727    0.7301   -3.4251 H   0  0  0  0  0  0  0  0  0  0  0  0
   -2.5224    0.7726   -3.1454 H   0  0  0  0  0  0  0  0  0  0  0  0
   -6.2383    0.4373   -1.3187 N   0  0  0  0  0  0  0  0  0  0  0  0
   -7.5393   -0.1049   -0.9460 C   0  0  0  0  0  0  0  0  0  0  0  0
   -6.1986    1.2659   -1.9049 H   0  0  0  0  0  0  0  0  0  0  0  0
   -7.6441   -1.1325   -1.3098 H   0  0  0  0  0  0  0  0  0  0  0  0
   -7.6584   -0.1023    0.1427 H   0  0  0  0  0  0  0  0  0  0  0  0
   -8.3405    0.4994   -1.3826 H   0  0  0  0  0  0  0  0  0  0  0  0
  1  2  2  0  0  0  0
  1  3  1  0  0  0  0
  1  7  1  0  0  0  0
  3  4  1  0  0  0  0
  3  5  1  0  0  0  0
  3  6  1  0  0  0  0
  7  8  1  0  0  0  0
  7 12  1  0  0  0  0
  8  9  1  0  0  0  0
  8 11  1  0  0  0  0
  8 13  1  0  0  0  0
  9 10  2  0  0  0  0
  9 17  1  0  0  0  0
 11 14  1  0  0  0  0
 11 15  1  0  0  0  0
 11 16  1  0  0  0  0
 17 18  1  0  0  0  0
 17 25  1  0  0  0  0
 18 19  1  0  0  0  0
 18 21  1  0  0  0  0
 18 26  1  0  0  0  0
 19 20  2  0  0  0  0
 19 36  1  0  0  0  0
 21 22  1  0  0  0  0
 21 23  1  0  0  0  0
 21 27  1  0  0  0  0
 22 24  1  0  0  0  0
 22 28  1  0  0  0  0
 22 29  1  0  0  0  0
 23 30  1  0  0  0  0
 23 31  1  0  0  0  0
 23 32  1  0  0  0  0
 24 33  1  0  0  0  0
 24 34  1  0  0  0  0
 24 35  1  0  0  0  0
 36 37  1  0  0  0  0
 36 41  1  0  0  0  0
 37 38  1  0  0  0  0
 37 40  1  0  0  0  0
 37 42  1  0  0  0  0
 38 39  2  0  0  0  0
 38 46  1  0  0  0  0
 40 43  1  0  0  0  0
 40 44  1  0  0  0  0
 40 45  1  0  0  0  0
 46 47  1  0  0  0  0
 46 48  1  0  0  0  0
 47 49  1  0  0  0  0
 47 50  1  0  0  0  0
 47 51  1  0  0  0  0
M  END
$$$$

  -OEChem-05262216503D

 51 50  0     1  0  0  0  0  0999 V2000
    1.9181   -4.7516    0.3166 C   0  0  0  0  0  0  0  0  0  0  0  0
    1.7994   -4.3553   -0.8328 O   0  0  0  0  0  0  0  0  0  0  0  0
    3.2760   -5.1850    0.8360 C   0  0  0  0  0  0  0  0  0  0  0  0
    3.9989   -5.2222    0.0162 H   0  0  0  0  0  0  0  0  0  0  0  0
    3.6305   -4.4736    1.5863 H   0  0  0  0  0  0  0  0  0  0  0  0
    3.2063   -6.1771    1.2887 H   0  0  0  0  0  0  0  0  0  0  0  0
    0.8302   -4.7434    1.1656 N   0  0  0  0  0  0  0  0  0  0  0  0
   -0.4027   -4.0161    0.8363 C   0  0  2  0  0  0  0  0  0  0  0  0
   -0.2799   -2.5222    1.1981 C   0  0  0  0  0  0  0  0  0  0  0  0
    0.2387   -2.1882    2.2575 O   0  0  0  0  0  0  0  0  0  0  0  0
   -1.5592   -4.6631    1.6005 C   0  0  0  0  0  0  0  0  0  0  0  0
    1.0488   -4.8484    2.1533 H   0  0  0  0  0  0  0  0  0  0  0  0
   -0.6134   -4.0982   -0.2355 H   0  0  0  0  0  0  0  0  0  0  0  0
   -1.3909   -4.5981    2.6804 H   0  0  0  0  0  0  0  0  0  0  0  0
   -2.5013   -4.1576    1.3660 H   0  0  0  0  0  0  0  0  0  0  0  0
   -1.6540   -5.7177    1.3238 H   0  0  0  0  0  0  0  0  0  0  0  0
   -0.8339   -1.5488    0.3890 N   0  0  0  0  0  0  0  0  0  0  0  0
   -0.3958   -0.1308    0.3520 C   0  0  2  0  0  0  0  0  0  0  0  0
   -1.5604    0.6133   -0.3810 C   0  0  0  0  0  0  0  0  0  0  0  0
   -1.4359    1.6186   -1.0658 O   0  0  0  0  0  0  0  0  0  0  0  0
    0.9950    0.0629   -0.3823 C   0  0  2  0  0  0  0  0  0  0  0  0
    2.1871   -0.6561    0.3117 C   0  0  0  0  0  0  0  0  0  0  0  0
    1.3678    1.5693   -0.4527 C   0  0  0  0  0  0  0  0  0  0  0  0
    3.4744   -0.6973   -0.5254 C   0  0  0  0  0  0  0  0  0  0  0  0
   -1.2016   -1.9103   -0.4883 H   0  0  0  0  0  0  0  0  0  0  0  0
   -0.3239    0.2643    1.3708 H   0  0  0  0  0  0  0  0  0  0  0  0
    0.9063   -0.3296   -1.4011 H   0  0  0  0  0  0  0  0  0  0  0  0
    2.3843   -0.2046    1.2895 H   0  0  0  0  0  0  0  0  0  0  0  0
    1.9430   -1.7023    0.4705 H   0  0  0  0  0  0  0  0  0  0  0  0
    1.0031    2.0969    0.4341 H   0  0  0  0  0  0  0  0  0  0  0  0
    2.4424    1.7410   -0.5143 H   0  0  0  0  0  0  0  0  0  0  0  0
    0.9363    2.0341   -1.3428 H   0  0  0  0  0  0  0  0  0  0  0  0
    3.2565   -1.0417   -1.5412 H   0  0  0  0  0  0  0  0  0  0  0  0
    4.1833   -1.3970   -0.0720 H   0  0  0  0  0  0  0  0  0  0  0  0
    3.9627    0.2781   -0.5802 H   0  0  0  0  0  0  0  0  0  0  0  0
   -2.8474    0.1171   -0.2551 N   0  0  0  0  0  0  0  0  0  0  0  0
   -4.0676    0.7888   -0.7204 C   0  0  2  0  0  0  0  0  0  0  0  0
   -5.2753    0.4184    0.1649 C   0  0  0  0  0  0  0  0  0  0  0  0
   -5.2192   -0.5614    0.9011 O   0  0  0  0  0  0  0  0  0  0  0  0
   -4.3251    0.3862   -2.1755 C   0  0  0  0  0  0  0  0  0  0  0  0
   -2.9743   -0.6233    0.4361 H   0  0  0  0  0  0  0  0  0  0  0  0
   -3.9374    1.8747   -0.6617 H   0  0  0  0  0  0  0  0  0  0  0  0
   -4.4614   -0.6970   -2.2537 H   0  0  0  0  0  0  0  0  0  0  0  0
   -5.2235    0.8798   -2.5579 H   0  0  0  0  0  0  0  0  0  0  0  0
   -3.4784    0.6775   -2.8052 H   0  0  0  0  0  0  0  0  0  0  0  0
   -6.4213    1.1917    0.1500 N   0  0  0  0  0  0  0  0  0  0  0  0
   -7.5834    0.9152    0.9859 C   0  0  0  0  0  0  0  0  0  0  0  0
   -6.4307    2.0101   -0.4521 H   0  0  0  0  0  0  0  0  0  0  0  0
   -8.0044   -0.0664    0.7438 H   0  0  0  0  0  0  0  0  0  0  0  0
   -7.3059    0.9284    2.0453 H   0  0  0  0  0  0  0  0  0  0  0  0
   -8.3563    1.6726    0.8226 H   0  0  0  0  0  0  0  0  0  0  0  0
  1  2  2  0  0  0  0
  1  3  1  0  0  0  0
  1  7  1  0  0  0  0
  3  4  1  0  0  0  0
  3  5  1  0  0  0  0
  3  6  1  0  0  0  0
  7  8  1  0  0  0  0
  7 12  1  0  0  0  0
  8  9  1  0  0  0  0
  8 11  1  0  0  0  0
  8 13  1  0  0  0  0
  9 10  2  0  0  0  0
  9 17  1  0  0  0  0
 11 14  1  0  0  0  0
 11 15  1  0  0  0  0
 11 16  1  0  0  0  0
 17 18  1  0  0  0  0
 17 25  1  0  0  0  0
 18 19  1  0  0  0  0
 18 21  1  0  0  0  0
 18 26  1  0  0  0  0
 19 20  2  0  0  0  0
 19 36  1  0  0  0  0
 21 22  1  0  0  0  0
 21 23  1  0  0  0  0
 21 27  1  0  0  0  0
 22 24  1  0  0  0  0
 22 28  1  0  0  0  0
 22 29  1  0  0  0  0
 23 30  1  0  0  0  0
 23 31  1  0  0  0  0
 23 32  1  0  0  0  0
 24 33  1  0  0  0  0
 24 34  1  0  0  0  0
 24 35  1  0  0  0  0
 36 37  1  0  0  0  0
 36 41  1  0  0  0  0
 37 38  1  0  0  0  0
 37 40  1  0  0  0  0
 37 42  1  0  0  0  0
 38 39  2  0  0  0  0
 38 46  1  0  0  0  0
 40 43  1  0  0  0  0
 40 44  1  0  0  0  0
 40 45  1  0  0  0  0
 46 47  1  0  0  0  0
 46 48  1  0  0  0  0
 47 49  1  0  0  0  0
 47 50  1  0  0  0  0
 47 51  1  0  0  0  0
M  END
$$$$

  -OEChem-05262216503D

 51 50  0     1  0  0  0  0  0999 V2000
    1.8757   -4.8011    0.2346 C   0  0  0  0  0  0  0  0  0  0  0  0
    1.7488   -4.3635   -0.8986 O   0  0  0  0  0  0  0  0  0  0  0  0
    3.2233   -5.3107    0.7084 C   0  0  0  0  0  0  0  0  0  0  0  0
    3.9801   -5.1515   -0.0649 H   0  0  0  0  0  0  0  0  0  0  0  0
    3.5275   -4.7757    1.6117 H   0  0  0  0  0  0  0  0  0  0  0  0
    3.1614   -6.3793    0.9278 H   0  0  0  0  0  0  0  0  0  0  0  0
    0.8051   -4.7884    1.1048 N   0  0  0  0  0  0  0  0  0  0  0  0
   -0.4080   -4.0097    0.8250 C   0  0  2  0  0  0  0  0  0  0  0  0
   -0.2236   -2.5290    1.2151 C   0  0  0  0  0  0  0  0  0  0  0  0
    0.3775   -2.2324    2.2416 O   0  0  0  0  0  0  0  0  0  0  0  0
   -1.5664   -4.6342    1.6056 C   0  0  0  0  0  0  0  0  0  0  0  0
    1.0399   -4.9323    2.0834 H   0  0  0  0  0  0  0  0  0  0  0  0
   -0.6474   -4.0595   -0.2428 H   0  0  0  0  0  0  0  0  0  0  0  0
   -1.3699   -4.5953    2.6820 H   0  0  0  0  0  0  0  0  0  0  0  0
   -2.4971   -4.0946    1.4035 H   0  0  0  0  0  0  0  0  0  0  0  0
   -1.7013   -5.6800    1.3124 H   0  0  0  0  0  0  0  0  0  0  0  0
   -0.8107   -1.5250    0.4705 N   0  0  0  0  0  0  0  0  0  0  0  0
   -0.3554   -0.1164    0.4494 C   0  0  2  0  0  0  0  0  0  0  0  0
   -1.5670    0.6275   -0.1927 C   0  0  0  0  0  0  0  0  0  0  0  0
   -1.5092    1.2657   -1.2363 O   0  0  0  0  0  0  0  0  0  0  0  0
    0.9760    0.1220   -0.3605 C   0  0  2  0  0  0  0  0  0  0  0  0
    2.2083   -0.6221    0.2233 C   0  0  0  0  0  0  0  0  0  0  0  0
    1.3702    1.6243   -0.3423 C   0  0  0  0  0  0  0  0  0  0  0  0
    3.4303   -0.6057   -0.7024 C   0  0  0  0  0  0  0  0  0  0  0  0
   -1.2625   -1.8479   -0.3821 H   0  0  0  0  0  0  0  0  0  0  0  0
   -0.2215    0.2516    1.4721 H   0  0  0  0  0  0  0  0  0  0  0  0
    0.8128   -0.2029   -1.3940 H   0  0  0  0  0  0  0  0  0  0  0  0
    2.4703   -0.2221    1.2083 H   0  0  0  0  0  0  0  0  0  0  0  0
    1.9732   -1.6771    0.3462 H   0  0  0  0  0  0  0  0  0  0  0  0
    1.6551    1.9308    0.6690 H   0  0  0  0  0  0  0  0  0  0  0  0
    2.2122    1.8117   -1.0130 H   0  0  0  0  0  0  0  0  0  0  0  0
    0.5674    2.2838   -0.6704 H   0  0  0  0  0  0  0  0  0  0  0  0
    3.1509   -0.9266   -1.7108 H   0  0  0  0  0  0  0  0  0  0  0  0
    4.1917   -1.2931   -0.3212 H   0  0  0  0  0  0  0  0  0  0  0  0
    3.8757    0.3909   -0.7574 H   0  0  0  0  0  0  0  0  0  0  0  0
   -2.8385    0.3152    0.2573 N   0  0  0  0  0  0  0  0  0  0  0  0
   -4.0902    0.8799   -0.2634 C   0  0  2  0  0  0  0  0  0  0  0  0
   -5.1798    0.9299    0.8276 C   0  0  0  0  0  0  0  0  0  0  0  0
   -5.0621    0.2573    1.8462 O   0  0  0  0  0  0  0  0  0  0  0  0
   -4.5592    0.0275   -1.4471 C   0  0  0  0  0  0  0  0  0  0  0  0
   -2.8982   -0.2093    1.1310 H   0  0  0  0  0  0  0  0  0  0  0  0
   -3.9157    1.9063   -0.6030 H   0  0  0  0  0  0  0  0  0  0  0  0
   -4.7439   -1.0027   -1.1267 H   0  0  0  0  0  0  0  0  0  0  0  0
   -5.4834    0.4325   -1.8697 H   0  0  0  0  0  0  0  0  0  0  0  0
   -3.7980    0.0176   -2.2337 H   0  0  0  0  0  0  0  0  0  0  0  0
   -6.2929    1.7353    0.6717 N   0  0  0  0  0  0  0  0  0  0  0  0
   -7.3461    1.8468    1.6737 C   0  0  0  0  0  0  0  0  0  0  0  0
   -6.3545    2.2969   -0.1727 H   0  0  0  0  0  0  0  0  0  0  0  0
   -7.8214    0.8742    1.8398 H   0  0  0  0  0  0  0  0  0  0  0  0
   -6.9355    2.2056    2.6236 H   0  0  0  0  0  0  0  0  0  0  0  0
   -8.1125    2.5533    1.3407 H   0  0  0  0  0  0  0  0  0  0  0  0
  1  2  2  0  0  0  0
  1  3  1  0  0  0  0
  1  7  1  0  0  0  0
  3  4  1  0  0  0  0
  3  5  1  0  0  0  0
  3  6  1  0  0  0  0
  7  8  1  0  0  0  0
  7 12  1  0  0  0  0
  8  9  1  0  0  0  0
  8 11  1  0  0  0  0
  8 13  1  0  0  0  0
  9 10  2  0  0  0  0
  9 17  1  0  0  0  0
 11 14  1  0  0  0  0
 11 15  1  0  0  0  0
 11 16  1  0  0  0  0
 17 18  1  0  0  0  0
 17 25  1  0  0  0  0
 18 19  1  0  0  0  0
 18 21  1  0  0  0  0
 18 26  1  0  0  0  0
 19 20  2  0  0  0  0
 19 36  1  0  0  0  0
 21 22  1  0  0  0  0
 21 23  1  0  0  0  0
 21 27  1  0  0  0  0
 22 24  1  0  0  0  0
 22 28  1  0  0  0  0
 22 29  1  0  0  0  0
 23 30  1  0  0  0  0
 23 31  1  0  0  0  0
 23 32  1  0  0  0  0
 24 33  1  0  0  0  0
 24 34  1  0  0  0  0
 24 35  1  0  0  0  0
 36 37  1  0  0  0  0
 36 41  1  0  0  0  0
 37 38  1  0  0  0  0
 37 40  1  0  0  0  0
 37 42  1  0  0  0  0
 38 39  2  0  0  0  0
 38 46  1  0  0  0  0
 40 43  1  0  0  0  0
 40 44  1  0  0  0  0
 40 45  1  0  0  0  0
 46 47  1  0  0  0  0
 46 48  1  0  0  0  0
 47 49  1  0  0  0  0
 47 50  1  0  0  0  0
 47 51  1  0  0  0  0
M  END
$$$$

  -OEChem-05262216503D

 51 50  0     1  0  0  0  0  0999 V2000
    1.5951   -5.6116    0.4347 C   0  0  0  0  0  0  0  0  0  0  0  0
    1.2391   -5.8502   -0.7085 O   0  0  0  0  0  0  0  0  0  0  0  0
    2.8549   -6.2509    0.9874 C   0  0  0  0  0  0  0  0  0  0  0  0
    3.3385   -6.8587    0.2175 H   0  0  0  0  0  0  0  0  0  0  0  0
    3.5532   -5.4764    1.3140 H   0  0  0  0  0  0  0  0  0  0  0  0
    2.6069   -6.8907    1.8380 H   0  0  0  0  0  0  0  0  0  0  0  0
    0.8655   -4.7484    1.2248 N   0  0  0  0  0  0  0  0  0  0  0  0
   -0.2194   -3.8924    0.7262 C   0  0  2  0  0  0  0  0  0  0  0  0
    0.0092   -2.4182    1.1146 C   0  0  0  0  0  0  0  0  0  0  0  0
    0.7019   -2.1373    2.0867 O   0  0  0  0  0  0  0  0  0  0  0  0
   -1.5356   -4.4090    1.3117 C   0  0  0  0  0  0  0  0  0  0  0  0
    1.2986   -4.4609    2.1014 H   0  0  0  0  0  0  0  0  0  0  0  0
   -0.2749   -3.9375   -0.3666 H   0  0  0  0  0  0  0  0  0  0  0  0
   -1.5156   -4.3582    2.4052 H   0  0  0  0  0  0  0  0  0  0  0  0
   -2.3779   -3.8111    0.9506 H   0  0  0  0  0  0  0  0  0  0  0  0
   -1.6980   -5.4497    1.0138 H   0  0  0  0  0  0  0  0  0  0  0  0
   -0.6470   -1.4070    0.4401 N   0  0  0  0  0  0  0  0  0  0  0  0
   -0.2717    0.0222    0.4602 C   0  0  2  0  0  0  0  0  0  0  0  0
   -1.5368    0.7249   -0.1051 C   0  0  0  0  0  0  0  0  0  0  0  0
   -1.6030    1.1690   -1.2455 O   0  0  0  0  0  0  0  0  0  0  0  0
    1.0030    0.3886   -0.3859 C   0  0  2  0  0  0  0  0  0  0  0  0
    2.3056   -0.2914    0.1089 C   0  0  0  0  0  0  0  0  0  0  0  0
    1.2600    1.9164   -0.3314 C   0  0  0  0  0  0  0  0  0  0  0  0
    3.4789   -0.1424   -0.8665 C   0  0  0  0  0  0  0  0  0  0  0  0
   -1.1891   -1.7105   -0.3660 H   0  0  0  0  0  0  0  0  0  0  0  0
   -0.1173    0.3534    1.4927 H   0  0  0  0  0  0  0  0  0  0  0  0
    0.8229    0.0886   -1.4240 H   0  0  0  0  0  0  0  0  0  0  0  0
    2.5830    0.0844    1.0993 H   0  0  0  0  0  0  0  0  0  0  0  0
    2.1462   -1.3651    0.1929 H   0  0  0  0  0  0  0  0  0  0  0  0
    1.5225    2.2231    0.6860 H   0  0  0  0  0  0  0  0  0  0  0  0
    2.0767    2.1980   -1.0004 H   0  0  0  0  0  0  0  0  0  0  0  0
    0.3905    2.4975   -0.6433 H   0  0  0  0  0  0  0  0  0  0  0  0
    3.1781   -0.4387   -1.8761 H   0  0  0  0  0  0  0  0  0  0  0  0
    4.3065   -0.7846   -0.5502 H   0  0  0  0  0  0  0  0  0  0  0  0
    3.8457    0.8870   -0.8941 H   0  0  0  0  0  0  0  0  0  0  0  0
   -2.7292    0.5696    0.5773 N   0  0  0  0  0  0  0  0  0  0  0  0
   -4.0288    1.1002    0.1472 C   0  0  2  0  0  0  0  0  0  0  0  0
   -4.9377    1.4109    1.3541 C   0  0  0  0  0  0  0  0  0  0  0  0
   -4.6644    0.9635    2.4626 O   0  0  0  0  0  0  0  0  0  0  0  0
   -4.6981    0.0732   -0.7723 C   0  0  0  0  0  0  0  0  0  0  0  0
   -2.6761    0.1952    1.5252 H   0  0  0  0  0  0  0  0  0  0  0  0
   -3.8796    2.0357   -0.4021 H   0  0  0  0  0  0  0  0  0  0  0  0
   -4.8650   -0.8672   -0.2374 H   0  0  0  0  0  0  0  0  0  0  0  0
   -5.6626    0.4472   -1.1292 H   0  0  0  0  0  0  0  0  0  0  0  0
   -4.0652   -0.1277   -1.6425 H   0  0  0  0  0  0  0  0  0  0  0  0
   -6.0644    2.1965    1.1983 N   0  0  0  0  0  0  0  0  0  0  0  0
   -6.9626    2.5337    2.2959 C   0  0  0  0  0  0  0  0  0  0  0  0
   -6.2623    2.5591    0.2702 H   0  0  0  0  0  0  0  0  0  0  0  0
   -7.4276    1.6291    2.7019 H   0  0  0  0  0  0  0  0  0  0  0  0
   -6.4149    3.0390    3.0985 H   0  0  0  0  0  0  0  0  0  0  0  0
   -7.7543    3.2025    1.9447 H   0  0  0  0  0  0  0  0  0  0  0  0
  1  2  2  0  0  0  0
  1  3  1  0  0  0  0
  1  7  1  0  0  0  0
  3  4  1  0  0  0  0
  3  5  1  0  0  0  0
  3  6  1  0  0  0  0
  7  8  1  0  0  0  0
  7 12  1  0  0  0  0
  8  9  1  0  0  0  0
  8 11  1  0  0  0  0
  8 13  1  0  0  0  0
  9 10  2  0  0  0  0
  9 17  1  0  0  0  0
 11 14  1  0  0  0  0
 11 15  1  0  0  0  0
 11 16  1  0  0  0  0
 17 18  1  0  0  0  0
 17 25  1  0  0  0  0
 18 19  1  0  0  0  0
 18 21  1  0  0  0  0
 18 26  1  0  0  0  0
 19 20  2  0  0  0  0
 19 36  1  0  0  0  0
 21 22  1  0  0  0  0
 21 23  1  0  0  0  0
 21 27  1  0  0  0  0
 22 24  1  0  0  0  0
 22 28  1  0  0  0  0
 22 29  1  0  0  0  0
 23 30  1  0  0  0  0
 23 31  1  0  0  0  0
 23 32  1  0  0  0  0
 24 33  1  0  0  0  0
 24 34  1  0  0  0  0
 24 35  1  0  0  0  0
 36 37  1  0  0  0  0
 36 41  1  0  0  0  0
 37 38  1  0  0  0  0
 37 40  1  0  0  0  0
 37 42  1  0  0  0  0
 38 39  2  0  0  0  0
 38 46  1  0  0  0  0
 40 43  1  0  0  0  0
 40 44  1  0  0  0  0
 40 45  1  0  0  0  0
 46 47  1  0  0  0  0
 46 48  1  0  0  0  0
 47 49  1  0  0  0  0
 47 50  1  0  0  0  0
 47 51  1  0  0  0  0
M  END
$$$$

  -OEChem-05262216503D

 51 50  0     1  0  0  0  0  0999 V2000
    1.5601   -5.8045    0.4867 C   0  0  0  0  0  0  0  0  0  0  0  0
    1.0981   -6.1504   -0.5891 O   0  0  0  0  0  0  0  0  0  0  0  0
    2.7670   -6.5221    1.0619 C   0  0  0  0  0  0  0  0  0  0  0  0
    3.1111   -7.2954    0.3696 H   0  0  0  0  0  0  0  0  0  0  0  0
    3.5811   -5.8126    1.2279 H   0  0  0  0  0  0  0  0  0  0  0  0
    2.5030   -6.9921    2.0122 H   0  0  0  0  0  0  0  0  0  0  0  0
    0.9889   -4.7569    1.1780 N   0  0  0  0  0  0  0  0  0  0  0  0
   -0.0861   -3.9041    0.6542 C   0  0  2  0  0  0  0  0  0  0  0  0
    0.0846   -2.4377    1.1003 C   0  0  0  0  0  0  0  0  0  0  0  0
    0.7915   -2.1634    2.0642 O   0  0  0  0  0  0  0  0  0  0  0  0
   -1.4243   -4.4655    1.1429 C   0  0  0  0  0  0  0  0  0  0  0  0
    1.4738   -4.4245    2.0108 H   0  0  0  0  0  0  0  0  0  0  0  0
   -0.0694   -3.9137   -0.4411 H   0  0  0  0  0  0  0  0  0  0  0  0
   -1.4647   -4.4609    2.2370 H   0  0  0  0  0  0  0  0  0  0  0  0
   -2.2561   -3.8660    0.7611 H   0  0  0  0  0  0  0  0  0  0  0  0
   -1.5522   -5.4950    0.7935 H   0  0  0  0  0  0  0  0  0  0  0  0
   -0.6142   -1.4283    0.4664 N   0  0  0  0  0  0  0  0  0  0  0  0
   -0.2781    0.0085    0.5127 C   0  0  2  0  0  0  0  0  0  0  0  0
   -1.5593    0.7115   -0.0019 C   0  0  0  0  0  0  0  0  0  0  0  0
   -1.7281    0.9661   -1.1893 O   0  0  0  0  0  0  0  0  0  0  0  0
    0.9616    0.4288   -0.3574 C   0  0  2  0  0  0  0  0  0  0  0  0
    2.2950   -0.2245    0.0863 C   0  0  0  0  0  0  0  0  0  0  0  0
    1.1538    1.9639   -0.3053 C   0  0  0  0  0  0  0  0  0  0  0  0
    3.4386   -0.0227   -0.9143 C   0  0  0  0  0  0  0  0  0  0  0  0
   -1.1638   -1.7250   -0.3374 H   0  0  0  0  0  0  0  0  0  0  0  0
   -0.1006    0.3144    1.5491 H   0  0  0  0  0  0  0  0  0  0  0  0
    0.7639    0.1320   -1.3934 H   0  0  0  0  0  0  0  0  0  0  0  0
    2.5873    0.1425    1.0758 H   0  0  0  0  0  0  0  0  0  0  0  0
    2.1679   -1.3035    0.1544 H   0  0  0  0  0  0  0  0  0  0  0  0
    1.3958    2.2843    0.7128 H   0  0  0  0  0  0  0  0  0  0  0  0
    1.9615    2.2794   -0.9699 H   0  0  0  0  0  0  0  0  0  0  0  0
    0.2584    2.5000   -0.6285 H   0  0  0  0  0  0  0  0  0  0  0  0
    3.1262   -0.3192   -1.9204 H   0  0  0  0  0  0  0  0  0  0  0  0
    4.2956   -0.6380   -0.6234 H   0  0  0  0  0  0  0  0  0  0  0  0
    3.7680    1.0193   -0.9384 H   0  0  0  0  0  0  0  0  0  0  0  0
   -2.6557    0.7987    0.8345 N   0  0  0  0  0  0  0  0  0  0  0  0
   -3.9468    1.3951    0.4678 C   0  0  2  0  0  0  0  0  0  0  0  0
   -4.6263    2.0679    1.6786 C   0  0  0  0  0  0  0  0  0  0  0  0
   -4.2229    1.8438    2.8146 O   0  0  0  0  0  0  0  0  0  0  0  0
   -4.8413    0.2925   -0.1074 C   0  0  0  0  0  0  0  0  0  0  0  0
   -2.5063    0.5988    1.8239 H   0  0  0  0  0  0  0  0  0  0  0  0
   -3.7931    2.1699   -0.2910 H   0  0  0  0  0  0  0  0  0  0  0  0
   -5.0144   -0.4874    0.6409 H   0  0  0  0  0  0  0  0  0  0  0  0
   -5.8082    0.7015   -0.4147 H   0  0  0  0  0  0  0  0  0  0  0  0
   -4.3675   -0.1628   -0.9827 H   0  0  0  0  0  0  0  0  0  0  0  0
   -5.6878    2.9344    1.4935 N   0  0  0  0  0  0  0  0  0  0  0  0
   -6.3753    3.6044    2.5908 C   0  0  0  0  0  0  0  0  0  0  0  0
   -5.9936    3.1086    0.5404 H   0  0  0  0  0  0  0  0  0  0  0  0
   -6.8491    2.8701    3.2509 H   0  0  0  0  0  0  0  0  0  0  0  0
   -5.6700    4.2027    3.1776 H   0  0  0  0  0  0  0  0  0  0  0  0
   -7.1511    4.2702    2.2003 H   0  0  0  0  0  0  0  0  0  0  0  0
  1  2  2  0  0  0  0
  1  3  1  0  0  0  0
  1  7  1  0  0  0  0
  3  4  1  0  0  0  0
  3  5  1  0  0  0  0
  3  6  1  0  0  0  0
  7  8  1  0  0  0  0
  7 12  1  0  0  0  0
  8  9  1  0  0  0  0
  8 11  1  0  0  0  0
  8 13  1  0  0  0  0
  9 10  2  0  0  0  0
  9 17  1  0  0  0  0
 11 14  1  0  0  0  0
 11 15  1  0  0  0  0
 11 16  1  0  0  0  0
 17 18  1  0  0  0  0
 17 25  1  0  0  0  0
 18 19  1  0  0  0  0
 18 21  1  0  0  0  0
 18 26  1  0  0  0  0
 19 20  2  0  0  0  0
 19 36  1  0  0  0  0
 21 22  1  0  0  0  0
 21 23  1  0  0  0  0
 21 27  1  0  0  0  0
 22 24  1  0  0  0  0
 22 28  1  0  0  0  0
 22 29  1  0  0  0  0
 23 30  1  0  0  0  0
 23 31  1  0  0  0  0
 23 32  1  0  0  0  0
 24 33  1  0  0  0  0
 24 34  1  0  0  0  0
 24 35  1  0  0  0  0
 36 37  1  0  0  0  0
 36 41  1  0  0  0  0
 37 38  1  0  0  0  0
 37 40  1  0  0  0  0
 37 42  1  0  0  0  0
 38 39  2  0  0  0  0
 38 46  1  0  0  0  0
 40 43  1  0  0  0  0
 40 44  1  0  0  0  0
 40 45  1  0  0  0  0
 46 47  1  0  0  0  0
 46 48  1  0  0  0  0
 47 49  1  0  0  0  0
 47 50  1  0  0  0  0
 47 51  1  0  0  0  0
M  END
$$$$

  -OEChem-05262216503D

 51 50  0     1  0  0  0  0  0999 V2000
    1.6180   -5.7237    0.4019 C   0  0  0  0  0  0  0  0  0  0  0  0
    1.2218   -5.9905   -0.7216 O   0  0  0  0  0  0  0  0  0  0  0  0
    2.8751   -6.3811    0.9397 C   0  0  0  0  0  0  0  0  0  0  0  0
    3.3314   -7.0088    0.1689 H   0  0  0  0  0  0  0  0  0  0  0  0
    3.5960   -5.6181    1.2438 H   0  0  0  0  0  0  0  0  0  0  0  0
    2.6291   -7.0047    1.8024 H   0  0  0  0  0  0  0  0  0  0  0  0
    0.9329   -4.8168    1.1826 N   0  0  0  0  0  0  0  0  0  0  0  0
   -0.1556   -3.9619    0.6903 C   0  0  2  0  0  0  0  0  0  0  0  0
    0.0285   -2.5020    1.1508 C   0  0  0  0  0  0  0  0  0  0  0  0
    0.7433   -2.2446    2.1140 O   0  0  0  0  0  0  0  0  0  0  0  0
   -1.4797   -4.5309    1.2054 C   0  0  0  0  0  0  0  0  0  0  0  0
    1.3911   -4.5143    2.0415 H   0  0  0  0  0  0  0  0  0  0  0  0
   -0.1699   -3.9578   -0.4049 H   0  0  0  0  0  0  0  0  0  0  0  0
   -1.4971   -4.5322    2.3001 H   0  0  0  0  0  0  0  0  0  0  0  0
   -2.3221   -3.9331    0.8440 H   0  0  0  0  0  0  0  0  0  0  0  0
   -1.6097   -5.5590    0.8527 H   0  0  0  0  0  0  0  0  0  0  0  0
   -0.6591   -1.4774    0.5299 N   0  0  0  0  0  0  0  0  0  0  0  0
   -0.2956   -0.0493    0.5891 C   0  0  2  0  0  0  0  0  0  0  0  0
   -1.5563    0.6973    0.0932 C   0  0  0  0  0  0  0  0  0  0  0  0
   -1.8207    0.7716   -1.1019 O   0  0  0  0  0  0  0  0  0  0  0  0
    0.9355    0.3531   -0.2998 C   0  0  2  0  0  0  0  0  0  0  0  0
    2.2640   -0.3317    0.1093 C   0  0  0  0  0  0  0  0  0  0  0  0
    1.1474    1.8848   -0.2490 C   0  0  0  0  0  0  0  0  0  0  0  0
    3.3885   -0.1402   -0.9148 C   0  0  0  0  0  0  0  0  0  0  0  0
   -1.2149   -1.7541   -0.2773 H   0  0  0  0  0  0  0  0  0  0  0  0
   -0.0941    0.2396    1.6261 H   0  0  0  0  0  0  0  0  0  0  0  0
    0.7124    0.0651   -1.3335 H   0  0  0  0  0  0  0  0  0  0  0  0
    2.5849    0.0212    1.0949 H   0  0  0  0  0  0  0  0  0  0  0  0
    2.1166   -1.4086    0.1721 H   0  0  0  0  0  0  0  0  0  0  0  0
    1.3932    2.2032    0.7689 H   0  0  0  0  0  0  0  0  0  0  0  0
    1.9588    2.1914   -0.9134 H   0  0  0  0  0  0  0  0  0  0  0  0
    0.2562    2.4280   -0.5745 H   0  0  0  0  0  0  0  0  0  0  0  0
    3.0463   -0.4129   -1.9180 H   0  0  0  0  0  0  0  0  0  0  0  0
    4.2375   -0.7794   -0.6543 H   0  0  0  0  0  0  0  0  0  0  0  0
    3.7411    0.8945   -0.9304 H   0  0  0  0  0  0  0  0  0  0  0  0
   -2.5205    1.0859    1.0025 N   0  0  0  0  0  0  0  0  0  0  0  0
   -3.7616    1.7903    0.6572 C   0  0  2  0  0  0  0  0  0  0  0  0
   -4.2120    2.7342    1.7919 C   0  0  0  0  0  0  0  0  0  0  0  0
   -3.6866    2.6628    2.8975 O   0  0  0  0  0  0  0  0  0  0  0  0
   -4.8456    0.7485    0.3628 C   0  0  0  0  0  0  0  0  0  0  0  0
   -2.2767    1.0456    1.9924 H   0  0  0  0  0  0  0  0  0  0  0  0
   -3.5997    2.4060   -0.2341 H   0  0  0  0  0  0  0  0  0  0  0  0
   -5.0333    0.1309    1.2471 H   0  0  0  0  0  0  0  0  0  0  0  0
   -5.7808    1.2374    0.0740 H   0  0  0  0  0  0  0  0  0  0  0  0
   -4.5319    0.0962   -0.4582 H   0  0  0  0  0  0  0  0  0  0  0  0
   -5.2030    3.6731    1.5717 N   0  0  0  0  0  0  0  0  0  0  0  0
   -5.6810    4.5888    2.6010 C   0  0  0  0  0  0  0  0  0  0  0  0
   -5.6240    3.7069    0.6477 H   0  0  0  0  0  0  0  0  0  0  0  0
   -6.1566    4.0337    3.4164 H   0  0  0  0  0  0  0  0  0  0  0  0
   -4.8508    5.1742    3.0108 H   0  0  0  0  0  0  0  0  0  0  0  0
   -6.4153    5.2818    2.1789 H   0  0  0  0  0  0  0  0  0  0  0  0
  1  2  2  0  0  0  0
  1  3  1  0  0  0  0
  1  7  1  0  0  0  0
  3  4  1  0  0  0  0
  3  5  1  0  0  0  0
  3  6  1  0  0  0  0
  7  8  1  0  0  0  0
  7 12  1  0  0  0  0
  8  9  1  0  0  0  0
  8 11  1  0  0  0  0
  8 13  1  0  0  0  0
  9 10  2  0  0  0  0
  9 17  1  0  0  0  0
 11 14  1  0  0  0  0
 11 15  1  0  0  0  0
 11 16  1  0  0  0  0
 17 18  1  0  0  0  0
 17 25  1  0  0  0  0
 18 19  1  0  0  0  0
 18 21  1  0  0  0  0
 18 26  1  0  0  0  0
 19 20  2  0  0  0  0
 19 36  1  0  0  0  0
 21 22  1  0  0  0  0
 21 23  1  0  0  0  0
 21 27  1  0  0  0  0
 22 24  1  0  0  0  0
 22 28  1  0  0  0  0
 22 29  1  0  0  0  0
 23 30  1  0  0  0  0
 23 31  1  0  0  0  0
 23 32  1  0  0  0  0
 24 33  1  0  0  0  0
 24 34  1  0  0  0  0
 24 35  1  0  0  0  0
 36 37  1  0  0  0  0
 36 41  1  0  0  0  0
 37 38  1  0  0  0  0
 37 40  1  0  0  0  0
 37 42  1  0  0  0  0
 38 39  2  0  0  0  0
 38 46  1  0  0  0  0
 40 43  1  0  0  0  0
 40 44  1  0  0  0  0
 40 45  1  0  0  0  0
 46 47  1  0  0  0  0
 46 48  1  0  0  0  0
 47 49  1  0  0  0  0
 47 50  1  0  0  0  0
 47 51  1  0  0  0  0
M  END
$$$$

  -OEChem-05262216503D

 51 50  0     1  0  0  0  0  0999 V2000
    1.5378   -5.8265    0.4095 C   0  0  0  0  0  0  0  0  0  0  0  0
    1.0954   -6.1190   -0.6901 O   0  0  0  0  0  0  0  0  0  0  0  0
    2.7561   -6.5470    0.9556 C   0  0  0  0  0  0  0  0  0  0  0  0
    3.1345   -7.2588    0.2165 H   0  0  0  0  0  0  0  0  0  0  0  0
    3.5451   -5.8269    1.1865 H   0  0  0  0  0  0  0  0  0  0  0  0
    2.4903   -7.0903    1.8657 H   0  0  0  0  0  0  0  0  0  0  0  0
    0.9358   -4.8371    1.1574 N   0  0  0  0  0  0  0  0  0  0  0  0
   -0.1276   -3.9548    0.6594 C   0  0  2  0  0  0  0  0  0  0  0  0
    0.0709   -2.5051    1.1463 C   0  0  0  0  0  0  0  0  0  0  0  0
    0.8130   -2.2685    2.0943 O   0  0  0  0  0  0  0  0  0  0  0  0
   -1.4715   -4.5099    1.1384 C   0  0  0  0  0  0  0  0  0  0  0  0
    1.4219   -4.5330    2.0004 H   0  0  0  0  0  0  0  0  0  0  0  0
   -0.1166   -3.9334   -0.4359 H   0  0  0  0  0  0  0  0  0  0  0  0
   -1.5109   -4.5264    2.2324 H   0  0  0  0  0  0  0  0  0  0  0  0
   -2.2969   -3.8939    0.7689 H   0  0  0  0  0  0  0  0  0  0  0  0
   -1.6108   -5.5308    0.7684 H   0  0  0  0  0  0  0  0  0  0  0  0
   -0.6274   -1.4667    0.5620 N   0  0  0  0  0  0  0  0  0  0  0  0
   -0.2724   -0.0384    0.6500 C   0  0  2  0  0  0  0  0  0  0  0  0
   -1.5389    0.7188    0.1905 C   0  0  0  0  0  0  0  0  0  0  0  0
   -1.9365    0.6207   -0.9657 O   0  0  0  0  0  0  0  0  0  0  0  0
    0.9307    0.3950   -0.2599 C   0  0  2  0  0  0  0  0  0  0  0  0
    2.2724   -0.2924    0.0978 C   0  0  0  0  0  0  0  0  0  0  0  0
    1.1285    1.9274   -0.1841 C   0  0  0  0  0  0  0  0  0  0  0  0
    3.3702   -0.0691   -0.9489 C   0  0  0  0  0  0  0  0  0  0  0  0
   -1.2124   -1.7225   -0.2322 H   0  0  0  0  0  0  0  0  0  0  0  0
   -0.0501    0.2250    1.6894 H   0  0  0  0  0  0  0  0  0  0  0  0
    0.6823    0.1275   -1.2933 H   0  0  0  0  0  0  0  0  0  0  0  0
    2.6167    0.0384    1.0833 H   0  0  0  0  0  0  0  0  0  0  0  0
    2.1313   -1.3715    0.1380 H   0  0  0  0  0  0  0  0  0  0  0  0
    1.3739    2.2312    0.8384 H   0  0  0  0  0  0  0  0  0  0  0  0
    1.9349    2.2536   -0.8450 H   0  0  0  0  0  0  0  0  0  0  0  0
    0.2306    2.4657   -0.4996 H   0  0  0  0  0  0  0  0  0  0  0  0
    3.0049   -0.3203   -1.9495 H   0  0  0  0  0  0  0  0  0  0  0  0
    4.2294   -0.7088   -0.7253 H   0  0  0  0  0  0  0  0  0  0  0  0
    3.7156    0.9679   -0.9478 H   0  0  0  0  0  0  0  0  0  0  0  0
   -2.3411    1.3577    1.1161 N   0  0  0  0  0  0  0  0  0  0  0  0
   -3.5513    2.1209    0.7848 C   0  0  2  0  0  0  0  0  0  0  0  0
   -3.7517    3.3149    1.7416 C   0  0  0  0  0  0  0  0  0  0  0  0
   -3.0838    3.4017    2.7662 O   0  0  0  0  0  0  0  0  0  0  0  0
   -4.7518    1.1722    0.8492 C   0  0  0  0  0  0  0  0  0  0  0  0
   -1.9711    1.4730    2.0597 H   0  0  0  0  0  0  0  0  0  0  0  0
   -3.4651    2.5271   -0.2287 H   0  0  0  0  0  0  0  0  0  0  0  0
   -4.8705    0.7734    1.8619 H   0  0  0  0  0  0  0  0  0  0  0  0
   -5.6712    1.6956    0.5703 H   0  0  0  0  0  0  0  0  0  0  0  0
   -4.6097    0.3347    0.1590 H   0  0  0  0  0  0  0  0  0  0  0  0
   -4.6761    4.3008    1.4486 N   0  0  0  0  0  0  0  0  0  0  0  0
   -4.9065    5.4615    2.3005 C   0  0  0  0  0  0  0  0  0  0  0  0
   -5.2078    4.2083    0.5878 H   0  0  0  0  0  0  0  0  0  0  0  0
   -5.2491    5.1476    3.2922 H   0  0  0  0  0  0  0  0  0  0  0  0
   -3.9853    6.0431    2.4134 H   0  0  0  0  0  0  0  0  0  0  0  0
   -5.6713    6.1083    1.8598 H   0  0  0  0  0  0  0  0  0  0  0  0
  1  2  2  0  0  0  0
  1  3  1  0  0  0  0
  1  7  1  0  0  0  0
  3  4  1  0  0  0  0
  3  5  1  0  0  0  0
  3  6  1  0  0  0  0
  7  8  1  0  0  0  0
  7 12  1  0  0  0  0
  8  9  1  0  0  0  0
  8 11  1  0  0  0  0
  8 13  1  0  0  0  0
  9 10  2  0  0  0  0
  9 17  1  0  0  0  0
 11 14  1  0  0  0  0
 11 15  1  0  0  0  0
 11 16  1  0  0  0  0
 17 18  1  0  0  0  0
 17 25  1  0  0  0  0
 18 19  1  0  0  0  0
 18 21  1  0  0  0  0
 18 26  1  0  0  0  0
 19 20  2  0  0  0  0
 19 36  1  0  0  0  0
 21 22  1  0  0  0  0
 21 23  1  0  0  0  0
 21 27  1  0  0  0  0
 22 24  1  0  0  0  0
 22 28  1  0  0  0  0
 22 29  1  0  0  0  0
 23 30  1  0  0  0  0
 23 31  1  0  0  0  0
 23 32  1  0  0  0  0
 24 33  1  0  0  0  0
 24 34  1  0  0  0  0
 24 35  1  0  0  0  0
 36 37  1  0  0  0  0
 36 41  1  0  0  0  0
 37 38  1  0  0  0  0
 37 40  1  0  0  0  0
 37 42  1  0  0  0  0
 38 39  2  0  0  0  0
 38 46  1  0  0  0  0
 40 43  1  0  0  0  0
 40 44  1  0  0  0  0
 40 45  1  0  0  0  0
 46 47  1  0  0  0  0
 46 48  1  0  0  0  0
 47 49  1  0  0  0  0
 47 50  1  0  0  0  0
 47 51  1  0  0  0  0
M  END
$$$$

  -OEChem-05262216503D

 51 50  0     1  0  0  0  0  0999 V2000
    1.4944   -5.8776    0.3990 C   0  0  0  0  0  0  0  0  0  0  0  0
    1.0105   -6.1867   -0.6783 O   0  0  0  0  0  0  0  0  0  0  0  0
    2.7166   -6.6087    0.9224 C   0  0  0  0  0  0  0  0  0  0  0  0
    3.0453   -7.3597    0.1986 H   0  0  0  0  0  0  0  0  0  0  0  0
    3.5320   -5.9007    1.0893 H   0  0  0  0  0  0  0  0  0  0  0  0
    2.4779   -7.1077    1.8646 H   0  0  0  0  0  0  0  0  0  0  0  0
    0.9398   -4.8542    1.1376 N   0  0  0  0  0  0  0  0  0  0  0  0
   -0.1246   -3.9658    0.6528 C   0  0  2  0  0  0  0  0  0  0  0  0
    0.0714   -2.5238    1.1634 C   0  0  0  0  0  0  0  0  0  0  0  0
    0.8279   -2.2988    2.1030 O   0  0  0  0  0  0  0  0  0  0  0  0
   -1.4708   -4.5309    1.1140 C   0  0  0  0  0  0  0  0  0  0  0  0
    1.4529   -4.5430    1.9617 H   0  0  0  0  0  0  0  0  0  0  0  0
   -0.1073   -3.9262   -0.4417 H   0  0  0  0  0  0  0  0  0  0  0  0
   -1.5168   -4.5682    2.2072 H   0  0  0  0  0  0  0  0  0  0  0  0
   -2.2945   -3.9092    0.7506 H   0  0  0  0  0  0  0  0  0  0  0  0
   -1.6073   -5.5447    0.7240 H   0  0  0  0  0  0  0  0  0  0  0  0
   -0.6328   -1.4771    0.6014 N   0  0  0  0  0  0  0  0  0  0  0  0
   -0.2902   -0.0482    0.7186 C   0  0  2  0  0  0  0  0  0  0  0  0
   -1.5569    0.7167    0.2753 C   0  0  0  0  0  0  0  0  0  0  0  0
   -2.0756    0.4736   -0.8099 O   0  0  0  0  0  0  0  0  0  0  0  0
    0.8995    0.4157   -0.1917 C   0  0  2  0  0  0  0  0  0  0  0  0
    2.2495   -0.2687    0.1391 C   0  0  0  0  0  0  0  0  0  0  0  0
    1.0871    1.9474   -0.0826 C   0  0  0  0  0  0  0  0  0  0  0  0
    3.3364   -0.0138   -0.9113 C   0  0  0  0  0  0  0  0  0  0  0  0
   -1.2432   -1.7168   -0.1793 H   0  0  0  0  0  0  0  0  0  0  0  0
   -0.0656    0.1933    1.7626 H   0  0  0  0  0  0  0  0  0  0  0  0
    0.6420    0.1709   -1.2285 H   0  0  0  0  0  0  0  0  0  0  0  0
    2.5998    0.0419    1.1289 H   0  0  0  0  0  0  0  0  0  0  0  0
    2.1169   -1.3495    0.1559 H   0  0  0  0  0  0  0  0  0  0  0  0
    1.3214    2.2307    0.9485 H   0  0  0  0  0  0  0  0  0  0  0  0
    1.8976    2.2931   -0.7283 H   0  0  0  0  0  0  0  0  0  0  0  0
    0.1891    2.4872   -0.3956 H   0  0  0  0  0  0  0  0  0  0  0  0
    2.9622   -0.2384   -1.9149 H   0  0  0  0  0  0  0  0  0  0  0  0
    4.1983   -0.6579   -0.7131 H   0  0  0  0  0  0  0  0  0  0  0  0
    3.6800    1.0234   -0.8850 H   0  0  0  0  0  0  0  0  0  0  0  0
   -2.1912    1.5840    1.1431 N   0  0  0  0  0  0  0  0  0  0  0  0
   -3.3196    2.4466    0.7715 C   0  0  2  0  0  0  0  0  0  0  0  0
   -3.2307    3.8190    1.4716 C   0  0  0  0  0  0  0  0  0  0  0  0
   -2.4042    4.0053    2.3584 O   0  0  0  0  0  0  0  0  0  0  0  0
   -4.6175    1.7252    1.1454 C   0  0  0  0  0  0  0  0  0  0  0  0
   -1.6891    1.8395    1.9938 H   0  0  0  0  0  0  0  0  0  0  0  0
   -3.3080    2.6322   -0.3081 H   0  0  0  0  0  0  0  0  0  0  0  0
   -4.6553    1.5406    2.2238 H   0  0  0  0  0  0  0  0  0  0  0  0
   -5.4876    2.3253    0.8631 H   0  0  0  0  0  0  0  0  0  0  0  0
   -4.6789    0.7642    0.6247 H   0  0  0  0  0  0  0  0  0  0  0  0
   -4.0652    4.8547    1.0947 N   0  0  0  0  0  0  0  0  0  0  0  0
   -4.0254    6.1776    1.7060 C   0  0  0  0  0  0  0  0  0  0  0  0
   -4.7353    4.6745    0.3528 H   0  0  0  0  0  0  0  0  0  0  0  0
   -4.2711    6.1151    2.7714 H   0  0  0  0  0  0  0  0  0  0  0  0
   -3.0292    6.6200    1.5996 H   0  0  0  0  0  0  0  0  0  0  0  0
   -4.7499    6.8397    1.2221 H   0  0  0  0  0  0  0  0  0  0  0  0
  1  2  2  0  0  0  0
  1  3  1  0  0  0  0
  1  7  1  0  0  0  0
  3  4  1  0  0  0  0
  3  5  1  0  0  0  0
  3  6  1  0  0  0  0
  7  8  1  0  0  0  0
  7 12  1  0  0  0  0
  8  9  1  0  0  0  0
  8 11  1  0  0  0  0
  8 13  1  0  0  0  0
  9 10  2  0  0  0  0
  9 17  1  0  0  0  0
 11 14  1  0  0  0  0
 11 15  1  0  0  0  0
 11 16  1  0  0  0  0
 17 18  1  0  0  0  0
 17 25  1  0  0  0  0
 18 19  1  0  0  0  0
 18 21  1  0  0  0  0
 18 26  1  0  0  0  0
 19 20  2  0  0  0  0
 19 36  1  0  0  0  0
 21 22  1  0  0  0  0
 21 23  1  0  0  0  0
 21 27  1  0  0  0  0
 22 24  1  0  0  0  0
 22 28  1  0  0  0  0
 22 29  1  0  0  0  0
 23 30  1  0  0  0  0
 23 31  1  0  0  0  0
 23 32  1  0  0  0  0
 24 33  1  0  0  0  0
 24 34  1  0  0  0  0
 24 35  1  0  0  0  0
 36 37  1  0  0  0  0
 36 41  1  0  0  0  0
 37 38  1  0  0  0  0
 37 40  1  0  0  0  0
 37 42  1  0  0  0  0
 38 39  2  0  0  0  0
 38 46  1  0  0  0  0
 40 43  1  0  0  0  0
 40 44  1  0  0  0  0
 40 45  1  0  0  0  0
 46 47  1  0  0  0  0
 46 48  1  0  0  0  0
 47 49  1  0  0  0  0
 47 50  1  0  0  0  0
 47 51  1  0  0  0  0
M  END
$$$$

  -OEChem-05262216503D

 51 50  0     1  0  0  0  0  0999 V2000
    1.4436   -5.8501    0.3608 C   0  0  0  0  0  0  0  0  0  0  0  0
    0.9902   -6.1102   -0.7424 O   0  0  0  0  0  0  0  0  0  0  0  0
    2.6607   -6.5947    0.8764 C   0  0  0  0  0  0  0  0  0  0  0  0
    3.0651   -7.2434    0.0943 H   0  0  0  0  0  0  0  0  0  0  0  0
    3.4345   -5.8845    1.1784 H   0  0  0  0  0  0  0  0  0  0  0  0
    2.3833   -7.2089    1.7364 H   0  0  0  0  0  0  0  0  0  0  0  0
    0.8598   -4.8731    1.1387 N   0  0  0  0  0  0  0  0  0  0  0  0
   -0.1786   -3.9498    0.6626 C   0  0  2  0  0  0  0  0  0  0  0  0
    0.0668   -2.5176    1.1792 C   0  0  0  0  0  0  0  0  0  0  0  0
    0.8450   -2.3206    2.1074 O   0  0  0  0  0  0  0  0  0  0  0  0
   -1.5400   -4.4716    1.1302 C   0  0  0  0  0  0  0  0  0  0  0  0
    1.3649   -4.5902    1.9779 H   0  0  0  0  0  0  0  0  0  0  0  0
   -0.1682   -3.9038   -0.4318 H   0  0  0  0  0  0  0  0  0  0  0  0
   -1.5803   -4.5143    2.2232 H   0  0  0  0  0  0  0  0  0  0  0  0
   -2.3441   -3.8184    0.7775 H   0  0  0  0  0  0  0  0  0  0  0  0
   -1.7146   -5.4776    0.7353 H   0  0  0  0  0  0  0  0  0  0  0  0
   -0.6233   -1.4497    0.6411 N   0  0  0  0  0  0  0  0  0  0  0  0
   -0.2683   -0.0249    0.7765 C   0  0  2  0  0  0  0  0  0  0  0  0
   -1.5305    0.7607    0.3516 C   0  0  0  0  0  0  0  0  0  0  0  0
   -2.1841    0.3985   -0.6225 O   0  0  0  0  0  0  0  0  0  0  0  0
    0.9164    0.4316   -0.1467 C   0  0  2  0  0  0  0  0  0  0  0  0
    2.2602   -0.2765    0.1612 C   0  0  0  0  0  0  0  0  0  0  0  0
    1.1316    1.9595   -0.0387 C   0  0  0  0  0  0  0  0  0  0  0  0
    3.3434   -0.0329   -0.8961 C   0  0  0  0  0  0  0  0  0  0  0  0
   -1.2758   -1.6664   -0.1126 H   0  0  0  0  0  0  0  0  0  0  0  0
   -0.0310    0.2001    1.8217 H   0  0  0  0  0  0  0  0  0  0  0  0
    0.6401    0.1947   -1.1806 H   0  0  0  0  0  0  0  0  0  0  0  0
    2.6251    0.0178    1.1508 H   0  0  0  0  0  0  0  0  0  0  0  0
    2.1096   -1.3549    0.1668 H   0  0  0  0  0  0  0  0  0  0  0  0
    1.3607    2.2403    0.9941 H   0  0  0  0  0  0  0  0  0  0  0  0
    1.9538    2.2904   -0.6768 H   0  0  0  0  0  0  0  0  0  0  0  0
    0.2477    2.5145   -0.3638 H   0  0  0  0  0  0  0  0  0  0  0  0
    2.9569   -0.2397   -1.8987 H   0  0  0  0  0  0  0  0  0  0  0  0
    4.1942   -0.6959   -0.7117 H   0  0  0  0  0  0  0  0  0  0  0  0
    3.7092    0.9965   -0.8624 H   0  0  0  0  0  0  0  0  0  0  0  0
   -1.9756    1.8351    1.0972 N   0  0  0  0  0  0  0  0  0  0  0  0
   -3.0609    2.7349    0.6868 C   0  0  2  0  0  0  0  0  0  0  0  0
   -2.7479    4.1985    1.0611 C   0  0  0  0  0  0  0  0  0  0  0  0
   -1.8034    4.4541    1.8004 O   0  0  0  0  0  0  0  0  0  0  0  0
   -4.3512    2.2639    1.3625 C   0  0  0  0  0  0  0  0  0  0  0  0
   -1.3467    2.1887    1.8181 H   0  0  0  0  0  0  0  0  0  0  0  0
   -3.1889    2.6995   -0.4004 H   0  0  0  0  0  0  0  0  0  0  0  0
   -4.2484    2.3009    2.4519 H   0  0  0  0  0  0  0  0  0  0  0  0
   -5.1933    2.8977    1.0692 H   0  0  0  0  0  0  0  0  0  0  0  0
   -4.5770    1.2341    1.0682 H   0  0  0  0  0  0  0  0  0  0  0  0
   -3.5146    5.2327    0.5567 N   0  0  0  0  0  0  0  0  0  0  0  0
   -3.2749    6.6355    0.8739 C   0  0  0  0  0  0  0  0  0  0  0  0
   -4.2856    4.9917   -0.0592 H   0  0  0  0  0  0  0  0  0  0  0  0
   -3.4310    6.8176    1.9423 H   0  0  0  0  0  0  0  0  0  0  0  0
   -2.2493    6.9187    0.6143 H   0  0  0  0  0  0  0  0  0  0  0  0
   -3.9614    7.2741    0.3095 H   0  0  0  0  0  0  0  0  0  0  0  0
  1  2  2  0  0  0  0
  1  3  1  0  0  0  0
  1  7  1  0  0  0  0
  3  4  1  0  0  0  0
  3  5  1  0  0  0  0
  3  6  1  0  0  0  0
  7  8  1  0  0  0  0
  7 12  1  0  0  0  0
  8  9  1  0  0  0  0
  8 11  1  0  0  0  0
  8 13  1  0  0  0  0
  9 10  2  0  0  0  0
  9 17  1  0  0  0  0
 11 14  1  0  0  0  0
 11 15  1  0  0  0  0
 11 16  1  0  0  0  0
 17 18  1  0  0  0  0
 17 25  1  0  0  0  0
 18 19  1  0  0  0  0
 18 21  1  0  0  0  0
 18 26  1  0  0  0  0
 19 20  2  0  0  0  0
 19 36  1  0  0  0  0
 21 22  1  0  0  0  0
 21 23  1  0  0  0  0
 21 27  1  0  0  0  0
 22 24  1  0  0  0  0
 22 28  1  0  0  0  0
 22 29  1  0  0  0  0
 23 30  1  0  0  0  0
 23 31  1  0  0  0  0
 23 32  1  0  0  0  0
 24 33  1  0  0  0  0
 24 34  1  0  0  0  0
 24 35  1  0  0  0  0
 36 37  1  0  0  0  0
 36 41  1  0  0  0  0
 37 38  1  0  0  0  0
 37 40  1  0  0  0  0
 37 42  1  0  0  0  0
 38 39  2  0  0  0  0
 38 46  1  0  0  0  0
 40 43  1  0  0  0  0
 40 44  1  0  0  0  0
 40 45  1  0  0  0  0
 46 47  1  0  0  0  0
 46 48  1  0  0  0  0
 47 49  1  0  0  0  0
 47 50  1  0  0  0  0
 47 51  1  0  0  0  0
M  END
$$$$

  -OEChem-05262216503D

 51 50  0     1  0  0  0  0  0999 V2000
    1.4370   -5.7012    0.3234 C   0  0  0  0  0  0  0  0  0  0  0  0
    1.1524   -5.7869   -0.8606 O   0  0  0  0  0  0  0  0  0  0  0  0
    2.6257   -6.4660    0.8745 C   0  0  0  0  0  0  0  0  0  0  0  0
    3.1280   -7.0125    0.0715 H   0  0  0  0  0  0  0  0  0  0  0  0
    3.3376   -5.7719    1.3280 H   0  0  0  0  0  0  0  0  0  0  0  0
    2.2916   -7.1799    1.6311 H   0  0  0  0  0  0  0  0  0  0  0  0
    0.6935   -4.9030    1.1673 N   0  0  0  0  0  0  0  0  0  0  0  0
   -0.3032   -3.9250    0.7073 C   0  0  2  0  0  0  0  0  0  0  0  0
    0.0450   -2.4996    1.1828 C   0  0  0  0  0  0  0  0  0  0  0  0
    0.8305   -2.3322    2.1108 O   0  0  0  0  0  0  0  0  0  0  0  0
   -1.6700   -4.3570    1.2444 C   0  0  0  0  0  0  0  0  0  0  0  0
    1.1038   -4.7235    2.0823 H   0  0  0  0  0  0  0  0  0  0  0  0
   -0.3456   -3.9005   -0.3868 H   0  0  0  0  0  0  0  0  0  0  0  0
   -1.6687   -4.3647    2.3392 H   0  0  0  0  0  0  0  0  0  0  0  0
   -2.4515   -3.6717    0.9020 H   0  0  0  0  0  0  0  0  0  0  0  0
   -1.9137   -5.3626    0.8879 H   0  0  0  0  0  0  0  0  0  0  0  0
   -0.6040   -1.4057    0.6462 N   0  0  0  0  0  0  0  0  0  0  0  0
   -0.2144    0.0108    0.7818 C   0  0  2  0  0  0  0  0  0  0  0  0
   -1.4581    0.8282    0.3485 C   0  0  0  0  0  0  0  0  0  0  0  0
   -2.2413    0.3750   -0.4827 O   0  0  0  0  0  0  0  0  0  0  0  0
    0.9889    0.4137   -0.1493 C   0  0  2  0  0  0  0  0  0  0  0  0
    2.3072   -0.3391    0.1662 C   0  0  0  0  0  0  0  0  0  0  0  0
    1.2657    1.9343   -0.0787 C   0  0  0  0  0  0  0  0  0  0  0  0
    3.4006   -0.1502   -0.8928 C   0  0  0  0  0  0  0  0  0  0  0  0
   -1.2945   -1.5979   -0.0802 H   0  0  0  0  0  0  0  0  0  0  0  0
    0.0257    0.2357    1.8261 H   0  0  0  0  0  0  0  0  0  0  0  0
    0.7045    0.1670   -1.1786 H   0  0  0  0  0  0  0  0  0  0  0  0
    2.6817   -0.0473    1.1527 H   0  0  0  0  0  0  0  0  0  0  0  0
    2.1197   -1.4110    0.1831 H   0  0  0  0  0  0  0  0  0  0  0  0
    1.4388    2.2444    0.9568 H   0  0  0  0  0  0  0  0  0  0  0  0
    2.1405    2.2120   -0.6701 H   0  0  0  0  0  0  0  0  0  0  0  0
    0.4308    2.5102   -0.4861 H   0  0  0  0  0  0  0  0  0  0  0  0
    3.0016   -0.3347   -1.8951 H   0  0  0  0  0  0  0  0  0  0  0  0
    4.2152   -0.8579   -0.7110 H   0  0  0  0  0  0  0  0  0  0  0  0
    3.8229    0.8574   -0.8577 H   0  0  0  0  0  0  0  0  0  0  0  0
   -1.7125    2.0743    0.8897 N   0  0  0  0  0  0  0  0  0  0  0  0
   -2.7646    2.9863    0.4249 C   0  0  2  0  0  0  0  0  0  0  0  0
   -2.3315    4.4605    0.5691 C   0  0  0  0  0  0  0  0  0  0  0  0
   -1.2982    4.7424    1.1670 O   0  0  0  0  0  0  0  0  0  0  0  0
   -4.0352    2.7071    1.2336 C   0  0  0  0  0  0  0  0  0  0  0  0
   -0.9814    2.4866    1.4698 H   0  0  0  0  0  0  0  0  0  0  0  0
   -2.9667    2.8107   -0.6372 H   0  0  0  0  0  0  0  0  0  0  0  0
   -3.8566    2.8826    2.2993 H   0  0  0  0  0  0  0  0  0  0  0  0
   -4.8521    3.3564    0.9051 H   0  0  0  0  0  0  0  0  0  0  0  0
   -4.3479    1.6663    1.0995 H   0  0  0  0  0  0  0  0  0  0  0  0
   -3.0867    5.4720    0.0053 N   0  0  0  0  0  0  0  0  0  0  0  0
   -2.7204    6.8809    0.0794 C   0  0  0  0  0  0  0  0  0  0  0  0
   -3.9284    5.2076   -0.4984 H   0  0  0  0  0  0  0  0  0  0  0  0
   -2.6591    7.2062    1.1233 H   0  0  0  0  0  0  0  0  0  0  0  0
   -1.7509    7.0500   -0.4014 H   0  0  0  0  0  0  0  0  0  0  0  0
   -3.4704    7.4940   -0.4295 H   0  0  0  0  0  0  0  0  0  0  0  0
  1  2  2  0  0  0  0
  1  3  1  0  0  0  0
  1  7  1  0  0  0  0
  3  4  1  0  0  0  0
  3  5  1  0  0  0  0
  3  6  1  0  0  0  0
  7  8  1  0  0  0  0
  7 12  1  0  0  0  0
  8  9  1  0  0  0  0
  8 11  1  0  0  0  0
  8 13  1  0  0  0  0
  9 10  2  0  0  0  0
  9 17  1  0  0  0  0
 11 14  1  0  0  0  0
 11 15  1  0  0  0  0
 11 16  1  0  0  0  0
 17 18  1  0  0  0  0
 17 25  1  0  0  0  0
 18 19  1  0  0  0  0
 18 21  1  0  0  0  0
 18 26  1  0  0  0  0
 19 20  2  0  0  0  0
 19 36  1  0  0  0  0
 21 22  1  0  0  0  0
 21 23  1  0  0  0  0
 21 27  1  0  0  0  0
 22 24  1  0  0  0  0
 22 28  1  0  0  0  0
 22 29  1  0  0  0  0
 23 30  1  0  0  0  0
 23 31  1  0  0  0  0
 23 32  1  0  0  0  0
 24 33  1  0  0  0  0
 24 34  1  0  0  0  0
 24 35  1  0  0  0  0
 36 37  1  0  0  0  0
 36 41  1  0  0  0  0
 37 38  1  0  0  0  0
 37 40  1  0  0  0  0
 37 42  1  0  0  0  0
 38 39  2  0  0  0  0
 38 46  1  0  0  0  0
 40 43  1  0  0  0  0
 40 44  1  0  0  0  0
 40 45  1  0  0  0  0
 46 47  1  0  0  0  0
 46 48  1  0  0  0  0
 47 49  1  0  0  0  0
 47 50  1  0  0  0  0
 47 51  1  0  0  0  0
M  END
$$$$

  -OEChem-05262216503D

 51 50  0     1  0  0  0  0  0999 V2000
    1.3797   -5.6308    0.3017 C   0  0  0  0  0  0  0  0  0  0  0  0
    1.1357   -5.6481   -0.8944 O   0  0  0  0  0  0  0  0  0  0  0  0
    2.5553   -6.4206    0.8458 C   0  0  0  0  0  0  0  0  0  0  0  0
    3.0636   -6.9476    0.0337 H   0  0  0  0  0  0  0  0  0  0  0  0
    3.2670   -5.7457    1.3274 H   0  0  0  0  0  0  0  0  0  0  0  0
    2.2062   -7.1532    1.5775 H   0  0  0  0  0  0  0  0  0  0  0  0
    0.6048   -4.8857    1.1659 N   0  0  0  0  0  0  0  0  0  0  0  0
   -0.3656   -3.8720    0.7264 C   0  0  2  0  0  0  0  0  0  0  0  0
    0.0456   -2.4601    1.1916 C   0  0  0  0  0  0  0  0  0  0  0  0
    0.8426   -2.3215    2.1146 O   0  0  0  0  0  0  0  0  0  0  0  0
   -1.7335   -4.2525    1.2972 C   0  0  0  0  0  0  0  0  0  0  0  0
    0.9928   -4.7526    2.0982 H   0  0  0  0  0  0  0  0  0  0  0  0
   -0.4363   -3.8483   -0.3662 H   0  0  0  0  0  0  0  0  0  0  0  0
   -1.7063   -4.2541    2.3915 H   0  0  0  0  0  0  0  0  0  0  0  0
   -2.4975   -3.5410    0.9689 H   0  0  0  0  0  0  0  0  0  0  0  0
   -2.0212   -5.2508    0.9528 H   0  0  0  0  0  0  0  0  0  0  0  0
   -0.5731   -1.3443    0.6646 N   0  0  0  0  0  0  0  0  0  0  0  0
   -0.1556    0.0649    0.8051 C   0  0  2  0  0  0  0  0  0  0  0  0
   -1.3944    0.9027    0.3725 C   0  0  0  0  0  0  0  0  0  0  0  0
   -2.2969    0.3854   -0.2834 O   0  0  0  0  0  0  0  0  0  0  0  0
    1.0631    0.4190   -0.1366 C   0  0  2  0  0  0  0  0  0  0  0  0
    2.3598   -0.3744    0.1800 C   0  0  0  0  0  0  0  0  0  0  0  0
    1.4049    1.9279   -0.0918 C   0  0  0  0  0  0  0  0  0  0  0  0
    3.4590   -0.2354   -0.8819 C   0  0  0  0  0  0  0  0  0  0  0  0
   -1.3158   -1.5113   -0.0157 H   0  0  0  0  0  0  0  0  0  0  0  0
    0.0909    0.2862    1.8488 H   0  0  0  0  0  0  0  0  0  0  0  0
    0.7674    0.1692   -1.1618 H   0  0  0  0  0  0  0  0  0  0  0  0
    2.7460   -0.0908    1.1645 H   0  0  0  0  0  0  0  0  0  0  0  0
    2.1394   -1.4392    0.1999 H   0  0  0  0  0  0  0  0  0  0  0  0
    1.4907    2.2726    0.9436 H   0  0  0  0  0  0  0  0  0  0  0  0
    2.3440    2.1506   -0.6003 H   0  0  0  0  0  0  0  0  0  0  0  0
    0.6437    2.5189   -0.6064 H   0  0  0  0  0  0  0  0  0  0  0  0
    3.0456   -0.3818   -1.8846 H   0  0  0  0  0  0  0  0  0  0  0  0
    4.2306   -0.9932   -0.7138 H   0  0  0  0  0  0  0  0  0  0  0  0
    3.9430    0.7434   -0.8363 H   0  0  0  0  0  0  0  0  0  0  0  0
   -1.5003    2.2508    0.6582 N   0  0  0  0  0  0  0  0  0  0  0  0
   -2.5337    3.1461    0.1235 C   0  0  2  0  0  0  0  0  0  0  0  0
   -1.9967    4.5838   -0.0382 C   0  0  0  0  0  0  0  0  0  0  0  0
   -0.8999    4.8854    0.4212 O   0  0  0  0  0  0  0  0  0  0  0  0
   -3.7365    3.1175    1.0716 C   0  0  0  0  0  0  0  0  0  0  0  0
   -0.6863    2.7015    1.0764 H   0  0  0  0  0  0  0  0  0  0  0  0
   -2.8459    2.8026   -0.8686 H   0  0  0  0  0  0  0  0  0  0  0  0
   -3.4455    3.4629    2.0690 H   0  0  0  0  0  0  0  0  0  0  0  0
   -4.5370    3.7627    0.6978 H   0  0  0  0  0  0  0  0  0  0  0  0
   -4.1286    2.0989    1.1568 H   0  0  0  0  0  0  0  0  0  0  0  0
   -2.7314    5.5353   -0.7214 N   0  0  0  0  0  0  0  0  0  0  0  0
   -2.2732    6.9035   -0.9311 C   0  0  0  0  0  0  0  0  0  0  0  0
   -3.6276    5.2519   -1.1068 H   0  0  0  0  0  0  0  0  0  0  0  0
   -2.1300    7.4117    0.0286 H   0  0  0  0  0  0  0  0  0  0  0  0
   -1.3249    6.9102   -1.4790 H   0  0  0  0  0  0  0  0  0  0  0  0
   -3.0115    7.4649   -1.5122 H   0  0  0  0  0  0  0  0  0  0  0  0
  1  2  2  0  0  0  0
  1  3  1  0  0  0  0
  1  7  1  0  0  0  0
  3  4  1  0  0  0  0
  3  5  1  0  0  0  0
  3  6  1  0  0  0  0
  7  8  1  0  0  0  0
  7 12  1  0  0  0  0
  8  9  1  0  0  0  0
  8 11  1  0  0  0  0
  8 13  1  0  0  0  0
  9 10  2  0  0  0  0
  9 17  1  0  0  0  0
 11 14  1  0  0  0  0
 11 15  1  0  0  0  0
 11 16  1  0  0  0  0
 17 18  1  0  0  0  0
 17 25  1  0  0  0  0
 18 19  1  0  0  0  0
 18 21  1  0  0  0  0
 18 26  1  0  0  0  0
 19 20  2  0  0  0  0
 19 36  1  0  0  0  0
 21 22  1  0  0  0  0
 21 23  1  0  0  0  0
 21 27  1  0  0  0  0
 22 24  1  0  0  0  0
 22 28  1  0  0  0  0
 22 29  1  0  0  0  0
 23 30  1  0  0  0  0
 23 31  1  0  0  0  0
 23 32  1  0  0  0  0
 24 33  1  0  0  0  0
 24 34  1  0  0  0  0
 24 35  1  0  0  0  0
 36 37  1  0  0  0  0
 36 41  1  0  0  0  0
 37 38  1  0  0  0  0
 37 40  1  0  0  0  0
 37 42  1  0  0  0  0
 38 39  2  0  0  0  0
 38 46  1  0  0  0  0
 40 43  1  0  0  0  0
 40 44  1  0  0  0  0
 40 45  1  0  0  0  0
 46 47  1  0  0  0  0
 46 48  1  0  0  0  0
 47 49  1  0  0  0  0
 47 50  1  0  0  0  0
 47 51  1  0  0  0  0
M  END
$$$$

  -OEChem-05262216503D

 51 50  0     1  0  0  0  0  0999 V2000
    1.0889   -5.6566    0.2041 C   0  0  0  0  0  0  0  0  0  0  0  0
    0.7338   -5.6506   -0.9640 O   0  0  0  0  0  0  0  0  0  0  0  0
    2.2590   -6.5208    0.6348 C   0  0  0  0  0  0  0  0  0  0  0  0
    2.7066   -7.0107   -0.2343 H   0  0  0  0  0  0  0  0  0  0  0  0
    3.0189   -5.9044    1.1211 H   0  0  0  0  0  0  0  0  0  0  0  0
    1.9184   -7.2870    1.3353 H   0  0  0  0  0  0  0  0  0  0  0  0
    0.4458   -4.8729    1.1396 N   0  0  0  0  0  0  0  0  0  0  0  0
   -0.4903   -3.7937    0.7905 C   0  0  2  0  0  0  0  0  0  0  0  0
    0.1167   -2.4033    1.0708 C   0  0  0  0  0  0  0  0  0  0  0  0
    1.0502   -2.2867    1.8592 O   0  0  0  0  0  0  0  0  0  0  0  0
   -1.7661   -4.0001    1.6097 C   0  0  0  0  0  0  0  0  0  0  0  0
    0.9351   -4.7666    2.0259 H   0  0  0  0  0  0  0  0  0  0  0  0
   -0.7497   -3.8320   -0.2726 H   0  0  0  0  0  0  0  0  0  0  0  0
   -1.5486   -3.9387    2.6807 H   0  0  0  0  0  0  0  0  0  0  0  0
   -2.5090   -3.2358    1.3612 H   0  0  0  0  0  0  0  0  0  0  0  0
   -2.1970   -4.9833    1.3960 H   0  0  0  0  0  0  0  0  0  0  0  0
   -0.4555   -1.2706    0.5237 N   0  0  0  0  0  0  0  0  0  0  0  0
    0.0148    0.1192    0.6898 C   0  0  2  0  0  0  0  0  0  0  0  0
   -1.2586    1.0184    0.6065 C   0  0  0  0  0  0  0  0  0  0  0  0
   -2.3556    0.5142    0.3720 O   0  0  0  0  0  0  0  0  0  0  0  0
    1.0579    0.4617   -0.4444 C   0  0  2  0  0  0  0  0  0  0  0  0
    2.3347   -0.4213   -0.3687 C   0  0  0  0  0  0  0  0  0  0  0  0
    1.4971    1.9444   -0.4177 C   0  0  0  0  0  0  0  0  0  0  0  0
    3.2552   -0.3143   -1.5924 C   0  0  0  0  0  0  0  0  0  0  0  0
   -1.3444   -1.3887    0.0373 H   0  0  0  0  0  0  0  0  0  0  0  0
    0.4743    0.2579    1.6740 H   0  0  0  0  0  0  0  0  0  0  0  0
    0.5753    0.2689   -1.4090 H   0  0  0  0  0  0  0  0  0  0  0  0
    2.8954   -0.1919    0.5433 H   0  0  0  0  0  0  0  0  0  0  0  0
    2.0493   -1.4714   -0.3280 H   0  0  0  0  0  0  0  0  0  0  0  0
    1.7310    2.2582    0.6045 H   0  0  0  0  0  0  0  0  0  0  0  0
    2.3793    2.1238   -1.0337 H   0  0  0  0  0  0  0  0  0  0  0  0
    0.7158    2.5891   -0.8269 H   0  0  0  0  0  0  0  0  0  0  0  0
    2.6778   -0.4093   -2.5172 H   0  0  0  0  0  0  0  0  0  0  0  0
    3.9960   -1.1195   -1.5657 H   0  0  0  0  0  0  0  0  0  0  0  0
    3.7991    0.6334   -1.6091 H   0  0  0  0  0  0  0  0  0  0  0  0
   -1.2166    2.3949    0.7257 N   0  0  0  0  0  0  0  0  0  0  0  0
   -2.3517    3.3029    0.5124 C   0  0  2  0  0  0  0  0  0  0  0  0
   -1.8806    4.6797   -0.0017 C   0  0  0  0  0  0  0  0  0  0  0  0
   -0.6899    4.9731    0.0279 O   0  0  0  0  0  0  0  0  0  0  0  0
   -3.1095    3.4513    1.8360 C   0  0  0  0  0  0  0  0  0  0  0  0
   -0.2966    2.8285    0.8007 H   0  0  0  0  0  0  0  0  0  0  0  0
   -3.0233    2.8850   -0.2453 H   0  0  0  0  0  0  0  0  0  0  0  0
   -2.4539    3.8668    2.6079 H   0  0  0  0  0  0  0  0  0  0  0  0
   -3.9703    4.1158    1.7153 H   0  0  0  0  0  0  0  0  0  0  0  0
   -3.4728    2.4766    2.1768 H   0  0  0  0  0  0  0  0  0  0  0  0
   -2.7901    5.5863   -0.5143 N   0  0  0  0  0  0  0  0  0  0  0  0
   -2.4106    6.8922   -1.0401 C   0  0  0  0  0  0  0  0  0  0  0  0
   -3.7670    5.3093   -0.5422 H   0  0  0  0  0  0  0  0  0  0  0  0
   -1.9106    7.4863   -0.2678 H   0  0  0  0  0  0  0  0  0  0  0  0
   -1.7321    6.7797   -1.8923 H   0  0  0  0  0  0  0  0  0  0  0  0
   -3.2984    7.4381   -1.3742 H   0  0  0  0  0  0  0  0  0  0  0  0
  1  2  2  0  0  0  0
  1  3  1  0  0  0  0
  1  7  1  0  0  0  0
  3  4  1  0  0  0  0
  3  5  1  0  0  0  0
  3  6  1  0  0  0  0
  7  8  1  0  0  0  0
  7 12  1  0  0  0  0
  8  9  1  0  0  0  0
  8 11  1  0  0  0  0
  8 13  1  0  0  0  0
  9 10  2  0  0  0  0
  9 17  1  0  0  0  0
 11 14  1  0  0  0  0
 11 15  1  0  0  0  0
 11 16  1  0  0  0  0
 17 18  1  0  0  0  0
 17 25  1  0  0  0  0
 18 19  1  0  0  0  0
 18 21  1  0  0  0  0
 18 26  1  0  0  0  0
 19 20  2  0  0  0  0
 19 36  1  0  0  0  0
 21 22  1  0  0  0  0
 21 23  1  0  0  0  0
 21 27  1  0  0  0  0
 22 24  1  0  0  0  0
 22 28  1  0  0  0  0
 22 29  1  0  0  0  0
 23 30  1  0  0  0  0
 23 31  1  0  0  0  0
 23 32  1  0  0  0  0
 24 33  1  0  0  0  0
 24 34  1  0  0  0  0
 24 35  1  0  0  0  0
 36 37  1  0  0  0  0
 36 41  1  0  0  0  0
 37 38  1  0  0  0  0
 37 40  1  0  0  0  0
 37 42  1  0  0  0  0
 38 39  2  0  0  0  0
 38 46  1  0  0  0  0
 40 43  1  0  0  0  0
 40 44  1  0  0  0  0
 40 45  1  0  0  0  0
 46 47  1  0  0  0  0
 46 48  1  0  0  0  0
 47 49  1  0  0  0  0
 47 50  1  0  0  0  0
 47 51  1  0  0  0  0
M  END
$$$$

  -OEChem-05262216503D

 51 50  0     1  0  0  0  0  0999 V2000
    1.0135   -5.6264    0.2509 C   0  0  0  0  0  0  0  0  0  0  0  0
    0.6909   -5.6028   -0.9263 O   0  0  0  0  0  0  0  0  0  0  0  0
    2.1658   -6.5051    0.7003 C   0  0  0  0  0  0  0  0  0  0  0  0
    2.6081   -7.0167   -0.1592 H   0  0  0  0  0  0  0  0  0  0  0  0
    2.9350   -5.8945    1.1799 H   0  0  0  0  0  0  0  0  0  0  0  0
    1.8085   -7.2544    1.4108 H   0  0  0  0  0  0  0  0  0  0  0  0
    0.3568   -4.8423    1.1770 N   0  0  0  0  0  0  0  0  0  0  0  0
   -0.5372   -3.7345    0.8077 C   0  0  2  0  0  0  0  0  0  0  0  0
    0.1308   -2.3624    1.0336 C   0  0  0  0  0  0  0  0  0  0  0  0
    1.0745   -2.2579    1.8115 O   0  0  0  0  0  0  0  0  0  0  0  0
   -1.8079   -3.8545    1.6519 C   0  0  0  0  0  0  0  0  0  0  0  0
    0.8249   -4.7536    2.0762 H   0  0  0  0  0  0  0  0  0  0  0  0
   -0.8174   -3.7972   -0.2491 H   0  0  0  0  0  0  0  0  0  0  0  0
   -1.5720   -3.7581    2.7165 H   0  0  0  0  0  0  0  0  0  0  0  0
   -2.5223   -3.0702    1.3820 H   0  0  0  0  0  0  0  0  0  0  0  0
   -2.2831   -4.8261    1.4851 H   0  0  0  0  0  0  0  0  0  0  0  0
   -0.4135   -1.2269    0.4642 N   0  0  0  0  0  0  0  0  0  0  0  0
    0.0834    0.1554    0.6164 C   0  0  2  0  0  0  0  0  0  0  0  0
   -1.1889    1.0609    0.5039 C   0  0  0  0  0  0  0  0  0  0  0  0
   -2.3063    0.5470    0.5275 O   0  0  0  0  0  0  0  0  0  0  0  0
    1.1585    0.4623   -0.5005 C   0  0  2  0  0  0  0  0  0  0  0  0
    2.4173   -0.4437   -0.3888 C   0  0  0  0  0  0  0  0  0  0  0  0
    1.6365    1.9349   -0.4588 C   0  0  0  0  0  0  0  0  0  0  0  0
    3.3633   -0.3679   -1.5966 C   0  0  0  0  0  0  0  0  0  0  0  0
   -1.3398   -1.3244    0.0481 H   0  0  0  0  0  0  0  0  0  0  0  0
    0.5254    0.3020    1.6074 H   0  0  0  0  0  0  0  0  0  0  0  0
    0.6967    0.2752   -1.4761 H   0  0  0  0  0  0  0  0  0  0  0  0
    2.9648   -0.2173    0.5324 H   0  0  0  0  0  0  0  0  0  0  0  0
    2.1101   -1.4878   -0.3458 H   0  0  0  0  0  0  0  0  0  0  0  0
    1.6774    2.2990    0.5727 H   0  0  0  0  0  0  0  0  0  0  0  0
    2.6289    2.0686   -0.8900 H   0  0  0  0  0  0  0  0  0  0  0  0
    0.9680    2.5704   -1.0450 H   0  0  0  0  0  0  0  0  0  0  0  0
    2.7999   -0.4526   -2.5308 H   0  0  0  0  0  0  0  0  0  0  0  0
    4.0804   -1.1933   -1.5522 H   0  0  0  0  0  0  0  0  0  0  0  0
    3.9346    0.5630   -1.6110 H   0  0  0  0  0  0  0  0  0  0  0  0
   -1.1558    2.4271    0.2995 N   0  0  0  0  0  0  0  0  0  0  0  0
   -2.3221    3.2864    0.0560 C   0  0  2  0  0  0  0  0  0  0  0  0
   -1.9291    4.5502   -0.7385 C   0  0  0  0  0  0  0  0  0  0  0  0
   -0.7460    4.8281   -0.9060 O   0  0  0  0  0  0  0  0  0  0  0  0
   -2.9348    3.6727    1.4067 C   0  0  0  0  0  0  0  0  0  0  0  0
   -0.2417    2.8617    0.1826 H   0  0  0  0  0  0  0  0  0  0  0  0
   -3.0640    2.7418   -0.5379 H   0  0  0  0  0  0  0  0  0  0  0  0
   -2.2087    4.2253    2.0114 H   0  0  0  0  0  0  0  0  0  0  0  0
   -3.8188    4.3007    1.2632 H   0  0  0  0  0  0  0  0  0  0  0  0
   -3.2366    2.7771    1.9587 H   0  0  0  0  0  0  0  0  0  0  0  0
   -2.9008    5.3761   -1.2730 N   0  0  0  0  0  0  0  0  0  0  0  0
   -2.5959    6.5831   -2.0322 C   0  0  0  0  0  0  0  0  0  0  0  0
   -3.8726    5.1167   -1.1293 H   0  0  0  0  0  0  0  0  0  0  0  0
   -2.0030    7.2778   -1.4278 H   0  0  0  0  0  0  0  0  0  0  0  0
   -2.0326    6.3345   -2.9377 H   0  0  0  0  0  0  0  0  0  0  0  0
   -3.5205    7.0877   -2.3282 H   0  0  0  0  0  0  0  0  0  0  0  0
  1  2  2  0  0  0  0
  1  3  1  0  0  0  0
  1  7  1  0  0  0  0
  3  4  1  0  0  0  0
  3  5  1  0  0  0  0
  3  6  1  0  0  0  0
  7  8  1  0  0  0  0
  7 12  1  0  0  0  0
  8  9  1  0  0  0  0
  8 11  1  0  0  0  0
  8 13  1  0  0  0  0
  9 10  2  0  0  0  0
  9 17  1  0  0  0  0
 11 14  1  0  0  0  0
 11 15  1  0  0  0  0
 11 16  1  0  0  0  0
 17 18  1  0  0  0  0
 17 25  1  0  0  0  0
 18 19  1  0  0  0  0
 18 21  1  0  0  0  0
 18 26  1  0  0  0  0
 19 20  2  0  0  0  0
 19 36  1  0  0  0  0
 21 22  1  0  0  0  0
 21 23  1  0  0  0  0
 21 27  1  0  0  0  0
 22 24  1  0  0  0  0
 22 28  1  0  0  0  0
 22 29  1  0  0  0  0
 23 30  1  0  0  0  0
 23 31  1  0  0  0  0
 23 32  1  0  0  0  0
 24 33  1  0  0  0  0
 24 34  1  0  0  0  0
 24 35  1  0  0  0  0
 36 37  1  0  0  0  0
 36 41  1  0  0  0  0
 37 38  1  0  0  0  0
 37 40  1  0  0  0  0
 37 42  1  0  0  0  0
 38 39  2  0  0  0  0
 38 46  1  0  0  0  0
 40 43  1  0  0  0  0
 40 44  1  0  0  0  0
 40 45  1  0  0  0  0
 46 47  1  0  0  0  0
 46 48  1  0  0  0  0
 47 49  1  0  0  0  0
 47 50  1  0  0  0  0
 47 51  1  0  0  0  0
M  END
$$$$

  -OEChem-05262216503D

 51 50  0     1  0  0  0  0  0999 V2000
    0.8709   -5.7761    0.4739 C   0  0  0  0  0  0  0  0  0  0  0  0
   -0.1028   -6.1098   -0.1829 O   0  0  0  0  0  0  0  0  0  0  0  0
    2.0979   -6.6667    0.5242 C   0  0  0  0  0  0  0  0  0  0  0  0
    1.9137   -7.5948   -0.0239 H   0  0  0  0  0  0  0  0  0  0  0  0
    2.9501   -6.1530    0.0728 H   0  0  0  0  0  0  0  0  0  0  0  0
    2.3378   -6.9130    1.5613 H   0  0  0  0  0  0  0  0  0  0  0  0
    0.8668   -4.5820    1.1627 N   0  0  0  0  0  0  0  0  0  0  0  0
   -0.1838   -3.5614    1.0518 C   0  0  2  0  0  0  0  0  0  0  0  0
    0.4100   -2.1373    1.0503 C   0  0  0  0  0  0  0  0  0  0  0  0
    1.5676   -1.9594    1.4160 O   0  0  0  0  0  0  0  0  0  0  0  0
   -1.1514   -3.7417    2.2252 C   0  0  0  0  0  0  0  0  0  0  0  0
    1.7493   -4.2813    1.5754 H   0  0  0  0  0  0  0  0  0  0  0  0
   -0.7307   -3.6858    0.1107 H   0  0  0  0  0  0  0  0  0  0  0  0
   -0.6274   -3.6068    3.1768 H   0  0  0  0  0  0  0  0  0  0  0  0
   -1.9656   -3.0128    2.1704 H   0  0  0  0  0  0  0  0  0  0  0  0
   -1.5867   -4.7457    2.2055 H   0  0  0  0  0  0  0  0  0  0  0  0
   -0.3942   -1.0578    0.7317 N   0  0  0  0  0  0  0  0  0  0  0  0
    0.0099    0.3622    0.8021 C   0  0  2  0  0  0  0  0  0  0  0  0
   -1.3571    1.0628    1.1327 C   0  0  0  0  0  0  0  0  0  0  0  0
   -2.1124    0.5390    1.9410 O   0  0  0  0  0  0  0  0  0  0  0  0
    0.7028    0.8629   -0.5154 C   0  0  2  0  0  0  0  0  0  0  0  0
    2.0250    0.1173   -0.8349 C   0  0  0  0  0  0  0  0  0  0  0  0
    1.1368    2.3503   -0.3952 C   0  0  0  0  0  0  0  0  0  0  0  0
    2.5599    0.4156   -2.2405 C   0  0  0  0  0  0  0  0  0  0  0  0
   -1.3963   -1.2405    0.7669 H   0  0  0  0  0  0  0  0  0  0  0  0
    0.6888    0.5289    1.6455 H   0  0  0  0  0  0  0  0  0  0  0  0
    0.0074    0.7236   -1.3474 H   0  0  0  0  0  0  0  0  0  0  0  0
    2.7897    0.3239   -0.0786 H   0  0  0  0  0  0  0  0  0  0  0  0
    1.8382   -0.9565   -0.8288 H   0  0  0  0  0  0  0  0  0  0  0  0
    0.4035    2.9823    0.0970 H   0  0  0  0  0  0  0  0  0  0  0  0
    1.3177    2.7747   -1.3868 H   0  0  0  0  0  0  0  0  0  0  0  0
    2.0563    2.4386    0.1924 H   0  0  0  0  0  0  0  0  0  0  0  0
    1.7790    0.2613   -2.9912 H   0  0  0  0  0  0  0  0  0  0  0  0
    3.3943   -0.2549   -2.4676 H   0  0  0  0  0  0  0  0  0  0  0  0
    2.9244    1.4437   -2.3154 H   0  0  0  0  0  0  0  0  0  0  0  0
   -1.8246    2.3183    0.8158 N   0  0  0  0  0  0  0  0  0  0  0  0
   -2.1725    2.7159   -0.5583 C   0  0  2  0  0  0  0  0  0  0  0  0
   -2.0106    4.2329   -0.7985 C   0  0  0  0  0  0  0  0  0  0  0  0
   -2.2526    5.0339    0.0941 O   0  0  0  0  0  0  0  0  0  0  0  0
   -3.6250    2.3025   -0.8115 C   0  0  0  0  0  0  0  0  0  0  0  0
   -2.5133    2.6176    1.5045 H   0  0  0  0  0  0  0  0  0  0  0  0
   -1.5403    2.2017   -1.2816 H   0  0  0  0  0  0  0  0  0  0  0  0
   -4.2951    2.8166   -0.1143 H   0  0  0  0  0  0  0  0  0  0  0  0
   -3.9238    2.5600   -1.8322 H   0  0  0  0  0  0  0  0  0  0  0  0
   -3.7463    1.2229   -0.6777 H   0  0  0  0  0  0  0  0  0  0  0  0
   -1.6110    4.7027   -2.0366 N   0  0  0  0  0  0  0  0  0  0  0  0
   -1.4272    6.1193   -2.3297 C   0  0  0  0  0  0  0  0  0  0  0  0
   -1.4308    4.0232   -2.7691 H   0  0  0  0  0  0  0  0  0  0  0  0
   -2.3769    6.6566   -2.2373 H   0  0  0  0  0  0  0  0  0  0  0  0
   -0.7026    6.5631   -1.6387 H   0  0  0  0  0  0  0  0  0  0  0  0
   -1.0536    6.2494   -3.3498 H   0  0  0  0  0  0  0  0  0  0  0  0
  1  2  2  0  0  0  0
  1  3  1  0  0  0  0
  1  7  1  0  0  0  0
  3  4  1  0  0  0  0
  3  5  1  0  0  0  0
  3  6  1  0  0  0  0
  7  8  1  0  0  0  0
  7 12  1  0  0  0  0
  8  9  1  0  0  0  0
  8 11  1  0  0  0  0
  8 13  1  0  0  0  0
  9 10  2  0  0  0  0
  9 17  1  0  0  0  0
 11 14  1  0  0  0  0
 11 15  1  0  0  0  0
 11 16  1  0  0  0  0
 17 18  1  0  0  0  0
 17 25  1  0  0  0  0
 18 19  1  0  0  0  0
 18 21  1  0  0  0  0
 18 26  1  0  0  0  0
 19 20  2  0  0  0  0
 19 36  1  0  0  0  0
 21 22  1  0  0  0  0
 21 23  1  0  0  0  0
 21 27  1  0  0  0  0
 22 24  1  0  0  0  0
 22 28  1  0  0  0  0
 22 29  1  0  0  0  0
 23 30  1  0  0  0  0
 23 31  1  0  0  0  0
 23 32  1  0  0  0  0
 24 33  1  0  0  0  0
 24 34  1  0  0  0  0
 24 35  1  0  0  0  0
 36 37  1  0  0  0  0
 36 41  1  0  0  0  0
 37 38  1  0  0  0  0
 37 40  1  0  0  0  0
 37 42  1  0  0  0  0
 38 39  2  0  0  0  0
 38 46  1  0  0  0  0
 40 43  1  0  0  0  0
 40 44  1  0  0  0  0
 40 45  1  0  0  0  0
 46 47  1  0  0  0  0
 46 48  1  0  0  0  0
 47 49  1  0  0  0  0
 47 50  1  0  0  0  0
 47 51  1  0  0  0  0
M  END
$$$$

  -OEChem-05262216503D

 51 50  0     1  0  0  0  0  0999 V2000
    0.9490   -5.6272    0.3086 C   0  0  0  0  0  0  0  0  0  0  0  0
    0.5697   -5.6831   -0.8506 O   0  0  0  0  0  0  0  0  0  0  0  0
    2.1087   -6.4908    0.7679 C   0  0  0  0  0  0  0  0  0  0  0  0
    2.4941   -7.0802   -0.0687 H   0  0  0  0  0  0  0  0  0  0  0  0
    2.9136   -5.8599    1.1531 H   0  0  0  0  0  0  0  0  0  0  0  0
    1.7786   -7.1707    1.5570 H   0  0  0  0  0  0  0  0  0  0  0  0
    0.3483   -4.7673    1.2044 N   0  0  0  0  0  0  0  0  0  0  0  0
   -0.5515   -3.6760    0.8025 C   0  0  2  0  0  0  0  0  0  0  0  0
    0.1124   -2.2970    0.9958 C   0  0  0  0  0  0  0  0  0  0  0  0
    1.0482   -2.1757    1.7806 O   0  0  0  0  0  0  0  0  0  0  0  0
   -1.8231   -3.7821    1.6469 C   0  0  0  0  0  0  0  0  0  0  0  0
    0.8569   -4.6230    2.0745 H   0  0  0  0  0  0  0  0  0  0  0  0
   -0.8263   -3.7666   -0.2536 H   0  0  0  0  0  0  0  0  0  0  0  0
   -1.5895   -3.6641    2.7099 H   0  0  0  0  0  0  0  0  0  0  0  0
   -2.5395   -3.0056    1.3608 H   0  0  0  0  0  0  0  0  0  0  0  0
   -2.2943   -4.7587    1.4984 H   0  0  0  0  0  0  0  0  0  0  0  0
   -0.4137   -1.1803    0.3726 N   0  0  0  0  0  0  0  0  0  0  0  0
    0.0777    0.2017    0.5391 C   0  0  2  0  0  0  0  0  0  0  0  0
   -1.1959    1.0845    0.3402 C   0  0  0  0  0  0  0  0  0  0  0  0
   -2.2661    0.7008    0.8034 O   0  0  0  0  0  0  0  0  0  0  0  0
    1.2098    0.5473   -0.4958 C   0  0  2  0  0  0  0  0  0  0  0  0
    2.4757   -0.3321   -0.3285 C   0  0  0  0  0  0  0  0  0  0  0  0
    1.6706    2.0246   -0.3346 C   0  0  0  0  0  0  0  0  0  0  0  0
    3.4657   -0.1843   -1.4927 C   0  0  0  0  0  0  0  0  0  0  0  0
   -1.3381   -1.2906   -0.0406 H   0  0  0  0  0  0  0  0  0  0  0  0
    0.4504    0.3593    1.5568 H   0  0  0  0  0  0  0  0  0  0  0  0
    0.8117    0.3969   -1.5056 H   0  0  0  0  0  0  0  0  0  0  0  0
    2.9704   -0.1125    0.6236 H   0  0  0  0  0  0  0  0  0  0  0  0
    2.1927   -1.3849   -0.3195 H   0  0  0  0  0  0  0  0  0  0  0  0
    1.2115    2.4949    0.5404 H   0  0  0  0  0  0  0  0  0  0  0  0
    1.4028    2.6012   -1.2259 H   0  0  0  0  0  0  0  0  0  0  0  0
    2.7510    2.1156   -0.1953 H   0  0  0  0  0  0  0  0  0  0  0  0
    2.9705   -0.4081   -2.4428 H   0  0  0  0  0  0  0  0  0  0  0  0
    4.2948   -0.8867   -1.3630 H   0  0  0  0  0  0  0  0  0  0  0  0
    3.8840    0.8239   -1.5477 H   0  0  0  0  0  0  0  0  0  0  0  0
   -1.2366    2.2316   -0.4311 N   0  0  0  0  0  0  0  0  0  0  0  0
   -2.4430    3.0015   -0.7602 C   0  0  2  0  0  0  0  0  0  0  0  0
   -2.2556    3.7908   -2.0731 C   0  0  0  0  0  0  0  0  0  0  0  0
   -1.1411    3.8895   -2.5764 O   0  0  0  0  0  0  0  0  0  0  0  0
   -2.7496    3.9539    0.4009 C   0  0  0  0  0  0  0  0  0  0  0  0
   -0.3904    2.4769   -0.9443 H   0  0  0  0  0  0  0  0  0  0  0  0
   -3.2877    2.3195   -0.9041 H   0  0  0  0  0  0  0  0  0  0  0  0
   -1.9146    4.6436    0.5606 H   0  0  0  0  0  0  0  0  0  0  0  0
   -3.6502    4.5382    0.1913 H   0  0  0  0  0  0  0  0  0  0  0  0
   -2.9150    3.3893    1.3240 H   0  0  0  0  0  0  0  0  0  0  0  0
   -3.3389    4.3760   -2.7019 N   0  0  0  0  0  0  0  0  0  0  0  0
   -3.2334    5.1219   -3.9501 C   0  0  0  0  0  0  0  0  0  0  0  0
   -4.2509    4.2693   -2.2672 H   0  0  0  0  0  0  0  0  0  0  0  0
   -2.5787    5.9904   -3.8233 H   0  0  0  0  0  0  0  0  0  0  0  0
   -2.8272    4.4863   -4.7442 H   0  0  0  0  0  0  0  0  0  0  0  0
   -4.2200    5.4764   -4.2636 H   0  0  0  0  0  0  0  0  0  0  0  0
  1  2  2  0  0  0  0
  1  3  1  0  0  0  0
  1  7  1  0  0  0  0
  3  4  1  0  0  0  0
  3  5  1  0  0  0  0
  3  6  1  0  0  0  0
  7  8  1  0  0  0  0
  7 12  1  0  0  0  0
  8  9  1  0  0  0  0
  8 11  1  0  0  0  0
  8 13  1  0  0  0  0
  9 10  2  0  0  0  0
  9 17  1  0  0  0  0
 11 14  1  0  0  0  0
 11 15  1  0  0  0  0
 11 16  1  0  0  0  0
 17 18  1  0  0  0  0
 17 25  1  0  0  0  0
 18 19  1  0  0  0  0
 18 21  1  0  0  0  0
 18 26  1  0  0  0  0
 19 20  2  0  0  0  0
 19 36  1  0  0  0  0
 21 22  1  0  0  0  0
 21 23  1  0  0  0  0
 21 27  1  0  0  0  0
 22 24  1  0  0  0  0
 22 28  1  0  0  0  0
 22 29  1  0  0  0  0
 23 30  1  0  0  0  0
 23 31  1  0  0  0  0
 23 32  1  0  0  0  0
 24 33  1  0  0  0  0
 24 34  1  0  0  0  0
 24 35  1  0  0  0  0
 36 37  1  0  0  0  0
 36 41  1  0  0  0  0
 37 38  1  0  0  0  0
 37 40  1  0  0  0  0
 37 42  1  0  0  0  0
 38 39  2  0  0  0  0
 38 46  1  0  0  0  0
 40 43  1  0  0  0  0
 40 44  1  0  0  0  0
 40 45  1  0  0  0  0
 46 47  1  0  0  0  0
 46 48  1  0  0  0  0
 47 49  1  0  0  0  0
 47 50  1  0  0  0  0
 47 51  1  0  0  0  0
M  END
$$$$

  -OEChem-05262216503D

 51 50  0     1  0  0  0  0  0999 V2000
    0.8989   -5.6146    0.3025 C   0  0  0  0  0  0  0  0  0  0  0  0
    0.5078   -5.6891   -0.8517 O   0  0  0  0  0  0  0  0  0  0  0  0
    2.0528   -6.4822    0.7684 C   0  0  0  0  0  0  0  0  0  0  0  0
    2.3899   -7.1314   -0.0446 H   0  0  0  0  0  0  0  0  0  0  0  0
    2.8877   -5.8520    1.0850 H   0  0  0  0  0  0  0  0  0  0  0  0
    1.7361   -7.1052    1.6082 H   0  0  0  0  0  0  0  0  0  0  0  0
    0.3180   -4.7288    1.1860 N   0  0  0  0  0  0  0  0  0  0  0  0
   -0.5766   -3.6375    0.7732 C   0  0  2  0  0  0  0  0  0  0  0  0
    0.0846   -2.2587    0.9767 C   0  0  0  0  0  0  0  0  0  0  0  0
    1.0052   -2.1360    1.7786 O   0  0  0  0  0  0  0  0  0  0  0  0
   -1.8599   -3.7443    1.6006 C   0  0  0  0  0  0  0  0  0  0  0  0
    0.8330   -4.5756    2.0510 H   0  0  0  0  0  0  0  0  0  0  0  0
   -0.8360   -3.7266   -0.2868 H   0  0  0  0  0  0  0  0  0  0  0  0
   -1.6396   -3.6309    2.6670 H   0  0  0  0  0  0  0  0  0  0  0  0
   -2.5709   -2.9650    1.3086 H   0  0  0  0  0  0  0  0  0  0  0  0
   -2.3319   -4.7194    1.4431 H   0  0  0  0  0  0  0  0  0  0  0  0
   -0.4239   -1.1453    0.3334 N   0  0  0  0  0  0  0  0  0  0  0  0
    0.0720    0.2361    0.4947 C   0  0  2  0  0  0  0  0  0  0  0  0
   -1.2085    1.0920    0.2596 C   0  0  0  0  0  0  0  0  0  0  0  0
   -2.2129    0.8497    0.9198 O   0  0  0  0  0  0  0  0  0  0  0  0
    1.2292    0.5926   -0.5052 C   0  0  2  0  0  0  0  0  0  0  0  0
    2.4883   -0.2884   -0.2910 C   0  0  0  0  0  0  0  0  0  0  0  0
    1.7222    2.0506   -0.2952 C   0  0  0  0  0  0  0  0  0  0  0  0
    3.5277   -0.1498   -1.4097 C   0  0  0  0  0  0  0  0  0  0  0  0
   -1.3184   -1.2677   -0.1358 H   0  0  0  0  0  0  0  0  0  0  0  0
    0.4148    0.4064    1.5211 H   0  0  0  0  0  0  0  0  0  0  0  0
    0.8614    0.4629   -1.5289 H   0  0  0  0  0  0  0  0  0  0  0  0
    2.9473   -0.0815    0.6818 H   0  0  0  0  0  0  0  0  0  0  0  0
    2.1957   -1.3389   -0.2996 H   0  0  0  0  0  0  0  0  0  0  0  0
    2.2512    2.1386    0.6593 H   0  0  0  0  0  0  0  0  0  0  0  0
    2.4046    2.3443   -1.0975 H   0  0  0  0  0  0  0  0  0  0  0  0
    0.9195    2.7862   -0.2845 H   0  0  0  0  0  0  0  0  0  0  0  0
    3.0603   -0.2947   -2.3885 H   0  0  0  0  0  0  0  0  0  0  0  0
    4.3076   -0.9072   -1.2845 H   0  0  0  0  0  0  0  0  0  0  0  0
    4.0078    0.8320   -1.3884 H   0  0  0  0  0  0  0  0  0  0  0  0
   -1.3385    2.0342   -0.7444 N   0  0  0  0  0  0  0  0  0  0  0  0
   -2.5731    2.7520   -1.0868 C   0  0  2  0  0  0  0  0  0  0  0  0
   -2.5562    3.2230   -2.5560 C   0  0  0  0  0  0  0  0  0  0  0  0
   -1.5209    3.1557   -3.2101 O   0  0  0  0  0  0  0  0  0  0  0  0
   -2.7215    3.9487   -0.1402 C   0  0  0  0  0  0  0  0  0  0  0  0
   -0.5583    2.1359   -1.3940 H   0  0  0  0  0  0  0  0  0  0  0  0
   -3.4327    2.0844   -0.9665 H   0  0  0  0  0  0  0  0  0  0  0  0
   -1.8714    4.6299   -0.2487 H   0  0  0  0  0  0  0  0  0  0  0  0
   -3.6407    4.5006   -0.3581 H   0  0  0  0  0  0  0  0  0  0  0  0
   -2.7641    3.6092    0.8998 H   0  0  0  0  0  0  0  0  0  0  0  0
   -3.7049    3.7111   -3.1508 N   0  0  0  0  0  0  0  0  0  0  0  0
   -3.7546    4.1802   -4.5304 C   0  0  0  0  0  0  0  0  0  0  0  0
   -4.5482    3.7525   -2.5857 H   0  0  0  0  0  0  0  0  0  0  0  0
   -3.0711    5.0240   -4.6729 H   0  0  0  0  0  0  0  0  0  0  0  0
   -3.4720    3.3774   -5.2198 H   0  0  0  0  0  0  0  0  0  0  0  0
   -4.7671    4.5103   -4.7819 H   0  0  0  0  0  0  0  0  0  0  0  0
  1  2  2  0  0  0  0
  1  3  1  0  0  0  0
  1  7  1  0  0  0  0
  3  4  1  0  0  0  0
  3  5  1  0  0  0  0
  3  6  1  0  0  0  0
  7  8  1  0  0  0  0
  7 12  1  0  0  0  0
  8  9  1  0  0  0  0
  8 11  1  0  0  0  0
  8 13  1  0  0  0  0
  9 10  2  0  0  0  0
  9 17  1  0  0  0  0
 11 14  1  0  0  0  0
 11 15  1  0  0  0  0
 11 16  1  0  0  0  0
 17 18  1  0  0  0  0
 17 25  1  0  0  0  0
 18 19  1  0  0  0  0
 18 21  1  0  0  0  0
 18 26  1  0  0  0  0
 19 20  2  0  0  0  0
 19 36  1  0  0  0  0
 21 22  1  0  0  0  0
 21 23  1  0  0  0  0
 21 27  1  0  0  0  0
 22 24  1  0  0  0  0
 22 28  1  0  0  0  0
 22 29  1  0  0  0  0
 23 30  1  0  0  0  0
 23 31  1  0  0  0  0
 23 32  1  0  0  0  0
 24 33  1  0  0  0  0
 24 34  1  0  0  0  0
 24 35  1  0  0  0  0
 36 37  1  0  0  0  0
 36 41  1  0  0  0  0
 37 38  1  0  0  0  0
 37 40  1  0  0  0  0
 37 42  1  0  0  0  0
 38 39  2  0  0  0  0
 38 46  1  0  0  0  0
 40 43  1  0  0  0  0
 40 44  1  0  0  0  0
 40 45  1  0  0  0  0
 46 47  1  0  0  0  0
 46 48  1  0  0  0  0
 47 49  1  0  0  0  0
 47 50  1  0  0  0  0
 47 51  1  0  0  0  0
M  END
$$$$

  -OEChem-05262216503D

 51 50  0     1  0  0  0  0  0999 V2000
    1.0560   -5.4995    0.2997 C   0  0  0  0  0  0  0  0  0  0  0  0
    0.7359   -5.5205   -0.8784 O   0  0  0  0  0  0  0  0  0  0  0  0
    2.2399   -6.3183    0.7784 C   0  0  0  0  0  0  0  0  0  0  0  0
    2.6615   -6.8943   -0.0503 H   0  0  0  0  0  0  0  0  0  0  0  0
    3.0126   -5.6558    1.1763 H   0  0  0  0  0  0  0  0  0  0  0  0
    1.9229   -7.0100    1.5629 H   0  0  0  0  0  0  0  0  0  0  0  0
    0.3656   -4.7171    1.2017 N   0  0  0  0  0  0  0  0  0  0  0  0
   -0.5869   -3.6705    0.8038 C   0  0  2  0  0  0  0  0  0  0  0  0
   -0.0047   -2.2607    1.0313 C   0  0  0  0  0  0  0  0  0  0  0  0
    0.8756   -2.0929    1.8691 O   0  0  0  0  0  0  0  0  0  0  0  0
   -1.8618   -3.8616    1.6274 C   0  0  0  0  0  0  0  0  0  0  0  0
    0.8270   -4.5796    2.0988 H   0  0  0  0  0  0  0  0  0  0  0  0
   -0.8416   -3.7593   -0.2573 H   0  0  0  0  0  0  0  0  0  0  0  0
   -1.6471   -3.7588    2.6961 H   0  0  0  0  0  0  0  0  0  0  0  0
   -2.6121   -3.1145    1.3505 H   0  0  0  0  0  0  0  0  0  0  0  0
   -2.2819   -4.8565    1.4493 H   0  0  0  0  0  0  0  0  0  0  0  0
   -0.5257   -1.1742    0.3524 N   0  0  0  0  0  0  0  0  0  0  0  0
   -0.0449    0.2161    0.4717 C   0  0  2  0  0  0  0  0  0  0  0  0
   -1.3041    1.0874    0.2155 C   0  0  0  0  0  0  0  0  0  0  0  0
   -2.2143    1.0829    1.0341 O   0  0  0  0  0  0  0  0  0  0  0  0
    1.1179    0.5477   -0.5275 C   0  0  2  0  0  0  0  0  0  0  0  0
    2.3849   -0.3079   -0.2723 C   0  0  0  0  0  0  0  0  0  0  0  0
    1.5553    2.0281   -0.3827 C   0  0  0  0  0  0  0  0  0  0  0  0
    3.4302   -0.1949   -1.3880 C   0  0  0  0  0  0  0  0  0  0  0  0
   -1.3328   -1.3509   -0.2398 H   0  0  0  0  0  0  0  0  0  0  0  0
    0.2960    0.4131    1.4944 H   0  0  0  0  0  0  0  0  0  0  0  0
    0.7667    0.3635   -1.5486 H   0  0  0  0  0  0  0  0  0  0  0  0
    2.8332   -0.0503    0.6930 H   0  0  0  0  0  0  0  0  0  0  0  0
    2.1089   -1.3623   -0.2368 H   0  0  0  0  0  0  0  0  0  0  0  0
    2.0178    2.1935    0.5958 H   0  0  0  0  0  0  0  0  0  0  0  0
    2.2786    2.2955   -1.1573 H   0  0  0  0  0  0  0  0  0  0  0  0
    0.7239    2.7277   -0.4765 H   0  0  0  0  0  0  0  0  0  0  0  0
    2.9746   -0.3940   -2.3629 H   0  0  0  0  0  0  0  0  0  0  0  0
    4.2257   -0.9279   -1.2239 H   0  0  0  0  0  0  0  0  0  0  0  0
    3.8876    0.7976   -1.4071 H   0  0  0  0  0  0  0  0  0  0  0  0
   -1.5163    1.7697   -0.9690 N   0  0  0  0  0  0  0  0  0  0  0  0
   -2.7356    2.5056   -1.3249 C   0  0  2  0  0  0  0  0  0  0  0  0
   -2.8696    2.6502   -2.8550 C   0  0  0  0  0  0  0  0  0  0  0  0
   -1.9255    2.3626   -3.5835 O   0  0  0  0  0  0  0  0  0  0  0  0
   -2.6897    3.8865   -0.6613 C   0  0  0  0  0  0  0  0  0  0  0  0
   -0.8091    1.6771   -1.6984 H   0  0  0  0  0  0  0  0  0  0  0  0
   -3.6133    1.9583   -0.9651 H   0  0  0  0  0  0  0  0  0  0  0  0
   -1.8242    4.4539   -1.0184 H   0  0  0  0  0  0  0  0  0  0  0  0
   -3.5972    4.4532   -0.8901 H   0  0  0  0  0  0  0  0  0  0  0  0
   -2.6145    3.7852    0.4260 H   0  0  0  0  0  0  0  0  0  0  0  0
   -4.0521    3.0913   -3.4192 N   0  0  0  0  0  0  0  0  0  0  0  0
   -4.2415    3.2505   -4.8561 C   0  0  0  0  0  0  0  0  0  0  0  0
   -4.8193    3.3157   -2.7921 H   0  0  0  0  0  0  0  0  0  0  0  0
   -3.5365    3.9869   -5.2560 H   0  0  0  0  0  0  0  0  0  0  0  0
   -4.0847    2.2971   -5.3715 H   0  0  0  0  0  0  0  0  0  0  0  0
   -5.2582    3.5944   -5.0687 H   0  0  0  0  0  0  0  0  0  0  0  0
  1  2  2  0  0  0  0
  1  3  1  0  0  0  0
  1  7  1  0  0  0  0
  3  4  1  0  0  0  0
  3  5  1  0  0  0  0
  3  6  1  0  0  0  0
  7  8  1  0  0  0  0
  7 12  1  0  0  0  0
  8  9  1  0  0  0  0
  8 11  1  0  0  0  0
  8 13  1  0  0  0  0
  9 10  2  0  0  0  0
  9 17  1  0  0  0  0
 11 14  1  0  0  0  0
 11 15  1  0  0  0  0
 11 16  1  0  0  0  0
 17 18  1  0  0  0  0
 17 25  1  0  0  0  0
 18 19  1  0  0  0  0
 18 21  1  0  0  0  0
 18 26  1  0  0  0  0
 19 20  2  0  0  0  0
 19 36  1  0  0  0  0
 21 22  1  0  0  0  0
 21 23  1  0  0  0  0
 21 27  1  0  0  0  0
 22 24  1  0  0  0  0
 22 28  1  0  0  0  0
 22 29  1  0  0  0  0
 23 30  1  0  0  0  0
 23 31  1  0  0  0  0
 23 32  1  0  0  0  0
 24 33  1  0  0  0  0
 24 34  1  0  0  0  0
 24 35  1  0  0  0  0
 36 37  1  0  0  0  0
 36 41  1  0  0  0  0
 37 38  1  0  0  0  0
 37 40  1  0  0  0  0
 37 42  1  0  0  0  0
 38 39  2  0  0  0  0
 38 46  1  0  0  0  0
 40 43  1  0  0  0  0
 40 44  1  0  0  0  0
 40 45  1  0  0  0  0
 46 47  1  0  0  0  0
 46 48  1  0  0  0  0
 47 49  1  0  0  0  0
 47 50  1  0  0  0  0
 47 51  1  0  0  0  0
M  END
$$$$

  -OEChem-05262216503D

 51 50  0     1  0  0  0  0  0999 V2000
    1.1137   -5.3933    0.2413 C   0  0  0  0  0  0  0  0  0  0  0  0
    0.8459   -5.3558   -0.9494 O   0  0  0  0  0  0  0  0  0  0  0  0
    2.3136   -6.1864    0.7239 C   0  0  0  0  0  0  0  0  0  0  0  0
    2.7936   -6.6952   -0.1167 H   0  0  0  0  0  0  0  0  0  0  0  0
    3.0392   -5.5155    1.1907 H   0  0  0  0  0  0  0  0  0  0  0  0
    1.9971   -6.9351    1.4541 H   0  0  0  0  0  0  0  0  0  0  0  0
    0.3500   -4.6952    1.1537 N   0  0  0  0  0  0  0  0  0  0  0  0
   -0.6278   -3.6668    0.7694 C   0  0  2  0  0  0  0  0  0  0  0  0
   -0.0932   -2.2472    1.0487 C   0  0  0  0  0  0  0  0  0  0  0  0
    0.7383   -2.0721    1.9332 O   0  0  0  0  0  0  0  0  0  0  0  0
   -1.9122   -3.9198    1.5614 C   0  0  0  0  0  0  0  0  0  0  0  0
    0.7649   -4.5915    2.0775 H   0  0  0  0  0  0  0  0  0  0  0  0
   -0.8615   -3.7333   -0.2981 H   0  0  0  0  0  0  0  0  0  0  0  0
   -1.7226   -3.8417    2.6370 H   0  0  0  0  0  0  0  0  0  0  0  0
   -2.6791   -3.1877    1.2900 H   0  0  0  0  0  0  0  0  0  0  0  0
   -2.2979   -4.9211    1.3459 H   0  0  0  0  0  0  0  0  0  0  0  0
   -0.5969   -1.1627    0.3528 N   0  0  0  0  0  0  0  0  0  0  0  0
   -0.1105    0.2259    0.4739 C   0  0  2  0  0  0  0  0  0  0  0  0
   -1.3327    1.1350    0.1953 C   0  0  0  0  0  0  0  0  0  0  0  0
   -2.1125    1.4024    1.0991 O   0  0  0  0  0  0  0  0  0  0  0  0
    1.0748    0.5399   -0.5018 C   0  0  2  0  0  0  0  0  0  0  0  0
    2.3316   -0.3193   -0.2127 C   0  0  0  0  0  0  0  0  0  0  0  0
    1.4857    2.0275   -0.3908 C   0  0  0  0  0  0  0  0  0  0  0  0
    3.4000   -0.2215   -1.3079 C   0  0  0  0  0  0  0  0  0  0  0  0
   -1.3103   -1.3618   -0.3432 H   0  0  0  0  0  0  0  0  0  0  0  0
    0.2163    0.4201    1.5020 H   0  0  0  0  0  0  0  0  0  0  0  0
    0.7461    0.3327   -1.5257 H   0  0  0  0  0  0  0  0  0  0  0  0
    2.7611   -0.0499    0.7579 H   0  0  0  0  0  0  0  0  0  0  0  0
    2.0507   -1.3724   -0.1690 H   0  0  0  0  0  0  0  0  0  0  0  0
    1.8778    2.2394    0.6092 H   0  0  0  0  0  0  0  0  0  0  0  0
    2.2563    2.2753   -1.1251 H   0  0  0  0  0  0  0  0  0  0  0  0
    0.6472    2.7025   -0.5759 H   0  0  0  0  0  0  0  0  0  0  0  0
    2.9625   -0.4204   -2.2911 H   0  0  0  0  0  0  0  0  0  0  0  0
    4.1856   -0.9610   -1.1245 H   0  0  0  0  0  0  0  0  0  0  0  0
    3.8666    0.7671   -1.3214 H   0  0  0  0  0  0  0  0  0  0  0  0
   -1.6420    1.5676   -1.0818 N   0  0  0  0  0  0  0  0  0  0  0  0
   -2.8702    2.2776   -1.4603 C   0  0  2  0  0  0  0  0  0  0  0  0
   -3.2522    1.9831   -2.9261 C   0  0  0  0  0  0  0  0  0  0  0  0
   -2.4587    1.4044   -3.6610 O   0  0  0  0  0  0  0  0  0  0  0  0
   -2.6507    3.7790   -1.2468 C   0  0  0  0  0  0  0  0  0  0  0  0
   -1.0551    1.2327   -1.8454 H   0  0  0  0  0  0  0  0  0  0  0  0
   -3.7013    1.9411   -0.8313 H   0  0  0  0  0  0  0  0  0  0  0  0
   -1.8270    4.1385   -1.8720 H   0  0  0  0  0  0  0  0  0  0  0  0
   -3.5539    4.3411   -1.5025 H   0  0  0  0  0  0  0  0  0  0  0  0
   -2.4065    3.9808   -0.1989 H   0  0  0  0  0  0  0  0  0  0  0  0
   -4.4937    2.3419   -3.4178 N   0  0  0  0  0  0  0  0  0  0  0  0
   -4.9181    2.0775   -4.7875 C   0  0  0  0  0  0  0  0  0  0  0  0
   -5.1382    2.8041   -2.7827 H   0  0  0  0  0  0  0  0  0  0  0  0
   -4.2655    2.5964   -5.4977 H   0  0  0  0  0  0  0  0  0  0  0  0
   -4.8850    1.0033   -4.9985 H   0  0  0  0  0  0  0  0  0  0  0  0
   -5.9433    2.4279   -4.9409 H   0  0  0  0  0  0  0  0  0  0  0  0
  1  2  2  0  0  0  0
  1  3  1  0  0  0  0
  1  7  1  0  0  0  0
  3  4  1  0  0  0  0
  3  5  1  0  0  0  0
  3  6  1  0  0  0  0
  7  8  1  0  0  0  0
  7 12  1  0  0  0  0
  8  9  1  0  0  0  0
  8 11  1  0  0  0  0
  8 13  1  0  0  0  0
  9 10  2  0  0  0  0
  9 17  1  0  0  0  0
 11 14  1  0  0  0  0
 11 15  1  0  0  0  0
 11 16  1  0  0  0  0
 17 18  1  0  0  0  0
 17 25  1  0  0  0  0
 18 19  1  0  0  0  0
 18 21  1  0  0  0  0
 18 26  1  0  0  0  0
 19 20  2  0  0  0  0
 19 36  1  0  0  0  0
 21 22  1  0  0  0  0
 21 23  1  0  0  0  0
 21 27  1  0  0  0  0
 22 24  1  0  0  0  0
 22 28  1  0  0  0  0
 22 29  1  0  0  0  0
 23 30  1  0  0  0  0
 23 31  1  0  0  0  0
 23 32  1  0  0  0  0
 24 33  1  0  0  0  0
 24 34  1  0  0  0  0
 24 35  1  0  0  0  0
 36 37  1  0  0  0  0
 36 41  1  0  0  0  0
 37 38  1  0  0  0  0
 37 40  1  0  0  0  0
 37 42  1  0  0  0  0
 38 39  2  0  0  0  0
 38 46  1  0  0  0  0
 40 43  1  0  0  0  0
 40 44  1  0  0  0  0
 40 45  1  0  0  0  0
 46 47  1  0  0  0  0
 46 48  1  0  0  0  0
 47 49  1  0  0  0  0
 47 50  1  0  0  0  0
 47 51  1  0  0  0  0
M  END
$$$$

  -OEChem-05262216503D

 51 50  0     1  0  0  0  0  0999 V2000
    0.6260   -5.0743   -0.5525 C   0  0  0  0  0  0  0  0  0  0  0  0
    0.7542   -4.7653   -1.7269 O   0  0  0  0  0  0  0  0  0  0  0  0
    1.5277   -6.1357    0.0494 C   0  0  0  0  0  0  0  0  0  0  0  0
    2.2439   -6.4894   -0.6976 H   0  0  0  0  0  0  0  0  0  0  0  0
    2.0796   -5.7202    0.8962 H   0  0  0  0  0  0  0  0  0  0  0  0
    0.9289   -6.9826    0.3926 H   0  0  0  0  0  0  0  0  0  0  0  0
   -0.3177   -4.4551    0.2412 N   0  0  0  0  0  0  0  0  0  0  0  0
   -1.0084   -3.2186   -0.1542 C   0  0  2  0  0  0  0  0  0  0  0  0
   -0.3820   -1.9757    0.5101 C   0  0  0  0  0  0  0  0  0  0  0  0
    0.2615   -2.0838    1.5493 O   0  0  0  0  0  0  0  0  0  0  0  0
   -2.4803   -3.3505    0.2425 C   0  0  0  0  0  0  0  0  0  0  0  0
   -0.2024   -4.5996    1.2415 H   0  0  0  0  0  0  0  0  0  0  0  0
   -0.9579   -3.0763   -1.2393 H   0  0  0  0  0  0  0  0  0  0  0  0
   -2.5772   -3.4690    1.3265 H   0  0  0  0  0  0  0  0  0  0  0  0
   -3.0382   -2.4589   -0.0614 H   0  0  0  0  0  0  0  0  0  0  0  0
   -2.9275   -4.2212   -0.2470 H   0  0  0  0  0  0  0  0  0  0  0  0
   -0.6109   -0.7286   -0.0343 N   0  0  0  0  0  0  0  0  0  0  0  0
   -0.0771    0.5533    0.4624 C   0  0  2  0  0  0  0  0  0  0  0  0
   -1.1455    1.6000    0.0848 C   0  0  0  0  0  0  0  0  0  0  0  0
   -2.0495    1.8720    0.8643 O   0  0  0  0  0  0  0  0  0  0  0  0
    1.3159    0.9182   -0.1462 C   0  0  2  0  0  0  0  0  0  0  0  0
    2.4147   -0.1043    0.2315 C   0  0  0  0  0  0  0  0  0  0  0  0
    1.7503    2.3222    0.3289 C   0  0  0  0  0  0  0  0  0  0  0  0
    3.7135    0.0812   -0.5605 C   0  0  0  0  0  0  0  0  0  0  0  0
   -1.2631   -0.7013   -0.8252 H   0  0  0  0  0  0  0  0  0  0  0  0
    0.0028    0.5293    1.5552 H   0  0  0  0  0  0  0  0  0  0  0  0
    1.2266    0.9253   -1.2373 H   0  0  0  0  0  0  0  0  0  0  0  0
    2.6195   -0.0586    1.3062 H   0  0  0  0  0  0  0  0  0  0  0  0
    2.0669   -1.1131    0.0032 H   0  0  0  0  0  0  0  0  0  0  0  0
    1.8721    2.3346    1.4168 H   0  0  0  0  0  0  0  0  0  0  0  0
    2.6979    2.6163   -0.1292 H   0  0  0  0  0  0  0  0  0  0  0  0
    1.0155    3.0847    0.0567 H   0  0  0  0  0  0  0  0  0  0  0  0
    3.5081    0.1028   -1.6351 H   0  0  0  0  0  0  0  0  0  0  0  0
    4.3919   -0.7528   -0.3562 H   0  0  0  0  0  0  0  0  0  0  0  0
    4.2232    1.0062   -0.2784 H   0  0  0  0  0  0  0  0  0  0  0  0
   -1.2566    2.0056   -1.2345 N   0  0  0  0  0  0  0  0  0  0  0  0
   -2.5934    2.1644   -1.8222 C   0  0  2  0  0  0  0  0  0  0  0  0
   -3.2984    0.7964   -1.9931 C   0  0  0  0  0  0  0  0  0  0  0  0
   -2.6333   -0.2342   -2.0884 O   0  0  0  0  0  0  0  0  0  0  0  0
   -2.4360    2.8595   -3.1755 C   0  0  0  0  0  0  0  0  0  0  0  0
   -0.5608    1.5810   -1.8417 H   0  0  0  0  0  0  0  0  0  0  0  0
   -3.2113    2.7971   -1.1756 H   0  0  0  0  0  0  0  0  0  0  0  0
   -1.8346    2.2471   -3.8553 H   0  0  0  0  0  0  0  0  0  0  0  0
   -3.4154    3.0275   -3.6343 H   0  0  0  0  0  0  0  0  0  0  0  0
   -1.9429    3.8284   -3.0485 H   0  0  0  0  0  0  0  0  0  0  0  0
   -4.6774    0.7133   -2.0211 N   0  0  0  0  0  0  0  0  0  0  0  0
   -5.3973   -0.5540   -2.0689 C   0  0  0  0  0  0  0  0  0  0  0  0
   -5.1985    1.5626   -1.8213 H   0  0  0  0  0  0  0  0  0  0  0  0
   -5.0878   -1.1398   -2.9410 H   0  0  0  0  0  0  0  0  0  0  0  0
   -5.2030   -1.1393   -1.1640 H   0  0  0  0  0  0  0  0  0  0  0  0
   -6.4743   -0.3742   -2.1412 H   0  0  0  0  0  0  0  0  0  0  0  0
  1  2  2  0  0  0  0
  1  3  1  0  0  0  0
  1  7  1  0  0  0  0
  3  4  1  0  0  0  0
  3  5  1  0  0  0  0
  3  6  1  0  0  0  0
  7  8  1  0  0  0  0
  7 12  1  0  0  0  0
  8  9  1  0  0  0  0
  8 11  1  0  0  0  0
  8 13  1  0  0  0  0
  9 10  2  0  0  0  0
  9 17  1  0  0  0  0
 11 14  1  0  0  0  0
 11 15  1  0  0  0  0
 11 16  1  0  0  0  0
 17 18  1  0  0  0  0
 17 25  1  0  0  0  0
 18 19  1  0  0  0  0
 18 21  1  0  0  0  0
 18 26  1  0  0  0  0
 19 20  2  0  0  0  0
 19 36  1  0  0  0  0
 21 22  1  0  0  0  0
 21 23  1  0  0  0  0
 21 27  1  0  0  0  0
 22 24  1  0  0  0  0
 22 28  1  0  0  0  0
 22 29  1  0  0  0  0
 23 30  1  0  0  0  0
 23 31  1  0  0  0  0
 23 32  1  0  0  0  0
 24 33  1  0  0  0  0
 24 34  1  0  0  0  0
 24 35  1  0  0  0  0
 36 37  1  0  0  0  0
 36 41  1  0  0  0  0
 37 38  1  0  0  0  0
 37 40  1  0  0  0  0
 37 42  1  0  0  0  0
 38 39  2  0  0  0  0
 38 46  1  0  0  0  0
 40 43  1  0  0  0  0
 40 44  1  0  0  0  0
 40 45  1  0  0  0  0
 46 47  1  0  0  0  0
 46 48  1  0  0  0  0
 47 49  1  0  0  0  0
 47 50  1  0  0  0  0
 47 51  1  0  0  0  0
M  END
$$$$

  -OEChem-05262216503D

 51 50  0     1  0  0  0  0  0999 V2000
    0.6632   -5.0237   -0.4952 C   0  0  0  0  0  0  0  0  0  0  0  0
    0.7196   -4.6561   -1.6585 O   0  0  0  0  0  0  0  0  0  0  0  0
    1.6762   -6.0239    0.0301 C   0  0  0  0  0  0  0  0  0  0  0  0
    2.3539   -6.3316   -0.7715 H   0  0  0  0  0  0  0  0  0  0  0  0
    2.2638   -5.5719    0.8333 H   0  0  0  0  0  0  0  0  0  0  0  0
    1.1629   -6.9080    0.4157 H   0  0  0  0  0  0  0  0  0  0  0  0
   -0.2942   -4.5140    0.3581 N   0  0  0  0  0  0  0  0  0  0  0  0
   -1.0899   -3.3218    0.0317 C   0  0  2  0  0  0  0  0  0  0  0  0
   -0.4372   -2.0369    0.5805 C   0  0  0  0  0  0  0  0  0  0  0  0
    0.2205   -2.0743    1.6156 O   0  0  0  0  0  0  0  0  0  0  0  0
   -2.4883   -3.5043    0.6246 C   0  0  0  0  0  0  0  0  0  0  0  0
   -0.1260   -4.6839    1.3465 H   0  0  0  0  0  0  0  0  0  0  0  0
   -1.1928   -3.2138   -1.0537 H   0  0  0  0  0  0  0  0  0  0  0  0
   -2.4366   -3.5863    1.7151 H   0  0  0  0  0  0  0  0  0  0  0  0
   -3.1223   -2.6491    0.3697 H   0  0  0  0  0  0  0  0  0  0  0  0
   -2.9539   -4.4108    0.2260 H   0  0  0  0  0  0  0  0  0  0  0  0
   -0.6611   -0.8322   -0.0558 N   0  0  0  0  0  0  0  0  0  0  0  0
   -0.1501    0.4832    0.3803 C   0  0  2  0  0  0  0  0  0  0  0  0
   -1.1956    1.5161   -0.0861 C   0  0  0  0  0  0  0  0  0  0  0  0
   -1.9627    2.0320    0.7157 O   0  0  0  0  0  0  0  0  0  0  0  0
    1.2463    0.8250   -0.2325 C   0  0  2  0  0  0  0  0  0  0  0  0
    2.3496   -0.1651    0.2126 C   0  0  0  0  0  0  0  0  0  0  0  0
    1.6648    2.2588    0.1623 C   0  0  0  0  0  0  0  0  0  0  0  0
    3.6554   -0.0131   -0.5745 C   0  0  0  0  0  0  0  0  0  0  0  0
   -1.3798   -0.8531   -0.7865 H   0  0  0  0  0  0  0  0  0  0  0  0
   -0.0886    0.5234    1.4738 H   0  0  0  0  0  0  0  0  0  0  0  0
    1.1665    0.7717   -1.3232 H   0  0  0  0  0  0  0  0  0  0  0  0
    2.5419   -0.0583    1.2854 H   0  0  0  0  0  0  0  0  0  0  0  0
    2.0135   -1.1880    0.0362 H   0  0  0  0  0  0  0  0  0  0  0  0
    1.7570    2.3429    1.2500 H   0  0  0  0  0  0  0  0  0  0  0  0
    2.6233    2.5275   -0.2883 H   0  0  0  0  0  0  0  0  0  0  0  0
    0.9357    2.9986   -0.1801 H   0  0  0  0  0  0  0  0  0  0  0  0
    3.4618   -0.0570   -1.6506 H   0  0  0  0  0  0  0  0  0  0  0  0
    4.3395   -0.8264   -0.3141 H   0  0  0  0  0  0  0  0  0  0  0  0
    4.1525    0.9321   -0.3418 H   0  0  0  0  0  0  0  0  0  0  0  0
   -1.4675    1.6153   -1.4399 N   0  0  0  0  0  0  0  0  0  0  0  0
   -2.8519    1.7670   -1.9045 C   0  0  2  0  0  0  0  0  0  0  0  0
   -3.6094    0.4207   -1.8330 C   0  0  0  0  0  0  0  0  0  0  0  0
   -2.9832   -0.6382   -1.8208 O   0  0  0  0  0  0  0  0  0  0  0  0
   -2.8117    2.2904   -3.3414 C   0  0  0  0  0  0  0  0  0  0  0  0
   -0.8783    1.0152   -2.0113 H   0  0  0  0  0  0  0  0  0  0  0  0
   -3.3821    2.4977   -1.2841 H   0  0  0  0  0  0  0  0  0  0  0  0
   -2.2999    1.5781   -3.9969 H   0  0  0  0  0  0  0  0  0  0  0  0
   -3.8264    2.4446   -3.7213 H   0  0  0  0  0  0  0  0  0  0  0  0
   -2.2790    3.2459   -3.3804 H   0  0  0  0  0  0  0  0  0  0  0  0
   -4.9892    0.3910   -1.7693 N   0  0  0  0  0  0  0  0  0  0  0  0
   -5.7535   -0.8410   -1.6155 C   0  0  0  0  0  0  0  0  0  0  0  0
   -5.4725    1.2807   -1.6812 H   0  0  0  0  0  0  0  0  0  0  0  0
   -5.5483   -1.5256   -2.4455 H   0  0  0  0  0  0  0  0  0  0  0  0
   -5.4939   -1.3387   -0.6751 H   0  0  0  0  0  0  0  0  0  0  0  0
   -6.8258   -0.6221   -1.6066 H   0  0  0  0  0  0  0  0  0  0  0  0
  1  2  2  0  0  0  0
  1  3  1  0  0  0  0
  1  7  1  0  0  0  0
  3  4  1  0  0  0  0
  3  5  1  0  0  0  0
  3  6  1  0  0  0  0
  7  8  1  0  0  0  0
  7 12  1  0  0  0  0
  8  9  1  0  0  0  0
  8 11  1  0  0  0  0
  8 13  1  0  0  0  0
  9 10  2  0  0  0  0
  9 17  1  0  0  0  0
 11 14  1  0  0  0  0
 11 15  1  0  0  0  0
 11 16  1  0  0  0  0
 17 18  1  0  0  0  0
 17 25  1  0  0  0  0
 18 19  1  0  0  0  0
 18 21  1  0  0  0  0
 18 26  1  0  0  0  0
 19 20  2  0  0  0  0
 19 36  1  0  0  0  0
 21 22  1  0  0  0  0
 21 23  1  0  0  0  0
 21 27  1  0  0  0  0
 22 24  1  0  0  0  0
 22 28  1  0  0  0  0
 22 29  1  0  0  0  0
 23 30  1  0  0  0  0
 23 31  1  0  0  0  0
 23 32  1  0  0  0  0
 24 33  1  0  0  0  0
 24 34  1  0  0  0  0
 24 35  1  0  0  0  0
 36 37  1  0  0  0  0
 36 41  1  0  0  0  0
 37 38  1  0  0  0  0
 37 40  1  0  0  0  0
 37 42  1  0  0  0  0
 38 39  2  0  0  0  0
 38 46  1  0  0  0  0
 40 43  1  0  0  0  0
 40 44  1  0  0  0  0
 40 45  1  0  0  0  0
 46 47  1  0  0  0  0
 46 48  1  0  0  0  0
 47 49  1  0  0  0  0
 47 50  1  0  0  0  0
 47 51  1  0  0  0  0
M  END
$$$$

  -OEChem-05262216503D

 51 50  0     1  0  0  0  0  0999 V2000
    0.6524   -5.0765   -0.2920 C   0  0  0  0  0  0  0  0  0  0  0  0
    0.6683   -4.7386   -1.4655 O   0  0  0  0  0  0  0  0  0  0  0  0
    1.6872   -6.0566    0.2273 C   0  0  0  0  0  0  0  0  0  0  0  0
    2.3660   -6.3508   -0.5781 H   0  0  0  0  0  0  0  0  0  0  0  0
    2.2701   -5.5938    1.0275 H   0  0  0  0  0  0  0  0  0  0  0  0
    1.1922   -6.9501    0.6151 H   0  0  0  0  0  0  0  0  0  0  0  0
   -0.2831   -4.5538    0.5768 N   0  0  0  0  0  0  0  0  0  0  0  0
   -1.1127   -3.3894    0.2363 C   0  0  2  0  0  0  0  0  0  0  0  0
   -0.4356   -2.0682    0.6529 C   0  0  0  0  0  0  0  0  0  0  0  0
    0.2466   -2.0257    1.6717 O   0  0  0  0  0  0  0  0  0  0  0  0
   -2.4593   -3.5473    0.9444 C   0  0  0  0  0  0  0  0  0  0  0  0
   -0.0828   -4.6918    1.5641 H   0  0  0  0  0  0  0  0  0  0  0  0
   -1.2971   -3.3529   -0.8431 H   0  0  0  0  0  0  0  0  0  0  0  0
   -2.3218   -3.5739    2.0302 H   0  0  0  0  0  0  0  0  0  0  0  0
   -3.1194   -2.7099    0.6982 H   0  0  0  0  0  0  0  0  0  0  0  0
   -2.9464   -4.4750    0.6288 H   0  0  0  0  0  0  0  0  0  0  0  0
   -0.6756   -0.9172   -0.0731 N   0  0  0  0  0  0  0  0  0  0  0  0
   -0.1860    0.4317    0.2891 C   0  0  2  0  0  0  0  0  0  0  0  0
   -1.2222    1.4430   -0.2446 C   0  0  0  0  0  0  0  0  0  0  0  0
   -1.8192    2.1814    0.5269 O   0  0  0  0  0  0  0  0  0  0  0  0
    1.2032    0.7531   -0.3536 C   0  0  2  0  0  0  0  0  0  0  0  0
    2.3237   -0.1951    0.1374 C   0  0  0  0  0  0  0  0  0  0  0  0
    1.6155    2.2113   -0.0495 C   0  0  0  0  0  0  0  0  0  0  0  0
    3.6220   -0.0732   -0.6675 C   0  0  0  0  0  0  0  0  0  0  0  0
   -1.4672   -0.9856   -0.7198 H   0  0  0  0  0  0  0  0  0  0  0  0
   -0.1240    0.5367    1.3783 H   0  0  0  0  0  0  0  0  0  0  0  0
    1.1108    0.6367   -1.4387 H   0  0  0  0  0  0  0  0  0  0  0  0
    2.5227   -0.0260    1.2008 H   0  0  0  0  0  0  0  0  0  0  0  0
    1.9999   -1.2302    0.0199 H   0  0  0  0  0  0  0  0  0  0  0  0
    1.7095    2.3630    1.0306 H   0  0  0  0  0  0  0  0  0  0  0  0
    2.5716    2.4561   -0.5184 H   0  0  0  0  0  0  0  0  0  0  0  0
    0.8835    2.9258   -0.4360 H   0  0  0  0  0  0  0  0  0  0  0  0
    3.4197   -0.1578   -1.7398 H   0  0  0  0  0  0  0  0  0  0  0  0
    4.3096   -0.8754   -0.3819 H   0  0  0  0  0  0  0  0  0  0  0  0
    4.1202    0.8806   -0.4748 H   0  0  0  0  0  0  0  0  0  0  0  0
   -1.7093    1.2751   -1.5295 N   0  0  0  0  0  0  0  0  0  0  0  0
   -3.1409    1.4157   -1.8229 C   0  0  2  0  0  0  0  0  0  0  0  0
   -3.8819    0.0848   -1.5654 C   0  0  0  0  0  0  0  0  0  0  0  0
   -3.2463   -0.9658   -1.4934 O   0  0  0  0  0  0  0  0  0  0  0  0
   -3.2823    1.8437   -3.2847 C   0  0  0  0  0  0  0  0  0  0  0  0
   -1.2266    0.5470   -2.0506 H   0  0  0  0  0  0  0  0  0  0  0  0
   -3.5908    2.1891   -1.1909 H   0  0  0  0  0  0  0  0  0  0  0  0
   -2.8568    1.0864   -3.9511 H   0  0  0  0  0  0  0  0  0  0  0  0
   -4.3368    1.9811   -3.5433 H   0  0  0  0  0  0  0  0  0  0  0  0
   -2.7590    2.7903   -3.4533 H   0  0  0  0  0  0  0  0  0  0  0  0
   -5.2539    0.0605   -1.4047 N   0  0  0  0  0  0  0  0  0  0  0  0
   -6.0017   -1.1521   -1.0947 C   0  0  0  0  0  0  0  0  0  0  0  0
   -5.7404    0.9527   -1.3927 H   0  0  0  0  0  0  0  0  0  0  0  0
   -5.8397   -1.9119   -1.8666 H   0  0  0  0  0  0  0  0  0  0  0  0
   -5.6881   -1.5590   -0.1275 H   0  0  0  0  0  0  0  0  0  0  0  0
   -7.0730   -0.9336   -1.0474 H   0  0  0  0  0  0  0  0  0  0  0  0
  1  2  2  0  0  0  0
  1  3  1  0  0  0  0
  1  7  1  0  0  0  0
  3  4  1  0  0  0  0
  3  5  1  0  0  0  0
  3  6  1  0  0  0  0
  7  8  1  0  0  0  0
  7 12  1  0  0  0  0
  8  9  1  0  0  0  0
  8 11  1  0  0  0  0
  8 13  1  0  0  0  0
  9 10  2  0  0  0  0
  9 17  1  0  0  0  0
 11 14  1  0  0  0  0
 11 15  1  0  0  0  0
 11 16  1  0  0  0  0
 17 18  1  0  0  0  0
 17 25  1  0  0  0  0
 18 19  1  0  0  0  0
 18 21  1  0  0  0  0
 18 26  1  0  0  0  0
 19 20  2  0  0  0  0
 19 36  1  0  0  0  0
 21 22  1  0  0  0  0
 21 23  1  0  0  0  0
 21 27  1  0  0  0  0
 22 24  1  0  0  0  0
 22 28  1  0  0  0  0
 22 29  1  0  0  0  0
 23 30  1  0  0  0  0
 23 31  1  0  0  0  0
 23 32  1  0  0  0  0
 24 33  1  0  0  0  0
 24 34  1  0  0  0  0
 24 35  1  0  0  0  0
 36 37  1  0  0  0  0
 36 41  1  0  0  0  0
 37 38  1  0  0  0  0
 37 40  1  0  0  0  0
 37 42  1  0  0  0  0
 38 39  2  0  0  0  0
 38 46  1  0  0  0  0
 40 43  1  0  0  0  0
 40 44  1  0  0  0  0
 40 45  1  0  0  0  0
 46 47  1  0  0  0  0
 46 48  1  0  0  0  0
 47 49  1  0  0  0  0
 47 50  1  0  0  0  0
 47 51  1  0  0  0  0
M  END
$$$$

  -OEChem-05262216503D

 51 50  0     1  0  0  0  0  0999 V2000
    1.4991   -4.8192    0.2796 C   0  0  0  0  0  0  0  0  0  0  0  0
    1.4711   -4.3984   -0.8673 O   0  0  0  0  0  0  0  0  0  0  0  0
    2.7582   -5.4666    0.8240 C   0  0  0  0  0  0  0  0  0  0  0  0
    3.5121   -5.5474    0.0361 H   0  0  0  0  0  0  0  0  0  0  0  0
    3.1636   -4.8625    1.6395 H   0  0  0  0  0  0  0  0  0  0  0  0
    2.5319   -6.4678    1.1984 H   0  0  0  0  0  0  0  0  0  0  0  0
    0.4009   -4.6635    1.1002 N   0  0  0  0  0  0  0  0  0  0  0  0
   -0.7129   -3.7769    0.7397 C   0  0  2  0  0  0  0  0  0  0  0  0
   -0.3977   -2.3055    1.0792 C   0  0  0  0  0  0  0  0  0  0  0  0
    0.1927   -2.0289    2.1171 O   0  0  0  0  0  0  0  0  0  0  0  0
   -1.9628   -4.2461    1.4867 C   0  0  0  0  0  0  0  0  0  0  0  0
    0.5748   -4.8022    2.0922 H   0  0  0  0  0  0  0  0  0  0  0  0
   -0.9137   -3.8491   -0.3345 H   0  0  0  0  0  0  0  0  0  0  0  0
   -1.8126   -4.1797    2.5692 H   0  0  0  0  0  0  0  0  0  0  0  0
   -2.8223   -3.6239    1.2170 H   0  0  0  0  0  0  0  0  0  0  0  0
   -2.1925   -5.2845    1.2279 H   0  0  0  0  0  0  0  0  0  0  0  0
   -0.8065   -1.2951    0.2275 N   0  0  0  0  0  0  0  0  0  0  0  0
   -0.3163    0.1017    0.3012 C   0  0  2  0  0  0  0  0  0  0  0  0
   -1.4294    1.0592   -0.1908 C   0  0  0  0  0  0  0  0  0  0  0  0
   -1.5852    2.1546    0.3333 O   0  0  0  0  0  0  0  0  0  0  0  0
    0.9650    0.2852   -0.5811 C   0  0  2  0  0  0  0  0  0  0  0  0
    2.1546   -0.5815   -0.0917 C   0  0  0  0  0  0  0  0  0  0  0  0
    1.4086    1.7653   -0.6156 C   0  0  0  0  0  0  0  0  0  0  0  0
    3.3261   -0.6272   -1.0788 C   0  0  0  0  0  0  0  0  0  0  0  0
   -1.1618   -1.6232   -0.6649 H   0  0  0  0  0  0  0  0  0  0  0  0
   -0.0854    0.3705    1.3385 H   0  0  0  0  0  0  0  0  0  0  0  0
    0.7171   -0.0212   -1.6032 H   0  0  0  0  0  0  0  0  0  0  0  0
    2.5015   -0.2242    0.8835 H   0  0  0  0  0  0  0  0  0  0  0  0
    1.8339   -1.6161    0.0314 H   0  0  0  0  0  0  0  0  0  0  0  0
    1.6003    2.1296    0.3988 H   0  0  0  0  0  0  0  0  0  0  0  0
    2.3169    1.8957   -1.2077 H   0  0  0  0  0  0  0  0  0  0  0  0
    0.6452    2.3996   -1.0743 H   0  0  0  0  0  0  0  0  0  0  0  0
    2.9743   -0.8947   -2.0800 H   0  0  0  0  0  0  0  0  0  0  0  0
    4.0509   -1.3806   -0.7556 H   0  0  0  0  0  0  0  0  0  0  0  0
    3.8431    0.3343   -1.1295 H   0  0  0  0  0  0  0  0  0  0  0  0
   -2.3466    0.6459   -1.1401 N   0  0  0  0  0  0  0  0  0  0  0  0
   -3.6648    1.2596   -1.3319 C   0  0  2  0  0  0  0  0  0  0  0  0
   -4.7471    0.1662   -1.4569 C   0  0  0  0  0  0  0  0  0  0  0  0
   -4.4162   -1.0096   -1.5898 O   0  0  0  0  0  0  0  0  0  0  0  0
   -3.6114    2.1326   -2.5873 C   0  0  0  0  0  0  0  0  0  0  0  0
   -2.2894   -0.3310   -1.4137 H   0  0  0  0  0  0  0  0  0  0  0  0
   -3.9268    1.8829   -0.4700 H   0  0  0  0  0  0  0  0  0  0  0  0
   -3.3698    1.5267   -3.4664 H   0  0  0  0  0  0  0  0  0  0  0  0
   -4.5744    2.6237   -2.7552 H   0  0  0  0  0  0  0  0  0  0  0  0
   -2.8446    2.9057   -2.4747 H   0  0  0  0  0  0  0  0  0  0  0  0
   -6.0887    0.4928   -1.3952 N   0  0  0  0  0  0  0  0  0  0  0  0
   -7.1572   -0.4966   -1.4619 C   0  0  0  0  0  0  0  0  0  0  0  0
   -6.3297    1.4684   -1.2455 H   0  0  0  0  0  0  0  0  0  0  0  0
   -7.1082   -1.0509   -2.4051 H   0  0  0  0  0  0  0  0  0  0  0  0
   -7.0748   -1.2054   -0.6313 H   0  0  0  0  0  0  0  0  0  0  0  0
   -8.1327   -0.0044   -1.4012 H   0  0  0  0  0  0  0  0  0  0  0  0
  1  2  2  0  0  0  0
  1  3  1  0  0  0  0
  1  7  1  0  0  0  0
  3  4  1  0  0  0  0
  3  5  1  0  0  0  0
  3  6  1  0  0  0  0
  7  8  1  0  0  0  0
  7 12  1  0  0  0  0
  8  9  1  0  0  0  0
  8 11  1  0  0  0  0
  8 13  1  0  0  0  0
  9 10  2  0  0  0  0
  9 17  1  0  0  0  0
 11 14  1  0  0  0  0
 11 15  1  0  0  0  0
 11 16  1  0  0  0  0
 17 18  1  0  0  0  0
 17 25  1  0  0  0  0
 18 19  1  0  0  0  0
 18 21  1  0  0  0  0
 18 26  1  0  0  0  0
 19 20  2  0  0  0  0
 19 36  1  0  0  0  0
 21 22  1  0  0  0  0
 21 23  1  0  0  0  0
 21 27  1  0  0  0  0
 22 24  1  0  0  0  0
 22 28  1  0  0  0  0
 22 29  1  0  0  0  0
 23 30  1  0  0  0  0
 23 31  1  0  0  0  0
 23 32  1  0  0  0  0
 24 33  1  0  0  0  0
 24 34  1  0  0  0  0
 24 35  1  0  0  0  0
 36 37  1  0  0  0  0
 36 41  1  0  0  0  0
 37 38  1  0  0  0  0
 37 40  1  0  0  0  0
 37 42  1  0  0  0  0
 38 39  2  0  0  0  0
 38 46  1  0  0  0  0
 40 43  1  0  0  0  0
 40 44  1  0  0  0  0
 40 45  1  0  0  0  0
 46 47  1  0  0  0  0
 46 48  1  0  0  0  0
 47 49  1  0  0  0  0
 47 50  1  0  0  0  0
 47 51  1  0  0  0  0
M  END
$$$$

  -OEChem-05262216503D

 51 50  0     1  0  0  0  0  0999 V2000
    0.2282   -4.0589   -0.6612 C   0  0  0  0  0  0  0  0  0  0  0  0
   -0.6891   -3.3842   -1.1059 O   0  0  0  0  0  0  0  0  0  0  0  0
    1.3010   -4.5922   -1.5906 C   0  0  0  0  0  0  0  0  0  0  0  0
    1.0366   -4.3813   -2.6309 H   0  0  0  0  0  0  0  0  0  0  0  0
    2.2586   -4.1155   -1.3669 H   0  0  0  0  0  0  0  0  0  0  0  0
    1.4013   -5.6732   -1.4664 H   0  0  0  0  0  0  0  0  0  0  0  0
    0.3242   -4.2702    0.6998 N   0  0  0  0  0  0  0  0  0  0  0  0
   -0.6312   -3.7450    1.6892 C   0  0  2  0  0  0  0  0  0  0  0  0
   -0.4692   -2.2211    1.9072 C   0  0  0  0  0  0  0  0  0  0  0  0
   -0.0005   -1.7596    2.9398 O   0  0  0  0  0  0  0  0  0  0  0  0
   -0.4485   -4.5508    2.9813 C   0  0  0  0  0  0  0  0  0  0  0  0
    1.1470   -4.7617    1.0376 H   0  0  0  0  0  0  0  0  0  0  0  0
   -1.6538   -3.9135    1.3334 H   0  0  0  0  0  0  0  0  0  0  0  0
    0.5628   -4.4196    3.3798 H   0  0  0  0  0  0  0  0  0  0  0  0
   -1.1642   -4.2162    3.7393 H   0  0  0  0  0  0  0  0  0  0  0  0
   -0.6172   -5.6157    2.7953 H   0  0  0  0  0  0  0  0  0  0  0  0
   -0.8212   -1.3725    0.8759 N   0  0  0  0  0  0  0  0  0  0  0  0
   -0.3729    0.0298    0.7405 C   0  0  2  0  0  0  0  0  0  0  0  0
   -1.4775    0.8363    0.0070 C   0  0  0  0  0  0  0  0  0  0  0  0
   -1.5376    2.0563    0.1056 O   0  0  0  0  0  0  0  0  0  0  0  0
    0.9734    0.0757   -0.0678 C   0  0  2  0  0  0  0  0  0  0  0  0
    2.1337   -0.6593    0.6559 C   0  0  0  0  0  0  0  0  0  0  0  0
    1.4118    1.5284   -0.3595 C   0  0  0  0  0  0  0  0  0  0  0  0
    3.3772   -0.8611   -0.2180 C   0  0  0  0  0  0  0  0  0  0  0  0
   -1.0118   -1.8773    0.0054 H   0  0  0  0  0  0  0  0  0  0  0  0
   -0.2284    0.4851    1.7265 H   0  0  0  0  0  0  0  0  0  0  0  0
    0.8012   -0.4249   -1.0271 H   0  0  0  0  0  0  0  0  0  0  0  0
    2.4043   -0.1178    1.5685 H   0  0  0  0  0  0  0  0  0  0  0  0
    1.8166   -1.6587    0.9495 H   0  0  0  0  0  0  0  0  0  0  0  0
    1.4712    2.1033    0.5701 H   0  0  0  0  0  0  0  0  0  0  0  0
    2.3853    1.5659   -0.8516 H   0  0  0  0  0  0  0  0  0  0  0  0
    0.7086    2.0238   -1.0340 H   0  0  0  0  0  0  0  0  0  0  0  0
    3.1022   -1.3018   -1.1813 H   0  0  0  0  0  0  0  0  0  0  0  0
    4.0752   -1.5371    0.2850 H   0  0  0  0  0  0  0  0  0  0  0  0
    3.8985    0.0829   -0.3960 H   0  0  0  0  0  0  0  0  0  0  0  0
   -2.4959    0.1909   -0.6731 N   0  0  0  0  0  0  0  0  0  0  0  0
   -3.6970    0.8460   -1.2036 C   0  0  2  0  0  0  0  0  0  0  0  0
   -4.9210   -0.0935   -1.1543 C   0  0  0  0  0  0  0  0  0  0  0  0
   -4.7865   -1.2739   -0.8486 O   0  0  0  0  0  0  0  0  0  0  0  0
   -3.4043    1.2861   -2.6412 C   0  0  0  0  0  0  0  0  0  0  0  0
   -2.5501   -0.8203   -0.5555 H   0  0  0  0  0  0  0  0  0  0  0  0
   -3.9400    1.7249   -0.5969 H   0  0  0  0  0  0  0  0  0  0  0  0
   -3.1647    0.4183   -3.2640 H   0  0  0  0  0  0  0  0  0  0  0  0
   -4.2697    1.7978   -3.0718 H   0  0  0  0  0  0  0  0  0  0  0  0
   -2.5533    1.9743   -2.6600 H   0  0  0  0  0  0  0  0  0  0  0  0
   -6.1841    0.3893   -1.4434 N   0  0  0  0  0  0  0  0  0  0  0  0
   -7.3841   -0.4375   -1.4147 C   0  0  0  0  0  0  0  0  0  0  0  0
   -6.2689    1.3741   -1.6775 H   0  0  0  0  0  0  0  0  0  0  0  0
   -7.2932   -1.2689   -2.1216 H   0  0  0  0  0  0  0  0  0  0  0  0
   -7.5459   -0.8440   -0.4109 H   0  0  0  0  0  0  0  0  0  0  0  0
   -8.2594    0.1574   -1.6921 H   0  0  0  0  0  0  0  0  0  0  0  0
  1  2  2  0  0  0  0
  1  3  1  0  0  0  0
  1  7  1  0  0  0  0
  3  4  1  0  0  0  0
  3  5  1  0  0  0  0
  3  6  1  0  0  0  0
  7  8  1  0  0  0  0
  7 12  1  0  0  0  0
  8  9  1  0  0  0  0
  8 11  1  0  0  0  0
  8 13  1  0  0  0  0
  9 10  2  0  0  0  0
  9 17  1  0  0  0  0
 11 14  1  0  0  0  0
 11 15  1  0  0  0  0
 11 16  1  0  0  0  0
 17 18  1  0  0  0  0
 17 25  1  0  0  0  0
 18 19  1  0  0  0  0
 18 21  1  0  0  0  0
 18 26  1  0  0  0  0
 19 20  2  0  0  0  0
 19 36  1  0  0  0  0
 21 22  1  0  0  0  0
 21 23  1  0  0  0  0
 21 27  1  0  0  0  0
 22 24  1  0  0  0  0
 22 28  1  0  0  0  0
 22 29  1  0  0  0  0
 23 30  1  0  0  0  0
 23 31  1  0  0  0  0
 23 32  1  0  0  0  0
 24 33  1  0  0  0  0
 24 34  1  0  0  0  0
 24 35  1  0  0  0  0
 36 37  1  0  0  0  0
 36 41  1  0  0  0  0
 37 38  1  0  0  0  0
 37 40  1  0  0  0  0
 37 42  1  0  0  0  0
 38 39  2  0  0  0  0
 38 46  1  0  0  0  0
 40 43  1  0  0  0  0
 40 44  1  0  0  0  0
 40 45  1  0  0  0  0
 46 47  1  0  0  0  0
 46 48  1  0  0  0  0
 47 49  1  0  0  0  0
 47 50  1  0  0  0  0
 47 51  1  0  0  0  0
M  END
$$$$

  -OEChem-05262216503D

 51 50  0     1  0  0  0  0  0999 V2000
    0.4497   -4.1201   -0.6113 C   0  0  0  0  0  0  0  0  0  0  0  0
   -0.4759   -3.5087   -1.1251 O   0  0  0  0  0  0  0  0  0  0  0  0
    1.6096   -4.6062   -1.4592 C   0  0  0  0  0  0  0  0  0  0  0  0
    1.4213   -4.3918   -2.5152 H   0  0  0  0  0  0  0  0  0  0  0  0
    2.5303   -4.1011   -1.1562 H   0  0  0  0  0  0  0  0  0  0  0  0
    1.7367   -5.6848   -1.3383 H   0  0  0  0  0  0  0  0  0  0  0  0
    0.4713   -4.2991    0.7572 N   0  0  0  0  0  0  0  0  0  0  0  0
   -0.5577   -3.7807    1.6729 C   0  0  2  0  0  0  0  0  0  0  0  0
   -0.4587   -2.2464    1.8513 C   0  0  0  0  0  0  0  0  0  0  0  0
   -0.0306   -1.7428    2.8820 O   0  0  0  0  0  0  0  0  0  0  0  0
   -0.4207   -4.5397    2.9986 C   0  0  0  0  0  0  0  0  0  0  0  0
    1.3039   -4.7223    1.1577 H   0  0  0  0  0  0  0  0  0  0  0  0
   -1.5516   -3.9979    1.2663 H   0  0  0  0  0  0  0  0  0  0  0  0
    0.5637   -4.3647    3.4450 H   0  0  0  0  0  0  0  0  0  0  0  0
   -1.1851   -4.2036    3.7068 H   0  0  0  0  0  0  0  0  0  0  0  0
   -0.5475   -5.6150    2.8395 H   0  0  0  0  0  0  0  0  0  0  0  0
   -0.8170   -1.4327    0.7933 N   0  0  0  0  0  0  0  0  0  0  0  0
   -0.3990   -0.0212    0.6349 C   0  0  2  0  0  0  0  0  0  0  0  0
   -1.5198    0.7347   -0.1350 C   0  0  0  0  0  0  0  0  0  0  0  0
   -1.5203    1.9555   -0.2381 O   0  0  0  0  0  0  0  0  0  0  0  0
    0.9721    0.0290   -0.1380 C   0  0  2  0  0  0  0  0  0  0  0  0
    2.1260   -0.6634    0.6392 C   0  0  0  0  0  0  0  0  0  0  0  0
    1.4028    1.4787   -0.4570 C   0  0  0  0  0  0  0  0  0  0  0  0
    3.4012   -0.8682   -0.1881 C   0  0  0  0  0  0  0  0  0  0  0  0
   -0.9647   -1.9608   -0.0727 H   0  0  0  0  0  0  0  0  0  0  0  0
   -0.2885    0.4608    1.6123 H   0  0  0  0  0  0  0  0  0  0  0  0
    0.8374   -0.5005   -1.0877 H   0  0  0  0  0  0  0  0  0  0  0  0
    2.3575   -0.0928    1.5449 H   0  0  0  0  0  0  0  0  0  0  0  0
    1.8219   -1.6611    0.9491 H   0  0  0  0  0  0  0  0  0  0  0  0
    1.3762    2.0933    0.4485 H   0  0  0  0  0  0  0  0  0  0  0  0
    2.4107    1.5231   -0.8725 H   0  0  0  0  0  0  0  0  0  0  0  0
    0.7465    1.9262   -1.2075 H   0  0  0  0  0  0  0  0  0  0  0  0
    3.1641   -1.3314   -1.1508 H   0  0  0  0  0  0  0  0  0  0  0  0
    4.0876   -1.5275    0.3519 H   0  0  0  0  0  0  0  0  0  0  0  0
    3.9209    0.0765   -0.3672 H   0  0  0  0  0  0  0  0  0  0  0  0
   -2.6594    0.0623   -0.5414 N   0  0  0  0  0  0  0  0  0  0  0  0
   -3.9072    0.7023   -0.9753 C   0  0  2  0  0  0  0  0  0  0  0  0
   -5.1395   -0.0752   -0.4680 C   0  0  0  0  0  0  0  0  0  0  0  0
   -5.0170   -1.2188   -0.0408 O   0  0  0  0  0  0  0  0  0  0  0  0
   -3.8989    0.7714   -2.5044 C   0  0  0  0  0  0  0  0  0  0  0  0
   -2.7423   -0.8993   -0.2126 H   0  0  0  0  0  0  0  0  0  0  0  0
   -3.9735    1.7165   -0.5676 H   0  0  0  0  0  0  0  0  0  0  0  0
   -3.8428   -0.2349   -2.9322 H   0  0  0  0  0  0  0  0  0  0  0  0
   -4.8068    1.2579   -2.8731 H   0  0  0  0  0  0  0  0  0  0  0  0
   -3.0340    1.3462   -2.8510 H   0  0  0  0  0  0  0  0  0  0  0  0
   -6.3907    0.5136   -0.4752 N   0  0  0  0  0  0  0  0  0  0  0  0
   -7.5876   -0.1478    0.0304 C   0  0  0  0  0  0  0  0  0  0  0  0
   -6.4573    1.4741   -0.7995 H   0  0  0  0  0  0  0  0  0  0  0  0
   -7.7807   -1.0696   -0.5286 H   0  0  0  0  0  0  0  0  0  0  0  0
   -7.4692   -0.3969    1.0903 H   0  0  0  0  0  0  0  0  0  0  0  0
   -8.4570    0.5085   -0.0751 H   0  0  0  0  0  0  0  0  0  0  0  0
  1  2  2  0  0  0  0
  1  3  1  0  0  0  0
  1  7  1  0  0  0  0
  3  4  1  0  0  0  0
  3  5  1  0  0  0  0
  3  6  1  0  0  0  0
  7  8  1  0  0  0  0
  7 12  1  0  0  0  0
  8  9  1  0  0  0  0
  8 11  1  0  0  0  0
  8 13  1  0  0  0  0
  9 10  2  0  0  0  0
  9 17  1  0  0  0  0
 11 14  1  0  0  0  0
 11 15  1  0  0  0  0
 11 16  1  0  0  0  0
 17 18  1  0  0  0  0
 17 25  1  0  0  0  0
 18 19  1  0  0  0  0
 18 21  1  0  0  0  0
 18 26  1  0  0  0  0
 19 20  2  0  0  0  0
 19 36  1  0  0  0  0
 21 22  1  0  0  0  0
 21 23  1  0  0  0  0
 21 27  1  0  0  0  0
 22 24  1  0  0  0  0
 22 28  1  0  0  0  0
 22 29  1  0  0  0  0
 23 30  1  0  0  0  0
 23 31  1  0  0  0  0
 23 32  1  0  0  0  0
 24 33  1  0  0  0  0
 24 34  1  0  0  0  0
 24 35  1  0  0  0  0
 36 37  1  0  0  0  0
 36 41  1  0  0  0  0
 37 38  1  0  0  0  0
 37 40  1  0  0  0  0
 37 42  1  0  0  0  0
 38 39  2  0  0  0  0
 38 46  1  0  0  0  0
 40 43  1  0  0  0  0
 40 44  1  0  0  0  0
 40 45  1  0  0  0  0
 46 47  1  0  0  0  0
 46 48  1  0  0  0  0
 47 49  1  0  0  0  0
 47 50  1  0  0  0  0
 47 51  1  0  0  0  0
M  END
$$$$

  -OEChem-05262216503D

 51 50  0     1  0  0  0  0  0999 V2000
    1.7206   -4.7643    0.1385 C   0  0  0  0  0  0  0  0  0  0  0  0
    1.4804   -4.3778   -0.9954 O   0  0  0  0  0  0  0  0  0  0  0  0
    3.1079   -5.2628    0.4954 C   0  0  0  0  0  0  0  0  0  0  0  0
    3.7443   -5.2772   -0.3937 H   0  0  0  0  0  0  0  0  0  0  0  0
    3.5599   -4.6037    1.2407 H   0  0  0  0  0  0  0  0  0  0  0  0
    3.0485   -6.2752    0.9019 H   0  0  0  0  0  0  0  0  0  0  0  0
    0.7451   -4.6947    1.1123 N   0  0  0  0  0  0  0  0  0  0  0  0
   -0.4984   -3.9394    0.9126 C   0  0  2  0  0  0  0  0  0  0  0  0
   -0.2930   -2.4417    1.2164 C   0  0  0  0  0  0  0  0  0  0  0  0
    0.3170   -2.0977    2.2219 O   0  0  0  0  0  0  0  0  0  0  0  0
   -1.5787   -4.5346    1.8183 C   0  0  0  0  0  0  0  0  0  0  0  0
    1.0740   -4.7925    2.0697 H   0  0  0  0  0  0  0  0  0  0  0  0
   -0.8354   -4.0409   -0.1244 H   0  0  0  0  0  0  0  0  0  0  0  0
   -1.2929   -4.4427    2.8712 H   0  0  0  0  0  0  0  0  0  0  0  0
   -2.5292   -4.0117    1.6700 H   0  0  0  0  0  0  0  0  0  0  0  0
   -1.7271   -5.5940    1.5866 H   0  0  0  0  0  0  0  0  0  0  0  0
   -0.8190   -1.4785    0.3747 N   0  0  0  0  0  0  0  0  0  0  0  0
   -0.3943   -0.0569    0.3644 C   0  0  2  0  0  0  0  0  0  0  0  0
   -1.6333    0.7862   -0.0652 C   0  0  0  0  0  0  0  0  0  0  0  0
   -1.5949    1.9934   -0.2601 O   0  0  0  0  0  0  0  0  0  0  0  0
    0.8388    0.1199   -0.6042 C   0  0  2  0  0  0  0  0  0  0  0  0
    2.0851   -0.6829   -0.1357 C   0  0  0  0  0  0  0  0  0  0  0  0
    1.2569    1.6017   -0.7520 C   0  0  0  0  0  0  0  0  0  0  0  0
    3.2136   -0.7567   -1.1725 C   0  0  0  0  0  0  0  0  0  0  0  0
   -1.1810   -1.8447   -0.5027 H   0  0  0  0  0  0  0  0  0  0  0  0
   -0.1118    0.2678    1.3720 H   0  0  0  0  0  0  0  0  0  0  0  0
    0.5475   -0.2517   -1.5925 H   0  0  0  0  0  0  0  0  0  0  0  0
    2.4661   -0.2669    0.8029 H   0  0  0  0  0  0  0  0  0  0  0  0
    1.8090   -1.7184    0.0510 H   0  0  0  0  0  0  0  0  0  0  0  0
    1.3053    2.0851    0.2288 H   0  0  0  0  0  0  0  0  0  0  0  0
    2.2296    1.7109   -1.2330 H   0  0  0  0  0  0  0  0  0  0  0  0
    0.5500    2.1459   -1.3826 H   0  0  0  0  0  0  0  0  0  0  0  0
    2.8176   -1.0442   -2.1515 H   0  0  0  0  0  0  0  0  0  0  0  0
    3.9462   -1.5084   -0.8640 H   0  0  0  0  0  0  0  0  0  0  0  0
    3.7379    0.1970   -1.2674 H   0  0  0  0  0  0  0  0  0  0  0  0
   -2.8873    0.2002   -0.0425 N   0  0  0  0  0  0  0  0  0  0  0  0
   -4.1630    0.9202   -0.1322 C   0  0  2  0  0  0  0  0  0  0  0  0
   -5.2802    0.1573    0.6099 C   0  0  0  0  0  0  0  0  0  0  0  0
   -5.1092   -1.0108    0.9460 O   0  0  0  0  0  0  0  0  0  0  0  0
   -4.5231    1.0988   -1.6102 C   0  0  0  0  0  0  0  0  0  0  0  0
   -2.9292   -0.7339    0.3650 H   0  0  0  0  0  0  0  0  0  0  0  0
   -4.0665    1.9037    0.3398 H   0  0  0  0  0  0  0  0  0  0  0  0
   -4.6342    0.1243   -2.0965 H   0  0  0  0  0  0  0  0  0  0  0  0
   -5.4627    1.6499   -1.7125 H   0  0  0  0  0  0  0  0  0  0  0  0
   -3.7381    1.6595   -2.1278 H   0  0  0  0  0  0  0  0  0  0  0  0
   -6.4722    0.7860    0.9182 N   0  0  0  0  0  0  0  0  0  0  0  0
   -7.5542    0.1377    1.6487 C   0  0  0  0  0  0  0  0  0  0  0  0
   -6.5702    1.7631    0.6576 H   0  0  0  0  0  0  0  0  0  0  0  0
   -7.9133   -0.7408    1.1024 H   0  0  0  0  0  0  0  0  0  0  0  0
   -7.2117   -0.1785    2.6396 H   0  0  0  0  0  0  0  0  0  0  0  0
   -8.3919    0.8298    1.7771 H   0  0  0  0  0  0  0  0  0  0  0  0
  1  2  2  0  0  0  0
  1  3  1  0  0  0  0
  1  7  1  0  0  0  0
  3  4  1  0  0  0  0
  3  5  1  0  0  0  0
  3  6  1  0  0  0  0
  7  8  1  0  0  0  0
  7 12  1  0  0  0  0
  8  9  1  0  0  0  0
  8 11  1  0  0  0  0
  8 13  1  0  0  0  0
  9 10  2  0  0  0  0
  9 17  1  0  0  0  0
 11 14  1  0  0  0  0
 11 15  1  0  0  0  0
 11 16  1  0  0  0  0
 17 18  1  0  0  0  0
 17 25  1  0  0  0  0
 18 19  1  0  0  0  0
 18 21  1  0  0  0  0
 18 26  1  0  0  0  0
 19 20  2  0  0  0  0
 19 36  1  0  0  0  0
 21 22  1  0  0  0  0
 21 23  1  0  0  0  0
 21 27  1  0  0  0  0
 22 24  1  0  0  0  0
 22 28  1  0  0  0  0
 22 29  1  0  0  0  0
 23 30  1  0  0  0  0
 23 31  1  0  0  0  0
 23 32  1  0  0  0  0
 24 33  1  0  0  0  0
 24 34  1  0  0  0  0
 24 35  1  0  0  0  0
 36 37  1  0  0  0  0
 36 41  1  0  0  0  0
 37 38  1  0  0  0  0
 37 40  1  0  0  0  0
 37 42  1  0  0  0  0
 38 39  2  0  0  0  0
 38 46  1  0  0  0  0
 40 43  1  0  0  0  0
 40 44  1  0  0  0  0
 40 45  1  0  0  0  0
 46 47  1  0  0  0  0
 46 48  1  0  0  0  0
 47 49  1  0  0  0  0
 47 50  1  0  0  0  0
 47 51  1  0  0  0  0
M  END
$$$$

  -OEChem-05262216503D

 51 50  0     1  0  0  0  0  0999 V2000
    1.7330   -4.8370    0.1513 C   0  0  0  0  0  0  0  0  0  0  0  0
    1.5259   -4.4573   -0.9913 O   0  0  0  0  0  0  0  0  0  0  0  0
    3.1053   -5.3501    0.5449 C   0  0  0  0  0  0  0  0  0  0  0  0
    3.7762   -5.3326   -0.3186 H   0  0  0  0  0  0  0  0  0  0  0  0
    3.5272   -4.7180    1.3301 H   0  0  0  0  0  0  0  0  0  0  0  0
    3.0310   -6.3763    0.9127 H   0  0  0  0  0  0  0  0  0  0  0  0
    0.7358   -4.7432    1.1009 N   0  0  0  0  0  0  0  0  0  0  0  0
   -0.4784   -3.9493    0.8700 C   0  0  2  0  0  0  0  0  0  0  0  0
   -0.2355   -2.4565    1.1703 C   0  0  0  0  0  0  0  0  0  0  0  0
    0.4221   -2.1264    2.1505 O   0  0  0  0  0  0  0  0  0  0  0  0
   -1.5943   -4.5035    1.7580 C   0  0  0  0  0  0  0  0  0  0  0  0
    1.0424   -4.8404    2.0657 H   0  0  0  0  0  0  0  0  0  0  0  0
   -0.7959   -4.0457   -0.1737 H   0  0  0  0  0  0  0  0  0  0  0  0
   -1.3221   -4.4213    2.8152 H   0  0  0  0  0  0  0  0  0  0  0  0
   -2.5225   -3.9465    1.5951 H   0  0  0  0  0  0  0  0  0  0  0  0
   -1.7771   -5.5569    1.5242 H   0  0  0  0  0  0  0  0  0  0  0  0
   -0.8007   -1.4783    0.3725 N   0  0  0  0  0  0  0  0  0  0  0  0
   -0.3737   -0.0583    0.3603 C   0  0  2  0  0  0  0  0  0  0  0  0
   -1.6550    0.7582    0.0062 C   0  0  0  0  0  0  0  0  0  0  0  0
   -1.6614    1.8519   -0.5398 O   0  0  0  0  0  0  0  0  0  0  0  0
    0.8247    0.1477   -0.6459 C   0  0  2  0  0  0  0  0  0  0  0  0
    2.0884   -0.6574   -0.2296 C   0  0  0  0  0  0  0  0  0  0  0  0
    1.2407    1.6375   -0.7405 C   0  0  0  0  0  0  0  0  0  0  0  0
    3.1869   -0.7078   -1.3005 C   0  0  0  0  0  0  0  0  0  0  0  0
   -1.2436   -1.8241   -0.4755 H   0  0  0  0  0  0  0  0  0  0  0  0
   -0.0554    0.2541    1.3605 H   0  0  0  0  0  0  0  0  0  0  0  0
    0.5078   -0.1916   -1.6379 H   0  0  0  0  0  0  0  0  0  0  0  0
    2.4949   -0.2584    0.7055 H   0  0  0  0  0  0  0  0  0  0  0  0
    1.8216   -1.6981   -0.0561 H   0  0  0  0  0  0  0  0  0  0  0  0
    1.2440    2.0972    0.2526 H   0  0  0  0  0  0  0  0  0  0  0  0
    2.2331    1.7660   -1.1731 H   0  0  0  0  0  0  0  0  0  0  0  0
    0.5609    2.1957   -1.3876 H   0  0  0  0  0  0  0  0  0  0  0  0
    2.7623   -0.9814   -2.2715 H   0  0  0  0  0  0  0  0  0  0  0  0
    3.9307   -1.4623   -1.0262 H   0  0  0  0  0  0  0  0  0  0  0  0
    3.7065    0.2484   -1.3978 H   0  0  0  0  0  0  0  0  0  0  0  0
   -2.8838    0.2520    0.3916 N   0  0  0  0  0  0  0  0  0  0  0  0
   -4.1656    0.9632    0.3211 C   0  0  2  0  0  0  0  0  0  0  0  0
   -5.1575    0.4076    1.3642 C   0  0  0  0  0  0  0  0  0  0  0  0
   -4.9469   -0.6799    1.8925 O   0  0  0  0  0  0  0  0  0  0  0  0
   -4.7393    0.8168   -1.0922 C   0  0  0  0  0  0  0  0  0  0  0  0
   -2.8597   -0.5839    0.9765 H   0  0  0  0  0  0  0  0  0  0  0  0
   -4.0087    2.0242    0.5424 H   0  0  0  0  0  0  0  0  0  0  0  0
   -4.9066   -0.2386   -1.3295 H   0  0  0  0  0  0  0  0  0  0  0  0
   -5.6914    1.3489   -1.1772 H   0  0  0  0  0  0  0  0  0  0  0  0
   -4.0461    1.2339   -1.8296 H   0  0  0  0  0  0  0  0  0  0  0  0
   -6.2806    1.1294    1.7237 N   0  0  0  0  0  0  0  0  0  0  0  0
   -7.2313    0.6762    2.7320 C   0  0  0  0  0  0  0  0  0  0  0  0
   -6.4185    2.0369    1.2881 H   0  0  0  0  0  0  0  0  0  0  0  0
   -7.6727   -0.2824    2.4396 H   0  0  0  0  0  0  0  0  0  0  0  0
   -6.7341    0.5542    3.7002 H   0  0  0  0  0  0  0  0  0  0  0  0
   -8.0379    1.4065    2.8475 H   0  0  0  0  0  0  0  0  0  0  0  0
  1  2  2  0  0  0  0
  1  3  1  0  0  0  0
  1  7  1  0  0  0  0
  3  4  1  0  0  0  0
  3  5  1  0  0  0  0
  3  6  1  0  0  0  0
  7  8  1  0  0  0  0
  7 12  1  0  0  0  0
  8  9  1  0  0  0  0
  8 11  1  0  0  0  0
  8 13  1  0  0  0  0
  9 10  2  0  0  0  0
  9 17  1  0  0  0  0
 11 14  1  0  0  0  0
 11 15  1  0  0  0  0
 11 16  1  0  0  0  0
 17 18  1  0  0  0  0
 17 25  1  0  0  0  0
 18 19  1  0  0  0  0
 18 21  1  0  0  0  0
 18 26  1  0  0  0  0
 19 20  2  0  0  0  0
 19 36  1  0  0  0  0
 21 22  1  0  0  0  0
 21 23  1  0  0  0  0
 21 27  1  0  0  0  0
 22 24  1  0  0  0  0
 22 28  1  0  0  0  0
 22 29  1  0  0  0  0
 23 30  1  0  0  0  0
 23 31  1  0  0  0  0
 23 32  1  0  0  0  0
 24 33  1  0  0  0  0
 24 34  1  0  0  0  0
 24 35  1  0  0  0  0
 36 37  1  0  0  0  0
 36 41  1  0  0  0  0
 37 38  1  0  0  0  0
 37 40  1  0  0  0  0
 37 42  1  0  0  0  0
 38 39  2  0  0  0  0
 38 46  1  0  0  0  0
 40 43  1  0  0  0  0
 40 44  1  0  0  0  0
 40 45  1  0  0  0  0
 46 47  1  0  0  0  0
 46 48  1  0  0  0  0
 47 49  1  0  0  0  0
 47 50  1  0  0  0  0
 47 51  1  0  0  0  0
M  END
$$$$

  -OEChem-05262216503D

 51 50  0     1  0  0  0  0  0999 V2000
    1.7386   -4.8494    0.0260 C   0  0  0  0  0  0  0  0  0  0  0  0
    1.4943   -4.4392   -1.0983 O   0  0  0  0  0  0  0  0  0  0  0  0
    3.1202   -5.3803    0.3589 C   0  0  0  0  0  0  0  0  0  0  0  0
    3.7590   -5.3523   -0.5283 H   0  0  0  0  0  0  0  0  0  0  0  0
    3.5769   -4.7674    1.1400 H   0  0  0  0  0  0  0  0  0  0  0  0
    3.0489   -6.4127    0.7096 H   0  0  0  0  0  0  0  0  0  0  0  0
    0.7732   -4.7852    1.0101 N   0  0  0  0  0  0  0  0  0  0  0  0
   -0.4509   -3.9904    0.8441 C   0  0  2  0  0  0  0  0  0  0  0  0
   -0.2062   -2.5066    1.1867 C   0  0  0  0  0  0  0  0  0  0  0  0
    0.4918   -2.2049    2.1481 O   0  0  0  0  0  0  0  0  0  0  0  0
   -1.5336   -4.5821    1.7486 C   0  0  0  0  0  0  0  0  0  0  0  0
    1.1105   -4.9138    1.9606 H   0  0  0  0  0  0  0  0  0  0  0  0
   -0.8002   -4.0531   -0.1920 H   0  0  0  0  0  0  0  0  0  0  0  0
   -1.2305   -4.5266    2.7992 H   0  0  0  0  0  0  0  0  0  0  0  0
   -2.4720   -4.0317    1.6291 H   0  0  0  0  0  0  0  0  0  0  0  0
   -1.7120   -5.6305    1.4908 H   0  0  0  0  0  0  0  0  0  0  0  0
   -0.7991   -1.5039    0.4419 N   0  0  0  0  0  0  0  0  0  0  0  0
   -0.3550   -0.0926    0.4492 C   0  0  2  0  0  0  0  0  0  0  0  0
   -1.6554    0.7188    0.1761 C   0  0  0  0  0  0  0  0  0  0  0  0
   -1.8008    1.4886   -0.7642 O   0  0  0  0  0  0  0  0  0  0  0  0
    0.7914    0.1670   -0.5933 C   0  0  2  0  0  0  0  0  0  0  0  0
    2.0706   -0.6526   -0.2683 C   0  0  0  0  0  0  0  0  0  0  0  0
    1.2341    1.6539   -0.5853 C   0  0  0  0  0  0  0  0  0  0  0  0
    3.1130   -0.6384   -1.3920 C   0  0  0  0  0  0  0  0  0  0  0  0
   -1.2915   -1.8172   -0.3913 H   0  0  0  0  0  0  0  0  0  0  0  0
    0.0067    0.1908    1.4431 H   0  0  0  0  0  0  0  0  0  0  0  0
    0.4256   -0.0998   -1.5908 H   0  0  0  0  0  0  0  0  0  0  0  0
    2.5208   -0.3036    0.6669 H   0  0  0  0  0  0  0  0  0  0  0  0
    1.8094   -1.7016   -0.1348 H   0  0  0  0  0  0  0  0  0  0  0  0
    1.6379    1.9251    0.3952 H   0  0  0  0  0  0  0  0  0  0  0  0
    2.0029    1.8364   -1.3395 H   0  0  0  0  0  0  0  0  0  0  0  0
    0.4196    2.3406   -0.8135 H   0  0  0  0  0  0  0  0  0  0  0  0
    2.6473   -0.8947   -2.3487 H   0  0  0  0  0  0  0  0  0  0  0  0
    3.8925   -1.3766   -1.1801 H   0  0  0  0  0  0  0  0  0  0  0  0
    3.5928    0.3396   -1.4813 H   0  0  0  0  0  0  0  0  0  0  0  0
   -2.8010    0.3703    0.8694 N   0  0  0  0  0  0  0  0  0  0  0  0
   -4.1140    1.0117    0.7258 C   0  0  2  0  0  0  0  0  0  0  0  0
   -4.9202    0.9359    2.0388 C   0  0  0  0  0  0  0  0  0  0  0  0
   -4.5913    0.1480    2.9193 O   0  0  0  0  0  0  0  0  0  0  0  0
   -4.8782    0.3216   -0.4086 C   0  0  0  0  0  0  0  0  0  0  0  0
   -2.6798   -0.2576    1.6650 H   0  0  0  0  0  0  0  0  0  0  0  0
   -3.9808    2.0708    0.4808 H   0  0  0  0  0  0  0  0  0  0  0  0
   -5.0263   -0.7386   -0.1800 H   0  0  0  0  0  0  0  0  0  0  0  0
   -5.8575    0.7879   -0.5513 H   0  0  0  0  0  0  0  0  0  0  0  0
   -4.3201    0.4017   -1.3467 H   0  0  0  0  0  0  0  0  0  0  0  0
   -6.0148    1.7566    2.2384 N   0  0  0  0  0  0  0  0  0  0  0  0
   -6.7957    1.7604    3.4694 C   0  0  0  0  0  0  0  0  0  0  0  0
   -6.2468    2.4205    1.5052 H   0  0  0  0  0  0  0  0  0  0  0  0
   -7.2078    0.7648    3.6654 H   0  0  0  0  0  0  0  0  0  0  0  0
   -6.1701    2.0562    4.3182 H   0  0  0  0  0  0  0  0  0  0  0  0
   -7.6265    2.4679    3.3881 H   0  0  0  0  0  0  0  0  0  0  0  0
  1  2  2  0  0  0  0
  1  3  1  0  0  0  0
  1  7  1  0  0  0  0
  3  4  1  0  0  0  0
  3  5  1  0  0  0  0
  3  6  1  0  0  0  0
  7  8  1  0  0  0  0
  7 12  1  0  0  0  0
  8  9  1  0  0  0  0
  8 11  1  0  0  0  0
  8 13  1  0  0  0  0
  9 10  2  0  0  0  0
  9 17  1  0  0  0  0
 11 14  1  0  0  0  0
 11 15  1  0  0  0  0
 11 16  1  0  0  0  0
 17 18  1  0  0  0  0
 17 25  1  0  0  0  0
 18 19  1  0  0  0  0
 18 21  1  0  0  0  0
 18 26  1  0  0  0  0
 19 20  2  0  0  0  0
 19 36  1  0  0  0  0
 21 22  1  0  0  0  0
 21 23  1  0  0  0  0
 21 27  1  0  0  0  0
 22 24  1  0  0  0  0
 22 28  1  0  0  0  0
 22 29  1  0  0  0  0
 23 30  1  0  0  0  0
 23 31  1  0  0  0  0
 23 32  1  0  0  0  0
 24 33  1  0  0  0  0
 24 34  1  0  0  0  0
 24 35  1  0  0  0  0
 36 37  1  0  0  0  0
 36 41  1  0  0  0  0
 37 38  1  0  0  0  0
 37 40  1  0  0  0  0
 37 42  1  0  0  0  0
 38 39  2  0  0  0  0
 38 46  1  0  0  0  0
 40 43  1  0  0  0  0
 40 44  1  0  0  0  0
 40 45  1  0  0  0  0
 46 47  1  0  0  0  0
 46 48  1  0  0  0  0
 47 49  1  0  0  0  0
 47 50  1  0  0  0  0
 47 51  1  0  0  0  0
M  END
$$$$

  -OEChem-05262216503D

 51 50  0     1  0  0  0  0  0999 V2000
    1.4865   -5.5252    0.2172 C   0  0  0  0  0  0  0  0  0  0  0  0
    1.0909   -5.6303   -0.9329 O   0  0  0  0  0  0  0  0  0  0  0  0
    2.7786   -6.1993    0.6384 C   0  0  0  0  0  0  0  0  0  0  0  0
    3.2036   -6.7578   -0.2004 H   0  0  0  0  0  0  0  0  0  0  0  0
    3.5025   -5.4484    0.9646 H   0  0  0  0  0  0  0  0  0  0  0  0
    2.5864   -6.8921    1.4612 H   0  0  0  0  0  0  0  0  0  0  0  0
    0.7736   -4.7843    1.1369 N   0  0  0  0  0  0  0  0  0  0  0  0
   -0.3358   -3.8880    0.7822 C   0  0  2  0  0  0  0  0  0  0  0  0
    0.0192   -2.4147    1.0658 C   0  0  0  0  0  0  0  0  0  0  0  0
    0.8291   -2.1346    1.9428 O   0  0  0  0  0  0  0  0  0  0  0  0
   -1.5601   -4.3108    1.5975 C   0  0  0  0  0  0  0  0  0  0  0  0
    1.2583   -4.5743    2.0077 H   0  0  0  0  0  0  0  0  0  0  0  0
   -0.5789   -3.9720   -0.2821 H   0  0  0  0  0  0  0  0  0  0  0  0
   -1.3568   -4.2233    2.6698 H   0  0  0  0  0  0  0  0  0  0  0  0
   -2.4201   -3.6793    1.3539 H   0  0  0  0  0  0  0  0  0  0  0  0
   -1.8209   -5.3504    1.3753 H   0  0  0  0  0  0  0  0  0  0  0  0
   -0.6335   -1.3969    0.3958 N   0  0  0  0  0  0  0  0  0  0  0  0
   -0.2511    0.0282    0.4399 C   0  0  2  0  0  0  0  0  0  0  0  0
   -1.5891    0.7906    0.2547 C   0  0  0  0  0  0  0  0  0  0  0  0
   -1.8990    1.3492   -0.7908 O   0  0  0  0  0  0  0  0  0  0  0  0
    0.8207    0.4065   -0.6379 C   0  0  2  0  0  0  0  0  0  0  0  0
    2.1582   -0.3484   -0.4255 C   0  0  0  0  0  0  0  0  0  0  0  0
    1.1406    1.9211   -0.5825 C   0  0  0  0  0  0  0  0  0  0  0  0
    3.1297   -0.2063   -1.6025 C   0  0  0  0  0  0  0  0  0  0  0  0
   -1.2512   -1.6836   -0.3602 H   0  0  0  0  0  0  0  0  0  0  0  0
    0.1458    0.2850    1.4281 H   0  0  0  0  0  0  0  0  0  0  0  0
    0.4196    0.1589   -1.6270 H   0  0  0  0  0  0  0  0  0  0  0  0
    2.6392   -0.0171    0.5007 H   0  0  0  0  0  0  0  0  0  0  0  0
    1.9632   -1.4170   -0.3307 H   0  0  0  0  0  0  0  0  0  0  0  0
    1.5849    2.1824    0.3831 H   0  0  0  0  0  0  0  0  0  0  0  0
    1.8400    2.2018   -1.3737 H   0  0  0  0  0  0  0  0  0  0  0  0
    0.2511    2.5380   -0.7235 H   0  0  0  0  0  0  0  0  0  0  0  0
    2.6324   -0.4597   -2.5439 H   0  0  0  0  0  0  0  0  0  0  0  0
    3.9768   -0.8856   -1.4666 H   0  0  0  0  0  0  0  0  0  0  0  0
    3.5234    0.8113   -1.6726 H   0  0  0  0  0  0  0  0  0  0  0  0
   -2.5910    0.5902    1.1857 N   0  0  0  0  0  0  0  0  0  0  0  0
   -3.9383    1.1702    1.1212 C   0  0  2  0  0  0  0  0  0  0  0  0
   -4.5406    1.3538    2.5294 C   0  0  0  0  0  0  0  0  0  0  0  0
   -4.0555    0.7617    3.4874 O   0  0  0  0  0  0  0  0  0  0  0  0
   -4.8280    0.2499    0.2789 C   0  0  0  0  0  0  0  0  0  0  0  0
   -2.3332    0.1158    2.0518 H   0  0  0  0  0  0  0  0  0  0  0  0
   -3.8892    2.1584    0.6516 H   0  0  0  0  0  0  0  0  0  0  0  0
   -4.8908   -0.7434    0.7351 H   0  0  0  0  0  0  0  0  0  0  0  0
   -5.8384    0.6616    0.1986 H   0  0  0  0  0  0  0  0  0  0  0  0
   -4.4193    0.1448   -0.7310 H   0  0  0  0  0  0  0  0  0  0  0  0
   -5.6291    2.1838    2.7249 N   0  0  0  0  0  0  0  0  0  0  0  0
   -6.2434    2.4033    4.0288 C   0  0  0  0  0  0  0  0  0  0  0  0
   -6.0050    2.6685    1.9150 H   0  0  0  0  0  0  0  0  0  0  0  0
   -6.6457    1.4652    4.4256 H   0  0  0  0  0  0  0  0  0  0  0  0
   -5.5085    2.7991    4.7379 H   0  0  0  0  0  0  0  0  0  0  0  0
   -7.0634    3.1231    3.9447 H   0  0  0  0  0  0  0  0  0  0  0  0
  1  2  2  0  0  0  0
  1  3  1  0  0  0  0
  1  7  1  0  0  0  0
  3  4  1  0  0  0  0
  3  5  1  0  0  0  0
  3  6  1  0  0  0  0
  7  8  1  0  0  0  0
  7 12  1  0  0  0  0
  8  9  1  0  0  0  0
  8 11  1  0  0  0  0
  8 13  1  0  0  0  0
  9 10  2  0  0  0  0
  9 17  1  0  0  0  0
 11 14  1  0  0  0  0
 11 15  1  0  0  0  0
 11 16  1  0  0  0  0
 17 18  1  0  0  0  0
 17 25  1  0  0  0  0
 18 19  1  0  0  0  0
 18 21  1  0  0  0  0
 18 26  1  0  0  0  0
 19 20  2  0  0  0  0
 19 36  1  0  0  0  0
 21 22  1  0  0  0  0
 21 23  1  0  0  0  0
 21 27  1  0  0  0  0
 22 24  1  0  0  0  0
 22 28  1  0  0  0  0
 22 29  1  0  0  0  0
 23 30  1  0  0  0  0
 23 31  1  0  0  0  0
 23 32  1  0  0  0  0
 24 33  1  0  0  0  0
 24 34  1  0  0  0  0
 24 35  1  0  0  0  0
 36 37  1  0  0  0  0
 36 41  1  0  0  0  0
 37 38  1  0  0  0  0
 37 40  1  0  0  0  0
 37 42  1  0  0  0  0
 38 39  2  0  0  0  0
 38 46  1  0  0  0  0
 40 43  1  0  0  0  0
 40 44  1  0  0  0  0
 40 45  1  0  0  0  0
 46 47  1  0  0  0  0
 46 48  1  0  0  0  0
 47 49  1  0  0  0  0
 47 50  1  0  0  0  0
 47 51  1  0  0  0  0
M  END
$$$$

  -OEChem-05262216503D

 51 50  0     1  0  0  0  0  0999 V2000
    1.4884   -5.6747    0.2155 C   0  0  0  0  0  0  0  0  0  0  0  0
    1.0317   -5.8714   -0.8994 O   0  0  0  0  0  0  0  0  0  0  0  0
    2.7758   -6.3572    0.6378 C   0  0  0  0  0  0  0  0  0  0  0  0
    3.1662   -6.9662   -0.1824 H   0  0  0  0  0  0  0  0  0  0  0  0
    3.5242   -5.6079    0.9068 H   0  0  0  0  0  0  0  0  0  0  0  0
    2.5905   -7.0034    1.4992 H   0  0  0  0  0  0  0  0  0  0  0  0
    0.8470   -4.8241    1.0918 N   0  0  0  0  0  0  0  0  0  0  0  0
   -0.2590   -3.9332    0.7131 C   0  0  2  0  0  0  0  0  0  0  0  0
    0.0567   -2.4637    1.0566 C   0  0  0  0  0  0  0  0  0  0  0  0
    0.8753   -2.1968    1.9297 O   0  0  0  0  0  0  0  0  0  0  0  0
   -1.5155   -4.3999    1.4514 C   0  0  0  0  0  0  0  0  0  0  0  0
    1.3666   -4.5656    1.9293 H   0  0  0  0  0  0  0  0  0  0  0  0
   -0.4426   -3.9840   -0.3652 H   0  0  0  0  0  0  0  0  0  0  0  0
   -1.3684   -4.3412    2.5348 H   0  0  0  0  0  0  0  0  0  0  0  0
   -2.3733   -3.7759    1.1824 H   0  0  0  0  0  0  0  0  0  0  0  0
   -1.7456   -5.4366    1.1859 H   0  0  0  0  0  0  0  0  0  0  0  0
   -0.6183   -1.4377    0.4226 N   0  0  0  0  0  0  0  0  0  0  0  0
   -0.2587   -0.0100    0.5022 C   0  0  2  0  0  0  0  0  0  0  0  0
   -1.5961    0.7544    0.3536 C   0  0  0  0  0  0  0  0  0  0  0  0
   -2.0074    1.1362   -0.7362 O   0  0  0  0  0  0  0  0  0  0  0  0
    0.7884    0.4116   -0.5820 C   0  0  2  0  0  0  0  0  0  0  0  0
    2.1428   -0.3241   -0.4165 C   0  0  0  0  0  0  0  0  0  0  0  0
    1.0580    1.9324   -0.5093 C   0  0  0  0  0  0  0  0  0  0  0  0
    3.0877   -0.1330   -1.6082 C   0  0  0  0  0  0  0  0  0  0  0  0
   -1.2488   -1.7101   -0.3284 H   0  0  0  0  0  0  0  0  0  0  0  0
    0.1527    0.2233    1.4899 H   0  0  0  0  0  0  0  0  0  0  0  0
    0.3763    0.1717   -1.5684 H   0  0  0  0  0  0  0  0  0  0  0  0
    2.6360   -0.0040    0.5075 H   0  0  0  0  0  0  0  0  0  0  0  0
    1.9703   -1.3986   -0.3427 H   0  0  0  0  0  0  0  0  0  0  0  0
    1.4982    2.1967    0.4572 H   0  0  0  0  0  0  0  0  0  0  0  0
    1.7432    2.2457   -1.3006 H   0  0  0  0  0  0  0  0  0  0  0  0
    0.1423    2.5139   -0.6394 H   0  0  0  0  0  0  0  0  0  0  0  0
    2.5776   -0.3758   -2.5454 H   0  0  0  0  0  0  0  0  0  0  0  0
    3.9523   -0.7956   -1.5041 H   0  0  0  0  0  0  0  0  0  0  0  0
    3.4572    0.8945   -1.6625 H   0  0  0  0  0  0  0  0  0  0  0  0
   -2.4702    0.7863    1.4234 N   0  0  0  0  0  0  0  0  0  0  0  0
   -3.7844    1.4420    1.4166 C   0  0  2  0  0  0  0  0  0  0  0  0
   -4.1493    1.9967    2.8091 C   0  0  0  0  0  0  0  0  0  0  0  0
   -3.5410    1.6144    3.8025 O   0  0  0  0  0  0  0  0  0  0  0  0
   -4.8320    0.4243    0.9548 C   0  0  0  0  0  0  0  0  0  0  0  0
   -2.1138    0.4780    2.3286 H   0  0  0  0  0  0  0  0  0  0  0  0
   -3.7707    2.2876    0.7209 H   0  0  0  0  0  0  0  0  0  0  0  0
   -4.8696   -0.4254    1.6443 H   0  0  0  0  0  0  0  0  0  0  0  0
   -5.8240    0.8844    0.9138 H   0  0  0  0  0  0  0  0  0  0  0  0
   -4.5840    0.0525   -0.0445 H   0  0  0  0  0  0  0  0  0  0  0  0
   -5.1567    2.9335    2.9489 N   0  0  0  0  0  0  0  0  0  0  0  0
   -5.5480    3.5037    4.2326 C   0  0  0  0  0  0  0  0  0  0  0  0
   -5.6372    3.2387    2.1077 H   0  0  0  0  0  0  0  0  0  0  0  0
   -5.9622    2.7278    4.8850 H   0  0  0  0  0  0  0  0  0  0  0  0
   -4.6855    3.9592    4.7307 H   0  0  0  0  0  0  0  0  0  0  0  0
   -6.3085    4.2772    4.0876 H   0  0  0  0  0  0  0  0  0  0  0  0
  1  2  2  0  0  0  0
  1  3  1  0  0  0  0
  1  7  1  0  0  0  0
  3  4  1  0  0  0  0
  3  5  1  0  0  0  0
  3  6  1  0  0  0  0
  7  8  1  0  0  0  0
  7 12  1  0  0  0  0
  8  9  1  0  0  0  0
  8 11  1  0  0  0  0
  8 13  1  0  0  0  0
  9 10  2  0  0  0  0
  9 17  1  0  0  0  0
 11 14  1  0  0  0  0
 11 15  1  0  0  0  0
 11 16  1  0  0  0  0
 17 18  1  0  0  0  0
 17 25  1  0  0  0  0
 18 19  1  0  0  0  0
 18 21  1  0  0  0  0
 18 26  1  0  0  0  0
 19 20  2  0  0  0  0
 19 36  1  0  0  0  0
 21 22  1  0  0  0  0
 21 23  1  0  0  0  0
 21 27  1  0  0  0  0
 22 24  1  0  0  0  0
 22 28  1  0  0  0  0
 22 29  1  0  0  0  0
 23 30  1  0  0  0  0
 23 31  1  0  0  0  0
 23 32  1  0  0  0  0
 24 33  1  0  0  0  0
 24 34  1  0  0  0  0
 24 35  1  0  0  0  0
 36 37  1  0  0  0  0
 36 41  1  0  0  0  0
 37 38  1  0  0  0  0
 37 40  1  0  0  0  0
 37 42  1  0  0  0  0
 38 39  2  0  0  0  0
 38 46  1  0  0  0  0
 40 43  1  0  0  0  0
 40 44  1  0  0  0  0
 40 45  1  0  0  0  0
 46 47  1  0  0  0  0
 46 48  1  0  0  0  0
 47 49  1  0  0  0  0
 47 50  1  0  0  0  0
 47 51  1  0  0  0  0
M  END
$$$$

  -OEChem-05262216503D

 51 50  0     1  0  0  0  0  0999 V2000
    1.4209   -5.8460    0.2736 C   0  0  0  0  0  0  0  0  0  0  0  0
    0.8516   -6.1619   -0.7591 O   0  0  0  0  0  0  0  0  0  0  0  0
    2.6903   -6.5628    0.6931 C   0  0  0  0  0  0  0  0  0  0  0  0
    2.9884   -7.2829   -0.0742 H   0  0  0  0  0  0  0  0  0  0  0  0
    3.4990   -5.8410    0.8310 H   0  0  0  0  0  0  0  0  0  0  0  0
    2.5233   -7.0963    1.6319 H   0  0  0  0  0  0  0  0  0  0  0  0
    0.9186   -4.8300    1.0587 N   0  0  0  0  0  0  0  0  0  0  0  0
   -0.1816   -3.9430    0.6591 C   0  0  2  0  0  0  0  0  0  0  0  0
    0.1016   -2.4804    1.0570 C   0  0  0  0  0  0  0  0  0  0  0  0
    0.9382   -2.2259    1.9171 O   0  0  0  0  0  0  0  0  0  0  0  0
   -1.4669   -4.4440    1.3222 C   0  0  0  0  0  0  0  0  0  0  0  0
    1.5028   -4.5105    1.8306 H   0  0  0  0  0  0  0  0  0  0  0  0
   -0.3064   -3.9647   -0.4289 H   0  0  0  0  0  0  0  0  0  0  0  0
   -1.3710   -4.4186    2.4124 H   0  0  0  0  0  0  0  0  0  0  0  0
   -2.3174   -3.8195    1.0324 H   0  0  0  0  0  0  0  0  0  0  0  0
   -1.6736   -5.4738    1.0140 H   0  0  0  0  0  0  0  0  0  0  0  0
   -0.5917   -1.4464    0.4566 N   0  0  0  0  0  0  0  0  0  0  0  0
   -0.2440   -0.0186    0.5624 C   0  0  2  0  0  0  0  0  0  0  0  0
   -1.5773    0.7550    0.4527 C   0  0  0  0  0  0  0  0  0  0  0  0
   -2.1014    0.9580   -0.6369 O   0  0  0  0  0  0  0  0  0  0  0  0
    0.7680    0.4348   -0.5391 C   0  0  2  0  0  0  0  0  0  0  0  0
    2.1313   -0.2917   -0.4271 C   0  0  0  0  0  0  0  0  0  0  0  0
    1.0077    1.9589   -0.4529 C   0  0  0  0  0  0  0  0  0  0  0  0
    3.0399   -0.0658   -1.6401 C   0  0  0  0  0  0  0  0  0  0  0  0
   -1.2369   -1.7047   -0.2872 H   0  0  0  0  0  0  0  0  0  0  0  0
    0.1916    0.1930    1.5451 H   0  0  0  0  0  0  0  0  0  0  0  0
    0.3324    0.2038   -1.5177 H   0  0  0  0  0  0  0  0  0  0  0  0
    2.6469    0.0145    0.4890 H   0  0  0  0  0  0  0  0  0  0  0  0
    1.9694   -1.3687   -0.3705 H   0  0  0  0  0  0  0  0  0  0  0  0
    1.4468    2.2239    0.5142 H   0  0  0  0  0  0  0  0  0  0  0  0
    1.6824    2.2943   -1.2442 H   0  0  0  0  0  0  0  0  0  0  0  0
    0.0766    2.5191   -0.5751 H   0  0  0  0  0  0  0  0  0  0  0  0
    2.5072   -0.2984   -2.5675 H   0  0  0  0  0  0  0  0  0  0  0  0
    3.9157   -0.7183   -1.5720 H   0  0  0  0  0  0  0  0  0  0  0  0
    3.3940    0.9675   -1.6853 H   0  0  0  0  0  0  0  0  0  0  0  0
   -2.2992    1.0445    1.5939 N   0  0  0  0  0  0  0  0  0  0  0  0
   -3.5643    1.7895    1.6142 C   0  0  2  0  0  0  0  0  0  0  0  0
   -3.6981    2.6430    2.8922 C   0  0  0  0  0  0  0  0  0  0  0  0
   -2.9513    2.4473    3.8448 O   0  0  0  0  0  0  0  0  0  0  0  0
   -4.7165    0.7856    1.5136 C   0  0  0  0  0  0  0  0  0  0  0  0
   -1.8345    0.9041    2.4913 H   0  0  0  0  0  0  0  0  0  0  0  0
   -3.6053    2.4732    0.7595 H   0  0  0  0  0  0  0  0  0  0  0  0
   -4.6985    0.0973    2.3648 H   0  0  0  0  0  0  0  0  0  0  0  0
   -5.6798    1.3042    1.5036 H   0  0  0  0  0  0  0  0  0  0  0  0
   -4.6307    0.2025    0.5912 H   0  0  0  0  0  0  0  0  0  0  0  0
   -4.6530    3.6398    2.9728 N   0  0  0  0  0  0  0  0  0  0  0  0
   -4.8381    4.4767    4.1521 C   0  0  0  0  0  0  0  0  0  0  0  0
   -5.2546    3.7839    2.1670 H   0  0  0  0  0  0  0  0  0  0  0  0
   -5.1444    3.8671    5.0087 H   0  0  0  0  0  0  0  0  0  0  0  0
   -3.9078    4.9970    4.4042 H   0  0  0  0  0  0  0  0  0  0  0  0
   -5.6126    5.2272    3.9664 H   0  0  0  0  0  0  0  0  0  0  0  0
  1  2  2  0  0  0  0
  1  3  1  0  0  0  0
  1  7  1  0  0  0  0
  3  4  1  0  0  0  0
  3  5  1  0  0  0  0
  3  6  1  0  0  0  0
  7  8  1  0  0  0  0
  7 12  1  0  0  0  0
  8  9  1  0  0  0  0
  8 11  1  0  0  0  0
  8 13  1  0  0  0  0
  9 10  2  0  0  0  0
  9 17  1  0  0  0  0
 11 14  1  0  0  0  0
 11 15  1  0  0  0  0
 11 16  1  0  0  0  0
 17 18  1  0  0  0  0
 17 25  1  0  0  0  0
 18 19  1  0  0  0  0
 18 21  1  0  0  0  0
 18 26  1  0  0  0  0
 19 20  2  0  0  0  0
 19 36  1  0  0  0  0
 21 22  1  0  0  0  0
 21 23  1  0  0  0  0
 21 27  1  0  0  0  0
 22 24  1  0  0  0  0
 22 28  1  0  0  0  0
 22 29  1  0  0  0  0
 23 30  1  0  0  0  0
 23 31  1  0  0  0  0
 23 32  1  0  0  0  0
 24 33  1  0  0  0  0
 24 34  1  0  0  0  0
 24 35  1  0  0  0  0
 36 37  1  0  0  0  0
 36 41  1  0  0  0  0
 37 38  1  0  0  0  0
 37 40  1  0  0  0  0
 37 42  1  0  0  0  0
 38 39  2  0  0  0  0
 38 46  1  0  0  0  0
 40 43  1  0  0  0  0
 40 44  1  0  0  0  0
 40 45  1  0  0  0  0
 46 47  1  0  0  0  0
 46 48  1  0  0  0  0
 47 49  1  0  0  0  0
 47 50  1  0  0  0  0
 47 51  1  0  0  0  0
M  END
$$$$

  -OEChem-05262216503D

 51 50  0     1  0  0  0  0  0999 V2000
    1.3098   -5.9656    0.3182 C   0  0  0  0  0  0  0  0  0  0  0  0
    0.6747   -6.3139   -0.6646 O   0  0  0  0  0  0  0  0  0  0  0  0
    2.5433   -6.7411    0.7413 C   0  0  0  0  0  0  0  0  0  0  0  0
    2.7610   -7.5284    0.0142 H   0  0  0  0  0  0  0  0  0  0  0  0
    3.4041   -6.0705    0.8015 H   0  0  0  0  0  0  0  0  0  0  0  0
    2.3780   -7.2002    1.7190 H   0  0  0  0  0  0  0  0  0  0  0  0
    0.9139   -4.8596    1.0397 N   0  0  0  0  0  0  0  0  0  0  0  0
   -0.1561   -3.9419    0.6276 C   0  0  2  0  0  0  0  0  0  0  0  0
    0.1599   -2.4868    1.0306 C   0  0  0  0  0  0  0  0  0  0  0  0
    1.0304   -2.2512    1.8625 O   0  0  0  0  0  0  0  0  0  0  0  0
   -1.4663   -4.4079    1.2684 C   0  0  0  0  0  0  0  0  0  0  0  0
    1.5412   -4.5304    1.7729 H   0  0  0  0  0  0  0  0  0  0  0  0
   -0.2616   -3.9607   -0.4627 H   0  0  0  0  0  0  0  0  0  0  0  0
   -1.3860   -4.3913    2.3599 H   0  0  0  0  0  0  0  0  0  0  0  0
   -2.2935   -3.7572    0.9698 H   0  0  0  0  0  0  0  0  0  0  0  0
   -1.6996   -5.4293    0.9510 H   0  0  0  0  0  0  0  0  0  0  0  0
   -0.5434   -1.4380    0.4687 N   0  0  0  0  0  0  0  0  0  0  0  0
   -0.2035   -0.0112    0.6046 C   0  0  2  0  0  0  0  0  0  0  0  0
   -1.5361    0.7656    0.5339 C   0  0  0  0  0  0  0  0  0  0  0  0
   -2.1849    0.7901   -0.5063 O   0  0  0  0  0  0  0  0  0  0  0  0
    0.7791    0.4808   -0.5056 C   0  0  2  0  0  0  0  0  0  0  0  0
    2.1498   -0.2377   -0.4418 C   0  0  0  0  0  0  0  0  0  0  0  0
    1.0010    2.0052   -0.3915 C   0  0  0  0  0  0  0  0  0  0  0  0
    3.0326    0.0265   -1.6662 C   0  0  0  0  0  0  0  0  0  0  0  0
   -1.2357   -1.6761   -0.2392 H   0  0  0  0  0  0  0  0  0  0  0  0
    0.2506    0.1749    1.5835 H   0  0  0  0  0  0  0  0  0  0  0  0
    0.3240    0.2690   -1.4796 H   0  0  0  0  0  0  0  0  0  0  0  0
    2.6817    0.0493    0.4712 H   0  0  0  0  0  0  0  0  0  0  0  0
    1.9969   -1.3171   -0.4087 H   0  0  0  0  0  0  0  0  0  0  0  0
    1.4488    2.2556    0.5754 H   0  0  0  0  0  0  0  0  0  0  0  0
    1.6617    2.3662   -1.1834 H   0  0  0  0  0  0  0  0  0  0  0  0
    0.0603    2.5541   -0.4915 H   0  0  0  0  0  0  0  0  0  0  0  0
    2.4850   -0.1883   -2.5889 H   0  0  0  0  0  0  0  0  0  0  0  0
    3.9156   -0.6187   -1.6303 H   0  0  0  0  0  0  0  0  0  0  0  0
    3.3760    1.0639   -1.6924 H   0  0  0  0  0  0  0  0  0  0  0  0
   -2.0920    1.3009    1.6792 N   0  0  0  0  0  0  0  0  0  0  0  0
   -3.3238    2.0997    1.7115 C   0  0  2  0  0  0  0  0  0  0  0  0
   -3.2408    3.2268    2.7618 C   0  0  0  0  0  0  0  0  0  0  0  0
   -2.3561    3.2117    3.6106 O   0  0  0  0  0  0  0  0  0  0  0  0
   -4.4946    1.1615    2.0182 C   0  0  0  0  0  0  0  0  0  0  0  0
   -1.5077    1.3280    2.5151 H   0  0  0  0  0  0  0  0  0  0  0  0
   -3.4851    2.5741    0.7376 H   0  0  0  0  0  0  0  0  0  0  0  0
   -4.3543    0.6811    2.9921 H   0  0  0  0  0  0  0  0  0  0  0  0
   -5.4380    1.7154    2.0348 H   0  0  0  0  0  0  0  0  0  0  0  0
   -4.5660    0.3827    1.2523 H   0  0  0  0  0  0  0  0  0  0  0  0
   -4.1543    4.2649    2.7518 N   0  0  0  0  0  0  0  0  0  0  0  0
   -4.1330    5.3585    3.7160 C   0  0  0  0  0  0  0  0  0  0  0  0
   -4.8728    4.2552    2.0337 H   0  0  0  0  0  0  0  0  0  0  0  0
   -4.3194    4.9804    4.7266 H   0  0  0  0  0  0  0  0  0  0  0  0
   -3.1617    5.8645    3.7020 H   0  0  0  0  0  0  0  0  0  0  0  0
   -4.9068    6.0930    3.4727 H   0  0  0  0  0  0  0  0  0  0  0  0
  1  2  2  0  0  0  0
  1  3  1  0  0  0  0
  1  7  1  0  0  0  0
  3  4  1  0  0  0  0
  3  5  1  0  0  0  0
  3  6  1  0  0  0  0
  7  8  1  0  0  0  0
  7 12  1  0  0  0  0
  8  9  1  0  0  0  0
  8 11  1  0  0  0  0
  8 13  1  0  0  0  0
  9 10  2  0  0  0  0
  9 17  1  0  0  0  0
 11 14  1  0  0  0  0
 11 15  1  0  0  0  0
 11 16  1  0  0  0  0
 17 18  1  0  0  0  0
 17 25  1  0  0  0  0
 18 19  1  0  0  0  0
 18 21  1  0  0  0  0
 18 26  1  0  0  0  0
 19 20  2  0  0  0  0
 19 36  1  0  0  0  0
 21 22  1  0  0  0  0
 21 23  1  0  0  0  0
 21 27  1  0  0  0  0
 22 24  1  0  0  0  0
 22 28  1  0  0  0  0
 22 29  1  0  0  0  0
 23 30  1  0  0  0  0
 23 31  1  0  0  0  0
 23 32  1  0  0  0  0
 24 33  1  0  0  0  0
 24 34  1  0  0  0  0
 24 35  1  0  0  0  0
 36 37  1  0  0  0  0
 36 41  1  0  0  0  0
 37 38  1  0  0  0  0
 37 40  1  0  0  0  0
 37 42  1  0  0  0  0
 38 39  2  0  0  0  0
 38 46  1  0  0  0  0
 40 43  1  0  0  0  0
 40 44  1  0  0  0  0
 40 45  1  0  0  0  0
 46 47  1  0  0  0  0
 46 48  1  0  0  0  0
 47 49  1  0  0  0  0
 47 50  1  0  0  0  0
 47 51  1  0  0  0  0
M  END
$$$$

  -OEChem-05262216503D

 51 50  0     1  0  0  0  0  0999 V2000
    1.2481   -5.9569    0.3473 C   0  0  0  0  0  0  0  0  0  0  0  0
    0.6230   -6.2844   -0.6489 O   0  0  0  0  0  0  0  0  0  0  0  0
    2.4768   -6.7424    0.7653 C   0  0  0  0  0  0  0  0  0  0  0  0
    2.7043   -7.5104    0.0205 H   0  0  0  0  0  0  0  0  0  0  0  0
    3.3363   -6.0732    0.8538 H   0  0  0  0  0  0  0  0  0  0  0  0
    2.2991   -7.2265    1.7288 H   0  0  0  0  0  0  0  0  0  0  0  0
    0.8473   -4.8656    1.0881 N   0  0  0  0  0  0  0  0  0  0  0  0
   -0.2033   -3.9269    0.6730 C   0  0  2  0  0  0  0  0  0  0  0  0
    0.1502   -2.4775    1.0637 C   0  0  0  0  0  0  0  0  0  0  0  0
    1.0405   -2.2572    1.8789 O   0  0  0  0  0  0  0  0  0  0  0  0
   -1.5210   -4.3602    1.3213 C   0  0  0  0  0  0  0  0  0  0  0  0
    1.4768   -4.5475    1.8245 H   0  0  0  0  0  0  0  0  0  0  0  0
   -0.3144   -3.9490   -0.4166 H   0  0  0  0  0  0  0  0  0  0  0  0
   -1.4395   -4.3287    2.4125 H   0  0  0  0  0  0  0  0  0  0  0  0
   -2.3374   -3.7000    1.0129 H   0  0  0  0  0  0  0  0  0  0  0  0
   -1.7721   -5.3822    1.0196 H   0  0  0  0  0  0  0  0  0  0  0  0
   -0.5321   -1.4152    0.5023 N   0  0  0  0  0  0  0  0  0  0  0  0
   -0.1597    0.0041    0.6287 C   0  0  2  0  0  0  0  0  0  0  0  0
   -1.4718    0.8144    0.5635 C   0  0  0  0  0  0  0  0  0  0  0  0
   -2.2385    0.6689   -0.3828 O   0  0  0  0  0  0  0  0  0  0  0  0
    0.8120    0.4679   -0.5019 C   0  0  2  0  0  0  0  0  0  0  0  0
    2.1662   -0.2829   -0.4596 C   0  0  0  0  0  0  0  0  0  0  0  0
    1.0706    1.9873   -0.4003 C   0  0  0  0  0  0  0  0  0  0  0  0
    3.0316   -0.0459   -1.7014 C   0  0  0  0  0  0  0  0  0  0  0  0
   -1.2621   -1.6357   -0.1736 H   0  0  0  0  0  0  0  0  0  0  0  0
    0.3115    0.1836    1.6009 H   0  0  0  0  0  0  0  0  0  0  0  0
    0.3324    0.2614   -1.4656 H   0  0  0  0  0  0  0  0  0  0  0  0
    2.7223   -0.0037    0.4416 H   0  0  0  0  0  0  0  0  0  0  0  0
    1.9884   -1.3584   -0.4177 H   0  0  0  0  0  0  0  0  0  0  0  0
    1.5286    2.2338    0.5629 H   0  0  0  0  0  0  0  0  0  0  0  0
    1.7359    2.3277   -1.1973 H   0  0  0  0  0  0  0  0  0  0  0  0
    0.1424    2.5569   -0.5002 H   0  0  0  0  0  0  0  0  0  0  0  0
    2.4594   -0.2452   -2.6127 H   0  0  0  0  0  0  0  0  0  0  0  0
    3.8954   -0.7174   -1.6830 H   0  0  0  0  0  0  0  0  0  0  0  0
    3.4047    0.9810   -1.7348 H   0  0  0  0  0  0  0  0  0  0  0  0
   -1.8513    1.6222    1.6175 N   0  0  0  0  0  0  0  0  0  0  0  0
   -3.0372    2.4878    1.6191 C   0  0  2  0  0  0  0  0  0  0  0  0
   -2.8007    3.7612    2.4584 C   0  0  0  0  0  0  0  0  0  0  0  0
   -1.7994    3.8571    3.1599 O   0  0  0  0  0  0  0  0  0  0  0  0
   -4.2199    1.6864    2.1718 C   0  0  0  0  0  0  0  0  0  0  0  0
   -1.1617    1.7941    2.3495 H   0  0  0  0  0  0  0  0  0  0  0  0
   -3.2637    2.8074    0.5962 H   0  0  0  0  0  0  0  0  0  0  0  0
   -4.0227    1.3754    3.2027 H   0  0  0  0  0  0  0  0  0  0  0  0
   -5.1332    2.2884    2.1574 H   0  0  0  0  0  0  0  0  0  0  0  0
   -4.3887    0.7915    1.5643 H   0  0  0  0  0  0  0  0  0  0  0  0
   -3.7045    4.8070    2.4224 N   0  0  0  0  0  0  0  0  0  0  0  0
   -3.5468    6.0266    3.2057 C   0  0  0  0  0  0  0  0  0  0  0  0
   -4.5271    4.7008    1.8359 H   0  0  0  0  0  0  0  0  0  0  0  0
   -3.5498    5.7966    4.2764 H   0  0  0  0  0  0  0  0  0  0  0  0
   -2.6045    6.5254    2.9552 H   0  0  0  0  0  0  0  0  0  0  0  0
   -4.3687    6.7188    2.9988 H   0  0  0  0  0  0  0  0  0  0  0  0
  1  2  2  0  0  0  0
  1  3  1  0  0  0  0
  1  7  1  0  0  0  0
  3  4  1  0  0  0  0
  3  5  1  0  0  0  0
  3  6  1  0  0  0  0
  7  8  1  0  0  0  0
  7 12  1  0  0  0  0
  8  9  1  0  0  0  0
  8 11  1  0  0  0  0
  8 13  1  0  0  0  0
  9 10  2  0  0  0  0
  9 17  1  0  0  0  0
 11 14  1  0  0  0  0
 11 15  1  0  0  0  0
 11 16  1  0  0  0  0
 17 18  1  0  0  0  0
 17 25  1  0  0  0  0
 18 19  1  0  0  0  0
 18 21  1  0  0  0  0
 18 26  1  0  0  0  0
 19 20  2  0  0  0  0
 19 36  1  0  0  0  0
 21 22  1  0  0  0  0
 21 23  1  0  0  0  0
 21 27  1  0  0  0  0
 22 24  1  0  0  0  0
 22 28  1  0  0  0  0
 22 29  1  0  0  0  0
 23 30  1  0  0  0  0
 23 31  1  0  0  0  0
 23 32  1  0  0  0  0
 24 33  1  0  0  0  0
 24 34  1  0  0  0  0
 24 35  1  0  0  0  0
 36 37  1  0  0  0  0
 36 41  1  0  0  0  0
 37 38  1  0  0  0  0
 37 40  1  0  0  0  0
 37 42  1  0  0  0  0
 38 39  2  0  0  0  0
 38 46  1  0  0  0  0
 40 43  1  0  0  0  0
 40 44  1  0  0  0  0
 40 45  1  0  0  0  0
 46 47  1  0  0  0  0
 46 48  1  0  0  0  0
 47 49  1  0  0  0  0
 47 50  1  0  0  0  0
 47 51  1  0  0  0  0
M  END
$$$$

  -OEChem-05262216503D

 51 50  0     1  0  0  0  0  0999 V2000
    1.1754   -6.0133    0.3040 C   0  0  0  0  0  0  0  0  0  0  0  0
    0.4929   -6.3449   -0.6524 O   0  0  0  0  0  0  0  0  0  0  0  0
    2.4023   -6.8223    0.6806 C   0  0  0  0  0  0  0  0  0  0  0  0
    2.5514   -7.6359   -0.0348 H   0  0  0  0  0  0  0  0  0  0  0  0
    3.2876   -6.1819    0.6741 H   0  0  0  0  0  0  0  0  0  0  0  0
    2.2760   -7.2487    1.6787 H   0  0  0  0  0  0  0  0  0  0  0  0
    0.8438   -4.8924    1.0350 N   0  0  0  0  0  0  0  0  0  0  0  0
   -0.2071   -3.9382    0.6580 C   0  0  2  0  0  0  0  0  0  0  0  0
    0.1687   -2.4978    1.0638 C   0  0  0  0  0  0  0  0  0  0  0  0
    1.0765   -2.3007    1.8656 O   0  0  0  0  0  0  0  0  0  0  0  0
   -1.5139   -4.3682    1.3303 C   0  0  0  0  0  0  0  0  0  0  0  0
    1.5092   -4.5813    1.7422 H   0  0  0  0  0  0  0  0  0  0  0  0
   -0.3413   -3.9450   -0.4293 H   0  0  0  0  0  0  0  0  0  0  0  0
   -1.4038   -4.3618    2.4194 H   0  0  0  0  0  0  0  0  0  0  0  0
   -2.3283   -3.6904    1.0576 H   0  0  0  0  0  0  0  0  0  0  0  0
   -1.7874   -5.3798    1.0135 H   0  0  0  0  0  0  0  0  0  0  0  0
   -0.5152   -1.4190    0.5365 N   0  0  0  0  0  0  0  0  0  0  0  0
   -0.1576   -0.0006    0.7129 C   0  0  2  0  0  0  0  0  0  0  0  0
   -1.4730    0.8084    0.6666 C   0  0  0  0  0  0  0  0  0  0  0  0
   -2.3337    0.5372   -0.1652 O   0  0  0  0  0  0  0  0  0  0  0  0
    0.8105    0.5089   -0.4024 C   0  0  2  0  0  0  0  0  0  0  0  0
    2.1715   -0.2310   -0.3844 C   0  0  0  0  0  0  0  0  0  0  0  0
    1.0585    2.0278   -0.2598 C   0  0  0  0  0  0  0  0  0  0  0  0
    3.0370    0.0527   -1.6169 C   0  0  0  0  0  0  0  0  0  0  0  0
   -1.2839   -1.6177   -0.1028 H   0  0  0  0  0  0  0  0  0  0  0  0
    0.3073    0.1480    1.6935 H   0  0  0  0  0  0  0  0  0  0  0  0
    0.3318    0.3272   -1.3713 H   0  0  0  0  0  0  0  0  0  0  0  0
    2.7241    0.0215    0.5266 H   0  0  0  0  0  0  0  0  0  0  0  0
    2.0019   -1.3084   -0.3797 H   0  0  0  0  0  0  0  0  0  0  0  0
    1.5026    2.2539    0.7149 H   0  0  0  0  0  0  0  0  0  0  0  0
    1.7314    2.3924   -1.0394 H   0  0  0  0  0  0  0  0  0  0  0  0
    0.1294    2.5960   -0.3595 H   0  0  0  0  0  0  0  0  0  0  0  0
    2.4672   -0.1202   -2.5351 H   0  0  0  0  0  0  0  0  0  0  0  0
    3.9053   -0.6133   -1.6195 H   0  0  0  0  0  0  0  0  0  0  0  0
    3.4043    1.0823   -1.6163 H   0  0  0  0  0  0  0  0  0  0  0  0
   -1.7175    1.8057    1.5908 N   0  0  0  0  0  0  0  0  0  0  0  0
   -2.8366    2.7526    1.5060 C   0  0  2  0  0  0  0  0  0  0  0  0
   -2.4073    4.1685    1.9444 C   0  0  0  0  0  0  0  0  0  0  0  0
   -1.3065    4.3464    2.4550 O   0  0  0  0  0  0  0  0  0  0  0  0
   -3.9766    2.2301    2.3841 C   0  0  0  0  0  0  0  0  0  0  0  0
   -0.9312    2.0932    2.1739 H   0  0  0  0  0  0  0  0  0  0  0  0
   -3.1863    2.8277    0.4708 H   0  0  0  0  0  0  0  0  0  0  0  0
   -3.6533    2.1542    3.4273 H   0  0  0  0  0  0  0  0  0  0  0  0
   -4.8401    2.9001    2.3339 H   0  0  0  0  0  0  0  0  0  0  0  0
   -4.2906    1.2384    2.0432 H   0  0  0  0  0  0  0  0  0  0  0  0
   -3.2452    5.2503    1.7456 N   0  0  0  0  0  0  0  0  0  0  0  0
   -2.8946    6.6148    2.1213 C   0  0  0  0  0  0  0  0  0  0  0  0
   -4.1464    5.0755    1.3105 H   0  0  0  0  0  0  0  0  0  0  0  0
   -2.7235    6.6838    3.2009 H   0  0  0  0  0  0  0  0  0  0  0  0
   -1.9868    6.9356    1.5991 H   0  0  0  0  0  0  0  0  0  0  0  0
   -3.7054    7.3001    1.8558 H   0  0  0  0  0  0  0  0  0  0  0  0
  1  2  2  0  0  0  0
  1  3  1  0  0  0  0
  1  7  1  0  0  0  0
  3  4  1  0  0  0  0
  3  5  1  0  0  0  0
  3  6  1  0  0  0  0
  7  8  1  0  0  0  0
  7 12  1  0  0  0  0
  8  9  1  0  0  0  0
  8 11  1  0  0  0  0
  8 13  1  0  0  0  0
  9 10  2  0  0  0  0
  9 17  1  0  0  0  0
 11 14  1  0  0  0  0
 11 15  1  0  0  0  0
 11 16  1  0  0  0  0
 17 18  1  0  0  0  0
 17 25  1  0  0  0  0
 18 19  1  0  0  0  0
 18 21  1  0  0  0  0
 18 26  1  0  0  0  0
 19 20  2  0  0  0  0
 19 36  1  0  0  0  0
 21 22  1  0  0  0  0
 21 23  1  0  0  0  0
 21 27  1  0  0  0  0
 22 24  1  0  0  0  0
 22 28  1  0  0  0  0
 22 29  1  0  0  0  0
 23 30  1  0  0  0  0
 23 31  1  0  0  0  0
 23 32  1  0  0  0  0
 24 33  1  0  0  0  0
 24 34  1  0  0  0  0
 24 35  1  0  0  0  0
 36 37  1  0  0  0  0
 36 41  1  0  0  0  0
 37 38  1  0  0  0  0
 37 40  1  0  0  0  0
 37 42  1  0  0  0  0
 38 39  2  0  0  0  0
 38 46  1  0  0  0  0
 40 43  1  0  0  0  0
 40 44  1  0  0  0  0
 40 45  1  0  0  0  0
 46 47  1  0  0  0  0
 46 48  1  0  0  0  0
 47 49  1  0  0  0  0
 47 50  1  0  0  0  0
 47 51  1  0  0  0  0
M  END
$$$$

  -OEChem-05262216503D

 51 50  0     1  0  0  0  0  0999 V2000
    1.1013   -5.9998    0.2753 C   0  0  0  0  0  0  0  0  0  0  0  0
    0.4257   -6.2851   -0.7007 O   0  0  0  0  0  0  0  0  0  0  0  0
    2.2923   -6.8611    0.6525 C   0  0  0  0  0  0  0  0  0  0  0  0
    2.3900   -7.6956   -0.0478 H   0  0  0  0  0  0  0  0  0  0  0  0
    3.2081   -6.2657    0.6202 H   0  0  0  0  0  0  0  0  0  0  0  0
    2.1605   -7.2612    1.6609 H   0  0  0  0  0  0  0  0  0  0  0  0
    0.7900   -4.8895    1.0313 N   0  0  0  0  0  0  0  0  0  0  0  0
   -0.2311   -3.8986    0.6661 C   0  0  2  0  0  0  0  0  0  0  0  0
    0.1956   -2.4707    1.0646 C   0  0  0  0  0  0  0  0  0  0  0  0
    1.1230   -2.3002    1.8502 O   0  0  0  0  0  0  0  0  0  0  0  0
   -1.5430   -4.2855    1.3547 C   0  0  0  0  0  0  0  0  0  0  0  0
    1.4570   -4.6132    1.7510 H   0  0  0  0  0  0  0  0  0  0  0  0
   -0.3801   -3.8998   -0.4192 H   0  0  0  0  0  0  0  0  0  0  0  0
   -1.4213   -4.2780    2.4425 H   0  0  0  0  0  0  0  0  0  0  0  0
   -2.3393   -3.5839    1.0880 H   0  0  0  0  0  0  0  0  0  0  0  0
   -1.8504   -5.2896    1.0451 H   0  0  0  0  0  0  0  0  0  0  0  0
   -0.4781   -1.3744    0.5610 N   0  0  0  0  0  0  0  0  0  0  0  0
   -0.1135    0.0387    0.7663 C   0  0  2  0  0  0  0  0  0  0  0  0
   -1.4286    0.8552    0.7352 C   0  0  0  0  0  0  0  0  0  0  0  0
   -2.3771    0.4753    0.0538 O   0  0  0  0  0  0  0  0  0  0  0  0
    0.8552    0.5459   -0.3552 C   0  0  2  0  0  0  0  0  0  0  0  0
    2.2078   -0.2114   -0.3563 C   0  0  0  0  0  0  0  0  0  0  0  0
    1.1280    2.0605   -0.2188 C   0  0  0  0  0  0  0  0  0  0  0  0
    3.0702    0.0695   -1.5926 C   0  0  0  0  0  0  0  0  0  0  0  0
   -1.2929   -1.5514   -0.0265 H   0  0  0  0  0  0  0  0  0  0  0  0
    0.3555    0.1698    1.7475 H   0  0  0  0  0  0  0  0  0  0  0  0
    0.3673    0.3720   -1.3210 H   0  0  0  0  0  0  0  0  0  0  0  0
    2.7698    0.0230    0.5536 H   0  0  0  0  0  0  0  0  0  0  0  0
    2.0244   -1.2863   -0.3636 H   0  0  0  0  0  0  0  0  0  0  0  0
    1.5253    2.2910    0.7748 H   0  0  0  0  0  0  0  0  0  0  0  0
    1.8467    2.4053   -0.9650 H   0  0  0  0  0  0  0  0  0  0  0  0
    0.2170    2.6428   -0.3786 H   0  0  0  0  0  0  0  0  0  0  0  0
    2.4860   -0.0665   -2.5080 H   0  0  0  0  0  0  0  0  0  0  0  0
    3.9163   -0.6242   -1.6174 H   0  0  0  0  0  0  0  0  0  0  0  0
    3.4723    1.0859   -1.5766 H   0  0  0  0  0  0  0  0  0  0  0  0
   -1.5540    2.0223    1.4648 N   0  0  0  0  0  0  0  0  0  0  0  0
   -2.6469    2.9889    1.2976 C   0  0  2  0  0  0  0  0  0  0  0  0
   -2.1168    4.4376    1.3372 C   0  0  0  0  0  0  0  0  0  0  0  0
   -0.9602    4.6590    1.6807 O   0  0  0  0  0  0  0  0  0  0  0  0
   -3.6729    2.7513    2.4088 C   0  0  0  0  0  0  0  0  0  0  0  0
   -0.7007    2.3864    1.8891 H   0  0  0  0  0  0  0  0  0  0  0  0
   -3.1312    2.8486    0.3255 H   0  0  0  0  0  0  0  0  0  0  0  0
   -3.2155    2.9037    3.3916 H   0  0  0  0  0  0  0  0  0  0  0  0
   -4.5178    3.4391    2.3067 H   0  0  0  0  0  0  0  0  0  0  0  0
   -4.0549    1.7267    2.3569 H   0  0  0  0  0  0  0  0  0  0  0  0
   -2.9300    5.4943    0.9719 N   0  0  0  0  0  0  0  0  0  0  0  0
   -2.4901    6.8842    0.9853 C   0  0  0  0  0  0  0  0  0  0  0  0
   -3.8796    5.2809    0.6804 H   0  0  0  0  0  0  0  0  0  0  0  0
   -2.1790    7.1779    1.9935 H   0  0  0  0  0  0  0  0  0  0  0  0
   -1.6475    7.0266    0.3005 H   0  0  0  0  0  0  0  0  0  0  0  0
   -3.3057    7.5423    0.6703 H   0  0  0  0  0  0  0  0  0  0  0  0
  1  2  2  0  0  0  0
  1  3  1  0  0  0  0
  1  7  1  0  0  0  0
  3  4  1  0  0  0  0
  3  5  1  0  0  0  0
  3  6  1  0  0  0  0
  7  8  1  0  0  0  0
  7 12  1  0  0  0  0
  8  9  1  0  0  0  0
  8 11  1  0  0  0  0
  8 13  1  0  0  0  0
  9 10  2  0  0  0  0
  9 17  1  0  0  0  0
 11 14  1  0  0  0  0
 11 15  1  0  0  0  0
 11 16  1  0  0  0  0
 17 18  1  0  0  0  0
 17 25  1  0  0  0  0
 18 19  1  0  0  0  0
 18 21  1  0  0  0  0
 18 26  1  0  0  0  0
 19 20  2  0  0  0  0
 19 36  1  0  0  0  0
 21 22  1  0  0  0  0
 21 23  1  0  0  0  0
 21 27  1  0  0  0  0
 22 24  1  0  0  0  0
 22 28  1  0  0  0  0
 22 29  1  0  0  0  0
 23 30  1  0  0  0  0
 23 31  1  0  0  0  0
 23 32  1  0  0  0  0
 24 33  1  0  0  0  0
 24 34  1  0  0  0  0
 24 35  1  0  0  0  0
 36 37  1  0  0  0  0
 36 41  1  0  0  0  0
 37 38  1  0  0  0  0
 37 40  1  0  0  0  0
 37 42  1  0  0  0  0
 38 39  2  0  0  0  0
 38 46  1  0  0  0  0
 40 43  1  0  0  0  0
 40 44  1  0  0  0  0
 40 45  1  0  0  0  0
 46 47  1  0  0  0  0
 46 48  1  0  0  0  0
 47 49  1  0  0  0  0
 47 50  1  0  0  0  0
 47 51  1  0  0  0  0
M  END
$$$$

  -OEChem-05262216503D

 51 50  0     1  0  0  0  0  0999 V2000
    1.0395   -5.8896    0.2214 C   0  0  0  0  0  0  0  0  0  0  0  0
    0.4037   -6.1155   -0.7959 O   0  0  0  0  0  0  0  0  0  0  0  0
    2.2605   -6.7255    0.5555 C   0  0  0  0  0  0  0  0  0  0  0  0
    2.4686   -7.4293   -0.2551 H   0  0  0  0  0  0  0  0  0  0  0  0
    3.1306   -6.0784    0.6907 H   0  0  0  0  0  0  0  0  0  0  0  0
    2.0862   -7.2877    1.4759 H   0  0  0  0  0  0  0  0  0  0  0  0
    0.6648   -4.8650    1.0641 N   0  0  0  0  0  0  0  0  0  0  0  0
   -0.3345   -3.8426    0.7255 C   0  0  2  0  0  0  0  0  0  0  0  0
    0.1591   -2.4315    1.1051 C   0  0  0  0  0  0  0  0  0  0  0  0
    1.0982   -2.2954    1.8837 O   0  0  0  0  0  0  0  0  0  0  0  0
   -1.6351   -4.1810    1.4580 C   0  0  0  0  0  0  0  0  0  0  0  0
    1.3205   -4.6233    1.8060 H   0  0  0  0  0  0  0  0  0  0  0  0
   -0.5231   -3.8388   -0.3535 H   0  0  0  0  0  0  0  0  0  0  0  0
   -1.4778   -4.1745    2.5413 H   0  0  0  0  0  0  0  0  0  0  0  0
   -2.4145   -3.4524    1.2142 H   0  0  0  0  0  0  0  0  0  0  0  0
   -1.9871   -5.1746    1.1620 H   0  0  0  0  0  0  0  0  0  0  0  0
   -0.4685   -1.3115    0.5949 N   0  0  0  0  0  0  0  0  0  0  0  0
   -0.0547    0.0907    0.7914 C   0  0  2  0  0  0  0  0  0  0  0  0
   -1.3495    0.9487    0.7494 C   0  0  0  0  0  0  0  0  0  0  0  0
   -2.3825    0.4861    0.2705 O   0  0  0  0  0  0  0  0  0  0  0  0
    0.9422    0.5243   -0.3445 C   0  0  2  0  0  0  0  0  0  0  0  0
    2.2602   -0.2954   -0.3257 C   0  0  0  0  0  0  0  0  0  0  0  0
    1.2922    2.0276   -0.2687 C   0  0  0  0  0  0  0  0  0  0  0  0
    3.1394   -0.0903   -1.5650 C   0  0  0  0  0  0  0  0  0  0  0  0
   -1.3259   -1.4571    0.0615 H   0  0  0  0  0  0  0  0  0  0  0  0
    0.4159    0.2183    1.7717 H   0  0  0  0  0  0  0  0  0  0  0  0
    0.4477    0.3416   -1.3050 H   0  0  0  0  0  0  0  0  0  0  0  0
    2.8312   -0.0666    0.5803 H   0  0  0  0  0  0  0  0  0  0  0  0
    2.0295   -1.3602   -0.3118 H   0  0  0  0  0  0  0  0  0  0  0  0
    1.6246    2.2956    0.7390 H   0  0  0  0  0  0  0  0  0  0  0  0
    2.0840    2.2953   -0.9705 H   0  0  0  0  0  0  0  0  0  0  0  0
    0.4308    2.6430   -0.5387 H   0  0  0  0  0  0  0  0  0  0  0  0
    2.5443   -0.1912   -2.4779 H   0  0  0  0  0  0  0  0  0  0  0  0
    3.9301   -0.8464   -1.5839 H   0  0  0  0  0  0  0  0  0  0  0  0
    3.6185    0.8918   -1.5596 H   0  0  0  0  0  0  0  0  0  0  0  0
   -1.3696    2.2549    1.2018 N   0  0  0  0  0  0  0  0  0  0  0  0
   -2.4719    3.1994    0.9776 C   0  0  2  0  0  0  0  0  0  0  0  0
   -1.9415    4.6189    0.6854 C   0  0  0  0  0  0  0  0  0  0  0  0
   -0.7618    4.8871    0.8880 O   0  0  0  0  0  0  0  0  0  0  0  0
   -3.3650    3.1953    2.2211 C   0  0  0  0  0  0  0  0  0  0  0  0
   -0.4703    2.6673    1.4503 H   0  0  0  0  0  0  0  0  0  0  0  0
   -3.0624    2.8901    0.1086 H   0  0  0  0  0  0  0  0  0  0  0  0
   -2.7984    3.5189    3.1002 H   0  0  0  0  0  0  0  0  0  0  0  0
   -4.2163    3.8691    2.0864 H   0  0  0  0  0  0  0  0  0  0  0  0
   -3.7495    2.1871    2.4058 H   0  0  0  0  0  0  0  0  0  0  0  0
   -2.7805    5.5917    0.1742 N   0  0  0  0  0  0  0  0  0  0  0  0
   -2.3403    6.9467   -0.1357 C   0  0  0  0  0  0  0  0  0  0  0  0
   -3.7497    5.3381    0.0059 H   0  0  0  0  0  0  0  0  0  0  0  0
   -2.0099    7.4596    0.7736 H   0  0  0  0  0  0  0  0  0  0  0  0
   -1.5107    6.9272   -0.8503 H   0  0  0  0  0  0  0  0  0  0  0  0
   -3.1614    7.5193   -0.5773 H   0  0  0  0  0  0  0  0  0  0  0  0
  1  2  2  0  0  0  0
  1  3  1  0  0  0  0
  1  7  1  0  0  0  0
  3  4  1  0  0  0  0
  3  5  1  0  0  0  0
  3  6  1  0  0  0  0
  7  8  1  0  0  0  0
  7 12  1  0  0  0  0
  8  9  1  0  0  0  0
  8 11  1  0  0  0  0
  8 13  1  0  0  0  0
  9 10  2  0  0  0  0
  9 17  1  0  0  0  0
 11 14  1  0  0  0  0
 11 15  1  0  0  0  0
 11 16  1  0  0  0  0
 17 18  1  0  0  0  0
 17 25  1  0  0  0  0
 18 19  1  0  0  0  0
 18 21  1  0  0  0  0
 18 26  1  0  0  0  0
 19 20  2  0  0  0  0
 19 36  1  0  0  0  0
 21 22  1  0  0  0  0
 21 23  1  0  0  0  0
 21 27  1  0  0  0  0
 22 24  1  0  0  0  0
 22 28  1  0  0  0  0
 22 29  1  0  0  0  0
 23 30  1  0  0  0  0
 23 31  1  0  0  0  0
 23 32  1  0  0  0  0
 24 33  1  0  0  0  0
 24 34  1  0  0  0  0
 24 35  1  0  0  0  0
 36 37  1  0  0  0  0
 36 41  1  0  0  0  0
 37 38  1  0  0  0  0
 37 40  1  0  0  0  0
 37 42  1  0  0  0  0
 38 39  2  0  0  0  0
 38 46  1  0  0  0  0
 40 43  1  0  0  0  0
 40 44  1  0  0  0  0
 40 45  1  0  0  0  0
 46 47  1  0  0  0  0
 46 48  1  0  0  0  0
 47 49  1  0  0  0  0
 47 50  1  0  0  0  0
 47 51  1  0  0  0  0
M  END
$$$$

  -OEChem-05262216503D

 51 50  0     1  0  0  0  0  0999 V2000
    0.6223   -5.9947    0.3555 C   0  0  0  0  0  0  0  0  0  0  0  0
   -0.2695   -6.2694   -0.4318 O   0  0  0  0  0  0  0  0  0  0  0  0
    1.7886   -6.9468    0.5438 C   0  0  0  0  0  0  0  0  0  0  0  0
    1.6606   -7.8304   -0.0879 H   0  0  0  0  0  0  0  0  0  0  0  0
    2.7232   -6.4515    0.2692 H   0  0  0  0  0  0  0  0  0  0  0  0
    1.8456   -7.2651    1.5876 H   0  0  0  0  0  0  0  0  0  0  0  0
    0.5836   -4.8116    1.0627 N   0  0  0  0  0  0  0  0  0  0  0  0
   -0.3767   -3.7285    0.8130 C   0  0  2  0  0  0  0  0  0  0  0  0
    0.2906   -2.3442    0.9442 C   0  0  0  0  0  0  0  0  0  0  0  0
    1.3649   -2.2338    1.5277 O   0  0  0  0  0  0  0  0  0  0  0  0
   -1.5318   -3.8663    1.8088 C   0  0  0  0  0  0  0  0  0  0  0  0
    1.4145   -4.5644    1.5989 H   0  0  0  0  0  0  0  0  0  0  0  0
   -0.7700   -3.8042   -0.2065 H   0  0  0  0  0  0  0  0  0  0  0  0
   -1.1638   -3.7853    2.8367 H   0  0  0  0  0  0  0  0  0  0  0  0
   -2.2784   -3.0830    1.6440 H   0  0  0  0  0  0  0  0  0  0  0  0
   -2.0202   -4.8386    1.6886 H   0  0  0  0  0  0  0  0  0  0  0  0
   -0.3227   -1.2235    0.4157 N   0  0  0  0  0  0  0  0  0  0  0  0
    0.1393    0.1641    0.6132 C   0  0  2  0  0  0  0  0  0  0  0  0
   -1.1136    1.0265    0.9511 C   0  0  0  0  0  0  0  0  0  0  0  0
   -2.2326    0.5185    0.9271 O   0  0  0  0  0  0  0  0  0  0  0  0
    0.8877    0.6183   -0.6918 C   0  0  2  0  0  0  0  0  0  0  0  0
    2.1538   -0.2463   -0.9466 C   0  0  0  0  0  0  0  0  0  0  0  0
    1.2977    2.1067   -0.6589 C   0  0  0  0  0  0  0  0  0  0  0  0
    2.7846   -0.0411   -2.3300 C   0  0  0  0  0  0  0  0  0  0  0  0
   -1.2985   -1.3315    0.1389 H   0  0  0  0  0  0  0  0  0  0  0  0
    0.8236    0.2312    1.4655 H   0  0  0  0  0  0  0  0  0  0  0  0
    0.2052    0.4758   -1.5372 H   0  0  0  0  0  0  0  0  0  0  0  0
    2.8985   -0.0536   -0.1672 H   0  0  0  0  0  0  0  0  0  0  0  0
    1.8941   -1.3049   -0.8953 H   0  0  0  0  0  0  0  0  0  0  0  0
    1.7834    2.3523    0.2907 H   0  0  0  0  0  0  0  0  0  0  0  0
    1.9866    2.3583   -1.4669 H   0  0  0  0  0  0  0  0  0  0  0  0
    0.4267    2.7509   -0.7986 H   0  0  0  0  0  0  0  0  0  0  0  0
    2.0228   -0.1029   -3.1131 H   0  0  0  0  0  0  0  0  0  0  0  0
    3.5308   -0.8203   -2.5129 H   0  0  0  0  0  0  0  0  0  0  0  0
    3.2899    0.9251   -2.4024 H   0  0  0  0  0  0  0  0  0  0  0  0
   -1.0371    2.3836    1.2020 N   0  0  0  0  0  0  0  0  0  0  0  0
   -2.1858    3.2961    1.2791 C   0  0  2  0  0  0  0  0  0  0  0  0
   -1.8181    4.6997    0.7515 C   0  0  0  0  0  0  0  0  0  0  0  0
   -0.6438    4.9915    0.5497 O   0  0  0  0  0  0  0  0  0  0  0  0
   -2.6527    3.3699    2.7357 C   0  0  0  0  0  0  0  0  0  0  0  0
   -0.1234    2.8223    1.0878 H   0  0  0  0  0  0  0  0  0  0  0  0
   -3.0038    2.9172    0.6573 H   0  0  0  0  0  0  0  0  0  0  0  0
   -1.8542    3.7605    3.3746 H   0  0  0  0  0  0  0  0  0  0  0  0
   -3.5248    4.0241    2.8279 H   0  0  0  0  0  0  0  0  0  0  0  0
   -2.9307    2.3740    3.0948 H   0  0  0  0  0  0  0  0  0  0  0  0
   -2.8029    5.6318    0.4805 N   0  0  0  0  0  0  0  0  0  0  0  0
   -2.5231    6.9629   -0.0458 C   0  0  0  0  0  0  0  0  0  0  0  0
   -3.7683    5.3581    0.6394 H   0  0  0  0  0  0  0  0  0  0  0  0
   -1.8618    7.5127    0.6325 H   0  0  0  0  0  0  0  0  0  0  0  0
   -2.0428    6.8942   -1.0278 H   0  0  0  0  0  0  0  0  0  0  0  0
   -3.4527    7.5298   -0.1551 H   0  0  0  0  0  0  0  0  0  0  0  0
  1  2  2  0  0  0  0
  1  3  1  0  0  0  0
  1  7  1  0  0  0  0
  3  4  1  0  0  0  0
  3  5  1  0  0  0  0
  3  6  1  0  0  0  0
  7  8  1  0  0  0  0
  7 12  1  0  0  0  0
  8  9  1  0  0  0  0
  8 11  1  0  0  0  0
  8 13  1  0  0  0  0
  9 10  2  0  0  0  0
  9 17  1  0  0  0  0
 11 14  1  0  0  0  0
 11 15  1  0  0  0  0
 11 16  1  0  0  0  0
 17 18  1  0  0  0  0
 17 25  1  0  0  0  0
 18 19  1  0  0  0  0
 18 21  1  0  0  0  0
 18 26  1  0  0  0  0
 19 20  2  0  0  0  0
 19 36  1  0  0  0  0
 21 22  1  0  0  0  0
 21 23  1  0  0  0  0
 21 27  1  0  0  0  0
 22 24  1  0  0  0  0
 22 28  1  0  0  0  0
 22 29  1  0  0  0  0
 23 30  1  0  0  0  0
 23 31  1  0  0  0  0
 23 32  1  0  0  0  0
 24 33  1  0  0  0  0
 24 34  1  0  0  0  0
 24 35  1  0  0  0  0
 36 37  1  0  0  0  0
 36 41  1  0  0  0  0
 37 38  1  0  0  0  0
 37 40  1  0  0  0  0
 37 42  1  0  0  0  0
 38 39  2  0  0  0  0
 38 46  1  0  0  0  0
 40 43  1  0  0  0  0
 40 44  1  0  0  0  0
 40 45  1  0  0  0  0
 46 47  1  0  0  0  0
 46 48  1  0  0  0  0
 47 49  1  0  0  0  0
 47 50  1  0  0  0  0
 47 51  1  0  0  0  0
M  END
$$$$

  -OEChem-05262216503D

 51 50  0     1  0  0  0  0  0999 V2000
    0.6098   -5.8643    0.3218 C   0  0  0  0  0  0  0  0  0  0  0  0
   -0.1787   -6.0686   -0.5875 O   0  0  0  0  0  0  0  0  0  0  0  0
    1.7675   -6.8184    0.5494 C   0  0  0  0  0  0  0  0  0  0  0  0
    1.7874   -7.5810   -0.2344 H   0  0  0  0  0  0  0  0  0  0  0  0
    2.7130   -6.2706    0.5308 H   0  0  0  0  0  0  0  0  0  0  0  0
    1.6578   -7.3110    1.5186 H   0  0  0  0  0  0  0  0  0  0  0  0
    0.4606   -4.7660    1.1424 N   0  0  0  0  0  0  0  0  0  0  0  0
   -0.4654   -3.6561    0.8755 C   0  0  2  0  0  0  0  0  0  0  0  0
    0.2534   -2.2939    0.9529 C   0  0  0  0  0  0  0  0  0  0  0  0
    1.3268   -2.1992    1.5407 O   0  0  0  0  0  0  0  0  0  0  0  0
   -1.6000   -3.7270    1.9005 C   0  0  0  0  0  0  0  0  0  0  0  0
    1.2407   -4.5574    1.7639 H   0  0  0  0  0  0  0  0  0  0  0  0
   -0.8882   -3.7419   -0.1313 H   0  0  0  0  0  0  0  0  0  0  0  0
   -1.2057   -3.6259    2.9168 H   0  0  0  0  0  0  0  0  0  0  0  0
   -2.3255   -2.9257    1.7281 H   0  0  0  0  0  0  0  0  0  0  0  0
   -2.1199   -4.6871    1.8213 H   0  0  0  0  0  0  0  0  0  0  0  0
   -0.3237   -1.1731    0.3854 N   0  0  0  0  0  0  0  0  0  0  0  0
    0.1799    0.2052    0.5499 C   0  0  2  0  0  0  0  0  0  0  0  0
   -1.0667    1.0959    0.8511 C   0  0  0  0  0  0  0  0  0  0  0  0
   -2.1516    0.5643    1.0791 O   0  0  0  0  0  0  0  0  0  0  0  0
    0.9661    0.5938   -0.7574 C   0  0  2  0  0  0  0  0  0  0  0  0
    2.2058   -0.3225   -0.9606 C   0  0  0  0  0  0  0  0  0  0  0  0
    1.4452    2.0642   -0.7514 C   0  0  0  0  0  0  0  0  0  0  0  0
    2.8728   -0.1898   -2.3364 C   0  0  0  0  0  0  0  0  0  0  0  0
   -1.3101   -1.2585    0.1411 H   0  0  0  0  0  0  0  0  0  0  0  0
    0.8510    0.2810    1.4122 H   0  0  0  0  0  0  0  0  0  0  0  0
    0.2956    0.4555   -1.6127 H   0  0  0  0  0  0  0  0  0  0  0  0
    2.9416   -0.1332   -0.1720 H   0  0  0  0  0  0  0  0  0  0  0  0
    1.9054   -1.3681   -0.8841 H   0  0  0  0  0  0  0  0  0  0  0  0
    1.8086    2.3478    0.2415 H   0  0  0  0  0  0  0  0  0  0  0  0
    2.2520    2.2403   -1.4639 H   0  0  0  0  0  0  0  0  0  0  0  0
    0.6354    2.7342   -1.0495 H   0  0  0  0  0  0  0  0  0  0  0  0
    2.1235   -0.2440   -3.1323 H   0  0  0  0  0  0  0  0  0  0  0  0
    3.5854   -1.0081   -2.4781 H   0  0  0  0  0  0  0  0  0  0  0  0
    3.4246    0.7481   -2.4326 H   0  0  0  0  0  0  0  0  0  0  0  0
   -1.0611    2.4756    0.7791 N   0  0  0  0  0  0  0  0  0  0  0  0
   -2.2469    3.3389    0.8545 C   0  0  2  0  0  0  0  0  0  0  0  0
   -2.0375    4.6422    0.0557 C   0  0  0  0  0  0  0  0  0  0  0  0
   -0.9115    4.9645   -0.3089 O   0  0  0  0  0  0  0  0  0  0  0  0
   -2.5300    3.6473    2.3280 C   0  0  0  0  0  0  0  0  0  0  0  0
   -0.1927    2.9255    0.4924 H   0  0  0  0  0  0  0  0  0  0  0  0
   -3.1095    2.8237    0.4187 H   0  0  0  0  0  0  0  0  0  0  0  0
   -1.6811    4.1712    2.7788 H   0  0  0  0  0  0  0  0  0  0  0  0
   -3.4201    4.2756    2.4259 H   0  0  0  0  0  0  0  0  0  0  0  0
   -2.7011    2.7198    2.8835 H   0  0  0  0  0  0  0  0  0  0  0  0
   -3.1121    5.4482   -0.2713 N   0  0  0  0  0  0  0  0  0  0  0  0
   -2.9798    6.6864   -1.0299 C   0  0  0  0  0  0  0  0  0  0  0  0
   -4.0353    5.1518    0.0322 H   0  0  0  0  0  0  0  0  0  0  0  0
   -2.3741    7.4115   -0.4763 H   0  0  0  0  0  0  0  0  0  0  0  0
   -2.5031    6.4948   -1.9971 H   0  0  0  0  0  0  0  0  0  0  0  0
   -3.9650    7.1262   -1.2125 H   0  0  0  0  0  0  0  0  0  0  0  0
  1  2  2  0  0  0  0
  1  3  1  0  0  0  0
  1  7  1  0  0  0  0
  3  4  1  0  0  0  0
  3  5  1  0  0  0  0
  3  6  1  0  0  0  0
  7  8  1  0  0  0  0
  7 12  1  0  0  0  0
  8  9  1  0  0  0  0
  8 11  1  0  0  0  0
  8 13  1  0  0  0  0
  9 10  2  0  0  0  0
  9 17  1  0  0  0  0
 11 14  1  0  0  0  0
 11 15  1  0  0  0  0
 11 16  1  0  0  0  0
 17 18  1  0  0  0  0
 17 25  1  0  0  0  0
 18 19  1  0  0  0  0
 18 21  1  0  0  0  0
 18 26  1  0  0  0  0
 19 20  2  0  0  0  0
 19 36  1  0  0  0  0
 21 22  1  0  0  0  0
 21 23  1  0  0  0  0
 21 27  1  0  0  0  0
 22 24  1  0  0  0  0
 22 28  1  0  0  0  0
 22 29  1  0  0  0  0
 23 30  1  0  0  0  0
 23 31  1  0  0  0  0
 23 32  1  0  0  0  0
 24 33  1  0  0  0  0
 24 34  1  0  0  0  0
 24 35  1  0  0  0  0
 36 37  1  0  0  0  0
 36 41  1  0  0  0  0
 37 38  1  0  0  0  0
 37 40  1  0  0  0  0
 37 42  1  0  0  0  0
 38 39  2  0  0  0  0
 38 46  1  0  0  0  0
 40 43  1  0  0  0  0
 40 44  1  0  0  0  0
 40 45  1  0  0  0  0
 46 47  1  0  0  0  0
 46 48  1  0  0  0  0
 47 49  1  0  0  0  0
 47 50  1  0  0  0  0
 47 51  1  0  0  0  0
M  END
$$$$

  -OEChem-05262216503D

 51 50  0     1  0  0  0  0  0999 V2000
    0.4761   -5.7970    0.5959 C   0  0  0  0  0  0  0  0  0  0  0  0
   -0.5977   -6.0390    0.0675 O   0  0  0  0  0  0  0  0  0  0  0  0
    1.6007   -6.8132    0.5292 C   0  0  0  0  0  0  0  0  0  0  0  0
    1.2970   -7.6724   -0.0754 H   0  0  0  0  0  0  0  0  0  0  0  0
    2.4874   -6.3616    0.0777 H   0  0  0  0  0  0  0  0  0  0  0  0
    1.8486   -7.1596    1.5354 H   0  0  0  0  0  0  0  0  0  0  0  0
    0.6760   -4.5985    1.2477 N   0  0  0  0  0  0  0  0  0  0  0  0
   -0.2596   -3.4666    1.2031 C   0  0  2  0  0  0  0  0  0  0  0  0
    0.4745   -2.1330    0.9544 C   0  0  0  0  0  0  0  0  0  0  0  0
    1.6889   -2.0624    1.1163 O   0  0  0  0  0  0  0  0  0  0  0  0
   -1.0185   -3.4245    2.5323 C   0  0  0  0  0  0  0  0  0  0  0  0
    1.6316   -4.3832    1.5295 H   0  0  0  0  0  0  0  0  0  0  0  0
   -0.9763   -3.5982    0.3855 H   0  0  0  0  0  0  0  0  0  0  0  0
   -0.3239   -3.2811    3.3663 H   0  0  0  0  0  0  0  0  0  0  0  0
   -1.7421   -2.6033    2.5389 H   0  0  0  0  0  0  0  0  0  0  0  0
   -1.5605   -4.3629    2.6867 H   0  0  0  0  0  0  0  0  0  0  0  0
   -0.2480   -1.0098    0.5933 N   0  0  0  0  0  0  0  0  0  0  0  0
    0.3030    0.3602    0.6371 C   0  0  2  0  0  0  0  0  0  0  0  0
   -0.8635    1.1585    1.3112 C   0  0  0  0  0  0  0  0  0  0  0  0
   -1.4644    0.6568    2.2518 O   0  0  0  0  0  0  0  0  0  0  0  0
    0.7374    0.8514   -0.7813 C   0  0  2  0  0  0  0  0  0  0  0  0
    1.8725   -0.0364   -1.3591 C   0  0  0  0  0  0  0  0  0  0  0  0
    1.3702    2.2699   -0.7203 C   0  0  0  0  0  0  0  0  0  0  0  0
    2.1500    0.2344   -2.8420 C   0  0  0  0  0  0  0  0  0  0  0  0
   -1.2505   -1.0896    0.7549 H   0  0  0  0  0  0  0  0  0  0  0  0
    1.1674    0.4171    1.3081 H   0  0  0  0  0  0  0  0  0  0  0  0
   -0.1330    0.8405   -1.4449 H   0  0  0  0  0  0  0  0  0  0  0  0
    2.7921    0.0690   -0.7736 H   0  0  0  0  0  0  0  0  0  0  0  0
    1.5730   -1.0847   -1.2988 H   0  0  0  0  0  0  0  0  0  0  0  0
    0.8287    2.9623   -0.0805 H   0  0  0  0  0  0  0  0  0  0  0  0
    1.4083    2.7106   -1.7207 H   0  0  0  0  0  0  0  0  0  0  0  0
    2.3900    2.2247   -0.3242 H   0  0  0  0  0  0  0  0  0  0  0  0
    1.2246    0.1746   -3.4228 H   0  0  0  0  0  0  0  0  0  0  0  0
    2.8493   -0.5130   -3.2290 H   0  0  0  0  0  0  0  0  0  0  0  0
    2.5962    1.2219   -2.9883 H   0  0  0  0  0  0  0  0  0  0  0  0
   -1.2330    2.4742    1.1527 N   0  0  0  0  0  0  0  0  0  0  0  0
   -1.8943    2.9569   -0.0757 C   0  0  2  0  0  0  0  0  0  0  0  0
   -2.3635    4.4195    0.0885 C   0  0  0  0  0  0  0  0  0  0  0  0
   -2.5852    4.8741    1.2035 O   0  0  0  0  0  0  0  0  0  0  0  0
   -3.1147    2.0804   -0.3971 C   0  0  0  0  0  0  0  0  0  0  0  0
   -1.7098    2.8030    1.9942 H   0  0  0  0  0  0  0  0  0  0  0  0
   -1.2082    2.9266   -0.9234 H   0  0  0  0  0  0  0  0  0  0  0  0
   -3.8039    2.0619    0.4539 H   0  0  0  0  0  0  0  0  0  0  0  0
   -3.6503    2.4726   -1.2671 H   0  0  0  0  0  0  0  0  0  0  0  0
   -2.8107    1.0537   -0.6215 H   0  0  0  0  0  0  0  0  0  0  0  0
   -2.5591    5.2247   -1.0191 N   0  0  0  0  0  0  0  0  0  0  0  0
   -3.0154    6.6070   -0.9269 C   0  0  0  0  0  0  0  0  0  0  0  0
   -2.3854    4.8252   -1.9363 H   0  0  0  0  0  0  0  0  0  0  0  0
   -4.0118    6.6520   -0.4742 H   0  0  0  0  0  0  0  0  0  0  0  0
   -2.3247    7.1993   -0.3171 H   0  0  0  0  0  0  0  0  0  0  0  0
   -3.0675    7.0567   -1.9231 H   0  0  0  0  0  0  0  0  0  0  0  0
  1  2  2  0  0  0  0
  1  3  1  0  0  0  0
  1  7  1  0  0  0  0
  3  4  1  0  0  0  0
  3  5  1  0  0  0  0
  3  6  1  0  0  0  0
  7  8  1  0  0  0  0
  7 12  1  0  0  0  0
  8  9  1  0  0  0  0
  8 11  1  0  0  0  0
  8 13  1  0  0  0  0
  9 10  2  0  0  0  0
  9 17  1  0  0  0  0
 11 14  1  0  0  0  0
 11 15  1  0  0  0  0
 11 16  1  0  0  0  0
 17 18  1  0  0  0  0
 17 25  1  0  0  0  0
 18 19  1  0  0  0  0
 18 21  1  0  0  0  0
 18 26  1  0  0  0  0
 19 20  2  0  0  0  0
 19 36  1  0  0  0  0
 21 22  1  0  0  0  0
 21 23  1  0  0  0  0
 21 27  1  0  0  0  0
 22 24  1  0  0  0  0
 22 28  1  0  0  0  0
 22 29  1  0  0  0  0
 23 30  1  0  0  0  0
 23 31  1  0  0  0  0
 23 32  1  0  0  0  0
 24 33  1  0  0  0  0
 24 34  1  0  0  0  0
 24 35  1  0  0  0  0
 36 37  1  0  0  0  0
 36 41  1  0  0  0  0
 37 38  1  0  0  0  0
 37 40  1  0  0  0  0
 37 42  1  0  0  0  0
 38 39  2  0  0  0  0
 38 46  1  0  0  0  0
 40 43  1  0  0  0  0
 40 44  1  0  0  0  0
 40 45  1  0  0  0  0
 46 47  1  0  0  0  0
 46 48  1  0  0  0  0
 47 49  1  0  0  0  0
 47 50  1  0  0  0  0
 47 51  1  0  0  0  0
M  END
$$$$

  -OEChem-05262216503D

 51 50  0     1  0  0  0  0  0999 V2000
    0.5919   -5.7521    0.3312 C   0  0  0  0  0  0  0  0  0  0  0  0
   -0.1034   -5.9099   -0.6599 O   0  0  0  0  0  0  0  0  0  0  0  0
    1.7365   -6.7079    0.6113 C   0  0  0  0  0  0  0  0  0  0  0  0
    1.7954   -7.4673   -0.1737 H   0  0  0  0  0  0  0  0  0  0  0  0
    2.6818   -6.1602    0.6420 H   0  0  0  0  0  0  0  0  0  0  0  0
    1.5793   -7.2053    1.5715 H   0  0  0  0  0  0  0  0  0  0  0  0
    0.3525   -4.7041    1.1956 N   0  0  0  0  0  0  0  0  0  0  0  0
   -0.5424   -3.5777    0.8919 C   0  0  2  0  0  0  0  0  0  0  0  0
    0.2156   -2.2348    0.9035 C   0  0  0  0  0  0  0  0  0  0  0  0
    1.2776   -2.1385    1.5114 O   0  0  0  0  0  0  0  0  0  0  0  0
   -1.6613   -3.5684    1.9361 C   0  0  0  0  0  0  0  0  0  0  0  0
    1.0835   -4.5185    1.8804 H   0  0  0  0  0  0  0  0  0  0  0  0
   -0.9892   -3.6925   -0.1012 H   0  0  0  0  0  0  0  0  0  0  0  0
   -1.2482   -3.4260    2.9399 H   0  0  0  0  0  0  0  0  0  0  0  0
   -2.3687   -2.7579    1.7335 H   0  0  0  0  0  0  0  0  0  0  0  0
   -2.2069   -4.5171    1.9142 H   0  0  0  0  0  0  0  0  0  0  0  0
   -0.3312   -1.1282    0.2788 N   0  0  0  0  0  0  0  0  0  0  0  0
    0.1750    0.2477    0.4510 C   0  0  2  0  0  0  0  0  0  0  0  0
   -1.0954    1.1272    0.6644 C   0  0  0  0  0  0  0  0  0  0  0  0
   -2.0227    0.6818    1.3339 O   0  0  0  0  0  0  0  0  0  0  0  0
    1.0550    0.6580   -0.7817 C   0  0  2  0  0  0  0  0  0  0  0  0
    2.3097   -0.2479   -0.9043 C   0  0  0  0  0  0  0  0  0  0  0  0
    1.5453    2.1252   -0.6455 C   0  0  0  0  0  0  0  0  0  0  0  0
    3.0647   -0.0760   -2.2305 C   0  0  0  0  0  0  0  0  0  0  0  0
   -1.3087   -1.2201    0.0103 H   0  0  0  0  0  0  0  0  0  0  0  0
    0.7799    0.3300    1.3604 H   0  0  0  0  0  0  0  0  0  0  0  0
    0.4587    0.5569   -1.6952 H   0  0  0  0  0  0  0  0  0  0  0  0
    2.9874   -0.0667   -0.0633 H   0  0  0  0  0  0  0  0  0  0  0  0
    2.0098   -1.2968   -0.8634 H   0  0  0  0  0  0  0  0  0  0  0  0
    1.4826    2.4637    0.3937 H   0  0  0  0  0  0  0  0  0  0  0  0
    0.9439    2.7894   -1.2728 H   0  0  0  0  0  0  0  0  0  0  0  0
    2.5843    2.2526   -0.9547 H   0  0  0  0  0  0  0  0  0  0  0  0
    2.3823   -0.2084   -3.0758 H   0  0  0  0  0  0  0  0  0  0  0  0
    3.8529   -0.8314   -2.3039 H   0  0  0  0  0  0  0  0  0  0  0  0
    3.5351    0.9064   -2.3127 H   0  0  0  0  0  0  0  0  0  0  0  0
   -1.3109    2.3408    0.0397 N   0  0  0  0  0  0  0  0  0  0  0  0
   -2.5725    3.0930    0.0487 C   0  0  2  0  0  0  0  0  0  0  0  0
   -2.7210    3.9376   -1.2342 C   0  0  0  0  0  0  0  0  0  0  0  0
   -1.7686    4.0685   -1.9964 O   0  0  0  0  0  0  0  0  0  0  0  0
   -2.6009    3.9885    1.2919 C   0  0  0  0  0  0  0  0  0  0  0  0
   -0.6223    2.6310   -0.6530 H   0  0  0  0  0  0  0  0  0  0  0  0
   -3.4188    2.3987    0.0829 H   0  0  0  0  0  0  0  0  0  0  0  0
   -1.7682    4.6989    1.2713 H   0  0  0  0  0  0  0  0  0  0  0  0
   -3.5380    4.5509    1.3401 H   0  0  0  0  0  0  0  0  0  0  0  0
   -2.5183    3.3813    2.1990 H   0  0  0  0  0  0  0  0  0  0  0  0
   -3.9271    4.5372   -1.5460 N   0  0  0  0  0  0  0  0  0  0  0  0
   -4.1360    5.3386   -2.7459 C   0  0  0  0  0  0  0  0  0  0  0  0
   -4.7022    4.4006   -0.9037 H   0  0  0  0  0  0  0  0  0  0  0  0
   -3.4491    6.1915   -2.7616 H   0  0  0  0  0  0  0  0  0  0  0  0
   -3.9690    4.7351   -3.6443 H   0  0  0  0  0  0  0  0  0  0  0  0
   -5.1612    5.7206   -2.7721 H   0  0  0  0  0  0  0  0  0  0  0  0
  1  2  2  0  0  0  0
  1  3  1  0  0  0  0
  1  7  1  0  0  0  0
  3  4  1  0  0  0  0
  3  5  1  0  0  0  0
  3  6  1  0  0  0  0
  7  8  1  0  0  0  0
  7 12  1  0  0  0  0
  8  9  1  0  0  0  0
  8 11  1  0  0  0  0
  8 13  1  0  0  0  0
  9 10  2  0  0  0  0
  9 17  1  0  0  0  0
 11 14  1  0  0  0  0
 11 15  1  0  0  0  0
 11 16  1  0  0  0  0
 17 18  1  0  0  0  0
 17 25  1  0  0  0  0
 18 19  1  0  0  0  0
 18 21  1  0  0  0  0
 18 26  1  0  0  0  0
 19 20  2  0  0  0  0
 19 36  1  0  0  0  0
 21 22  1  0  0  0  0
 21 23  1  0  0  0  0
 21 27  1  0  0  0  0
 22 24  1  0  0  0  0
 22 28  1  0  0  0  0
 22 29  1  0  0  0  0
 23 30  1  0  0  0  0
 23 31  1  0  0  0  0
 23 32  1  0  0  0  0
 24 33  1  0  0  0  0
 24 34  1  0  0  0  0
 24 35  1  0  0  0  0
 36 37  1  0  0  0  0
 36 41  1  0  0  0  0
 37 38  1  0  0  0  0
 37 40  1  0  0  0  0
 37 42  1  0  0  0  0
 38 39  2  0  0  0  0
 38 46  1  0  0  0  0
 40 43  1  0  0  0  0
 40 44  1  0  0  0  0
 40 45  1  0  0  0  0
 46 47  1  0  0  0  0
 46 48  1  0  0  0  0
 47 49  1  0  0  0  0
 47 50  1  0  0  0  0
 47 51  1  0  0  0  0
M  END
$$$$

  -OEChem-05262216503D

 51 50  0     1  0  0  0  0  0999 V2000
    0.5247   -5.7145    0.3088 C   0  0  0  0  0  0  0  0  0  0  0  0
   -0.1748   -5.8655   -0.6804 O   0  0  0  0  0  0  0  0  0  0  0  0
    1.6569   -6.6847    0.5902 C   0  0  0  0  0  0  0  0  0  0  0  0
    1.7237   -7.4274   -0.2097 H   0  0  0  0  0  0  0  0  0  0  0  0
    2.6054   -6.1452    0.6500 H   0  0  0  0  0  0  0  0  0  0  0  0
    1.4789   -7.2009    1.5367 H   0  0  0  0  0  0  0  0  0  0  0  0
    0.2995   -4.6620    1.1714 N   0  0  0  0  0  0  0  0  0  0  0  0
   -0.5884   -3.5291    0.8725 C   0  0  2  0  0  0  0  0  0  0  0  0
    0.1768   -2.1903    0.8978 C   0  0  0  0  0  0  0  0  0  0  0  0
    1.2288   -2.0991    1.5230 O   0  0  0  0  0  0  0  0  0  0  0  0
   -1.7099   -3.5232    1.9137 C   0  0  0  0  0  0  0  0  0  0  0  0
    1.0283   -4.4871    1.8614 H   0  0  0  0  0  0  0  0  0  0  0  0
   -1.0312   -3.6349   -0.1234 H   0  0  0  0  0  0  0  0  0  0  0  0
   -1.2970   -3.4036    2.9206 H   0  0  0  0  0  0  0  0  0  0  0  0
   -2.4060   -2.7002    1.7244 H   0  0  0  0  0  0  0  0  0  0  0  0
   -2.2675   -4.4641    1.8740 H   0  0  0  0  0  0  0  0  0  0  0  0
   -0.3494   -1.0831    0.2570 N   0  0  0  0  0  0  0  0  0  0  0  0
    0.1642    0.2899    0.4297 C   0  0  2  0  0  0  0  0  0  0  0  0
   -1.1204    1.1489    0.6105 C   0  0  0  0  0  0  0  0  0  0  0  0
   -1.9411    0.8218    1.4605 O   0  0  0  0  0  0  0  0  0  0  0  0
    1.0660    0.7123   -0.7784 C   0  0  2  0  0  0  0  0  0  0  0  0
    2.3187   -0.1988   -0.8766 C   0  0  0  0  0  0  0  0  0  0  0  0
    1.6116    2.1555   -0.6097 C   0  0  0  0  0  0  0  0  0  0  0  0
    3.1040   -0.0172   -2.1805 C   0  0  0  0  0  0  0  0  0  0  0  0
   -1.3090   -1.1798   -0.0658 H   0  0  0  0  0  0  0  0  0  0  0  0
    0.7471    0.3779    1.3533 H   0  0  0  0  0  0  0  0  0  0  0  0
    0.4800    0.6391   -1.7010 H   0  0  0  0  0  0  0  0  0  0  0  0
    2.9781   -0.0381   -0.0171 H   0  0  0  0  0  0  0  0  0  0  0  0
    2.0084   -1.2456   -0.8562 H   0  0  0  0  0  0  0  0  0  0  0  0
    2.3029    2.2037    0.2379 H   0  0  0  0  0  0  0  0  0  0  0  0
    2.1446    2.4726   -1.5098 H   0  0  0  0  0  0  0  0  0  0  0  0
    0.8334    2.8967   -0.4361 H   0  0  0  0  0  0  0  0  0  0  0  0
    2.4407   -0.1175   -3.0452 H   0  0  0  0  0  0  0  0  0  0  0  0
    3.8825   -0.7829   -2.2526 H   0  0  0  0  0  0  0  0  0  0  0  0
    3.5912    0.9606   -2.2197 H   0  0  0  0  0  0  0  0  0  0  0  0
   -1.4729    2.1834   -0.2355 N   0  0  0  0  0  0  0  0  0  0  0  0
   -2.7655    2.8796   -0.2395 C   0  0  2  0  0  0  0  0  0  0  0  0
   -3.1040    3.4129   -1.6475 C   0  0  0  0  0  0  0  0  0  0  0  0
   -2.2511    3.4005   -2.5291 O   0  0  0  0  0  0  0  0  0  0  0  0
   -2.7035    4.0269    0.7736 C   0  0  0  0  0  0  0  0  0  0  0  0
   -0.8726    2.3429   -1.0449 H   0  0  0  0  0  0  0  0  0  0  0  0
   -3.5618    2.1849    0.0475 H   0  0  0  0  0  0  0  0  0  0  0  0
   -1.9153    4.7358    0.5005 H   0  0  0  0  0  0  0  0  0  0  0  0
   -3.6572    4.5619    0.8092 H   0  0  0  0  0  0  0  0  0  0  0  0
   -2.4909    3.6375    1.7744 H   0  0  0  0  0  0  0  0  0  0  0  0
   -4.3721    3.8822   -1.9368 N   0  0  0  0  0  0  0  0  0  0  0  0
   -4.7649    4.3677   -3.2545 C   0  0  0  0  0  0  0  0  0  0  0  0
   -5.0627    3.8667   -1.1918 H   0  0  0  0  0  0  0  0  0  0  0  0
   -4.1514    5.2269   -3.5451 H   0  0  0  0  0  0  0  0  0  0  0  0
   -4.6458    3.5794   -4.0054 H   0  0  0  0  0  0  0  0  0  0  0  0
   -5.8138    4.6796   -3.2456 H   0  0  0  0  0  0  0  0  0  0  0  0
  1  2  2  0  0  0  0
  1  3  1  0  0  0  0
  1  7  1  0  0  0  0
  3  4  1  0  0  0  0
  3  5  1  0  0  0  0
  3  6  1  0  0  0  0
  7  8  1  0  0  0  0
  7 12  1  0  0  0  0
  8  9  1  0  0  0  0
  8 11  1  0  0  0  0
  8 13  1  0  0  0  0
  9 10  2  0  0  0  0
  9 17  1  0  0  0  0
 11 14  1  0  0  0  0
 11 15  1  0  0  0  0
 11 16  1  0  0  0  0
 17 18  1  0  0  0  0
 17 25  1  0  0  0  0
 18 19  1  0  0  0  0
 18 21  1  0  0  0  0
 18 26  1  0  0  0  0
 19 20  2  0  0  0  0
 19 36  1  0  0  0  0
 21 22  1  0  0  0  0
 21 23  1  0  0  0  0
 21 27  1  0  0  0  0
 22 24  1  0  0  0  0
 22 28  1  0  0  0  0
 22 29  1  0  0  0  0
 23 30  1  0  0  0  0
 23 31  1  0  0  0  0
 23 32  1  0  0  0  0
 24 33  1  0  0  0  0
 24 34  1  0  0  0  0
 24 35  1  0  0  0  0
 36 37  1  0  0  0  0
 36 41  1  0  0  0  0
 37 38  1  0  0  0  0
 37 40  1  0  0  0  0
 37 42  1  0  0  0  0
 38 39  2  0  0  0  0
 38 46  1  0  0  0  0
 40 43  1  0  0  0  0
 40 44  1  0  0  0  0
 40 45  1  0  0  0  0
 46 47  1  0  0  0  0
 46 48  1  0  0  0  0
 47 49  1  0  0  0  0
 47 50  1  0  0  0  0
 47 51  1  0  0  0  0
M  END
$$$$

  -OEChem-05262216503D

 51 50  0     1  0  0  0  0  0999 V2000
    0.7289   -5.5827    0.2596 C   0  0  0  0  0  0  0  0  0  0  0  0
    0.2137   -5.6596   -0.8447 O   0  0  0  0  0  0  0  0  0  0  0  0
    1.9050   -6.4752    0.6096 C   0  0  0  0  0  0  0  0  0  0  0  0
    2.1575   -7.1171   -0.2393 H   0  0  0  0  0  0  0  0  0  0  0  0
    2.7753   -5.8629    0.8592 H   0  0  0  0  0  0  0  0  0  0  0  0
    1.6533   -7.1059    1.4658 H   0  0  0  0  0  0  0  0  0  0  0  0
    0.2652   -4.6749    1.1890 N   0  0  0  0  0  0  0  0  0  0  0  0
   -0.6469   -3.5694    0.8602 C   0  0  2  0  0  0  0  0  0  0  0  0
    0.0644   -2.2035    0.9441 C   0  0  0  0  0  0  0  0  0  0  0  0
    1.0692   -2.0795    1.6370 O   0  0  0  0  0  0  0  0  0  0  0  0
   -1.8193   -3.6196    1.8418 C   0  0  0  0  0  0  0  0  0  0  0  0
    0.8724   -4.5253    1.9926 H   0  0  0  0  0  0  0  0  0  0  0  0
   -1.0383   -3.6779   -0.1566 H   0  0  0  0  0  0  0  0  0  0  0  0
   -1.4650   -3.4908    2.8697 H   0  0  0  0  0  0  0  0  0  0  0  0
   -2.5385   -2.8248    1.6209 H   0  0  0  0  0  0  0  0  0  0  0  0
   -2.3336   -4.5827    1.7670 H   0  0  0  0  0  0  0  0  0  0  0  0
   -0.4527   -1.1097    0.2731 N   0  0  0  0  0  0  0  0  0  0  0  0
    0.0505    0.2693    0.4190 C   0  0  2  0  0  0  0  0  0  0  0  0
   -1.2118    1.1574    0.5636 C   0  0  0  0  0  0  0  0  0  0  0  0
   -1.9048    1.0562    1.5676 O   0  0  0  0  0  0  0  0  0  0  0  0
    0.9783    0.6635   -0.7750 C   0  0  2  0  0  0  0  0  0  0  0  0
    2.2400   -0.2382   -0.8184 C   0  0  0  0  0  0  0  0  0  0  0  0
    1.4684    2.1263   -0.6381 C   0  0  0  0  0  0  0  0  0  0  0  0
    3.0547   -0.0844   -2.1077 C   0  0  0  0  0  0  0  0  0  0  0  0
   -1.3494   -1.2438   -0.1862 H   0  0  0  0  0  0  0  0  0  0  0  0
    0.6196    0.3752    1.3495 H   0  0  0  0  0  0  0  0  0  0  0  0
    0.4212    0.5483   -1.7109 H   0  0  0  0  0  0  0  0  0  0  0  0
    2.8767   -0.0418    0.0508 H   0  0  0  0  0  0  0  0  0  0  0  0
    1.9404   -1.2877   -0.7718 H   0  0  0  0  0  0  0  0  0  0  0  0
    2.0790    2.2397    0.2637 H   0  0  0  0  0  0  0  0  0  0  0  0
    2.0708    2.4164   -1.5027 H   0  0  0  0  0  0  0  0  0  0  0  0
    0.6465    2.8408   -0.5768 H   0  0  0  0  0  0  0  0  0  0  0  0
    2.4128   -0.2073   -2.9854 H   0  0  0  0  0  0  0  0  0  0  0  0
    3.8372   -0.8487   -2.1431 H   0  0  0  0  0  0  0  0  0  0  0  0
    3.5392    0.8941   -2.1572 H   0  0  0  0  0  0  0  0  0  0  0  0
   -1.6811    1.9588   -0.4610 N   0  0  0  0  0  0  0  0  0  0  0  0
   -2.9695    2.6630   -0.4618 C   0  0  2  0  0  0  0  0  0  0  0  0
   -3.5081    2.8412   -1.8967 C   0  0  0  0  0  0  0  0  0  0  0  0
   -2.7895    2.5871   -2.8577 O   0  0  0  0  0  0  0  0  0  0  0  0
   -2.7797    4.0227    0.2182 C   0  0  0  0  0  0  0  0  0  0  0  0
   -1.1835    1.9184   -1.3505 H   0  0  0  0  0  0  0  0  0  0  0  0
   -3.7105    2.0794    0.0950 H   0  0  0  0  0  0  0  0  0  0  0  0
   -2.0479    4.6253   -0.3292 H   0  0  0  0  0  0  0  0  0  0  0  0
   -3.7258    4.5708    0.2548 H   0  0  0  0  0  0  0  0  0  0  0  0
   -2.4218    3.8874    1.2439 H   0  0  0  0  0  0  0  0  0  0  0  0
   -4.8060    3.2658   -2.1132 N   0  0  0  0  0  0  0  0  0  0  0  0
   -5.3796    3.4439   -3.4419 C   0  0  0  0  0  0  0  0  0  0  0  0
   -5.3823    3.4567   -1.2986 H   0  0  0  0  0  0  0  0  0  0  0  0
   -4.8120    4.1907   -4.0073 H   0  0  0  0  0  0  0  0  0  0  0  0
   -5.3681    2.4990   -3.9954 H   0  0  0  0  0  0  0  0  0  0  0  0
   -6.4165    3.7849   -3.3639 H   0  0  0  0  0  0  0  0  0  0  0  0
  1  2  2  0  0  0  0
  1  3  1  0  0  0  0
  1  7  1  0  0  0  0
  3  4  1  0  0  0  0
  3  5  1  0  0  0  0
  3  6  1  0  0  0  0
  7  8  1  0  0  0  0
  7 12  1  0  0  0  0
  8  9  1  0  0  0  0
  8 11  1  0  0  0  0
  8 13  1  0  0  0  0
  9 10  2  0  0  0  0
  9 17  1  0  0  0  0
 11 14  1  0  0  0  0
 11 15  1  0  0  0  0
 11 16  1  0  0  0  0
 17 18  1  0  0  0  0
 17 25  1  0  0  0  0
 18 19  1  0  0  0  0
 18 21  1  0  0  0  0
 18 26  1  0  0  0  0
 19 20  2  0  0  0  0
 19 36  1  0  0  0  0
 21 22  1  0  0  0  0
 21 23  1  0  0  0  0
 21 27  1  0  0  0  0
 22 24  1  0  0  0  0
 22 28  1  0  0  0  0
 22 29  1  0  0  0  0
 23 30  1  0  0  0  0
 23 31  1  0  0  0  0
 23 32  1  0  0  0  0
 24 33  1  0  0  0  0
 24 34  1  0  0  0  0
 24 35  1  0  0  0  0
 36 37  1  0  0  0  0
 36 41  1  0  0  0  0
 37 38  1  0  0  0  0
 37 40  1  0  0  0  0
 37 42  1  0  0  0  0
 38 39  2  0  0  0  0
 38 46  1  0  0  0  0
 40 43  1  0  0  0  0
 40 44  1  0  0  0  0
 40 45  1  0  0  0  0
 46 47  1  0  0  0  0
 46 48  1  0  0  0  0
 47 49  1  0  0  0  0
 47 50  1  0  0  0  0
 47 51  1  0  0  0  0
M  END
$$$$

  -OEChem-05262216503D

 51 50  0     1  0  0  0  0  0999 V2000
    0.8330   -5.5166    0.2348 C   0  0  0  0  0  0  0  0  0  0  0  0
    0.3554   -5.5806   -0.8871 O   0  0  0  0  0  0  0  0  0  0  0  0
    2.0405   -6.3624    0.5929 C   0  0  0  0  0  0  0  0  0  0  0  0
    2.3053   -7.0160   -0.2430 H   0  0  0  0  0  0  0  0  0  0  0  0
    2.8925   -5.7164    0.8193 H   0  0  0  0  0  0  0  0  0  0  0  0
    1.8186   -6.9811    1.4658 H   0  0  0  0  0  0  0  0  0  0  0  0
    0.2988   -4.6612    1.1759 N   0  0  0  0  0  0  0  0  0  0  0  0
   -0.6614   -3.5958    0.8534 C   0  0  2  0  0  0  0  0  0  0  0  0
   -0.0222   -2.1998    0.9991 C   0  0  0  0  0  0  0  0  0  0  0  0
    0.9354   -2.0449    1.7495 O   0  0  0  0  0  0  0  0  0  0  0  0
   -1.8548   -3.7387    1.7997 C   0  0  0  0  0  0  0  0  0  0  0  0
    0.8747   -4.5041    2.0010 H   0  0  0  0  0  0  0  0  0  0  0  0
   -1.0205   -3.6932   -0.1762 H   0  0  0  0  0  0  0  0  0  0  0  0
   -1.5341   -3.6236    2.8402 H   0  0  0  0  0  0  0  0  0  0  0  0
   -2.6100   -2.9769    1.5826 H   0  0  0  0  0  0  0  0  0  0  0  0
   -2.3149   -4.7251    1.6825 H   0  0  0  0  0  0  0  0  0  0  0  0
   -0.5334   -1.1210    0.2991 N   0  0  0  0  0  0  0  0  0  0  0  0
   -0.0465    0.2660    0.4287 C   0  0  2  0  0  0  0  0  0  0  0  0
   -1.2901    1.1802    0.5336 C   0  0  0  0  0  0  0  0  0  0  0  0
   -1.8275    1.3608    1.6176 O   0  0  0  0  0  0  0  0  0  0  0  0
    0.9004    0.6440   -0.7526 C   0  0  2  0  0  0  0  0  0  0  0  0
    2.1729   -0.2412   -0.7550 C   0  0  0  0  0  0  0  0  0  0  0  0
    1.3376    2.1233   -0.6502 C   0  0  0  0  0  0  0  0  0  0  0  0
    3.0058   -0.0997   -2.0332 C   0  0  0  0  0  0  0  0  0  0  0  0
   -1.3516   -1.2954   -0.2781 H   0  0  0  0  0  0  0  0  0  0  0  0
    0.5089    0.3876    1.3659 H   0  0  0  0  0  0  0  0  0  0  0  0
    0.3641    0.4919   -1.6953 H   0  0  0  0  0  0  0  0  0  0  0  0
    2.7923   -0.0129    0.1187 H   0  0  0  0  0  0  0  0  0  0  0  0
    1.8883   -1.2936   -0.6864 H   0  0  0  0  0  0  0  0  0  0  0  0
    1.9104    2.2880    0.2683 H   0  0  0  0  0  0  0  0  0  0  0  0
    1.9607    2.4061   -1.5022 H   0  0  0  0  0  0  0  0  0  0  0  0
    0.4823    2.8029   -0.6450 H   0  0  0  0  0  0  0  0  0  0  0  0
    2.3819   -0.2618   -2.9175 H   0  0  0  0  0  0  0  0  0  0  0  0
    3.8080   -0.8439   -2.0362 H   0  0  0  0  0  0  0  0  0  0  0  0
    3.4655    0.8900   -2.1003 H   0  0  0  0  0  0  0  0  0  0  0  0
   -1.8867    1.7206   -0.5912 N   0  0  0  0  0  0  0  0  0  0  0  0
   -3.1736    2.4273   -0.6032 C   0  0  2  0  0  0  0  0  0  0  0  0
   -3.9186    2.2112   -1.9369 C   0  0  0  0  0  0  0  0  0  0  0  0
   -3.3520    1.6564   -2.8728 O   0  0  0  0  0  0  0  0  0  0  0  0
   -2.9092    3.9168   -0.3615 C   0  0  0  0  0  0  0  0  0  0  0  0
   -1.5106    1.4445   -1.4977 H   0  0  0  0  0  0  0  0  0  0  0  0
   -3.8173    2.0408    0.1942 H   0  0  0  0  0  0  0  0  0  0  0  0
   -2.2751    4.3267   -1.1543 H   0  0  0  0  0  0  0  0  0  0  0  0
   -3.8490    4.4768   -0.3412 H   0  0  0  0  0  0  0  0  0  0  0  0
   -2.4030    4.0604    0.5987 H   0  0  0  0  0  0  0  0  0  0  0  0
   -5.2323    2.6168   -2.0825 N   0  0  0  0  0  0  0  0  0  0  0  0
   -5.9980    2.4280   -3.3088 C   0  0  0  0  0  0  0  0  0  0  0  0
   -5.6801    3.0610   -1.2860 H   0  0  0  0  0  0  0  0  0  0  0  0
   -5.5075    2.9312   -4.1486 H   0  0  0  0  0  0  0  0  0  0  0  0
   -6.0915    1.3622   -3.5423 H   0  0  0  0  0  0  0  0  0  0  0  0
   -7.0027    2.8468   -3.1959 H   0  0  0  0  0  0  0  0  0  0  0  0
  1  2  2  0  0  0  0
  1  3  1  0  0  0  0
  1  7  1  0  0  0  0
  3  4  1  0  0  0  0
  3  5  1  0  0  0  0
  3  6  1  0  0  0  0
  7  8  1  0  0  0  0
  7 12  1  0  0  0  0
  8  9  1  0  0  0  0
  8 11  1  0  0  0  0
  8 13  1  0  0  0  0
  9 10  2  0  0  0  0
  9 17  1  0  0  0  0
 11 14  1  0  0  0  0
 11 15  1  0  0  0  0
 11 16  1  0  0  0  0
 17 18  1  0  0  0  0
 17 25  1  0  0  0  0
 18 19  1  0  0  0  0
 18 21  1  0  0  0  0
 18 26  1  0  0  0  0
 19 20  2  0  0  0  0
 19 36  1  0  0  0  0
 21 22  1  0  0  0  0
 21 23  1  0  0  0  0
 21 27  1  0  0  0  0
 22 24  1  0  0  0  0
 22 28  1  0  0  0  0
 22 29  1  0  0  0  0
 23 30  1  0  0  0  0
 23 31  1  0  0  0  0
 23 32  1  0  0  0  0
 24 33  1  0  0  0  0
 24 34  1  0  0  0  0
 24 35  1  0  0  0  0
 36 37  1  0  0  0  0
 36 41  1  0  0  0  0
 37 38  1  0  0  0  0
 37 40  1  0  0  0  0
 37 42  1  0  0  0  0
 38 39  2  0  0  0  0
 38 46  1  0  0  0  0
 40 43  1  0  0  0  0
 40 44  1  0  0  0  0
 40 45  1  0  0  0  0
 46 47  1  0  0  0  0
 46 48  1  0  0  0  0
 47 49  1  0  0  0  0
 47 50  1  0  0  0  0
 47 51  1  0  0  0  0
M  END
$$$$

  -OEChem-05262216503D

 51 50  0     1  0  0  0  0  0999 V2000
   -0.3596   -5.5434   -0.1415 C   0  0  0  0  0  0  0  0  0  0  0  0
   -1.0391   -5.6726   -1.1476 O   0  0  0  0  0  0  0  0  0  0  0  0
    0.4635   -6.7096    0.3738 C   0  0  0  0  0  0  0  0  0  0  0  0
    0.3008   -7.5920   -0.2514 H   0  0  0  0  0  0  0  0  0  0  0  0
    1.5259   -6.4552    0.3536 H   0  0  0  0  0  0  0  0  0  0  0  0
    0.1719   -6.9467    1.3997 H   0  0  0  0  0  0  0  0  0  0  0  0
   -0.3338   -4.3388    0.5283 N   0  0  0  0  0  0  0  0  0  0  0  0
   -0.9734   -3.1037    0.0539 C   0  0  2  0  0  0  0  0  0  0  0  0
   -0.1946   -1.8529    0.5150 C   0  0  0  0  0  0  0  0  0  0  0  0
    0.6788   -1.9563    1.3714 O   0  0  0  0  0  0  0  0  0  0  0  0
   -2.4106   -3.0694    0.5829 C   0  0  0  0  0  0  0  0  0  0  0  0
    0.3343   -4.2400    1.2922 H   0  0  0  0  0  0  0  0  0  0  0  0
   -0.9925   -3.0912   -1.0414 H   0  0  0  0  0  0  0  0  0  0  0  0
   -2.4163   -3.0777    1.6774 H   0  0  0  0  0  0  0  0  0  0  0  0
   -2.9258   -2.1679    0.2395 H   0  0  0  0  0  0  0  0  0  0  0  0
   -2.9669   -3.9409    0.2238 H   0  0  0  0  0  0  0  0  0  0  0  0
   -0.4735   -0.6167   -0.0373 N   0  0  0  0  0  0  0  0  0  0  0  0
    0.0641    0.6629    0.4662 C   0  0  2  0  0  0  0  0  0  0  0  0
   -1.1209    1.6489    0.5003 C   0  0  0  0  0  0  0  0  0  0  0  0
   -1.8152    1.7494    1.5031 O   0  0  0  0  0  0  0  0  0  0  0  0
    1.2387    1.1786   -0.4180 C   0  0  2  0  0  0  0  0  0  0  0  0
    2.4370    0.1998   -0.3896 C   0  0  0  0  0  0  0  0  0  0  0  0
    1.7021    2.5707    0.0620 C   0  0  0  0  0  0  0  0  0  0  0  0
    3.5017    0.5238   -1.4421 C   0  0  0  0  0  0  0  0  0  0  0  0
   -1.3033   -0.5792   -0.6390 H   0  0  0  0  0  0  0  0  0  0  0  0
    0.4218    0.5502    1.4963 H   0  0  0  0  0  0  0  0  0  0  0  0
    0.8879    1.2595   -1.4520 H   0  0  0  0  0  0  0  0  0  0  0  0
    2.8902    0.1897    0.6073 H   0  0  0  0  0  0  0  0  0  0  0  0
    2.0870   -0.8134   -0.6001 H   0  0  0  0  0  0  0  0  0  0  0  0
    2.0729    2.5159    1.0907 H   0  0  0  0  0  0  0  0  0  0  0  0
    2.5018    2.9586   -0.5739 H   0  0  0  0  0  0  0  0  0  0  0  0
    0.8862    3.2979    0.0287 H   0  0  0  0  0  0  0  0  0  0  0  0
    3.0477    0.6078   -2.4342 H   0  0  0  0  0  0  0  0  0  0  0  0
    4.2479   -0.2758   -1.4715 H   0  0  0  0  0  0  0  0  0  0  0  0
    4.0178    1.4587   -1.2083 H   0  0  0  0  0  0  0  0  0  0  0  0
   -1.5829    2.1805   -0.6915 N   0  0  0  0  0  0  0  0  0  0  0  0
   -3.0286    2.2993   -0.9186 C   0  0  2  0  0  0  0  0  0  0  0  0
   -3.6668    0.9124   -1.1703 C   0  0  0  0  0  0  0  0  0  0  0  0
   -2.9642   -0.0364   -1.5167 O   0  0  0  0  0  0  0  0  0  0  0  0
   -3.2429    3.2176   -2.1232 C   0  0  0  0  0  0  0  0  0  0  0  0
   -1.0414    1.8787   -1.4968 H   0  0  0  0  0  0  0  0  0  0  0  0
   -3.5112    2.7519   -0.0453 H   0  0  0  0  0  0  0  0  0  0  0  0
   -2.7803    2.7906   -3.0190 H   0  0  0  0  0  0  0  0  0  0  0  0
   -4.3117    3.3535   -2.3153 H   0  0  0  0  0  0  0  0  0  0  0  0
   -2.7983    4.1999   -1.9345 H   0  0  0  0  0  0  0  0  0  0  0  0
   -5.0252    0.7223   -1.0040 N   0  0  0  0  0  0  0  0  0  0  0  0
   -5.6730   -0.5761   -1.1477 C   0  0  0  0  0  0  0  0  0  0  0  0
   -5.5640    1.4988   -0.6307 H   0  0  0  0  0  0  0  0  0  0  0  0
   -5.4825   -0.9936   -2.1422 H   0  0  0  0  0  0  0  0  0  0  0  0
   -5.2990   -1.2763   -0.3936 H   0  0  0  0  0  0  0  0  0  0  0  0
   -6.7549   -0.4745   -1.0193 H   0  0  0  0  0  0  0  0  0  0  0  0
  1  2  2  0  0  0  0
  1  3  1  0  0  0  0
  1  7  1  0  0  0  0
  3  4  1  0  0  0  0
  3  5  1  0  0  0  0
  3  6  1  0  0  0  0
  7  8  1  0  0  0  0
  7 12  1  0  0  0  0
  8  9  1  0  0  0  0
  8 11  1  0  0  0  0
  8 13  1  0  0  0  0
  9 10  2  0  0  0  0
  9 17  1  0  0  0  0
 11 14  1  0  0  0  0
 11 15  1  0  0  0  0
 11 16  1  0  0  0  0
 17 18  1  0  0  0  0
 17 25  1  0  0  0  0
 18 19  1  0  0  0  0
 18 21  1  0  0  0  0
 18 26  1  0  0  0  0
 19 20  2  0  0  0  0
 19 36  1  0  0  0  0
 21 22  1  0  0  0  0
 21 23  1  0  0  0  0
 21 27  1  0  0  0  0
 22 24  1  0  0  0  0
 22 28  1  0  0  0  0
 22 29  1  0  0  0  0
 23 30  1  0  0  0  0
 23 31  1  0  0  0  0
 23 32  1  0  0  0  0
 24 33  1  0  0  0  0
 24 34  1  0  0  0  0
 24 35  1  0  0  0  0
 36 37  1  0  0  0  0
 36 41  1  0  0  0  0
 37 38  1  0  0  0  0
 37 40  1  0  0  0  0
 37 42  1  0  0  0  0
 38 39  2  0  0  0  0
 38 46  1  0  0  0  0
 40 43  1  0  0  0  0
 40 44  1  0  0  0  0
 40 45  1  0  0  0  0
 46 47  1  0  0  0  0
 46 48  1  0  0  0  0
 47 49  1  0  0  0  0
 47 50  1  0  0  0  0
 47 51  1  0  0  0  0
M  END
$$$$

  -OEChem-05262216503D

 51 50  0     1  0  0  0  0  0999 V2000
    0.0900   -5.1885   -0.3450 C   0  0  0  0  0  0  0  0  0  0  0  0
   -0.1360   -5.0007   -1.5301 O   0  0  0  0  0  0  0  0  0  0  0  0
    1.0701   -6.2681    0.0746 C   0  0  0  0  0  0  0  0  0  0  0  0
    1.4257   -6.8167   -0.8020 H   0  0  0  0  0  0  0  0  0  0  0  0
    1.9276   -5.8166    0.5796 H   0  0  0  0  0  0  0  0  0  0  0  0
    0.5829   -6.9704    0.7553 H   0  0  0  0  0  0  0  0  0  0  0  0
   -0.5226   -4.4172    0.6211 N   0  0  0  0  0  0  0  0  0  0  0  0
   -1.2519   -3.1761    0.3209 C   0  0  2  0  0  0  0  0  0  0  0  0
   -0.4059   -1.9281    0.6457 C   0  0  0  0  0  0  0  0  0  0  0  0
    0.4454   -1.9781    1.5281 O   0  0  0  0  0  0  0  0  0  0  0  0
   -2.5378   -3.1789    1.1496 C   0  0  0  0  0  0  0  0  0  0  0  0
   -0.1132   -4.4796    1.5505 H   0  0  0  0  0  0  0  0  0  0  0  0
   -1.5252   -3.1309   -0.7390 H   0  0  0  0  0  0  0  0  0  0  0  0
   -2.3060   -3.2139    2.2189 H   0  0  0  0  0  0  0  0  0  0  0  0
   -3.1216   -2.2753    0.9510 H   0  0  0  0  0  0  0  0  0  0  0  0
   -3.1501   -4.0492    0.8945 H   0  0  0  0  0  0  0  0  0  0  0  0
   -0.6367   -0.7451   -0.0304 N   0  0  0  0  0  0  0  0  0  0  0  0
   -0.0679    0.5591    0.3680 C   0  0  2  0  0  0  0  0  0  0  0  0
   -1.2082    1.5926    0.2860 C   0  0  0  0  0  0  0  0  0  0  0  0
   -1.7483    2.0078    1.3024 O   0  0  0  0  0  0  0  0  0  0  0  0
    1.1292    0.9566   -0.5452 C   0  0  2  0  0  0  0  0  0  0  0  0
    2.2962   -0.0523   -0.4154 C   0  0  0  0  0  0  0  0  0  0  0  0
    1.6296    2.3735   -0.1939 C   0  0  0  0  0  0  0  0  0  0  0  0
    3.3819    0.1400   -1.4792 C   0  0  0  0  0  0  0  0  0  0  0  0
   -1.4944   -0.7393   -0.5917 H   0  0  0  0  0  0  0  0  0  0  0  0
    0.2734    0.5293    1.4092 H   0  0  0  0  0  0  0  0  0  0  0  0
    0.7870    0.9542   -1.5854 H   0  0  0  0  0  0  0  0  0  0  0  0
    2.7394    0.0137    0.5838 H   0  0  0  0  0  0  0  0  0  0  0  0
    1.9162   -1.0693   -0.5385 H   0  0  0  0  0  0  0  0  0  0  0  0
    1.9831    2.4081    0.8417 H   0  0  0  0  0  0  0  0  0  0  0  0
    2.4499    2.6736   -0.8506 H   0  0  0  0  0  0  0  0  0  0  0  0
    0.8365    3.1171   -0.3130 H   0  0  0  0  0  0  0  0  0  0  0  0
    2.9425    0.1454   -2.4815 H   0  0  0  0  0  0  0  0  0  0  0  0
    4.1038   -0.6807   -1.4232 H   0  0  0  0  0  0  0  0  0  0  0  0
    3.9247    1.0764   -1.3255 H   0  0  0  0  0  0  0  0  0  0  0  0
   -1.8255    1.7931   -0.9366 N   0  0  0  0  0  0  0  0  0  0  0  0
   -3.2854    1.9298   -1.0139 C   0  0  2  0  0  0  0  0  0  0  0  0
   -3.9750    0.5511   -0.8961 C   0  0  0  0  0  0  0  0  0  0  0  0
   -3.3434   -0.4745   -1.1458 O   0  0  0  0  0  0  0  0  0  0  0  0
   -3.6278    2.5928   -2.3495 C   0  0  0  0  0  0  0  0  0  0  0  0
   -1.3960    1.2663   -1.6928 H   0  0  0  0  0  0  0  0  0  0  0  0
   -3.6501    2.5717   -0.2046 H   0  0  0  0  0  0  0  0  0  0  0  0
   -3.2871    1.9736   -3.1858 H   0  0  0  0  0  0  0  0  0  0  0  0
   -4.7093    2.7337   -2.4402 H   0  0  0  0  0  0  0  0  0  0  0  0
   -3.1445    3.5724   -2.4208 H   0  0  0  0  0  0  0  0  0  0  0  0
   -5.2968    0.4556   -0.5048 N   0  0  0  0  0  0  0  0  0  0  0  0
   -5.9833   -0.8154   -0.3070 C   0  0  0  0  0  0  0  0  0  0  0  0
   -5.7626    1.3119   -0.2177 H   0  0  0  0  0  0  0  0  0  0  0  0
   -5.9554   -1.4146   -1.2234 H   0  0  0  0  0  0  0  0  0  0  0  0
   -5.5116   -1.3839    0.5014 H   0  0  0  0  0  0  0  0  0  0  0  0
   -7.0311   -0.6421   -0.0426 H   0  0  0  0  0  0  0  0  0  0  0  0
  1  2  2  0  0  0  0
  1  3  1  0  0  0  0
  1  7  1  0  0  0  0
  3  4  1  0  0  0  0
  3  5  1  0  0  0  0
  3  6  1  0  0  0  0
  7  8  1  0  0  0  0
  7 12  1  0  0  0  0
  8  9  1  0  0  0  0
  8 11  1  0  0  0  0
  8 13  1  0  0  0  0
  9 10  2  0  0  0  0
  9 17  1  0  0  0  0
 11 14  1  0  0  0  0
 11 15  1  0  0  0  0
 11 16  1  0  0  0  0
 17 18  1  0  0  0  0
 17 25  1  0  0  0  0
 18 19  1  0  0  0  0
 18 21  1  0  0  0  0
 18 26  1  0  0  0  0
 19 20  2  0  0  0  0
 19 36  1  0  0  0  0
 21 22  1  0  0  0  0
 21 23  1  0  0  0  0
 21 27  1  0  0  0  0
 22 24  1  0  0  0  0
 22 28  1  0  0  0  0
 22 29  1  0  0  0  0
 23 30  1  0  0  0  0
 23 31  1  0  0  0  0
 23 32  1  0  0  0  0
 24 33  1  0  0  0  0
 24 34  1  0  0  0  0
 24 35  1  0  0  0  0
 36 37  1  0  0  0  0
 36 41  1  0  0  0  0
 37 38  1  0  0  0  0
 37 40  1  0  0  0  0
 37 42  1  0  0  0  0
 38 39  2  0  0  0  0
 38 46  1  0  0  0  0
 40 43  1  0  0  0  0
 40 44  1  0  0  0  0
 40 45  1  0  0  0  0
 46 47  1  0  0  0  0
 46 48  1  0  0  0  0
 47 49  1  0  0  0  0
 47 50  1  0  0  0  0
 47 51  1  0  0  0  0
M  END
$$$$

  -OEChem-05262216503D

 51 50  0     1  0  0  0  0  0999 V2000
    0.1596   -5.0835   -0.2161 C   0  0  0  0  0  0  0  0  0  0  0  0
   -0.0945   -4.8211   -1.3813 O   0  0  0  0  0  0  0  0  0  0  0  0
    1.2219   -6.1156    0.1120 C   0  0  0  0  0  0  0  0  0  0  0  0
    1.6313   -6.5416   -0.8083 H   0  0  0  0  0  0  0  0  0  0  0  0
    2.0337   -5.6488    0.6755 H   0  0  0  0  0  0  0  0  0  0  0  0
    0.7877   -6.9205    0.7098 H   0  0  0  0  0  0  0  0  0  0  0  0
   -0.4901   -4.4292    0.8100 N   0  0  0  0  0  0  0  0  0  0  0  0
   -1.3022   -3.2233    0.5959 C   0  0  2  0  0  0  0  0  0  0  0  0
   -0.4686   -1.9419    0.7980 C   0  0  0  0  0  0  0  0  0  0  0  0
    0.3773   -1.9009    1.6858 O   0  0  0  0  0  0  0  0  0  0  0  0
   -2.4706   -3.2648    1.5829 C   0  0  0  0  0  0  0  0  0  0  0  0
   -0.0619   -4.5257    1.7274 H   0  0  0  0  0  0  0  0  0  0  0  0
   -1.7127   -3.2085   -0.4199 H   0  0  0  0  0  0  0  0  0  0  0  0
   -2.1032   -3.2791    2.6141 H   0  0  0  0  0  0  0  0  0  0  0  0
   -3.1083   -2.3852    1.4546 H   0  0  0  0  0  0  0  0  0  0  0  0
   -3.0771   -4.1598    1.4142 H   0  0  0  0  0  0  0  0  0  0  0  0
   -0.6982   -0.8347    0.0022 N   0  0  0  0  0  0  0  0  0  0  0  0
   -0.1528    0.5093    0.2973 C   0  0  2  0  0  0  0  0  0  0  0  0
   -1.2836    1.5385    0.0953 C   0  0  0  0  0  0  0  0  0  0  0  0
   -1.6676    2.2289    1.0292 O   0  0  0  0  0  0  0  0  0  0  0  0
    1.0541    0.8297   -0.6339 C   0  0  2  0  0  0  0  0  0  0  0  0
    2.2267   -0.1544   -0.3974 C   0  0  0  0  0  0  0  0  0  0  0  0
    1.5424    2.2771   -0.4082 C   0  0  0  0  0  0  0  0  0  0  0  0
    3.3264   -0.0554   -1.4596 C   0  0  0  0  0  0  0  0  0  0  0  0
   -1.5733   -0.8891   -0.5262 H   0  0  0  0  0  0  0  0  0  0  0  0
    0.1716    0.5759    1.3423 H   0  0  0  0  0  0  0  0  0  0  0  0
    0.7235    0.7309   -1.6733 H   0  0  0  0  0  0  0  0  0  0  0  0
    2.6558    0.0082    0.5969 H   0  0  0  0  0  0  0  0  0  0  0  0
    1.8562   -1.1818   -0.4300 H   0  0  0  0  0  0  0  0  0  0  0  0
    1.8647    2.4139    0.6291 H   0  0  0  0  0  0  0  0  0  0  0  0
    2.3812    2.5165   -1.0662 H   0  0  0  0  0  0  0  0  0  0  0  0
    0.7527    3.0029   -0.6229 H   0  0  0  0  0  0  0  0  0  0  0  0
    2.9008   -0.1544   -2.4629 H   0  0  0  0  0  0  0  0  0  0  0  0
    4.0538   -0.8597   -1.3131 H   0  0  0  0  0  0  0  0  0  0  0  0
    3.8592    0.8966   -1.3930 H   0  0  0  0  0  0  0  0  0  0  0  0
   -2.0750    1.4333   -1.0351 N   0  0  0  0  0  0  0  0  0  0  0  0
   -3.5351    1.5607   -0.9548 C   0  0  2  0  0  0  0  0  0  0  0  0
   -4.1794    0.1929   -0.6370 C   0  0  0  0  0  0  0  0  0  0  0  0
   -3.5340   -0.8403   -0.8075 O   0  0  0  0  0  0  0  0  0  0  0  0
   -4.0355    2.1005   -2.2959 C   0  0  0  0  0  0  0  0  0  0  0  0
   -1.7360    0.7453   -1.7028 H   0  0  0  0  0  0  0  0  0  0  0  0
   -3.8196    2.2688   -0.1690 H   0  0  0  0  0  0  0  0  0  0  0  0
   -3.7850    1.4087   -3.1068 H   0  0  0  0  0  0  0  0  0  0  0  0
   -5.1217    2.2329   -2.2744 H   0  0  0  0  0  0  0  0  0  0  0  0
   -3.5738    3.0699   -2.5089 H   0  0  0  0  0  0  0  0  0  0  0  0
   -5.4723    0.1152   -0.1559 N   0  0  0  0  0  0  0  0  0  0  0  0
   -6.1137   -1.1403    0.2152 C   0  0  0  0  0  0  0  0  0  0  0  0
   -5.9547    0.9885    0.0379 H   0  0  0  0  0  0  0  0  0  0  0  0
   -6.1026   -1.8416   -0.6260 H   0  0  0  0  0  0  0  0  0  0  0  0
   -5.5951   -1.5983    1.0637 H   0  0  0  0  0  0  0  0  0  0  0  0
   -7.1552   -0.9632    0.5000 H   0  0  0  0  0  0  0  0  0  0  0  0
  1  2  2  0  0  0  0
  1  3  1  0  0  0  0
  1  7  1  0  0  0  0
  3  4  1  0  0  0  0
  3  5  1  0  0  0  0
  3  6  1  0  0  0  0
  7  8  1  0  0  0  0
  7 12  1  0  0  0  0
  8  9  1  0  0  0  0
  8 11  1  0  0  0  0
  8 13  1  0  0  0  0
  9 10  2  0  0  0  0
  9 17  1  0  0  0  0
 11 14  1  0  0  0  0
 11 15  1  0  0  0  0
 11 16  1  0  0  0  0
 17 18  1  0  0  0  0
 17 25  1  0  0  0  0
 18 19  1  0  0  0  0
 18 21  1  0  0  0  0
 18 26  1  0  0  0  0
 19 20  2  0  0  0  0
 19 36  1  0  0  0  0
 21 22  1  0  0  0  0
 21 23  1  0  0  0  0
 21 27  1  0  0  0  0
 22 24  1  0  0  0  0
 22 28  1  0  0  0  0
 22 29  1  0  0  0  0
 23 30  1  0  0  0  0
 23 31  1  0  0  0  0
 23 32  1  0  0  0  0
 24 33  1  0  0  0  0
 24 34  1  0  0  0  0
 24 35  1  0  0  0  0
 36 37  1  0  0  0  0
 36 41  1  0  0  0  0
 37 38  1  0  0  0  0
 37 40  1  0  0  0  0
 37 42  1  0  0  0  0
 38 39  2  0  0  0  0
 38 46  1  0  0  0  0
 40 43  1  0  0  0  0
 40 44  1  0  0  0  0
 40 45  1  0  0  0  0
 46 47  1  0  0  0  0
 46 48  1  0  0  0  0
 47 49  1  0  0  0  0
 47 50  1  0  0  0  0
 47 51  1  0  0  0  0
M  END
$$$$

  -OEChem-05262216503D

 51 50  0     1  0  0  0  0  0999 V2000
    1.2496   -4.8716    0.2268 C   0  0  0  0  0  0  0  0  0  0  0  0
    1.2532   -4.4646   -0.9254 O   0  0  0  0  0  0  0  0  0  0  0  0
    2.4556   -5.6109    0.7756 C   0  0  0  0  0  0  0  0  0  0  0  0
    3.2092   -5.7364   -0.0071 H   0  0  0  0  0  0  0  0  0  0  0  0
    2.8961   -5.0454    1.6006 H   0  0  0  0  0  0  0  0  0  0  0  0
    2.1565   -6.5975    1.1379 H   0  0  0  0  0  0  0  0  0  0  0  0
    0.1656   -4.6241    1.0444 N   0  0  0  0  0  0  0  0  0  0  0  0
   -0.8786   -3.6605    0.6715 C   0  0  2  0  0  0  0  0  0  0  0  0
   -0.4623   -2.2146    1.0083 C   0  0  0  0  0  0  0  0  0  0  0  0
    0.1626   -1.9800    2.0360 O   0  0  0  0  0  0  0  0  0  0  0  0
   -2.1681   -4.0280    1.4082 C   0  0  0  0  0  0  0  0  0  0  0  0
    0.3303   -4.7586    2.0387 H   0  0  0  0  0  0  0  0  0  0  0  0
   -1.0756   -3.7219   -0.4041 H   0  0  0  0  0  0  0  0  0  0  0  0
   -2.0219   -3.9718    2.4918 H   0  0  0  0  0  0  0  0  0  0  0  0
   -2.9731   -3.3392    1.1305 H   0  0  0  0  0  0  0  0  0  0  0  0
   -2.4779   -5.0448    1.1478 H   0  0  0  0  0  0  0  0  0  0  0  0
   -0.8164   -1.1826    0.1587 N   0  0  0  0  0  0  0  0  0  0  0  0
   -0.3028    0.2001    0.2784 C   0  0  2  0  0  0  0  0  0  0  0  0
   -1.4730    1.1999    0.1245 C   0  0  0  0  0  0  0  0  0  0  0  0
   -1.4998    2.2369    0.7742 O   0  0  0  0  0  0  0  0  0  0  0  0
    0.7978    0.4340   -0.8006 C   0  0  2  0  0  0  0  0  0  0  0  0
    2.0120   -0.5040   -0.5739 C   0  0  0  0  0  0  0  0  0  0  0  0
    1.2770    1.9009   -0.7946 C   0  0  0  0  0  0  0  0  0  0  0  0
    3.0020   -0.5121   -1.7434 C   0  0  0  0  0  0  0  0  0  0  0  0
   -1.1816   -1.4792   -0.7412 H   0  0  0  0  0  0  0  0  0  0  0  0
    0.1314    0.3699    1.2704 H   0  0  0  0  0  0  0  0  0  0  0  0
    0.3663    0.2169   -1.7837 H   0  0  0  0  0  0  0  0  0  0  0  0
    2.5314   -0.2228    0.3483 H   0  0  0  0  0  0  0  0  0  0  0  0
    1.6697   -1.5342   -0.4538 H   0  0  0  0  0  0  0  0  0  0  0  0
    1.6716    2.1693    0.1907 H   0  0  0  0  0  0  0  0  0  0  0  0
    2.0600    2.0647   -1.5387 H   0  0  0  0  0  0  0  0  0  0  0  0
    0.4603    2.5857   -1.0397 H   0  0  0  0  0  0  0  0  0  0  0  0
    2.4825   -0.7162   -2.6847 H   0  0  0  0  0  0  0  0  0  0  0  0
    3.7505   -1.2949   -1.5870 H   0  0  0  0  0  0  0  0  0  0  0  0
    3.5268    0.4430   -1.8280 H   0  0  0  0  0  0  0  0  0  0  0  0
   -2.5627    0.8730   -0.6616 N   0  0  0  0  0  0  0  0  0  0  0  0
   -3.9062    1.4238   -0.4513 C   0  0  2  0  0  0  0  0  0  0  0  0
   -4.9155    0.2750   -0.2382 C   0  0  0  0  0  0  0  0  0  0  0  0
   -4.6037   -0.8764   -0.5343 O   0  0  0  0  0  0  0  0  0  0  0  0
   -4.2770    2.2657   -1.6733 C   0  0  0  0  0  0  0  0  0  0  0  0
   -2.5569   -0.0835   -1.0061 H   0  0  0  0  0  0  0  0  0  0  0  0
   -3.9338    2.0587    0.4407 H   0  0  0  0  0  0  0  0  0  0  0  0
   -4.2783    1.6501   -2.5785 H   0  0  0  0  0  0  0  0  0  0  0  0
   -5.2705    2.7065   -1.5485 H   0  0  0  0  0  0  0  0  0  0  0  0
   -3.5532    3.0763   -1.8033 H   0  0  0  0  0  0  0  0  0  0  0  0
   -6.1643    0.5235    0.2991 N   0  0  0  0  0  0  0  0  0  0  0  0
   -7.1445   -0.5230    0.5626 C   0  0  0  0  0  0  0  0  0  0  0  0
   -6.3772    1.4781    0.5746 H   0  0  0  0  0  0  0  0  0  0  0  0
   -7.4319   -1.0227   -0.3686 H   0  0  0  0  0  0  0  0  0  0  0  0
   -6.7340   -1.2694    1.2508 H   0  0  0  0  0  0  0  0  0  0  0  0
   -8.0429   -0.0930    1.0157 H   0  0  0  0  0  0  0  0  0  0  0  0
  1  2  2  0  0  0  0
  1  3  1  0  0  0  0
  1  7  1  0  0  0  0
  3  4  1  0  0  0  0
  3  5  1  0  0  0  0
  3  6  1  0  0  0  0
  7  8  1  0  0  0  0
  7 12  1  0  0  0  0
  8  9  1  0  0  0  0
  8 11  1  0  0  0  0
  8 13  1  0  0  0  0
  9 10  2  0  0  0  0
  9 17  1  0  0  0  0
 11 14  1  0  0  0  0
 11 15  1  0  0  0  0
 11 16  1  0  0  0  0
 17 18  1  0  0  0  0
 17 25  1  0  0  0  0
 18 19  1  0  0  0  0
 18 21  1  0  0  0  0
 18 26  1  0  0  0  0
 19 20  2  0  0  0  0
 19 36  1  0  0  0  0
 21 22  1  0  0  0  0
 21 23  1  0  0  0  0
 21 27  1  0  0  0  0
 22 24  1  0  0  0  0
 22 28  1  0  0  0  0
 22 29  1  0  0  0  0
 23 30  1  0  0  0  0
 23 31  1  0  0  0  0
 23 32  1  0  0  0  0
 24 33  1  0  0  0  0
 24 34  1  0  0  0  0
 24 35  1  0  0  0  0
 36 37  1  0  0  0  0
 36 41  1  0  0  0  0
 37 38  1  0  0  0  0
 37 40  1  0  0  0  0
 37 42  1  0  0  0  0
 38 39  2  0  0  0  0
 38 46  1  0  0  0  0
 40 43  1  0  0  0  0
 40 44  1  0  0  0  0
 40 45  1  0  0  0  0
 46 47  1  0  0  0  0
 46 48  1  0  0  0  0
 47 49  1  0  0  0  0
 47 50  1  0  0  0  0
 47 51  1  0  0  0  0
M  END
$$$$

  -OEChem-05262216503D

 51 50  0     1  0  0  0  0  0999 V2000
    0.2195   -4.0803   -0.7254 C   0  0  0  0  0  0  0  0  0  0  0  0
   -0.6786   -3.3984   -1.1974 O   0  0  0  0  0  0  0  0  0  0  0  0
    1.3150   -4.6225   -1.6224 C   0  0  0  0  0  0  0  0  0  0  0  0
    1.1375   -4.3215   -2.6590 H   0  0  0  0  0  0  0  0  0  0  0  0
    2.2850   -4.2320   -1.3046 H   0  0  0  0  0  0  0  0  0  0  0  0
    1.3334   -5.7138   -1.5714 H   0  0  0  0  0  0  0  0  0  0  0  0
    0.2761   -4.2876    0.6384 N   0  0  0  0  0  0  0  0  0  0  0  0
   -0.6928   -3.7352    1.5996 C   0  0  2  0  0  0  0  0  0  0  0  0
   -0.4983   -2.2152    1.8194 C   0  0  0  0  0  0  0  0  0  0  0  0
   -0.0363   -1.7668    2.8605 O   0  0  0  0  0  0  0  0  0  0  0  0
   -0.5691   -4.5423    2.8979 C   0  0  0  0  0  0  0  0  0  0  0  0
    1.0880   -4.7799    1.0010 H   0  0  0  0  0  0  0  0  0  0  0  0
   -1.7091   -3.8780    1.2156 H   0  0  0  0  0  0  0  0  0  0  0  0
    0.4306   -4.4308    3.3304 H   0  0  0  0  0  0  0  0  0  0  0  0
   -1.3032   -4.1924    3.6309 H   0  0  0  0  0  0  0  0  0  0  0  0
   -0.7520   -5.6041    2.7070 H   0  0  0  0  0  0  0  0  0  0  0  0
   -0.7889   -1.3613    0.7728 N   0  0  0  0  0  0  0  0  0  0  0  0
   -0.3762    0.0552    0.6950 C   0  0  2  0  0  0  0  0  0  0  0  0
   -1.5760    0.9165    0.2264 C   0  0  0  0  0  0  0  0  0  0  0  0
   -1.6023    2.1247    0.4274 O   0  0  0  0  0  0  0  0  0  0  0  0
    0.8459    0.1542   -0.2753 C   0  0  2  0  0  0  0  0  0  0  0  0
    2.0630   -0.6387    0.2721 C   0  0  0  0  0  0  0  0  0  0  0  0
    1.2614    1.6193   -0.5243 C   0  0  0  0  0  0  0  0  0  0  0  0
    3.1959   -0.8044   -0.7459 C   0  0  0  0  0  0  0  0  0  0  0  0
   -0.9635   -1.8483   -0.1115 H   0  0  0  0  0  0  0  0  0  0  0  0
   -0.0825    0.4305    1.6814 H   0  0  0  0  0  0  0  0  0  0  0  0
    0.5506   -0.2825   -1.2359 H   0  0  0  0  0  0  0  0  0  0  0  0
    2.4471   -0.1477    1.1726 H   0  0  0  0  0  0  0  0  0  0  0  0
    1.7563   -1.6460    0.5572 H   0  0  0  0  0  0  0  0  0  0  0  0
    1.4653    2.1254    0.4246 H   0  0  0  0  0  0  0  0  0  0  0  0
    2.1542    1.6820   -1.1497 H   0  0  0  0  0  0  0  0  0  0  0  0
    0.4738    2.1655   -1.0501 H   0  0  0  0  0  0  0  0  0  0  0  0
    2.8093   -1.2030   -1.6888 H   0  0  0  0  0  0  0  0  0  0  0  0
    3.9425   -1.5026   -0.3557 H   0  0  0  0  0  0  0  0  0  0  0  0
    3.6975    0.1467   -0.9419 H   0  0  0  0  0  0  0  0  0  0  0  0
   -2.6868    0.3152   -0.3384 N   0  0  0  0  0  0  0  0  0  0  0  0
   -3.9876    0.9715   -0.5200 C   0  0  2  0  0  0  0  0  0  0  0  0
   -5.1319    0.1129    0.0578 C   0  0  0  0  0  0  0  0  0  0  0  0
   -4.9640   -1.0850    0.2627 O   0  0  0  0  0  0  0  0  0  0  0  0
   -4.1895    1.2050   -2.0187 C   0  0  0  0  0  0  0  0  0  0  0  0
   -2.7121   -0.7005   -0.2584 H   0  0  0  0  0  0  0  0  0  0  0  0
   -4.0097    1.9354   -0.0009 H   0  0  0  0  0  0  0  0  0  0  0  0
   -4.1819    0.2524   -2.5586 H   0  0  0  0  0  0  0  0  0  0  0  0
   -5.1453    1.7040   -2.2051 H   0  0  0  0  0  0  0  0  0  0  0  0
   -3.3868    1.8360   -2.4134 H   0  0  0  0  0  0  0  0  0  0  0  0
   -6.3574    0.6847    0.3469 N   0  0  0  0  0  0  0  0  0  0  0  0
   -7.4704   -0.0576    0.9259 C   0  0  0  0  0  0  0  0  0  0  0  0
   -6.4539    1.6858    0.2044 H   0  0  0  0  0  0  0  0  0  0  0  0
   -7.7603   -0.8862    0.2712 H   0  0  0  0  0  0  0  0  0  0  0  0
   -7.1937   -0.4618    1.9054 H   0  0  0  0  0  0  0  0  0  0  0  0
   -8.3362    0.5990    1.0550 H   0  0  0  0  0  0  0  0  0  0  0  0
  1  2  2  0  0  0  0
  1  3  1  0  0  0  0
  1  7  1  0  0  0  0
  3  4  1  0  0  0  0
  3  5  1  0  0  0  0
  3  6  1  0  0  0  0
  7  8  1  0  0  0  0
  7 12  1  0  0  0  0
  8  9  1  0  0  0  0
  8 11  1  0  0  0  0
  8 13  1  0  0  0  0
  9 10  2  0  0  0  0
  9 17  1  0  0  0  0
 11 14  1  0  0  0  0
 11 15  1  0  0  0  0
 11 16  1  0  0  0  0
 17 18  1  0  0  0  0
 17 25  1  0  0  0  0
 18 19  1  0  0  0  0
 18 21  1  0  0  0  0
 18 26  1  0  0  0  0
 19 20  2  0  0  0  0
 19 36  1  0  0  0  0
 21 22  1  0  0  0  0
 21 23  1  0  0  0  0
 21 27  1  0  0  0  0
 22 24  1  0  0  0  0
 22 28  1  0  0  0  0
 22 29  1  0  0  0  0
 23 30  1  0  0  0  0
 23 31  1  0  0  0  0
 23 32  1  0  0  0  0
 24 33  1  0  0  0  0
 24 34  1  0  0  0  0
 24 35  1  0  0  0  0
 36 37  1  0  0  0  0
 36 41  1  0  0  0  0
 37 38  1  0  0  0  0
 37 40  1  0  0  0  0
 37 42  1  0  0  0  0
 38 39  2  0  0  0  0
 38 46  1  0  0  0  0
 40 43  1  0  0  0  0
 40 44  1  0  0  0  0
 40 45  1  0  0  0  0
 46 47  1  0  0  0  0
 46 48  1  0  0  0  0
 47 49  1  0  0  0  0
 47 50  1  0  0  0  0
 47 51  1  0  0  0  0
M  END
$$$$

  -OEChem-05262216503D

 51 50  0     1  0  0  0  0  0999 V2000
    0.2251   -4.1514   -0.6374 C   0  0  0  0  0  0  0  0  0  0  0  0
   -0.7395   -3.5120   -1.0307 O   0  0  0  0  0  0  0  0  0  0  0  0
    1.2401   -4.6884   -1.6281 C   0  0  0  0  0  0  0  0  0  0  0  0
    0.9526   -4.4142   -2.6471 H   0  0  0  0  0  0  0  0  0  0  0  0
    2.2275   -4.2701   -1.4165 H   0  0  0  0  0  0  0  0  0  0  0  0
    1.2901   -5.7778   -1.5582 H   0  0  0  0  0  0  0  0  0  0  0  0
    0.4252   -4.3188    0.7182 N   0  0  0  0  0  0  0  0  0  0  0  0
   -0.4610   -3.7700    1.7576 C   0  0  2  0  0  0  0  0  0  0  0  0
   -0.2859   -2.2414    1.9237 C   0  0  0  0  0  0  0  0  0  0  0  0
    0.2595   -1.7582    2.9071 O   0  0  0  0  0  0  0  0  0  0  0  0
   -0.1865   -4.5433    3.0532 C   0  0  0  0  0  0  0  0  0  0  0  0
    1.2918   -4.7627    1.0091 H   0  0  0  0  0  0  0  0  0  0  0  0
   -1.5057   -3.9480    1.4790 H   0  0  0  0  0  0  0  0  0  0  0  0
    0.8513   -4.4055    3.3732 H   0  0  0  0  0  0  0  0  0  0  0  0
   -0.8443   -4.1873    3.8527 H   0  0  0  0  0  0  0  0  0  0  0  0
   -0.3693   -5.6122    2.9067 H   0  0  0  0  0  0  0  0  0  0  0  0
   -0.6955   -1.4168    0.8931 N   0  0  0  0  0  0  0  0  0  0  0  0
   -0.3090    0.0024    0.7442 C   0  0  2  0  0  0  0  0  0  0  0  0
   -1.5693    0.8356    0.3846 C   0  0  0  0  0  0  0  0  0  0  0  0
   -1.5477    2.0600    0.3553 O   0  0  0  0  0  0  0  0  0  0  0  0
    0.8156    0.0734   -0.3457 C   0  0  2  0  0  0  0  0  0  0  0  0
    2.0854   -0.7016    0.1027 C   0  0  0  0  0  0  0  0  0  0  0  0
    1.2065    1.5281   -0.6842 C   0  0  0  0  0  0  0  0  0  0  0  0
    3.1174   -0.8984   -1.0141 C   0  0  0  0  0  0  0  0  0  0  0  0
   -0.9589   -1.9232    0.0417 H   0  0  0  0  0  0  0  0  0  0  0  0
    0.0780    0.4054    1.6867 H   0  0  0  0  0  0  0  0  0  0  0  0
    0.4308   -0.3942   -1.2586 H   0  0  0  0  0  0  0  0  0  0  0  0
    2.5516   -0.1859    0.9488 H   0  0  0  0  0  0  0  0  0  0  0  0
    1.8132   -1.7010    0.4430 H   0  0  0  0  0  0  0  0  0  0  0  0
    1.4515    2.0816    0.2280 H   0  0  0  0  0  0  0  0  0  0  0  0
    2.0665    1.5700   -1.3552 H   0  0  0  0  0  0  0  0  0  0  0  0
    0.3905    2.0414   -1.1994 H   0  0  0  0  0  0  0  0  0  0  0  0
    2.6416   -1.3135   -1.9078 H   0  0  0  0  0  0  0  0  0  0  0  0
    3.8929   -1.5949   -0.6813 H   0  0  0  0  0  0  0  0  0  0  0  0
    3.6058    0.0432   -1.2780 H   0  0  0  0  0  0  0  0  0  0  0  0
   -2.7980    0.2138    0.2536 N   0  0  0  0  0  0  0  0  0  0  0  0
   -4.0897    0.9023    0.1568 C   0  0  2  0  0  0  0  0  0  0  0  0
   -5.2292    0.0466    0.7499 C   0  0  0  0  0  0  0  0  0  0  0  0
   -5.0386   -1.1328    1.0293 O   0  0  0  0  0  0  0  0  0  0  0  0
   -4.3580    1.2145   -1.3186 C   0  0  0  0  0  0  0  0  0  0  0  0
   -2.8269   -0.7767    0.4949 H   0  0  0  0  0  0  0  0  0  0  0  0
   -4.0535    1.8375    0.7255 H   0  0  0  0  0  0  0  0  0  0  0  0
   -4.4104    0.2887   -1.9005 H   0  0  0  0  0  0  0  0  0  0  0  0
   -5.3027    1.7541   -1.4340 H   0  0  0  0  0  0  0  0  0  0  0  0
   -3.5548    1.8369   -1.7258 H   0  0  0  0  0  0  0  0  0  0  0  0
   -6.4733    0.6039    0.9828 N   0  0  0  0  0  0  0  0  0  0  0  0
   -7.5888   -0.1386    1.5567 C   0  0  0  0  0  0  0  0  0  0  0  0
   -6.5963    1.5881    0.7634 H   0  0  0  0  0  0  0  0  0  0  0  0
   -7.8443   -0.9959    0.9249 H   0  0  0  0  0  0  0  0  0  0  0  0
   -7.3323   -0.5018    2.5576 H   0  0  0  0  0  0  0  0  0  0  0  0
   -8.4702    0.5048    1.6373 H   0  0  0  0  0  0  0  0  0  0  0  0
  1  2  2  0  0  0  0
  1  3  1  0  0  0  0
  1  7  1  0  0  0  0
  3  4  1  0  0  0  0
  3  5  1  0  0  0  0
  3  6  1  0  0  0  0
  7  8  1  0  0  0  0
  7 12  1  0  0  0  0
  8  9  1  0  0  0  0
  8 11  1  0  0  0  0
  8 13  1  0  0  0  0
  9 10  2  0  0  0  0
  9 17  1  0  0  0  0
 11 14  1  0  0  0  0
 11 15  1  0  0  0  0
 11 16  1  0  0  0  0
 17 18  1  0  0  0  0
 17 25  1  0  0  0  0
 18 19  1  0  0  0  0
 18 21  1  0  0  0  0
 18 26  1  0  0  0  0
 19 20  2  0  0  0  0
 19 36  1  0  0  0  0
 21 22  1  0  0  0  0
 21 23  1  0  0  0  0
 21 27  1  0  0  0  0
 22 24  1  0  0  0  0
 22 28  1  0  0  0  0
 22 29  1  0  0  0  0
 23 30  1  0  0  0  0
 23 31  1  0  0  0  0
 23 32  1  0  0  0  0
 24 33  1  0  0  0  0
 24 34  1  0  0  0  0
 24 35  1  0  0  0  0
 36 37  1  0  0  0  0
 36 41  1  0  0  0  0
 37 38  1  0  0  0  0
 37 40  1  0  0  0  0
 37 42  1  0  0  0  0
 38 39  2  0  0  0  0
 38 46  1  0  0  0  0
 40 43  1  0  0  0  0
 40 44  1  0  0  0  0
 40 45  1  0  0  0  0
 46 47  1  0  0  0  0
 46 48  1  0  0  0  0
 47 49  1  0  0  0  0
 47 50  1  0  0  0  0
 47 51  1  0  0  0  0
M  END
$$$$

  -OEChem-05262216503D

 51 50  0     1  0  0  0  0  0999 V2000
    0.2513   -4.2015   -0.6224 C   0  0  0  0  0  0  0  0  0  0  0  0
   -0.7463   -3.5929   -0.9804 O   0  0  0  0  0  0  0  0  0  0  0  0
    1.2376   -4.7228   -1.6492 C   0  0  0  0  0  0  0  0  0  0  0  0
    0.8720   -4.5206   -2.6600 H   0  0  0  0  0  0  0  0  0  0  0  0
    2.2051   -4.2312   -1.5205 H   0  0  0  0  0  0  0  0  0  0  0  0
    1.3647   -5.8015   -1.5306 H   0  0  0  0  0  0  0  0  0  0  0  0
    0.5163   -4.3443    0.7246 N   0  0  0  0  0  0  0  0  0  0  0  0
   -0.3309   -3.7943    1.7952 C   0  0  2  0  0  0  0  0  0  0  0  0
   -0.1760   -2.2602    1.9303 C   0  0  0  0  0  0  0  0  0  0  0  0
    0.4003   -1.7523    2.8833 O   0  0  0  0  0  0  0  0  0  0  0  0
    0.0192   -4.5422    3.0873 C   0  0  0  0  0  0  0  0  0  0  0  0
    1.4053   -4.7644    0.9814 H   0  0  0  0  0  0  0  0  0  0  0  0
   -1.3840   -3.9950    1.5691 H   0  0  0  0  0  0  0  0  0  0  0  0
    1.0666   -4.3756    3.3587 H   0  0  0  0  0  0  0  0  0  0  0  0
   -0.6108   -4.1898    3.9103 H   0  0  0  0  0  0  0  0  0  0  0  0
   -0.1442   -5.6169    2.9632 H   0  0  0  0  0  0  0  0  0  0  0  0
   -0.6401   -1.4555    0.9062 N   0  0  0  0  0  0  0  0  0  0  0  0
   -0.2842   -0.0315    0.7229 C   0  0  2  0  0  0  0  0  0  0  0  0
   -1.5853    0.7598    0.4040 C   0  0  0  0  0  0  0  0  0  0  0  0
   -1.5869    1.9489    0.1123 O   0  0  0  0  0  0  0  0  0  0  0  0
    0.8157    0.0364   -0.3956 C   0  0  2  0  0  0  0  0  0  0  0  0
    2.1082   -0.7094    0.0417 C   0  0  0  0  0  0  0  0  0  0  0  0
    1.1870    1.4887   -0.7670 C   0  0  0  0  0  0  0  0  0  0  0  0
    3.1223   -0.9156   -1.0898 C   0  0  0  0  0  0  0  0  0  0  0  0
   -0.9452   -1.9742    0.0761 H   0  0  0  0  0  0  0  0  0  0  0  0
    0.1214    0.3936    1.6471 H   0  0  0  0  0  0  0  0  0  0  0  0
    0.4195   -0.4532   -1.2920 H   0  0  0  0  0  0  0  0  0  0  0  0
    2.5834   -0.1685    0.8670 H   0  0  0  0  0  0  0  0  0  0  0  0
    1.8612   -1.7062    0.4070 H   0  0  0  0  0  0  0  0  0  0  0  0
    1.3808    2.0767    0.1356 H   0  0  0  0  0  0  0  0  0  0  0  0
    2.0724    1.5344   -1.4027 H   0  0  0  0  0  0  0  0  0  0  0  0
    0.3822    1.9633   -1.3334 H   0  0  0  0  0  0  0  0  0  0  0  0
    2.6329   -1.3438   -1.9701 H   0  0  0  0  0  0  0  0  0  0  0  0
    3.9058   -1.6048   -0.7606 H   0  0  0  0  0  0  0  0  0  0  0  0
    3.6042    0.0232   -1.3738 H   0  0  0  0  0  0  0  0  0  0  0  0
   -2.8143    0.1707    0.6396 N   0  0  0  0  0  0  0  0  0  0  0  0
   -4.1128    0.8536    0.6037 C   0  0  2  0  0  0  0  0  0  0  0  0
   -5.1522    0.1339    1.4891 C   0  0  0  0  0  0  0  0  0  0  0  0
   -4.9259   -0.9918    1.9215 O   0  0  0  0  0  0  0  0  0  0  0  0
   -4.5936    0.9113   -0.8504 C   0  0  0  0  0  0  0  0  0  0  0  0
   -2.7943   -0.7598    1.0566 H   0  0  0  0  0  0  0  0  0  0  0  0
   -4.0012    1.8721    0.9901 H   0  0  0  0  0  0  0  0  0  0  0  0
   -4.7164   -0.0996   -1.2525 H   0  0  0  0  0  0  0  0  0  0  0  0
   -5.5524    1.4337   -0.9188 H   0  0  0  0  0  0  0  0  0  0  0  0
   -3.8668    1.4462   -1.4700 H   0  0  0  0  0  0  0  0  0  0  0  0
   -6.3458    0.7538    1.8115 N   0  0  0  0  0  0  0  0  0  0  0  0
   -7.3637    0.1415    2.6568 C   0  0  0  0  0  0  0  0  0  0  0  0
   -6.4954    1.6962    1.4629 H   0  0  0  0  0  0  0  0  0  0  0  0
   -7.7164   -0.7962    2.2143 H   0  0  0  0  0  0  0  0  0  0  0  0
   -6.9594   -0.0691    3.6524 H   0  0  0  0  0  0  0  0  0  0  0  0
   -8.2195    0.8145    2.7668 H   0  0  0  0  0  0  0  0  0  0  0  0
  1  2  2  0  0  0  0
  1  3  1  0  0  0  0
  1  7  1  0  0  0  0
  3  4  1  0  0  0  0
  3  5  1  0  0  0  0
  3  6  1  0  0  0  0
  7  8  1  0  0  0  0
  7 12  1  0  0  0  0
  8  9  1  0  0  0  0
  8 11  1  0  0  0  0
  8 13  1  0  0  0  0
  9 10  2  0  0  0  0
  9 17  1  0  0  0  0
 11 14  1  0  0  0  0
 11 15  1  0  0  0  0
 11 16  1  0  0  0  0
 17 18  1  0  0  0  0
 17 25  1  0  0  0  0
 18 19  1  0  0  0  0
 18 21  1  0  0  0  0
 18 26  1  0  0  0  0
 19 20  2  0  0  0  0
 19 36  1  0  0  0  0
 21 22  1  0  0  0  0
 21 23  1  0  0  0  0
 21 27  1  0  0  0  0
 22 24  1  0  0  0  0
 22 28  1  0  0  0  0
 22 29  1  0  0  0  0
 23 30  1  0  0  0  0
 23 31  1  0  0  0  0
 23 32  1  0  0  0  0
 24 33  1  0  0  0  0
 24 34  1  0  0  0  0
 24 35  1  0  0  0  0
 36 37  1  0  0  0  0
 36 41  1  0  0  0  0
 37 38  1  0  0  0  0
 37 40  1  0  0  0  0
 37 42  1  0  0  0  0
 38 39  2  0  0  0  0
 38 46  1  0  0  0  0
 40 43  1  0  0  0  0
 40 44  1  0  0  0  0
 40 45  1  0  0  0  0
 46 47  1  0  0  0  0
 46 48  1  0  0  0  0
 47 49  1  0  0  0  0
 47 50  1  0  0  0  0
 47 51  1  0  0  0  0
M  END
$$$$

  -OEChem-05262216503D

 51 50  0     1  0  0  0  0  0999 V2000
    1.5369   -4.8594   -0.0358 C   0  0  0  0  0  0  0  0  0  0  0  0
    1.2228   -4.4512   -1.1438 O   0  0  0  0  0  0  0  0  0  0  0  0
    2.9202   -5.4362    0.1987 C   0  0  0  0  0  0  0  0  0  0  0  0
    3.4961   -5.4227   -0.7309 H   0  0  0  0  0  0  0  0  0  0  0  0
    3.4497   -4.8428    0.9485 H   0  0  0  0  0  0  0  0  0  0  0  0
    2.8415   -6.4680    0.5493 H   0  0  0  0  0  0  0  0  0  0  0  0
    0.6513   -4.7455    1.0165 N   0  0  0  0  0  0  0  0  0  0  0  0
   -0.5530   -3.9110    0.9221 C   0  0  2  0  0  0  0  0  0  0  0  0
   -0.2229   -2.4243    1.1615 C   0  0  0  0  0  0  0  0  0  0  0  0
    0.5130   -2.1013    2.0861 O   0  0  0  0  0  0  0  0  0  0  0  0
   -1.5685   -4.4079    1.9530 C   0  0  0  0  0  0  0  0  0  0  0  0
    1.0516   -4.8720    1.9426 H   0  0  0  0  0  0  0  0  0  0  0  0
   -1.0009   -4.0129   -0.0722 H   0  0  0  0  0  0  0  0  0  0  0  0
   -1.1646   -4.3162    2.9666 H   0  0  0  0  0  0  0  0  0  0  0  0
   -2.4902   -3.8197    1.8937 H   0  0  0  0  0  0  0  0  0  0  0  0
   -1.8152   -5.4579    1.7679 H   0  0  0  0  0  0  0  0  0  0  0  0
   -0.7850   -1.4464    0.3608 N   0  0  0  0  0  0  0  0  0  0  0  0
   -0.3752   -0.0237    0.3729 C   0  0  2  0  0  0  0  0  0  0  0  0
   -1.6850    0.8183    0.3860 C   0  0  0  0  0  0  0  0  0  0  0  0
   -1.7787    1.9629   -0.0336 O   0  0  0  0  0  0  0  0  0  0  0  0
    0.5958    0.2285   -0.8359 C   0  0  2  0  0  0  0  0  0  0  0  0
    1.8924   -0.6177   -0.6862 C   0  0  0  0  0  0  0  0  0  0  0  0
    1.0074    1.7147   -0.9523 C   0  0  0  0  0  0  0  0  0  0  0  0
    2.7758   -0.6411   -1.9398 C   0  0  0  0  0  0  0  0  0  0  0  0
   -1.2697   -1.7828   -0.4677 H   0  0  0  0  0  0  0  0  0  0  0  0
    0.1567    0.2209    1.2984 H   0  0  0  0  0  0  0  0  0  0  0  0
    0.0870   -0.0655   -1.7603 H   0  0  0  0  0  0  0  0  0  0  0  0
    2.4739   -0.2571    0.1689 H   0  0  0  0  0  0  0  0  0  0  0  0
    1.6351   -1.6590   -0.4895 H   0  0  0  0  0  0  0  0  0  0  0  0
    1.2726    2.1168    0.0304 H   0  0  0  0  0  0  0  0  0  0  0  0
    1.8606    1.8523   -1.6178 H   0  0  0  0  0  0  0  0  0  0  0  0
    0.1984    2.3147   -1.3743 H   0  0  0  0  0  0  0  0  0  0  0  0
    2.1782   -0.8809   -2.8247 H   0  0  0  0  0  0  0  0  0  0  0  0
    3.5484   -1.4080   -1.8289 H   0  0  0  0  0  0  0  0  0  0  0  0
    3.2781    0.3159   -2.0994 H   0  0  0  0  0  0  0  0  0  0  0  0
   -2.8045    0.2790    0.9936 N   0  0  0  0  0  0  0  0  0  0  0  0
   -4.0399    1.0033    1.3127 C   0  0  2  0  0  0  0  0  0  0  0  0
   -4.7672    0.3477    2.5054 C   0  0  0  0  0  0  0  0  0  0  0  0
   -4.4758   -0.7930    2.8522 O   0  0  0  0  0  0  0  0  0  0  0  0
   -4.9464    1.0158    0.0775 C   0  0  0  0  0  0  0  0  0  0  0  0
   -2.6675   -0.6148    1.4662 H   0  0  0  0  0  0  0  0  0  0  0  0
   -3.7973    2.0330    1.5955 H   0  0  0  0  0  0  0  0  0  0  0  0
   -5.2063   -0.0061   -0.2165 H   0  0  0  0  0  0  0  0  0  0  0  0
   -5.8697    1.5651    0.2852 H   0  0  0  0  0  0  0  0  0  0  0  0
   -4.4397    1.5016   -0.7626 H   0  0  0  0  0  0  0  0  0  0  0  0
   -5.7385    1.0409    3.2037 N   0  0  0  0  0  0  0  0  0  0  0  0
   -6.4221    0.4994    4.3721 C   0  0  0  0  0  0  0  0  0  0  0  0
   -5.9353    1.9952    2.9159 H   0  0  0  0  0  0  0  0  0  0  0  0
   -6.9714   -0.4105    4.1085 H   0  0  0  0  0  0  0  0  0  0  0  0
   -5.7008    0.2594    5.1606 H   0  0  0  0  0  0  0  0  0  0  0  0
   -7.1344    1.2305    4.7666 H   0  0  0  0  0  0  0  0  0  0  0  0
  1  2  2  0  0  0  0
  1  3  1  0  0  0  0
  1  7  1  0  0  0  0
  3  4  1  0  0  0  0
  3  5  1  0  0  0  0
  3  6  1  0  0  0  0
  7  8  1  0  0  0  0
  7 12  1  0  0  0  0
  8  9  1  0  0  0  0
  8 11  1  0  0  0  0
  8 13  1  0  0  0  0
  9 10  2  0  0  0  0
  9 17  1  0  0  0  0
 11 14  1  0  0  0  0
 11 15  1  0  0  0  0
 11 16  1  0  0  0  0
 17 18  1  0  0  0  0
 17 25  1  0  0  0  0
 18 19  1  0  0  0  0
 18 21  1  0  0  0  0
 18 26  1  0  0  0  0
 19 20  2  0  0  0  0
 19 36  1  0  0  0  0
 21 22  1  0  0  0  0
 21 23  1  0  0  0  0
 21 27  1  0  0  0  0
 22 24  1  0  0  0  0
 22 28  1  0  0  0  0
 22 29  1  0  0  0  0
 23 30  1  0  0  0  0
 23 31  1  0  0  0  0
 23 32  1  0  0  0  0
 24 33  1  0  0  0  0
 24 34  1  0  0  0  0
 24 35  1  0  0  0  0
 36 37  1  0  0  0  0
 36 41  1  0  0  0  0
 37 38  1  0  0  0  0
 37 40  1  0  0  0  0
 37 42  1  0  0  0  0
 38 39  2  0  0  0  0
 38 46  1  0  0  0  0
 40 43  1  0  0  0  0
 40 44  1  0  0  0  0
 40 45  1  0  0  0  0
 46 47  1  0  0  0  0
 46 48  1  0  0  0  0
 47 49  1  0  0  0  0
 47 50  1  0  0  0  0
 47 51  1  0  0  0  0
M  END
$$$$

  -OEChem-05262216503D

 51 50  0     1  0  0  0  0  0999 V2000
    1.3184   -5.3757    0.1167 C   0  0  0  0  0  0  0  0  0  0  0  0
    0.9118   -5.3279   -1.0337 O   0  0  0  0  0  0  0  0  0  0  0  0
    2.6018   -6.1186    0.4373 C   0  0  0  0  0  0  0  0  0  0  0  0
    2.9650   -6.6441   -0.4502 H   0  0  0  0  0  0  0  0  0  0  0  0
    3.3678   -5.4131    0.7685 H   0  0  0  0  0  0  0  0  0  0  0  0
    2.4227   -6.8499    1.2292 H   0  0  0  0  0  0  0  0  0  0  0  0
    0.6275   -4.7406    1.1281 N   0  0  0  0  0  0  0  0  0  0  0  0
   -0.4685   -3.7915    0.8856 C   0  0  2  0  0  0  0  0  0  0  0  0
   -0.0023   -2.3304    1.0423 C   0  0  0  0  0  0  0  0  0  0  0  0
    0.8768   -2.0485    1.8482 O   0  0  0  0  0  0  0  0  0  0  0  0
   -1.5872   -4.1003    1.8832 C   0  0  0  0  0  0  0  0  0  0  0  0
    1.1330   -4.6334    2.0049 H   0  0  0  0  0  0  0  0  0  0  0  0
   -0.8672   -3.9131   -0.1270 H   0  0  0  0  0  0  0  0  0  0  0  0
   -1.2327   -3.9694    2.9108 H   0  0  0  0  0  0  0  0  0  0  0  0
   -2.4387   -3.4316    1.7230 H   0  0  0  0  0  0  0  0  0  0  0  0
   -1.9298   -5.1324    1.7605 H   0  0  0  0  0  0  0  0  0  0  0  0
   -0.6348   -1.3175    0.3447 N   0  0  0  0  0  0  0  0  0  0  0  0
   -0.2406    0.1068    0.3787 C   0  0  2  0  0  0  0  0  0  0  0  0
   -1.5739    0.8891    0.5464 C   0  0  0  0  0  0  0  0  0  0  0  0
   -1.9573    1.7659   -0.2157 O   0  0  0  0  0  0  0  0  0  0  0  0
    0.6056    0.4691   -0.8875 C   0  0  2  0  0  0  0  0  0  0  0  0
    1.9266   -0.3478   -0.9107 C   0  0  0  0  0  0  0  0  0  0  0  0
    1.0073    1.9655   -0.8974 C   0  0  0  0  0  0  0  0  0  0  0  0
    2.6849   -0.2532   -2.2397 C   0  0  0  0  0  0  0  0  0  0  0  0
   -1.3177   -1.6022   -0.3532 H   0  0  0  0  0  0  0  0  0  0  0  0
    0.3648    0.3224    1.2658 H   0  0  0  0  0  0  0  0  0  0  0  0
    0.0163    0.2466   -1.7834 H   0  0  0  0  0  0  0  0  0  0  0  0
    2.5780   -0.0346   -0.0879 H   0  0  0  0  0  0  0  0  0  0  0  0
    1.7063   -1.4070   -0.7650 H   0  0  0  0  0  0  0  0  0  0  0  0
    1.5687    2.2156    0.0084 H   0  0  0  0  0  0  0  0  0  0  0  0
    1.6278    2.2008   -1.7649 H   0  0  0  0  0  0  0  0  0  0  0  0
    0.1437    2.6283   -0.9566 H   0  0  0  0  0  0  0  0  0  0  0  0
    2.0152   -0.4654   -3.0788 H   0  0  0  0  0  0  0  0  0  0  0  0
    3.4975   -0.9858   -2.2532 H   0  0  0  0  0  0  0  0  0  0  0  0
    3.1253    0.7372   -2.3796 H   0  0  0  0  0  0  0  0  0  0  0  0
   -2.4844    0.4294    1.4809 N   0  0  0  0  0  0  0  0  0  0  0  0
   -3.8153    0.9935    1.7379 C   0  0  2  0  0  0  0  0  0  0  0  0
   -4.3069    0.6260    3.1533 C   0  0  0  0  0  0  0  0  0  0  0  0
   -3.7929   -0.3095    3.7578 O   0  0  0  0  0  0  0  0  0  0  0  0
   -4.7979    0.4615    0.6883 C   0  0  0  0  0  0  0  0  0  0  0  0
   -2.1596   -0.2969    2.1201 H   0  0  0  0  0  0  0  0  0  0  0  0
   -3.7666    2.0855    1.6715 H   0  0  0  0  0  0  0  0  0  0  0  0
   -4.8533   -0.6306    0.7366 H   0  0  0  0  0  0  0  0  0  0  0  0
   -5.7988    0.8691    0.8583 H   0  0  0  0  0  0  0  0  0  0  0  0
   -4.4774    0.7499   -0.3176 H   0  0  0  0  0  0  0  0  0  0  0  0
   -5.3289    1.3400    3.7510 N   0  0  0  0  0  0  0  0  0  0  0  0
   -5.8211    1.0577    5.0942 C   0  0  0  0  0  0  0  0  0  0  0  0
   -5.7168    2.1275    3.2396 H   0  0  0  0  0  0  0  0  0  0  0  0
   -6.1772    0.0243    5.1636 H   0  0  0  0  0  0  0  0  0  0  0  0
   -5.0258    1.2065    5.8324 H   0  0  0  0  0  0  0  0  0  0  0  0
   -6.6523    1.7253    5.3412 H   0  0  0  0  0  0  0  0  0  0  0  0
  1  2  2  0  0  0  0
  1  3  1  0  0  0  0
  1  7  1  0  0  0  0
  3  4  1  0  0  0  0
  3  5  1  0  0  0  0
  3  6  1  0  0  0  0
  7  8  1  0  0  0  0
  7 12  1  0  0  0  0
  8  9  1  0  0  0  0
  8 11  1  0  0  0  0
  8 13  1  0  0  0  0
  9 10  2  0  0  0  0
  9 17  1  0  0  0  0
 11 14  1  0  0  0  0
 11 15  1  0  0  0  0
 11 16  1  0  0  0  0
 17 18  1  0  0  0  0
 17 25  1  0  0  0  0
 18 19  1  0  0  0  0
 18 21  1  0  0  0  0
 18 26  1  0  0  0  0
 19 20  2  0  0  0  0
 19 36  1  0  0  0  0
 21 22  1  0  0  0  0
 21 23  1  0  0  0  0
 21 27  1  0  0  0  0
 22 24  1  0  0  0  0
 22 28  1  0  0  0  0
 22 29  1  0  0  0  0
 23 30  1  0  0  0  0
 23 31  1  0  0  0  0
 23 32  1  0  0  0  0
 24 33  1  0  0  0  0
 24 34  1  0  0  0  0
 24 35  1  0  0  0  0
 36 37  1  0  0  0  0
 36 41  1  0  0  0  0
 37 38  1  0  0  0  0
 37 40  1  0  0  0  0
 37 42  1  0  0  0  0
 38 39  2  0  0  0  0
 38 46  1  0  0  0  0
 40 43  1  0  0  0  0
 40 44  1  0  0  0  0
 40 45  1  0  0  0  0
 46 47  1  0  0  0  0
 46 48  1  0  0  0  0
 47 49  1  0  0  0  0
 47 50  1  0  0  0  0
 47 51  1  0  0  0  0
M  END
$$$$

  -OEChem-05262216503D

 51 50  0     1  0  0  0  0  0999 V2000
    1.2736   -5.5662    0.1200 C   0  0  0  0  0  0  0  0  0  0  0  0
    0.7688   -5.6642   -0.9873 O   0  0  0  0  0  0  0  0  0  0  0  0
    2.5635   -6.3020    0.4299 C   0  0  0  0  0  0  0  0  0  0  0  0
    2.8747   -6.8957   -0.4343 H   0  0  0  0  0  0  0  0  0  0  0  0
    3.3538   -5.5859    0.6688 H   0  0  0  0  0  0  0  0  0  0  0  0
    2.4167   -6.9711    1.2812 H   0  0  0  0  0  0  0  0  0  0  0  0
    0.6872   -4.7768    1.0880 N   0  0  0  0  0  0  0  0  0  0  0  0
   -0.4034   -3.8289    0.8177 C   0  0  2  0  0  0  0  0  0  0  0  0
    0.0538   -2.3696    1.0107 C   0  0  0  0  0  0  0  0  0  0  0  0
    0.9575   -2.1060    1.7957 O   0  0  0  0  0  0  0  0  0  0  0  0
   -1.5574   -4.1542    1.7682 C   0  0  0  0  0  0  0  0  0  0  0  0
    1.2598   -4.5812    1.9074 H   0  0  0  0  0  0  0  0  0  0  0  0
   -0.7615   -3.9314   -0.2120 H   0  0  0  0  0  0  0  0  0  0  0  0
   -1.2384   -4.0457    2.8100 H   0  0  0  0  0  0  0  0  0  0  0  0
   -2.4015   -3.4805    1.5915 H   0  0  0  0  0  0  0  0  0  0  0  0
   -1.8971   -5.1828    1.6117 H   0  0  0  0  0  0  0  0  0  0  0  0
   -0.5982   -1.3435    0.3529 N   0  0  0  0  0  0  0  0  0  0  0  0
   -0.2168    0.0800    0.4154 C   0  0  2  0  0  0  0  0  0  0  0  0
   -1.5431    0.8518    0.6266 C   0  0  0  0  0  0  0  0  0  0  0  0
   -2.0818    1.5027   -0.2602 O   0  0  0  0  0  0  0  0  0  0  0  0
    0.5890    0.4978   -0.8547 C   0  0  2  0  0  0  0  0  0  0  0  0
    1.9202   -0.2932   -0.9446 C   0  0  0  0  0  0  0  0  0  0  0  0
    0.9380    2.0046   -0.8205 C   0  0  0  0  0  0  0  0  0  0  0  0
    2.6342   -0.1339   -2.2909 C   0  0  0  0  0  0  0  0  0  0  0  0
   -1.3091   -1.6107   -0.3239 H   0  0  0  0  0  0  0  0  0  0  0  0
    0.4084    0.2760    1.2933 H   0  0  0  0  0  0  0  0  0  0  0  0
   -0.0209    0.2910   -1.7409 H   0  0  0  0  0  0  0  0  0  0  0  0
    2.5903    0.0084   -0.1327 H   0  0  0  0  0  0  0  0  0  0  0  0
    1.7233   -1.3605   -0.8247 H   0  0  0  0  0  0  0  0  0  0  0  0
    1.5593    2.2343    0.0509 H   0  0  0  0  0  0  0  0  0  0  0  0
    1.4815    2.3000   -1.7212 H   0  0  0  0  0  0  0  0  0  0  0  0
    0.0448    2.6309   -0.7762 H   0  0  0  0  0  0  0  0  0  0  0  0
    1.9513   -0.3580   -3.1161 H   0  0  0  0  0  0  0  0  0  0  0  0
    3.4790   -0.8272   -2.3438 H   0  0  0  0  0  0  0  0  0  0  0  0
    3.0231    0.8796   -2.4189 H   0  0  0  0  0  0  0  0  0  0  0  0
   -2.2866    0.5745    1.7582 N   0  0  0  0  0  0  0  0  0  0  0  0
   -3.6066    1.1371    2.0670 C   0  0  2  0  0  0  0  0  0  0  0  0
   -3.8518    1.1860    3.5891 C   0  0  0  0  0  0  0  0  0  0  0  0
   -3.1640    0.5082    4.3447 O   0  0  0  0  0  0  0  0  0  0  0  0
   -4.6769    0.2789    1.3839 C   0  0  0  0  0  0  0  0  0  0  0  0
   -1.8330    0.0287    2.4919 H   0  0  0  0  0  0  0  0  0  0  0  0
   -3.6654    2.1627    1.6874 H   0  0  0  0  0  0  0  0  0  0  0  0
   -4.6262   -0.7533    1.7448 H   0  0  0  0  0  0  0  0  0  0  0  0
   -5.6764    0.6722    1.5925 H   0  0  0  0  0  0  0  0  0  0  0  0
   -4.5281    0.2767    0.2995 H   0  0  0  0  0  0  0  0  0  0  0  0
   -4.8462    1.9895    4.1155 N   0  0  0  0  0  0  0  0  0  0  0  0
   -5.1165    2.0919    5.5445 C   0  0  0  0  0  0  0  0  0  0  0  0
   -5.3886    2.5552    3.4692 H   0  0  0  0  0  0  0  0  0  0  0  0
   -5.3890    1.1134    5.9539 H   0  0  0  0  0  0  0  0  0  0  0  0
   -4.2337    2.4631    6.0760 H   0  0  0  0  0  0  0  0  0  0  0  0
   -5.9446    2.7841    5.7242 H   0  0  0  0  0  0  0  0  0  0  0  0
  1  2  2  0  0  0  0
  1  3  1  0  0  0  0
  1  7  1  0  0  0  0
  3  4  1  0  0  0  0
  3  5  1  0  0  0  0
  3  6  1  0  0  0  0
  7  8  1  0  0  0  0
  7 12  1  0  0  0  0
  8  9  1  0  0  0  0
  8 11  1  0  0  0  0
  8 13  1  0  0  0  0
  9 10  2  0  0  0  0
  9 17  1  0  0  0  0
 11 14  1  0  0  0  0
 11 15  1  0  0  0  0
 11 16  1  0  0  0  0
 17 18  1  0  0  0  0
 17 25  1  0  0  0  0
 18 19  1  0  0  0  0
 18 21  1  0  0  0  0
 18 26  1  0  0  0  0
 19 20  2  0  0  0  0
 19 36  1  0  0  0  0
 21 22  1  0  0  0  0
 21 23  1  0  0  0  0
 21 27  1  0  0  0  0
 22 24  1  0  0  0  0
 22 28  1  0  0  0  0
 22 29  1  0  0  0  0
 23 30  1  0  0  0  0
 23 31  1  0  0  0  0
 23 32  1  0  0  0  0
 24 33  1  0  0  0  0
 24 34  1  0  0  0  0
 24 35  1  0  0  0  0
 36 37  1  0  0  0  0
 36 41  1  0  0  0  0
 37 38  1  0  0  0  0
 37 40  1  0  0  0  0
 37 42  1  0  0  0  0
 38 39  2  0  0  0  0
 38 46  1  0  0  0  0
 40 43  1  0  0  0  0
 40 44  1  0  0  0  0
 40 45  1  0  0  0  0
 46 47  1  0  0  0  0
 46 48  1  0  0  0  0
 47 49  1  0  0  0  0
 47 50  1  0  0  0  0
 47 51  1  0  0  0  0
M  END
$$$$

  -OEChem-05262216503D

 51 50  0     1  0  0  0  0  0999 V2000
    1.2625   -5.7460    0.1713 C   0  0  0  0  0  0  0  0  0  0  0  0
    0.6814   -5.9797   -0.8766 O   0  0  0  0  0  0  0  0  0  0  0  0
    2.5469   -6.4799    0.5073 C   0  0  0  0  0  0  0  0  0  0  0  0
    2.8142   -7.1638   -0.3031 H   0  0  0  0  0  0  0  0  0  0  0  0
    3.3603   -5.7636    0.6468 H   0  0  0  0  0  0  0  0  0  0  0  0
    2.4165   -7.0567    1.4261 H   0  0  0  0  0  0  0  0  0  0  0  0
    0.7639   -4.8077    1.0506 N   0  0  0  0  0  0  0  0  0  0  0  0
   -0.3268   -3.8763    0.7307 C   0  0  2  0  0  0  0  0  0  0  0  0
    0.0934   -2.4142    0.9805 C   0  0  0  0  0  0  0  0  0  0  0  0
    1.0095   -2.1621    1.7556 O   0  0  0  0  0  0  0  0  0  0  0  0
   -1.5324   -4.2448    1.5982 C   0  0  0  0  0  0  0  0  0  0  0  0
    1.3816   -4.5314    1.8127 H   0  0  0  0  0  0  0  0  0  0  0  0
   -0.6091   -3.9607   -0.3241 H   0  0  0  0  0  0  0  0  0  0  0  0
   -1.2835   -4.1516    2.6602 H   0  0  0  0  0  0  0  0  0  0  0  0
   -2.3784   -3.5860    1.3797 H   0  0  0  0  0  0  0  0  0  0  0  0
   -1.8378   -5.2772    1.4006 H   0  0  0  0  0  0  0  0  0  0  0  0
   -0.5762   -1.3772    0.3584 N   0  0  0  0  0  0  0  0  0  0  0  0
   -0.2020    0.0447    0.4534 C   0  0  2  0  0  0  0  0  0  0  0  0
   -1.5166    0.8188    0.7038 C   0  0  0  0  0  0  0  0  0  0  0  0
   -2.1690    1.3025   -0.2141 O   0  0  0  0  0  0  0  0  0  0  0  0
    0.5660    0.5056   -0.8226 C   0  0  2  0  0  0  0  0  0  0  0  0
    1.9007   -0.2676   -0.9779 C   0  0  0  0  0  0  0  0  0  0  0  0
    0.8792    2.0175   -0.7528 C   0  0  0  0  0  0  0  0  0  0  0  0
    2.5671   -0.0536   -2.3409 C   0  0  0  0  0  0  0  0  0  0  0  0
   -1.3040   -1.6284   -0.3067 H   0  0  0  0  0  0  0  0  0  0  0  0
    0.4452    0.2190    1.3197 H   0  0  0  0  0  0  0  0  0  0  0  0
   -0.0649    0.3137   -1.6977 H   0  0  0  0  0  0  0  0  0  0  0  0
    2.5934    0.0159   -0.1785 H   0  0  0  0  0  0  0  0  0  0  0  0
    1.7185   -1.3406   -0.8853 H   0  0  0  0  0  0  0  0  0  0  0  0
    1.5202    2.2368    0.1069 H   0  0  0  0  0  0  0  0  0  0  0  0
    1.3878    2.3539   -1.6596 H   0  0  0  0  0  0  0  0  0  0  0  0
   -0.0317    2.6144   -0.6625 H   0  0  0  0  0  0  0  0  0  0  0  0
    1.8630   -0.2699   -3.1502 H   0  0  0  0  0  0  0  0  0  0  0  0
    3.4257   -0.7243   -2.4424 H   0  0  0  0  0  0  0  0  0  0  0  0
    2.9271    0.9727   -2.4503 H   0  0  0  0  0  0  0  0  0  0  0  0
   -2.0929    0.7690    1.9584 N   0  0  0  0  0  0  0  0  0  0  0  0
   -3.3534    1.4224    2.3323 C   0  0  2  0  0  0  0  0  0  0  0  0
   -3.3721    1.8055    3.8268 C   0  0  0  0  0  0  0  0  0  0  0  0
   -2.5522    1.3189    4.5976 O   0  0  0  0  0  0  0  0  0  0  0  0
   -4.5113    0.4710    2.0125 C   0  0  0  0  0  0  0  0  0  0  0  0
   -1.5356    0.3713    2.7155 H   0  0  0  0  0  0  0  0  0  0  0  0
   -3.4725    2.3454    1.7549 H   0  0  0  0  0  0  0  0  0  0  0  0
   -4.4168   -0.4536    2.5908 H   0  0  0  0  0  0  0  0  0  0  0  0
   -5.4703    0.9382    2.2555 H   0  0  0  0  0  0  0  0  0  0  0  0
   -4.5133    0.2171    0.9478 H   0  0  0  0  0  0  0  0  0  0  0  0
   -4.3111    2.6978    4.3108 N   0  0  0  0  0  0  0  0  0  0  0  0
   -4.3895    3.0954    5.7116 C   0  0  0  0  0  0  0  0  0  0  0  0
   -4.9778    3.0865    3.6502 H   0  0  0  0  0  0  0  0  0  0  0  0
   -4.6071    2.2283    6.3441 H   0  0  0  0  0  0  0  0  0  0  0  0
   -3.4437    3.5410    6.0380 H   0  0  0  0  0  0  0  0  0  0  0  0
   -5.1847    3.8340    5.8518 H   0  0  0  0  0  0  0  0  0  0  0  0
  1  2  2  0  0  0  0
  1  3  1  0  0  0  0
  1  7  1  0  0  0  0
  3  4  1  0  0  0  0
  3  5  1  0  0  0  0
  3  6  1  0  0  0  0
  7  8  1  0  0  0  0
  7 12  1  0  0  0  0
  8  9  1  0  0  0  0
  8 11  1  0  0  0  0
  8 13  1  0  0  0  0
  9 10  2  0  0  0  0
  9 17  1  0  0  0  0
 11 14  1  0  0  0  0
 11 15  1  0  0  0  0
 11 16  1  0  0  0  0
 17 18  1  0  0  0  0
 17 25  1  0  0  0  0
 18 19  1  0  0  0  0
 18 21  1  0  0  0  0
 18 26  1  0  0  0  0
 19 20  2  0  0  0  0
 19 36  1  0  0  0  0
 21 22  1  0  0  0  0
 21 23  1  0  0  0  0
 21 27  1  0  0  0  0
 22 24  1  0  0  0  0
 22 28  1  0  0  0  0
 22 29  1  0  0  0  0
 23 30  1  0  0  0  0
 23 31  1  0  0  0  0
 23 32  1  0  0  0  0
 24 33  1  0  0  0  0
 24 34  1  0  0  0  0
 24 35  1  0  0  0  0
 36 37  1  0  0  0  0
 36 41  1  0  0  0  0
 37 38  1  0  0  0  0
 37 40  1  0  0  0  0
 37 42  1  0  0  0  0
 38 39  2  0  0  0  0
 38 46  1  0  0  0  0
 40 43  1  0  0  0  0
 40 44  1  0  0  0  0
 40 45  1  0  0  0  0
 46 47  1  0  0  0  0
 46 48  1  0  0  0  0
 47 49  1  0  0  0  0
 47 50  1  0  0  0  0
 47 51  1  0  0  0  0
M  END
$$$$

  -OEChem-05262216503D

 51 50  0     1  0  0  0  0  0999 V2000
    1.2133   -5.9043    0.2131 C   0  0  0  0  0  0  0  0  0  0  0  0
    0.5327   -6.2277   -0.7474 O   0  0  0  0  0  0  0  0  0  0  0  0
    2.4875   -6.6631    0.5320 C   0  0  0  0  0  0  0  0  0  0  0  0
    2.6666   -7.4330   -0.2236 H   0  0  0  0  0  0  0  0  0  0  0  0
    3.3379   -5.9770    0.5433 H   0  0  0  0  0  0  0  0  0  0  0  0
    2.4010   -7.1423    1.5102 H   0  0  0  0  0  0  0  0  0  0  0  0
    0.8343   -4.8398    1.0033 N   0  0  0  0  0  0  0  0  0  0  0  0
   -0.2557   -3.9128    0.6714 C   0  0  2  0  0  0  0  0  0  0  0  0
    0.1359   -2.4532    0.9779 C   0  0  0  0  0  0  0  0  0  0  0  0
    1.0685   -2.2131    1.7372 O   0  0  0  0  0  0  0  0  0  0  0  0
   -1.4940   -4.3209    1.4725 C   0  0  0  0  0  0  0  0  0  0  0  0
    1.5082   -4.5174    1.6971 H   0  0  0  0  0  0  0  0  0  0  0  0
   -0.4857   -3.9694   -0.3979 H   0  0  0  0  0  0  0  0  0  0  0  0
   -1.2920   -4.2621    2.5468 H   0  0  0  0  0  0  0  0  0  0  0  0
   -2.3365   -3.6628    1.2392 H   0  0  0  0  0  0  0  0  0  0  0  0
   -1.7799   -5.3486    1.2268 H   0  0  0  0  0  0  0  0  0  0  0  0
   -0.5477   -1.4064    0.3880 N   0  0  0  0  0  0  0  0  0  0  0  0
   -0.1837    0.0156    0.5106 C   0  0  2  0  0  0  0  0  0  0  0  0
   -1.4867    0.7960    0.7931 C   0  0  0  0  0  0  0  0  0  0  0  0
   -2.2465    1.1036   -0.1184 O   0  0  0  0  0  0  0  0  0  0  0  0
    0.5547    0.5093   -0.7695 C   0  0  2  0  0  0  0  0  0  0  0  0
    1.8922   -0.2474   -0.9707 C   0  0  0  0  0  0  0  0  0  0  0  0
    0.8391    2.0245   -0.6800 C   0  0  0  0  0  0  0  0  0  0  0  0
    2.5264    0.0038   -2.3424 C   0  0  0  0  0  0  0  0  0  0  0  0
   -1.2998   -1.6442   -0.2551 H   0  0  0  0  0  0  0  0  0  0  0  0
    0.4804    0.1720    1.3674 H   0  0  0  0  0  0  0  0  0  0  0  0
   -0.0914    0.3244   -1.6351 H   0  0  0  0  0  0  0  0  0  0  0  0
    2.5996    0.0260   -0.1808 H   0  0  0  0  0  0  0  0  0  0  0  0
    1.7219   -1.3238   -0.8980 H   0  0  0  0  0  0  0  0  0  0  0  0
    1.4896    2.2435    0.1728 H   0  0  0  0  0  0  0  0  0  0  0  0
    1.3256    2.3858   -1.5895 H   0  0  0  0  0  0  0  0  0  0  0  0
   -0.0855    2.5972   -0.5656 H   0  0  0  0  0  0  0  0  0  0  0  0
    1.8066   -0.2005   -3.1410 H   0  0  0  0  0  0  0  0  0  0  0  0
    3.3887   -0.6562   -2.4776 H   0  0  0  0  0  0  0  0  0  0  0  0
    2.8744    1.0359   -2.4357 H   0  0  0  0  0  0  0  0  0  0  0  0
   -1.8993    1.0014    2.0955 N   0  0  0  0  0  0  0  0  0  0  0  0
   -3.0947    1.7619    2.4831 C   0  0  2  0  0  0  0  0  0  0  0  0
   -2.9058    2.4641    3.8442 C   0  0  0  0  0  0  0  0  0  0  0  0
   -1.9507    2.1790    4.5581 O   0  0  0  0  0  0  0  0  0  0  0  0
   -4.2880    0.8024    2.5351 C   0  0  0  0  0  0  0  0  0  0  0  0
   -1.2391    0.7718    2.8392 H   0  0  0  0  0  0  0  0  0  0  0  0
   -3.2909    2.5411    1.7389 H   0  0  0  0  0  0  0  0  0  0  0  0
   -4.1156    0.0189    3.2800 H   0  0  0  0  0  0  0  0  0  0  0  0
   -5.2034    1.3404    2.7994 H   0  0  0  0  0  0  0  0  0  0  0  0
   -4.4379    0.3294    1.5593 H   0  0  0  0  0  0  0  0  0  0  0  0
   -3.8037    3.4267    4.2678 N   0  0  0  0  0  0  0  0  0  0  0  0
   -3.6869    4.1246    5.5426 C   0  0  0  0  0  0  0  0  0  0  0  0
   -4.5829    3.6481    3.6548 H   0  0  0  0  0  0  0  0  0  0  0  0
   -3.7410    3.4137    6.3741 H   0  0  0  0  0  0  0  0  0  0  0  0
   -2.7349    4.6632    5.6000 H   0  0  0  0  0  0  0  0  0  0  0  0
   -4.4995    4.8491    5.6539 H   0  0  0  0  0  0  0  0  0  0  0  0
  1  2  2  0  0  0  0
  1  3  1  0  0  0  0
  1  7  1  0  0  0  0
  3  4  1  0  0  0  0
  3  5  1  0  0  0  0
  3  6  1  0  0  0  0
  7  8  1  0  0  0  0
  7 12  1  0  0  0  0
  8  9  1  0  0  0  0
  8 11  1  0  0  0  0
  8 13  1  0  0  0  0
  9 10  2  0  0  0  0
  9 17  1  0  0  0  0
 11 14  1  0  0  0  0
 11 15  1  0  0  0  0
 11 16  1  0  0  0  0
 17 18  1  0  0  0  0
 17 25  1  0  0  0  0
 18 19  1  0  0  0  0
 18 21  1  0  0  0  0
 18 26  1  0  0  0  0
 19 20  2  0  0  0  0
 19 36  1  0  0  0  0
 21 22  1  0  0  0  0
 21 23  1  0  0  0  0
 21 27  1  0  0  0  0
 22 24  1  0  0  0  0
 22 28  1  0  0  0  0
 22 29  1  0  0  0  0
 23 30  1  0  0  0  0
 23 31  1  0  0  0  0
 23 32  1  0  0  0  0
 24 33  1  0  0  0  0
 24 34  1  0  0  0  0
 24 35  1  0  0  0  0
 36 37  1  0  0  0  0
 36 41  1  0  0  0  0
 37 38  1  0  0  0  0
 37 40  1  0  0  0  0
 37 42  1  0  0  0  0
 38 39  2  0  0  0  0
 38 46  1  0  0  0  0
 40 43  1  0  0  0  0
 40 44  1  0  0  0  0
 40 45  1  0  0  0  0
 46 47  1  0  0  0  0
 46 48  1  0  0  0  0
 47 49  1  0  0  0  0
 47 50  1  0  0  0  0
 47 51  1  0  0  0  0
M  END
$$$$

  -OEChem-05262216503D

 51 50  0     1  0  0  0  0  0999 V2000
    1.1195   -5.9967    0.2481 C   0  0  0  0  0  0  0  0  0  0  0  0
    0.3724   -6.3420   -0.6536 O   0  0  0  0  0  0  0  0  0  0  0  0
    2.3718   -6.7991    0.5471 C   0  0  0  0  0  0  0  0  0  0  0  0
    2.4816   -7.6110   -0.1774 H   0  0  0  0  0  0  0  0  0  0  0  0
    3.2515   -6.1537    0.4874 H   0  0  0  0  0  0  0  0  0  0  0  0
    2.3089   -7.2274    1.5503 H   0  0  0  0  0  0  0  0  0  0  0  0
    0.8338   -4.8690    0.9881 N   0  0  0  0  0  0  0  0  0  0  0  0
   -0.2420   -3.9211    0.6681 C   0  0  2  0  0  0  0  0  0  0  0  0
    0.1775   -2.4685    0.9724 C   0  0  0  0  0  0  0  0  0  0  0  0
    1.1367   -2.2454    1.7036 O   0  0  0  0  0  0  0  0  0  0  0  0
   -1.4832   -4.3094    1.4761 C   0  0  0  0  0  0  0  0  0  0  0  0
    1.5478   -4.5466    1.6408 H   0  0  0  0  0  0  0  0  0  0  0  0
   -0.4776   -3.9727   -0.4004 H   0  0  0  0  0  0  0  0  0  0  0  0
   -1.2751   -4.2520    2.5492 H   0  0  0  0  0  0  0  0  0  0  0  0
   -2.3178   -3.6404    1.2463 H   0  0  0  0  0  0  0  0  0  0  0  0
   -1.7855   -5.3332    1.2335 H   0  0  0  0  0  0  0  0  0  0  0  0
   -0.5087   -1.4092    0.4087 N   0  0  0  0  0  0  0  0  0  0  0  0
   -0.1419    0.0103    0.5473 C   0  0  2  0  0  0  0  0  0  0  0  0
   -1.4309    0.7996    0.8580 C   0  0  0  0  0  0  0  0  0  0  0  0
   -2.3013    0.9259    0.0037 O   0  0  0  0  0  0  0  0  0  0  0  0
    0.5685    0.5294   -0.7366 C   0  0  2  0  0  0  0  0  0  0  0  0
    1.9026   -0.2199   -0.9799 C   0  0  0  0  0  0  0  0  0  0  0  0
    0.8366    2.0460   -0.6326 C   0  0  0  0  0  0  0  0  0  0  0  0
    2.5089    0.0582   -2.3592 C   0  0  0  0  0  0  0  0  0  0  0  0
   -1.2984   -1.6298   -0.1949 H   0  0  0  0  0  0  0  0  0  0  0  0
    0.5393    0.1486    1.3936 H   0  0  0  0  0  0  0  0  0  0  0  0
   -0.0947    0.3513   -1.5906 H   0  0  0  0  0  0  0  0  0  0  0  0
    2.6249    0.0435   -0.2001 H   0  0  0  0  0  0  0  0  0  0  0  0
    1.7376   -1.2983   -0.9212 H   0  0  0  0  0  0  0  0  0  0  0  0
    1.4852    2.2640    0.2218 H   0  0  0  0  0  0  0  0  0  0  0  0
    1.3180    2.4222   -1.5387 H   0  0  0  0  0  0  0  0  0  0  0  0
   -0.0956    2.6055   -0.5126 H   0  0  0  0  0  0  0  0  0  0  0  0
    1.7742   -0.1338   -3.1473 H   0  0  0  0  0  0  0  0  0  0  0  0
    3.3705   -0.5961   -2.5236 H   0  0  0  0  0  0  0  0  0  0  0  0
    2.8522    1.0929   -2.4404 H   0  0  0  0  0  0  0  0  0  0  0  0
   -1.6743    1.2648    2.1356 N   0  0  0  0  0  0  0  0  0  0  0  0
   -2.8286    2.0887    2.5163 C   0  0  2  0  0  0  0  0  0  0  0  0
   -2.4753    3.0684    3.6549 C   0  0  0  0  0  0  0  0  0  0  0  0
   -1.4291    2.9346    4.2802 O   0  0  0  0  0  0  0  0  0  0  0  0
   -3.9680    1.1575    2.9418 C   0  0  0  0  0  0  0  0  0  0  0  0
   -0.9132    1.2017    2.8126 H   0  0  0  0  0  0  0  0  0  0  0  0
   -3.1518    2.6883    1.6586 H   0  0  0  0  0  0  0  0  0  0  0  0
   -3.6705    0.5625    3.8113 H   0  0  0  0  0  0  0  0  0  0  0  0
   -4.8603    1.7345    3.2022 H   0  0  0  0  0  0  0  0  0  0  0  0
   -4.2255    0.4761    2.1247 H   0  0  0  0  0  0  0  0  0  0  0  0
   -3.3294    4.1068    3.9773 N   0  0  0  0  0  0  0  0  0  0  0  0
   -3.0720    5.0475    5.0613 C   0  0  0  0  0  0  0  0  0  0  0  0
   -4.1901    4.1925    3.4445 H   0  0  0  0  0  0  0  0  0  0  0  0
   -3.0440    4.5245    6.0231 H   0  0  0  0  0  0  0  0  0  0  0  0
   -2.1147    5.5574    4.9096 H   0  0  0  0  0  0  0  0  0  0  0  0
   -3.8619    5.8037    5.1017 H   0  0  0  0  0  0  0  0  0  0  0  0
  1  2  2  0  0  0  0
  1  3  1  0  0  0  0
  1  7  1  0  0  0  0
  3  4  1  0  0  0  0
  3  5  1  0  0  0  0
  3  6  1  0  0  0  0
  7  8  1  0  0  0  0
  7 12  1  0  0  0  0
  8  9  1  0  0  0  0
  8 11  1  0  0  0  0
  8 13  1  0  0  0  0
  9 10  2  0  0  0  0
  9 17  1  0  0  0  0
 11 14  1  0  0  0  0
 11 15  1  0  0  0  0
 11 16  1  0  0  0  0
 17 18  1  0  0  0  0
 17 25  1  0  0  0  0
 18 19  1  0  0  0  0
 18 21  1  0  0  0  0
 18 26  1  0  0  0  0
 19 20  2  0  0  0  0
 19 36  1  0  0  0  0
 21 22  1  0  0  0  0
 21 23  1  0  0  0  0
 21 27  1  0  0  0  0
 22 24  1  0  0  0  0
 22 28  1  0  0  0  0
 22 29  1  0  0  0  0
 23 30  1  0  0  0  0
 23 31  1  0  0  0  0
 23 32  1  0  0  0  0
 24 33  1  0  0  0  0
 24 34  1  0  0  0  0
 24 35  1  0  0  0  0
 36 37  1  0  0  0  0
 36 41  1  0  0  0  0
 37 38  1  0  0  0  0
 37 40  1  0  0  0  0
 37 42  1  0  0  0  0
 38 39  2  0  0  0  0
 38 46  1  0  0  0  0
 40 43  1  0  0  0  0
 40 44  1  0  0  0  0
 40 45  1  0  0  0  0
 46 47  1  0  0  0  0
 46 48  1  0  0  0  0
 47 49  1  0  0  0  0
 47 50  1  0  0  0  0
 47 51  1  0  0  0  0
M  END
$$$$

  -OEChem-05262216503D

 51 50  0     1  0  0  0  0  0999 V2000
    1.0071   -6.0563    0.2418 C   0  0  0  0  0  0  0  0  0  0  0  0
    0.2301   -6.3814   -0.6420 O   0  0  0  0  0  0  0  0  0  0  0  0
    2.2288   -6.9075    0.5323 C   0  0  0  0  0  0  0  0  0  0  0  0
    2.2921   -7.7334   -0.1819 H   0  0  0  0  0  0  0  0  0  0  0  0
    3.1349   -6.3024    0.4495 H   0  0  0  0  0  0  0  0  0  0  0  0
    2.1638   -7.3181    1.5428 H   0  0  0  0  0  0  0  0  0  0  0  0
    0.7818   -4.9093    0.9725 N   0  0  0  0  0  0  0  0  0  0  0  0
   -0.2607   -3.9224    0.6618 C   0  0  2  0  0  0  0  0  0  0  0  0
    0.2164   -2.4848    0.9541 C   0  0  0  0  0  0  0  0  0  0  0  0
    1.2090   -2.2939    1.6494 O   0  0  0  0  0  0  0  0  0  0  0  0
   -1.5052   -4.2596    1.4872 C   0  0  0  0  0  0  0  0  0  0  0  0
    1.5196   -4.6096    1.6091 H   0  0  0  0  0  0  0  0  0  0  0  0
   -0.5125   -3.9692   -0.4033 H   0  0  0  0  0  0  0  0  0  0  0  0
   -1.2800   -4.2103    2.5573 H   0  0  0  0  0  0  0  0  0  0  0  0
   -2.3149   -3.5570    1.2680 H   0  0  0  0  0  0  0  0  0  0  0  0
   -1.8529   -5.2701    1.2501 H   0  0  0  0  0  0  0  0  0  0  0  0
   -0.4603   -1.4027    0.4238 N   0  0  0  0  0  0  0  0  0  0  0  0
   -0.0824    0.0094    0.5991 C   0  0  2  0  0  0  0  0  0  0  0  0
   -1.3636    0.8004    0.9353 C   0  0  0  0  0  0  0  0  0  0  0  0
   -2.3338    0.7418    0.1873 O   0  0  0  0  0  0  0  0  0  0  0  0
    0.6104    0.5609   -0.6798 C   0  0  2  0  0  0  0  0  0  0  0  0
    1.9351   -0.1902   -0.9653 C   0  0  0  0  0  0  0  0  0  0  0  0
    0.8886    2.0726   -0.5381 C   0  0  0  0  0  0  0  0  0  0  0  0
    2.5219    0.1228   -2.3450 C   0  0  0  0  0  0  0  0  0  0  0  0
   -1.3009   -1.5928   -0.1191 H   0  0  0  0  0  0  0  0  0  0  0  0
    0.6065    0.1171    1.4435 H   0  0  0  0  0  0  0  0  0  0  0  0
   -0.0681    0.4112   -1.5270 H   0  0  0  0  0  0  0  0  0  0  0  0
    2.6712    0.0450   -0.1896 H   0  0  0  0  0  0  0  0  0  0  0  0
    1.7622   -1.2686   -0.9349 H   0  0  0  0  0  0  0  0  0  0  0  0
    1.5490    2.2636    0.3138 H   0  0  0  0  0  0  0  0  0  0  0  0
    1.3613    2.4708   -1.4393 H   0  0  0  0  0  0  0  0  0  0  0  0
   -0.0388    2.6338   -0.3916 H   0  0  0  0  0  0  0  0  0  0  0  0
    1.7743   -0.0440   -3.1264 H   0  0  0  0  0  0  0  0  0  0  0  0
    3.3767   -0.5318   -2.5401 H   0  0  0  0  0  0  0  0  0  0  0  0
    2.8699    1.1573   -2.4033 H   0  0  0  0  0  0  0  0  0  0  0  0
   -1.4691    1.4965    2.1237 N   0  0  0  0  0  0  0  0  0  0  0  0
   -2.5957    2.3702    2.4763 C   0  0  2  0  0  0  0  0  0  0  0  0
   -2.1236    3.6198    3.2497 C   0  0  0  0  0  0  0  0  0  0  0  0
   -0.9742    3.6830    3.6724 O   0  0  0  0  0  0  0  0  0  0  0  0
   -3.5880    1.5568    3.3127 C   0  0  0  0  0  0  0  0  0  0  0  0
   -0.6172    1.6108    2.6730 H   0  0  0  0  0  0  0  0  0  0  0  0
   -3.0941    2.7218    1.5665 H   0  0  0  0  0  0  0  0  0  0  0  0
   -3.1146    1.2061    4.2357 H   0  0  0  0  0  0  0  0  0  0  0  0
   -4.4586    2.1648    3.5763 H   0  0  0  0  0  0  0  0  0  0  0  0
   -3.9345    0.6863    2.7465 H   0  0  0  0  0  0  0  0  0  0  0  0
   -2.9825    4.6829    3.4614 N   0  0  0  0  0  0  0  0  0  0  0  0
   -2.5982    5.8912    4.1818 C   0  0  0  0  0  0  0  0  0  0  0  0
   -3.9257    4.6091    3.0911 H   0  0  0  0  0  0  0  0  0  0  0  0
   -2.3189    5.6498    5.2129 H   0  0  0  0  0  0  0  0  0  0  0  0
   -1.7481    6.3766    3.6907 H   0  0  0  0  0  0  0  0  0  0  0  0
   -3.4323    6.5991    4.2062 H   0  0  0  0  0  0  0  0  0  0  0  0
  1  2  2  0  0  0  0
  1  3  1  0  0  0  0
  1  7  1  0  0  0  0
  3  4  1  0  0  0  0
  3  5  1  0  0  0  0
  3  6  1  0  0  0  0
  7  8  1  0  0  0  0
  7 12  1  0  0  0  0
  8  9  1  0  0  0  0
  8 11  1  0  0  0  0
  8 13  1  0  0  0  0
  9 10  2  0  0  0  0
  9 17  1  0  0  0  0
 11 14  1  0  0  0  0
 11 15  1  0  0  0  0
 11 16  1  0  0  0  0
 17 18  1  0  0  0  0
 17 25  1  0  0  0  0
 18 19  1  0  0  0  0
 18 21  1  0  0  0  0
 18 26  1  0  0  0  0
 19 20  2  0  0  0  0
 19 36  1  0  0  0  0
 21 22  1  0  0  0  0
 21 23  1  0  0  0  0
 21 27  1  0  0  0  0
 22 24  1  0  0  0  0
 22 28  1  0  0  0  0
 22 29  1  0  0  0  0
 23 30  1  0  0  0  0
 23 31  1  0  0  0  0
 23 32  1  0  0  0  0
 24 33  1  0  0  0  0
 24 34  1  0  0  0  0
 24 35  1  0  0  0  0
 36 37  1  0  0  0  0
 36 41  1  0  0  0  0
 37 38  1  0  0  0  0
 37 40  1  0  0  0  0
 37 42  1  0  0  0  0
 38 39  2  0  0  0  0
 38 46  1  0  0  0  0
 40 43  1  0  0  0  0
 40 44  1  0  0  0  0
 40 45  1  0  0  0  0
 46 47  1  0  0  0  0
 46 48  1  0  0  0  0
 47 49  1  0  0  0  0
 47 50  1  0  0  0  0
 47 51  1  0  0  0  0
M  END
$$$$

  -OEChem-05262216503D

 51 50  0     1  0  0  0  0  0999 V2000
    0.8866   -6.1009    0.2728 C   0  0  0  0  0  0  0  0  0  0  0  0
    0.0649   -6.4165   -0.5731 O   0  0  0  0  0  0  0  0  0  0  0  0
    2.0741   -7.0025    0.5520 C   0  0  0  0  0  0  0  0  0  0  0  0
    2.0567   -7.8665   -0.1181 H   0  0  0  0  0  0  0  0  0  0  0  0
    3.0055   -6.4534    0.3942 H   0  0  0  0  0  0  0  0  0  0  0  0
    2.0377   -7.3570    1.5848 H   0  0  0  0  0  0  0  0  0  0  0  0
    0.7407   -4.9215    0.9717 N   0  0  0  0  0  0  0  0  0  0  0  0
   -0.2726   -3.9018    0.6712 C   0  0  2  0  0  0  0  0  0  0  0  0
    0.2625   -2.4783    0.9277 C   0  0  0  0  0  0  0  0  0  0  0  0
    1.2914   -2.3128    1.5753 O   0  0  0  0  0  0  0  0  0  0  0  0
   -1.5062   -4.1783    1.5351 C   0  0  0  0  0  0  0  0  0  0  0  0
    1.5124   -4.6351    1.5732 H   0  0  0  0  0  0  0  0  0  0  0  0
   -0.5533   -3.9565   -0.3864 H   0  0  0  0  0  0  0  0  0  0  0  0
   -1.2507   -4.1165    2.5978 H   0  0  0  0  0  0  0  0  0  0  0  0
   -2.2958   -3.4512    1.3228 H   0  0  0  0  0  0  0  0  0  0  0  0
   -1.8958   -5.1801    1.3276 H   0  0  0  0  0  0  0  0  0  0  0  0
   -0.4102   -1.3816    0.4238 N   0  0  0  0  0  0  0  0  0  0  0  0
   -0.0261    0.0240    0.6307 C   0  0  2  0  0  0  0  0  0  0  0  0
   -1.3015    0.8168    0.9876 C   0  0  0  0  0  0  0  0  0  0  0  0
   -2.3466    0.6042    0.3806 O   0  0  0  0  0  0  0  0  0  0  0  0
    0.6593    0.6018   -0.6410 C   0  0  2  0  0  0  0  0  0  0  0  0
    1.9785   -0.1477   -0.9544 C   0  0  0  0  0  0  0  0  0  0  0  0
    0.9459    2.1093   -0.4743 C   0  0  0  0  0  0  0  0  0  0  0  0
    2.5569    0.1940   -2.3314 C   0  0  0  0  0  0  0  0  0  0  0  0
   -1.3061   -1.5492   -0.0321 H   0  0  0  0  0  0  0  0  0  0  0  0
    0.6660    0.1067    1.4753 H   0  0  0  0  0  0  0  0  0  0  0  0
   -0.0268    0.4713   -1.4855 H   0  0  0  0  0  0  0  0  0  0  0  0
    2.7216    0.0651   -0.1787 H   0  0  0  0  0  0  0  0  0  0  0  0
    1.7999   -1.2255   -0.9488 H   0  0  0  0  0  0  0  0  0  0  0  0
    1.6030    2.2828    0.3839 H   0  0  0  0  0  0  0  0  0  0  0  0
    1.4258    2.5191   -1.3664 H   0  0  0  0  0  0  0  0  0  0  0  0
    0.0211    2.6739   -0.3253 H   0  0  0  0  0  0  0  0  0  0  0  0
    1.8000    0.0590   -3.1102 H   0  0  0  0  0  0  0  0  0  0  0  0
    3.4008   -0.4668   -2.5521 H   0  0  0  0  0  0  0  0  0  0  0  0
    2.9192    1.2249   -2.3654 H   0  0  0  0  0  0  0  0  0  0  0  0
   -1.2956    1.7272    2.0263 N   0  0  0  0  0  0  0  0  0  0  0  0
   -2.3978    2.6510    2.3216 C   0  0  2  0  0  0  0  0  0  0  0  0
   -1.8703    4.0484    2.7083 C   0  0  0  0  0  0  0  0  0  0  0  0
   -0.6779    4.2104    2.9456 O   0  0  0  0  0  0  0  0  0  0  0  0
   -3.2305    2.0480    3.4556 C   0  0  0  0  0  0  0  0  0  0  0  0
   -0.3868    1.9716    2.4198 H   0  0  0  0  0  0  0  0  0  0  0  0
   -3.0308    2.7775    1.4370 H   0  0  0  0  0  0  0  0  0  0  0  0
   -2.6201    1.9296    4.3569 H   0  0  0  0  0  0  0  0  0  0  0  0
   -4.0832    2.6911    3.6925 H   0  0  0  0  0  0  0  0  0  0  0  0
   -3.6122    1.0653    3.1609 H   0  0  0  0  0  0  0  0  0  0  0  0
   -2.7284    5.1305    2.7745 N   0  0  0  0  0  0  0  0  0  0  0  0
   -2.2934    6.4741    3.1368 C   0  0  0  0  0  0  0  0  0  0  0  0
   -3.7089    4.9699    2.5621 H   0  0  0  0  0  0  0  0  0  0  0  0
   -1.8989    6.4854    4.1583 H   0  0  0  0  0  0  0  0  0  0  0  0
   -1.5112    6.8221    2.4538 H   0  0  0  0  0  0  0  0  0  0  0  0
   -3.1342    7.1724    3.0820 H   0  0  0  0  0  0  0  0  0  0  0  0
  1  2  2  0  0  0  0
  1  3  1  0  0  0  0
  1  7  1  0  0  0  0
  3  4  1  0  0  0  0
  3  5  1  0  0  0  0
  3  6  1  0  0  0  0
  7  8  1  0  0  0  0
  7 12  1  0  0  0  0
  8  9  1  0  0  0  0
  8 11  1  0  0  0  0
  8 13  1  0  0  0  0
  9 10  2  0  0  0  0
  9 17  1  0  0  0  0
 11 14  1  0  0  0  0
 11 15  1  0  0  0  0
 11 16  1  0  0  0  0
 17 18  1  0  0  0  0
 17 25  1  0  0  0  0
 18 19  1  0  0  0  0
 18 21  1  0  0  0  0
 18 26  1  0  0  0  0
 19 20  2  0  0  0  0
 19 36  1  0  0  0  0
 21 22  1  0  0  0  0
 21 23  1  0  0  0  0
 21 27  1  0  0  0  0
 22 24  1  0  0  0  0
 22 28  1  0  0  0  0
 22 29  1  0  0  0  0
 23 30  1  0  0  0  0
 23 31  1  0  0  0  0
 23 32  1  0  0  0  0
 24 33  1  0  0  0  0
 24 34  1  0  0  0  0
 24 35  1  0  0  0  0
 36 37  1  0  0  0  0
 36 41  1  0  0  0  0
 37 38  1  0  0  0  0
 37 40  1  0  0  0  0
 37 42  1  0  0  0  0
 38 39  2  0  0  0  0
 38 46  1  0  0  0  0
 40 43  1  0  0  0  0
 40 44  1  0  0  0  0
 40 45  1  0  0  0  0
 46 47  1  0  0  0  0
 46 48  1  0  0  0  0
 47 49  1  0  0  0  0
 47 50  1  0  0  0  0
 47 51  1  0  0  0  0
M  END
$$$$

  -OEChem-05262216503D

 51 50  0     1  0  0  0  0  0999 V2000
    0.8231   -6.0932    0.3473 C   0  0  0  0  0  0  0  0  0  0  0  0
   -0.0180   -6.4212   -0.4744 O   0  0  0  0  0  0  0  0  0  0  0  0
    2.0154   -6.9918    0.6167 C   0  0  0  0  0  0  0  0  0  0  0  0
    1.9747   -7.8752   -0.0266 H   0  0  0  0  0  0  0  0  0  0  0  0
    2.9433   -6.4513    0.4144 H   0  0  0  0  0  0  0  0  0  0  0  0
    2.0103   -7.3150    1.6603 H   0  0  0  0  0  0  0  0  0  0  0  0
    0.7015   -4.8979    1.0232 N   0  0  0  0  0  0  0  0  0  0  0  0
   -0.2942   -3.8656    0.7067 C   0  0  2  0  0  0  0  0  0  0  0  0
    0.2721   -2.4484    0.9322 C   0  0  0  0  0  0  0  0  0  0  0  0
    1.3188   -2.2958    1.5545 O   0  0  0  0  0  0  0  0  0  0  0  0
   -1.5308   -4.0994    1.5789 C   0  0  0  0  0  0  0  0  0  0  0  0
    1.4919   -4.6052    1.5968 H   0  0  0  0  0  0  0  0  0  0  0  0
   -0.5792   -3.9365   -0.3486 H   0  0  0  0  0  0  0  0  0  0  0  0
   -1.2706   -4.0278    2.6399 H   0  0  0  0  0  0  0  0  0  0  0  0
   -2.3035   -3.3566    1.3581 H   0  0  0  0  0  0  0  0  0  0  0  0
   -1.9453   -5.0943    1.3875 H   0  0  0  0  0  0  0  0  0  0  0  0
   -0.3876   -1.3439    0.4270 N   0  0  0  0  0  0  0  0  0  0  0  0
    0.0170    0.0574    0.6346 C   0  0  2  0  0  0  0  0  0  0  0  0
   -1.2472    0.8730    0.9932 C   0  0  0  0  0  0  0  0  0  0  0  0
   -2.3436    0.5360    0.5554 O   0  0  0  0  0  0  0  0  0  0  0  0
    0.7089    0.6061   -0.6506 C   0  0  2  0  0  0  0  0  0  0  0  0
    2.0124   -0.1737   -0.9599 C   0  0  0  0  0  0  0  0  0  0  0  0
    1.0253    2.1121   -0.5236 C   0  0  0  0  0  0  0  0  0  0  0  0
    2.5957    0.1342   -2.3432 C   0  0  0  0  0  0  0  0  0  0  0  0
   -1.3159   -1.4944    0.0327 H   0  0  0  0  0  0  0  0  0  0  0  0
    0.7116    0.1336    1.4780 H   0  0  0  0  0  0  0  0  0  0  0  0
    0.0168    0.4709   -1.4893 H   0  0  0  0  0  0  0  0  0  0  0  0
    2.7615    0.0344   -0.1890 H   0  0  0  0  0  0  0  0  0  0  0  0
    1.8134   -1.2474   -0.9408 H   0  0  0  0  0  0  0  0  0  0  0  0
    1.6573    2.3006    0.3502 H   0  0  0  0  0  0  0  0  0  0  0  0
    1.5438    2.4836   -1.4107 H   0  0  0  0  0  0  0  0  0  0  0  0
    0.1092    2.7017   -0.4284 H   0  0  0  0  0  0  0  0  0  0  0  0
    1.8312    0.0177   -3.1175 H   0  0  0  0  0  0  0  0  0  0  0  0
    3.4149   -0.5582   -2.5604 H   0  0  0  0  0  0  0  0  0  0  0  0
    2.9949    1.1507   -2.3899 H   0  0  0  0  0  0  0  0  0  0  0  0
   -1.1636    1.9858    1.8081 N   0  0  0  0  0  0  0  0  0  0  0  0
   -2.2557    2.9459    2.0121 C   0  0  2  0  0  0  0  0  0  0  0  0
   -1.7184    4.3902    2.0996 C   0  0  0  0  0  0  0  0  0  0  0  0
   -0.5094    4.5928    2.1462 O   0  0  0  0  0  0  0  0  0  0  0  0
   -3.0033    2.5579    3.2911 C   0  0  0  0  0  0  0  0  0  0  0  0
   -0.2261    2.3208    2.0315 H   0  0  0  0  0  0  0  0  0  0  0  0
   -2.9491    2.9102    1.1650 H   0  0  0  0  0  0  0  0  0  0  0  0
   -2.3367    2.6163    4.1576 H   0  0  0  0  0  0  0  0  0  0  0  0
   -3.8538    3.2253    3.4585 H   0  0  0  0  0  0  0  0  0  0  0  0
   -3.3811    1.5336    3.2108 H   0  0  0  0  0  0  0  0  0  0  0  0
   -2.5859    5.4669    2.1040 N   0  0  0  0  0  0  0  0  0  0  0  0
   -2.1394    6.8534    2.1706 C   0  0  0  0  0  0  0  0  0  0  0  0
   -3.5815    5.2720    2.0495 H   0  0  0  0  0  0  0  0  0  0  0  0
   -1.5621    7.0271    3.0850 H   0  0  0  0  0  0  0  0  0  0  0  0
   -1.5119    7.0956    1.3065 H   0  0  0  0  0  0  0  0  0  0  0  0
   -3.0001    7.5290    2.1726 H   0  0  0  0  0  0  0  0  0  0  0  0
  1  2  2  0  0  0  0
  1  3  1  0  0  0  0
  1  7  1  0  0  0  0
  3  4  1  0  0  0  0
  3  5  1  0  0  0  0
  3  6  1  0  0  0  0
  7  8  1  0  0  0  0
  7 12  1  0  0  0  0
  8  9  1  0  0  0  0
  8 11  1  0  0  0  0
  8 13  1  0  0  0  0
  9 10  2  0  0  0  0
  9 17  1  0  0  0  0
 11 14  1  0  0  0  0
 11 15  1  0  0  0  0
 11 16  1  0  0  0  0
 17 18  1  0  0  0  0
 17 25  1  0  0  0  0
 18 19  1  0  0  0  0
 18 21  1  0  0  0  0
 18 26  1  0  0  0  0
 19 20  2  0  0  0  0
 19 36  1  0  0  0  0
 21 22  1  0  0  0  0
 21 23  1  0  0  0  0
 21 27  1  0  0  0  0
 22 24  1  0  0  0  0
 22 28  1  0  0  0  0
 22 29  1  0  0  0  0
 23 30  1  0  0  0  0
 23 31  1  0  0  0  0
 23 32  1  0  0  0  0
 24 33  1  0  0  0  0
 24 34  1  0  0  0  0
 24 35  1  0  0  0  0
 36 37  1  0  0  0  0
 36 41  1  0  0  0  0
 37 38  1  0  0  0  0
 37 40  1  0  0  0  0
 37 42  1  0  0  0  0
 38 39  2  0  0  0  0
 38 46  1  0  0  0  0
 40 43  1  0  0  0  0
 40 44  1  0  0  0  0
 40 45  1  0  0  0  0
 46 47  1  0  0  0  0
 46 48  1  0  0  0  0
 47 49  1  0  0  0  0
 47 50  1  0  0  0  0
 47 51  1  0  0  0  0
M  END
$$$$

  -OEChem-05262216503D

 51 50  0     1  0  0  0  0  0999 V2000
    0.7539   -6.0105    0.2565 C   0  0  0  0  0  0  0  0  0  0  0  0
   -0.0892   -6.2734   -0.5866 O   0  0  0  0  0  0  0  0  0  0  0  0
    1.9394   -6.9358    0.4587 C   0  0  0  0  0  0  0  0  0  0  0  0
    1.8912   -7.7705   -0.2462 H   0  0  0  0  0  0  0  0  0  0  0  0
    2.8712   -6.3895    0.2942 H   0  0  0  0  0  0  0  0  0  0  0  0
    1.9333   -7.3339    1.4761 H   0  0  0  0  0  0  0  0  0  0  0  0
    0.6395   -4.8673    1.0190 N   0  0  0  0  0  0  0  0  0  0  0  0
   -0.3502   -3.8085    0.7788 C   0  0  2  0  0  0  0  0  0  0  0  0
    0.2583   -2.4069    0.9881 C   0  0  0  0  0  0  0  0  0  0  0  0
    1.3111   -2.2786    1.6056 O   0  0  0  0  0  0  0  0  0  0  0  0
   -1.5334   -4.0316    1.7238 C   0  0  0  0  0  0  0  0  0  0  0  0
    1.4362   -4.6196    1.6045 H   0  0  0  0  0  0  0  0  0  0  0  0
   -0.7045   -3.8551   -0.2565 H   0  0  0  0  0  0  0  0  0  0  0  0
   -1.2058   -3.9780    2.7670 H   0  0  0  0  0  0  0  0  0  0  0  0
   -2.3046   -3.2725    1.5601 H   0  0  0  0  0  0  0  0  0  0  0  0
   -1.9772   -5.0166    1.5471 H   0  0  0  0  0  0  0  0  0  0  0  0
   -0.3737   -1.2905    0.4739 N   0  0  0  0  0  0  0  0  0  0  0  0
    0.0606    0.1032    0.6794 C   0  0  2  0  0  0  0  0  0  0  0  0
   -1.1935    0.9476    1.0274 C   0  0  0  0  0  0  0  0  0  0  0  0
   -2.3171    0.5138    0.7859 O   0  0  0  0  0  0  0  0  0  0  0  0
    0.7798    0.6005   -0.6190 C   0  0  2  0  0  0  0  0  0  0  0  0
    2.0628   -0.2260   -0.9016 C   0  0  0  0  0  0  0  0  0  0  0  0
    1.1443    2.0986   -0.5491 C   0  0  0  0  0  0  0  0  0  0  0  0
    2.6687    0.0252   -2.2870 C   0  0  0  0  0  0  0  0  0  0  0  0
   -1.3213   -1.4192    0.1197 H   0  0  0  0  0  0  0  0  0  0  0  0
    0.7508    0.1731    1.5267 H   0  0  0  0  0  0  0  0  0  0  0  0
    0.0901    0.4604   -1.4588 H   0  0  0  0  0  0  0  0  0  0  0  0
    2.8114   -0.0227   -0.1289 H   0  0  0  0  0  0  0  0  0  0  0  0
    1.8323   -1.2921   -0.8610 H   0  0  0  0  0  0  0  0  0  0  0  0
    1.7228    2.3132    0.3552 H   0  0  0  0  0  0  0  0  0  0  0  0
    1.7333    2.4086   -1.4148 H   0  0  0  0  0  0  0  0  0  0  0  0
    0.2455    2.7200   -0.5546 H   0  0  0  0  0  0  0  0  0  0  0  0
    1.9037   -0.0720   -3.0632 H   0  0  0  0  0  0  0  0  0  0  0  0
    3.4548   -0.7101   -2.4835 H   0  0  0  0  0  0  0  0  0  0  0  0
    3.1176    1.0193   -2.3542 H   0  0  0  0  0  0  0  0  0  0  0  0
   -1.0804    2.2125    1.5729 N   0  0  0  0  0  0  0  0  0  0  0  0
   -2.1858    3.1717    1.6926 C   0  0  2  0  0  0  0  0  0  0  0  0
   -1.7038    4.6114    1.4150 C   0  0  0  0  0  0  0  0  0  0  0  0
   -0.5032    4.8528    1.3432 O   0  0  0  0  0  0  0  0  0  0  0  0
   -2.7723    3.0575    3.1024 C   0  0  0  0  0  0  0  0  0  0  0  0
   -0.1410    2.6075    1.6199 H   0  0  0  0  0  0  0  0  0  0  0  0
   -2.9641    2.9415    0.9573 H   0  0  0  0  0  0  0  0  0  0  0  0
   -2.0121    3.2960    3.8533 H   0  0  0  0  0  0  0  0  0  0  0  0
   -3.6140    3.7454    3.2268 H   0  0  0  0  0  0  0  0  0  0  0  0
   -3.1313    2.0389    3.2808 H   0  0  0  0  0  0  0  0  0  0  0  0
   -2.6133    5.6356    1.2274 N   0  0  0  0  0  0  0  0  0  0  0  0
   -2.2213    7.0130    0.9541 C   0  0  0  0  0  0  0  0  0  0  0  0
   -3.6014    5.4055    1.2790 H   0  0  0  0  0  0  0  0  0  0  0  0
   -1.6359    7.4172    1.7867 H   0  0  0  0  0  0  0  0  0  0  0  0
   -1.6189    7.0669    0.0412 H   0  0  0  0  0  0  0  0  0  0  0  0
   -3.1086    7.6389    0.8188 H   0  0  0  0  0  0  0  0  0  0  0  0
  1  2  2  0  0  0  0
  1  3  1  0  0  0  0
  1  7  1  0  0  0  0
  3  4  1  0  0  0  0
  3  5  1  0  0  0  0
  3  6  1  0  0  0  0
  7  8  1  0  0  0  0
  7 12  1  0  0  0  0
  8  9  1  0  0  0  0
  8 11  1  0  0  0  0
  8 13  1  0  0  0  0
  9 10  2  0  0  0  0
  9 17  1  0  0  0  0
 11 14  1  0  0  0  0
 11 15  1  0  0  0  0
 11 16  1  0  0  0  0
 17 18  1  0  0  0  0
 17 25  1  0  0  0  0
 18 19  1  0  0  0  0
 18 21  1  0  0  0  0
 18 26  1  0  0  0  0
 19 20  2  0  0  0  0
 19 36  1  0  0  0  0
 21 22  1  0  0  0  0
 21 23  1  0  0  0  0
 21 27  1  0  0  0  0
 22 24  1  0  0  0  0
 22 28  1  0  0  0  0
 22 29  1  0  0  0  0
 23 30  1  0  0  0  0
 23 31  1  0  0  0  0
 23 32  1  0  0  0  0
 24 33  1  0  0  0  0
 24 34  1  0  0  0  0
 24 35  1  0  0  0  0
 36 37  1  0  0  0  0
 36 41  1  0  0  0  0
 37 38  1  0  0  0  0
 37 40  1  0  0  0  0
 37 42  1  0  0  0  0
 38 39  2  0  0  0  0
 38 46  1  0  0  0  0
 40 43  1  0  0  0  0
 40 44  1  0  0  0  0
 40 45  1  0  0  0  0
 46 47  1  0  0  0  0
 46 48  1  0  0  0  0
 47 49  1  0  0  0  0
 47 50  1  0  0  0  0
 47 51  1  0  0  0  0
M  END
$$$$

  -OEChem-05262216503D

 51 50  0     1  0  0  0  0  0999 V2000
    0.4335   -6.0159    0.4722 C   0  0  0  0  0  0  0  0  0  0  0  0
   -0.5592   -6.2895   -0.1837 O   0  0  0  0  0  0  0  0  0  0  0  0
    1.5671   -7.0177    0.5884 C   0  0  0  0  0  0  0  0  0  0  0  0
    1.3672   -7.8885   -0.0423 H   0  0  0  0  0  0  0  0  0  0  0  0
    2.5059   -6.5595    0.2673 H   0  0  0  0  0  0  0  0  0  0  0  0
    1.6671   -7.3482    1.6251 H   0  0  0  0  0  0  0  0  0  0  0  0
    0.5351   -4.7924    1.0992 N   0  0  0  0  0  0  0  0  0  0  0  0
   -0.4001   -3.6782    0.8947 C   0  0  2  0  0  0  0  0  0  0  0  0
    0.3364   -2.3237    0.8559 C   0  0  0  0  0  0  0  0  0  0  0  0
    1.4835   -2.2350    1.2833 O   0  0  0  0  0  0  0  0  0  0  0  0
   -1.4320   -3.6982    2.0256 C   0  0  0  0  0  0  0  0  0  0  0  0
    1.4365   -4.5569    1.5129 H   0  0  0  0  0  0  0  0  0  0  0  0
   -0.9167   -3.7937   -0.0644 H   0  0  0  0  0  0  0  0  0  0  0  0
   -0.9396   -3.5788    2.9960 H   0  0  0  0  0  0  0  0  0  0  0  0
   -2.1560   -2.8868    1.9006 H   0  0  0  0  0  0  0  0  0  0  0  0
   -1.9752   -4.6487    2.0242 H   0  0  0  0  0  0  0  0  0  0  0  0
   -0.2852   -1.2130    0.3175 N   0  0  0  0  0  0  0  0  0  0  0  0
    0.2160    0.1652    0.4791 C   0  0  2  0  0  0  0  0  0  0  0  0
   -0.8835    0.9967    1.1988 C   0  0  0  0  0  0  0  0  0  0  0  0
   -1.9727    0.4865    1.4500 O   0  0  0  0  0  0  0  0  0  0  0  0
    0.6170    0.6780   -0.9446 C   0  0  2  0  0  0  0  0  0  0  0  0
    1.7758   -0.1850   -1.5185 C   0  0  0  0  0  0  0  0  0  0  0  0
    1.0329    2.1638   -0.9540 C   0  0  0  0  0  0  0  0  0  0  0  0
    2.0599    0.0641   -3.0044 C   0  0  0  0  0  0  0  0  0  0  0  0
   -1.2928   -1.2995    0.1901 H   0  0  0  0  0  0  0  0  0  0  0  0
    1.1016    0.1920    1.1228 H   0  0  0  0  0  0  0  0  0  0  0  0
   -0.2522    0.5680   -1.6026 H   0  0  0  0  0  0  0  0  0  0  0  0
    2.6877   -0.0084   -0.9384 H   0  0  0  0  0  0  0  0  0  0  0  0
    1.5339   -1.2464   -1.4245 H   0  0  0  0  0  0  0  0  0  0  0  0
    1.7687    2.3649   -0.1690 H   0  0  0  0  0  0  0  0  0  0  0  0
    1.4681    2.4547   -1.9119 H   0  0  0  0  0  0  0  0  0  0  0  0
    0.1637    2.8097   -0.8092 H   0  0  0  0  0  0  0  0  0  0  0  0
    1.1346    0.0092   -3.5860 H   0  0  0  0  0  0  0  0  0  0  0  0
    2.7491   -0.6984   -3.3799 H   0  0  0  0  0  0  0  0  0  0  0  0
    2.5235    1.0403   -3.1665 H   0  0  0  0  0  0  0  0  0  0  0  0
   -0.7177    2.3343    1.5033 N   0  0  0  0  0  0  0  0  0  0  0  0
   -1.7832    3.2329    1.9657 C   0  0  2  0  0  0  0  0  0  0  0  0
   -1.5625    4.6701    1.4489 C   0  0  0  0  0  0  0  0  0  0  0  0
   -0.4950    4.9788    0.9292 O   0  0  0  0  0  0  0  0  0  0  0  0
   -1.8100    3.2057    3.4964 C   0  0  0  0  0  0  0  0  0  0  0  0
    0.1334    2.7836    1.1655 H   0  0  0  0  0  0  0  0  0  0  0  0
   -2.7504    2.8925    1.5807 H   0  0  0  0  0  0  0  0  0  0  0  0
   -0.8538    3.5522    3.9015 H   0  0  0  0  0  0  0  0  0  0  0  0
   -2.6057    3.8516    3.8792 H   0  0  0  0  0  0  0  0  0  0  0  0
   -1.9918    2.1870    3.8538 H   0  0  0  0  0  0  0  0  0  0  0  0
   -2.5677    5.6143    1.5446 N   0  0  0  0  0  0  0  0  0  0  0  0
   -2.4301    6.9818    1.0580 C   0  0  0  0  0  0  0  0  0  0  0  0
   -3.4449    5.3285    1.9698 H   0  0  0  0  0  0  0  0  0  0  0  0
   -1.6220    7.4972    1.5878 H   0  0  0  0  0  0  0  0  0  0  0  0
   -2.2080    6.9876   -0.0144 H   0  0  0  0  0  0  0  0  0  0  0  0
   -3.3593    7.5366    1.2203 H   0  0  0  0  0  0  0  0  0  0  0  0
  1  2  2  0  0  0  0
  1  3  1  0  0  0  0
  1  7  1  0  0  0  0
  3  4  1  0  0  0  0
  3  5  1  0  0  0  0
  3  6  1  0  0  0  0
  7  8  1  0  0  0  0
  7 12  1  0  0  0  0
  8  9  1  0  0  0  0
  8 11  1  0  0  0  0
  8 13  1  0  0  0  0
  9 10  2  0  0  0  0
  9 17  1  0  0  0  0
 11 14  1  0  0  0  0
 11 15  1  0  0  0  0
 11 16  1  0  0  0  0
 17 18  1  0  0  0  0
 17 25  1  0  0  0  0
 18 19  1  0  0  0  0
 18 21  1  0  0  0  0
 18 26  1  0  0  0  0
 19 20  2  0  0  0  0
 19 36  1  0  0  0  0
 21 22  1  0  0  0  0
 21 23  1  0  0  0  0
 21 27  1  0  0  0  0
 22 24  1  0  0  0  0
 22 28  1  0  0  0  0
 22 29  1  0  0  0  0
 23 30  1  0  0  0  0
 23 31  1  0  0  0  0
 23 32  1  0  0  0  0
 24 33  1  0  0  0  0
 24 34  1  0  0  0  0
 24 35  1  0  0  0  0
 36 37  1  0  0  0  0
 36 41  1  0  0  0  0
 37 38  1  0  0  0  0
 37 40  1  0  0  0  0
 37 42  1  0  0  0  0
 38 39  2  0  0  0  0
 38 46  1  0  0  0  0
 40 43  1  0  0  0  0
 40 44  1  0  0  0  0
 40 45  1  0  0  0  0
 46 47  1  0  0  0  0
 46 48  1  0  0  0  0
 47 49  1  0  0  0  0
 47 50  1  0  0  0  0
 47 51  1  0  0  0  0
M  END
$$$$

  -OEChem-05262216503D

 51 50  0     1  0  0  0  0  0999 V2000
    0.3963   -5.9047    0.4557 C   0  0  0  0  0  0  0  0  0  0  0  0
   -0.5394   -6.1311   -0.2953 O   0  0  0  0  0  0  0  0  0  0  0  0
    1.5314   -6.9049    0.5733 C   0  0  0  0  0  0  0  0  0  0  0  0
    1.3767   -7.7343   -0.1229 H   0  0  0  0  0  0  0  0  0  0  0  0
    2.4820   -6.4203    0.3368 H   0  0  0  0  0  0  0  0  0  0  0  0
    1.5754   -7.3019    1.5904 H   0  0  0  0  0  0  0  0  0  0  0  0
    0.4367   -4.7368    1.1881 N   0  0  0  0  0  0  0  0  0  0  0  0
   -0.4681   -3.5986    0.9742 C   0  0  2  0  0  0  0  0  0  0  0  0
    0.3103   -2.2716    0.8659 C   0  0  0  0  0  0  0  0  0  0  0  0
    1.4613   -2.1977    1.2861 O   0  0  0  0  0  0  0  0  0  0  0  0
   -1.4571   -3.5494    2.1414 C   0  0  0  0  0  0  0  0  0  0  0  0
    1.3150   -4.5276    1.6607 H   0  0  0  0  0  0  0  0  0  0  0  0
   -1.0251   -3.7230    0.0393 H   0  0  0  0  0  0  0  0  0  0  0  0
   -0.9253   -3.4191    3.0894 H   0  0  0  0  0  0  0  0  0  0  0  0
   -2.1572   -2.7168    2.0188 H   0  0  0  0  0  0  0  0  0  0  0  0
   -2.0312   -4.4801    2.1880 H   0  0  0  0  0  0  0  0  0  0  0  0
   -0.2867   -1.1671    0.2871 N   0  0  0  0  0  0  0  0  0  0  0  0
    0.2407    0.2058    0.4190 C   0  0  2  0  0  0  0  0  0  0  0  0
   -0.8651    1.0658    1.1047 C   0  0  0  0  0  0  0  0  0  0  0  0
   -1.8622    0.5155    1.5666 O   0  0  0  0  0  0  0  0  0  0  0  0
    0.6875    0.6597   -1.0146 C   0  0  2  0  0  0  0  0  0  0  0  0
    1.8394   -0.2527   -1.5263 C   0  0  0  0  0  0  0  0  0  0  0  0
    1.1555    2.1312   -1.0649 C   0  0  0  0  0  0  0  0  0  0  0  0
    2.1688   -0.0690   -3.0132 C   0  0  0  0  0  0  0  0  0  0  0  0
   -1.2973   -1.2379    0.1794 H   0  0  0  0  0  0  0  0  0  0  0  0
    1.1130    0.2367    1.0804 H   0  0  0  0  0  0  0  0  0  0  0  0
   -0.1666    0.5506   -1.6920 H   0  0  0  0  0  0  0  0  0  0  0  0
    2.7401   -0.0809   -0.9276 H   0  0  0  0  0  0  0  0  0  0  0  0
    1.5664   -1.3032   -1.4034 H   0  0  0  0  0  0  0  0  0  0  0  0
    1.7942    2.3633   -0.2068 H   0  0  0  0  0  0  0  0  0  0  0  0
    1.7191    2.3514   -1.9728 H   0  0  0  0  0  0  0  0  0  0  0  0
    0.2984    2.8084   -1.0753 H   0  0  0  0  0  0  0  0  0  0  0  0
    1.2551   -0.1052   -3.6143 H   0  0  0  0  0  0  0  0  0  0  0  0
    2.8314   -0.8744   -3.3447 H   0  0  0  0  0  0  0  0  0  0  0  0
    2.6794    0.8786   -3.2012 H   0  0  0  0  0  0  0  0  0  0  0  0
   -0.8514    2.4471    1.1274 N   0  0  0  0  0  0  0  0  0  0  0  0
   -1.9599    3.3039    1.5686 C   0  0  2  0  0  0  0  0  0  0  0  0
   -1.9432    4.6598    0.8318 C   0  0  0  0  0  0  0  0  0  0  0  0
   -0.9540    4.9978    0.1898 O   0  0  0  0  0  0  0  0  0  0  0  0
   -1.8448    3.5108    3.0822 C   0  0  0  0  0  0  0  0  0  0  0  0
   -0.0817    2.9148    0.6499 H   0  0  0  0  0  0  0  0  0  0  0  0
   -2.9156    2.8200    1.3404 H   0  0  0  0  0  0  0  0  0  0  0  0
   -0.9010    4.0071    3.3303 H   0  0  0  0  0  0  0  0  0  0  0  0
   -2.6703    4.1274    3.4496 H   0  0  0  0  0  0  0  0  0  0  0  0
   -1.8781    2.5470    3.6004 H   0  0  0  0  0  0  0  0  0  0  0  0
   -3.0432    5.4964    0.8730 N   0  0  0  0  0  0  0  0  0  0  0  0
   -3.0936    6.7858    0.1942 C   0  0  0  0  0  0  0  0  0  0  0  0
   -3.8514    5.1881    1.4059 H   0  0  0  0  0  0  0  0  0  0  0  0
   -2.3372    7.4635    0.6038 H   0  0  0  0  0  0  0  0  0  0  0  0
   -2.9123    6.6624   -0.8788 H   0  0  0  0  0  0  0  0  0  0  0  0
   -4.0778    7.2451    0.3267 H   0  0  0  0  0  0  0  0  0  0  0  0
  1  2  2  0  0  0  0
  1  3  1  0  0  0  0
  1  7  1  0  0  0  0
  3  4  1  0  0  0  0
  3  5  1  0  0  0  0
  3  6  1  0  0  0  0
  7  8  1  0  0  0  0
  7 12  1  0  0  0  0
  8  9  1  0  0  0  0
  8 11  1  0  0  0  0
  8 13  1  0  0  0  0
  9 10  2  0  0  0  0
  9 17  1  0  0  0  0
 11 14  1  0  0  0  0
 11 15  1  0  0  0  0
 11 16  1  0  0  0  0
 17 18  1  0  0  0  0
 17 25  1  0  0  0  0
 18 19  1  0  0  0  0
 18 21  1  0  0  0  0
 18 26  1  0  0  0  0
 19 20  2  0  0  0  0
 19 36  1  0  0  0  0
 21 22  1  0  0  0  0
 21 23  1  0  0  0  0
 21 27  1  0  0  0  0
 22 24  1  0  0  0  0
 22 28  1  0  0  0  0
 22 29  1  0  0  0  0
 23 30  1  0  0  0  0
 23 31  1  0  0  0  0
 23 32  1  0  0  0  0
 24 33  1  0  0  0  0
 24 34  1  0  0  0  0
 24 35  1  0  0  0  0
 36 37  1  0  0  0  0
 36 41  1  0  0  0  0
 37 38  1  0  0  0  0
 37 40  1  0  0  0  0
 37 42  1  0  0  0  0
 38 39  2  0  0  0  0
 38 46  1  0  0  0  0
 40 43  1  0  0  0  0
 40 44  1  0  0  0  0
 40 45  1  0  0  0  0
 46 47  1  0  0  0  0
 46 48  1  0  0  0  0
 47 49  1  0  0  0  0
 47 50  1  0  0  0  0
 47 51  1  0  0  0  0
M  END
$$$$

  -OEChem-05262216503D

 51 50  0     1  0  0  0  0  0999 V2000
    0.5382   -5.8445    0.5886 C   0  0  0  0  0  0  0  0  0  0  0  0
   -0.6072   -6.1418    0.2872 O   0  0  0  0  0  0  0  0  0  0  0  0
    1.6601   -6.8465    0.3919 C   0  0  0  0  0  0  0  0  0  0  0  0
    1.2550   -7.8032    0.0505 H   0  0  0  0  0  0  0  0  0  0  0  0
    2.3654   -6.4749   -0.3555 H   0  0  0  0  0  0  0  0  0  0  0  0
    2.1884   -7.0048    1.3351 H   0  0  0  0  0  0  0  0  0  0  0  0
    0.8185   -4.5922    1.0922 N   0  0  0  0  0  0  0  0  0  0  0  0
   -0.1502   -3.4897    1.1557 C   0  0  2  0  0  0  0  0  0  0  0  0
    0.5118   -2.1333    0.8368 C   0  0  0  0  0  0  0  0  0  0  0  0
    1.7348   -2.0314    0.8453 O   0  0  0  0  0  0  0  0  0  0  0  0
   -0.7657   -3.4696    2.5575 C   0  0  0  0  0  0  0  0  0  0  0  0
    1.8012   -4.3401    1.1934 H   0  0  0  0  0  0  0  0  0  0  0  0
   -0.9429   -3.6467    0.4163 H   0  0  0  0  0  0  0  0  0  0  0  0
    0.0087   -3.3062    3.3138 H   0  0  0  0  0  0  0  0  0  0  0  0
   -1.5068   -2.6688    2.6427 H   0  0  0  0  0  0  0  0  0  0  0  0
   -1.2616   -4.4229    2.7657 H   0  0  0  0  0  0  0  0  0  0  0  0
   -0.2732   -1.0387    0.5185 N   0  0  0  0  0  0  0  0  0  0  0  0
    0.2339    0.3479    0.5928 C   0  0  2  0  0  0  0  0  0  0  0  0
   -0.7102    1.0386    1.6311 C   0  0  0  0  0  0  0  0  0  0  0  0
   -1.0501    0.4276    2.6347 O   0  0  0  0  0  0  0  0  0  0  0  0
    0.3319    0.9559   -0.8423 C   0  0  2  0  0  0  0  0  0  0  0  0
    1.3506    0.1438   -1.6898 C   0  0  0  0  0  0  0  0  0  0  0  0
    0.9005    2.3997   -0.8267 C   0  0  0  0  0  0  0  0  0  0  0  0
    1.3163    0.4988   -3.1804 C   0  0  0  0  0  0  0  0  0  0  0  0
   -1.2595   -1.1649    0.7321 H   0  0  0  0  0  0  0  0  0  0  0  0
    1.2362    0.3799    1.0337 H   0  0  0  0  0  0  0  0  0  0  0  0
   -0.6564    0.9346   -1.3119 H   0  0  0  0  0  0  0  0  0  0  0  0
    2.3659    0.2712   -1.2990 H   0  0  0  0  0  0  0  0  0  0  0  0
    1.1156   -0.9215   -1.6234 H   0  0  0  0  0  0  0  0  0  0  0  0
    0.3933    3.0602   -0.1300 H   0  0  0  0  0  0  0  0  0  0  0  0
    0.8120    2.8561   -1.8161 H   0  0  0  0  0  0  0  0  0  0  0  0
    1.9575    2.3918   -0.5416 H   0  0  0  0  0  0  0  0  0  0  0  0
    0.2950    0.4303   -3.5675 H   0  0  0  0  0  0  0  0  0  0  0  0
    1.9454   -0.1997   -3.7408 H   0  0  0  0  0  0  0  0  0  0  0  0
    1.6956    1.5087   -3.3577 H   0  0  0  0  0  0  0  0  0  0  0  0
   -1.1004    2.3550    1.7043 N   0  0  0  0  0  0  0  0  0  0  0  0
   -2.0770    2.9111    0.7511 C   0  0  2  0  0  0  0  0  0  0  0  0
   -2.1268    4.4543    0.7984 C   0  0  0  0  0  0  0  0  0  0  0  0
   -1.8565    5.0537    1.8304 O   0  0  0  0  0  0  0  0  0  0  0  0
   -3.4643    2.3463    1.0793 C   0  0  0  0  0  0  0  0  0  0  0  0
   -1.3105    2.6053    2.6701 H   0  0  0  0  0  0  0  0  0  0  0  0
   -1.8210    2.6229   -0.2700 H   0  0  0  0  0  0  0  0  0  0  0  0
   -3.7510    2.6099    2.1029 H   0  0  0  0  0  0  0  0  0  0  0  0
   -4.2151    2.7523    0.3942 H   0  0  0  0  0  0  0  0  0  0  0  0
   -3.4705    1.2559    0.9873 H   0  0  0  0  0  0  0  0  0  0  0  0
   -2.5133    5.1741   -0.3181 N   0  0  0  0  0  0  0  0  0  0  0  0
   -2.6069    6.6296   -0.3350 C   0  0  0  0  0  0  0  0  0  0  0  0
   -2.7491    4.6579   -1.1601 H   0  0  0  0  0  0  0  0  0  0  0  0
   -3.3295    6.9763    0.4114 H   0  0  0  0  0  0  0  0  0  0  0  0
   -1.6324    7.0794   -0.1169 H   0  0  0  0  0  0  0  0  0  0  0  0
   -2.9343    6.9767   -1.3198 H   0  0  0  0  0  0  0  0  0  0  0  0
  1  2  2  0  0  0  0
  1  3  1  0  0  0  0
  1  7  1  0  0  0  0
  3  4  1  0  0  0  0
  3  5  1  0  0  0  0
  3  6  1  0  0  0  0
  7  8  1  0  0  0  0
  7 12  1  0  0  0  0
  8  9  1  0  0  0  0
  8 11  1  0  0  0  0
  8 13  1  0  0  0  0
  9 10  2  0  0  0  0
  9 17  1  0  0  0  0
 11 14  1  0  0  0  0
 11 15  1  0  0  0  0
 11 16  1  0  0  0  0
 17 18  1  0  0  0  0
 17 25  1  0  0  0  0
 18 19  1  0  0  0  0
 18 21  1  0  0  0  0
 18 26  1  0  0  0  0
 19 20  2  0  0  0  0
 19 36  1  0  0  0  0
 21 22  1  0  0  0  0
 21 23  1  0  0  0  0
 21 27  1  0  0  0  0
 22 24  1  0  0  0  0
 22 28  1  0  0  0  0
 22 29  1  0  0  0  0
 23 30  1  0  0  0  0
 23 31  1  0  0  0  0
 23 32  1  0  0  0  0
 24 33  1  0  0  0  0
 24 34  1  0  0  0  0
 24 35  1  0  0  0  0
 36 37  1  0  0  0  0
 36 41  1  0  0  0  0
 37 38  1  0  0  0  0
 37 40  1  0  0  0  0
 37 42  1  0  0  0  0
 38 39  2  0  0  0  0
 38 46  1  0  0  0  0
 40 43  1  0  0  0  0
 40 44  1  0  0  0  0
 40 45  1  0  0  0  0
 46 47  1  0  0  0  0
 46 48  1  0  0  0  0
 47 49  1  0  0  0  0
 47 50  1  0  0  0  0
 47 51  1  0  0  0  0
M  END
$$$$

  -OEChem-05262216503D

 51 50  0     1  0  0  0  0  0999 V2000
    0.2820   -5.7806    0.4547 C   0  0  0  0  0  0  0  0  0  0  0  0
   -0.6236   -5.9671   -0.3428 O   0  0  0  0  0  0  0  0  0  0  0  0
    1.3886   -6.8085    0.5975 C   0  0  0  0  0  0  0  0  0  0  0  0
    1.2203   -7.6431   -0.0891 H   0  0  0  0  0  0  0  0  0  0  0  0
    2.3540   -6.3517    0.3660 H   0  0  0  0  0  0  0  0  0  0  0  0
    1.4101   -7.1924    1.6203 H   0  0  0  0  0  0  0  0  0  0  0  0
    0.3149   -4.6354    1.2224 N   0  0  0  0  0  0  0  0  0  0  0  0
   -0.5498   -3.4680    0.9991 C   0  0  2  0  0  0  0  0  0  0  0  0
    0.2759   -2.1776    0.8226 C   0  0  0  0  0  0  0  0  0  0  0  0
    1.4239   -2.1223    1.2534 O   0  0  0  0  0  0  0  0  0  0  0  0
   -1.4887   -3.3366    2.2006 C   0  0  0  0  0  0  0  0  0  0  0  0
    1.1814   -4.4584    1.7283 H   0  0  0  0  0  0  0  0  0  0  0  0
   -1.1494   -3.6001    0.0925 H   0  0  0  0  0  0  0  0  0  0  0  0
   -0.9150   -3.1829    3.1204 H   0  0  0  0  0  0  0  0  0  0  0  0
   -2.1650   -2.4860    2.0683 H   0  0  0  0  0  0  0  0  0  0  0  0
   -2.0908   -4.2439    2.3115 H   0  0  0  0  0  0  0  0  0  0  0  0
   -0.2852   -1.0791    0.1967 N   0  0  0  0  0  0  0  0  0  0  0  0
    0.2579    0.2866    0.3376 C   0  0  2  0  0  0  0  0  0  0  0  0
   -0.8856    1.1419    0.9592 C   0  0  0  0  0  0  0  0  0  0  0  0
   -1.6009    0.6423    1.8219 O   0  0  0  0  0  0  0  0  0  0  0  0
    0.8223    0.7563   -1.0456 C   0  0  2  0  0  0  0  0  0  0  0  0
    1.9983   -0.1669   -1.4716 C   0  0  0  0  0  0  0  0  0  0  0  0
    1.3510    2.2124   -0.9792 C   0  0  0  0  0  0  0  0  0  0  0  0
    2.4508    0.0317   -2.9250 C   0  0  0  0  0  0  0  0  0  0  0  0
   -1.2878   -1.1486    0.0408 H   0  0  0  0  0  0  0  0  0  0  0  0
    1.0796    0.3102    1.0619 H   0  0  0  0  0  0  0  0  0  0  0  0
    0.0300    0.6932   -1.7999 H   0  0  0  0  0  0  0  0  0  0  0  0
    2.8490   -0.0195   -0.7977 H   0  0  0  0  0  0  0  0  0  0  0  0
    1.6954   -1.2133   -1.3859 H   0  0  0  0  0  0  0  0  0  0  0  0
    1.7216    2.4441    0.0246 H   0  0  0  0  0  0  0  0  0  0  0  0
    0.5675    2.9260   -1.2446 H   0  0  0  0  0  0  0  0  0  0  0  0
    2.1706    2.3893   -1.6770 H   0  0  0  0  0  0  0  0  0  0  0  0
    1.5910   -0.0051   -3.6009 H   0  0  0  0  0  0  0  0  0  0  0  0
    3.1427   -0.7683   -3.2057 H   0  0  0  0  0  0  0  0  0  0  0  0
    2.9686    0.9832   -3.0659 H   0  0  0  0  0  0  0  0  0  0  0  0
   -1.2375    2.4003    0.5122 N   0  0  0  0  0  0  0  0  0  0  0  0
   -2.4566    3.1255    0.8934 C   0  0  2  0  0  0  0  0  0  0  0  0
   -2.9648    3.9988   -0.2729 C   0  0  0  0  0  0  0  0  0  0  0  0
   -2.2652    4.1590   -1.2680 O   0  0  0  0  0  0  0  0  0  0  0  0
   -2.1469    3.9867    2.1212 C   0  0  0  0  0  0  0  0  0  0  0  0
   -0.7700    2.7338   -0.3285 H   0  0  0  0  0  0  0  0  0  0  0  0
   -3.2530    2.4154    1.1403 H   0  0  0  0  0  0  0  0  0  0  0  0
   -1.3667    4.7183    1.8885 H   0  0  0  0  0  0  0  0  0  0  0  0
   -3.0414    4.5235    2.4505 H   0  0  0  0  0  0  0  0  0  0  0  0
   -1.8001    3.3573    2.9469 H   0  0  0  0  0  0  0  0  0  0  0  0
   -4.2139    4.5893   -0.2201 N   0  0  0  0  0  0  0  0  0  0  0  0
   -4.7534    5.4129   -1.2953 C   0  0  0  0  0  0  0  0  0  0  0  0
   -4.7790    4.4277    0.6087 H   0  0  0  0  0  0  0  0  0  0  0  0
   -4.1045    6.2757   -1.4786 H   0  0  0  0  0  0  0  0  0  0  0  0
   -4.8349    4.8313   -2.2197 H   0  0  0  0  0  0  0  0  0  0  0  0
   -5.7490    5.7804   -1.0287 H   0  0  0  0  0  0  0  0  0  0  0  0
  1  2  2  0  0  0  0
  1  3  1  0  0  0  0
  1  7  1  0  0  0  0
  3  4  1  0  0  0  0
  3  5  1  0  0  0  0
  3  6  1  0  0  0  0
  7  8  1  0  0  0  0
  7 12  1  0  0  0  0
  8  9  1  0  0  0  0
  8 11  1  0  0  0  0
  8 13  1  0  0  0  0
  9 10  2  0  0  0  0
  9 17  1  0  0  0  0
 11 14  1  0  0  0  0
 11 15  1  0  0  0  0
 11 16  1  0  0  0  0
 17 18  1  0  0  0  0
 17 25  1  0  0  0  0
 18 19  1  0  0  0  0
 18 21  1  0  0  0  0
 18 26  1  0  0  0  0
 19 20  2  0  0  0  0
 19 36  1  0  0  0  0
 21 22  1  0  0  0  0
 21 23  1  0  0  0  0
 21 27  1  0  0  0  0
 22 24  1  0  0  0  0
 22 28  1  0  0  0  0
 22 29  1  0  0  0  0
 23 30  1  0  0  0  0
 23 31  1  0  0  0  0
 23 32  1  0  0  0  0
 24 33  1  0  0  0  0
 24 34  1  0  0  0  0
 24 35  1  0  0  0  0
 36 37  1  0  0  0  0
 36 41  1  0  0  0  0
 37 38  1  0  0  0  0
 37 40  1  0  0  0  0
 37 42  1  0  0  0  0
 38 39  2  0  0  0  0
 38 46  1  0  0  0  0
 40 43  1  0  0  0  0
 40 44  1  0  0  0  0
 40 45  1  0  0  0  0
 46 47  1  0  0  0  0
 46 48  1  0  0  0  0
 47 49  1  0  0  0  0
 47 50  1  0  0  0  0
 47 51  1  0  0  0  0
M  END
$$$$

  -OEChem-05262216503D

 51 50  0     1  0  0  0  0  0999 V2000
    0.3894   -5.6546    0.3938 C   0  0  0  0  0  0  0  0  0  0  0  0
   -0.3150   -5.7687   -0.5971 O   0  0  0  0  0  0  0  0  0  0  0  0
    1.5233   -6.6334    0.6326 C   0  0  0  0  0  0  0  0  0  0  0  0
    1.5956   -7.3378   -0.2007 H   0  0  0  0  0  0  0  0  0  0  0  0
    2.4695   -6.0936    0.7196 H   0  0  0  0  0  0  0  0  0  0  0  0
    1.3444   -7.1933    1.5535 H   0  0  0  0  0  0  0  0  0  0  0  0
    0.1793   -4.6289    1.2917 N   0  0  0  0  0  0  0  0  0  0  0  0
   -0.6657   -3.4606    1.0046 C   0  0  2  0  0  0  0  0  0  0  0  0
    0.1753   -2.1786    0.8386 C   0  0  0  0  0  0  0  0  0  0  0  0
    1.3009   -2.1170    1.3236 O   0  0  0  0  0  0  0  0  0  0  0  0
   -1.6539   -3.2970    2.1616 C   0  0  0  0  0  0  0  0  0  0  0  0
    0.9300   -4.4772    1.9627 H   0  0  0  0  0  0  0  0  0  0  0  0
   -1.2325   -3.6084    0.0796 H   0  0  0  0  0  0  0  0  0  0  0  0
   -1.1192   -3.1286    3.1020 H   0  0  0  0  0  0  0  0  0  0  0  0
   -2.3159   -2.4436    1.9829 H   0  0  0  0  0  0  0  0  0  0  0  0
   -2.2684   -4.1966    2.2652 H   0  0  0  0  0  0  0  0  0  0  0  0
   -0.3562   -1.0872    0.1755 N   0  0  0  0  0  0  0  0  0  0  0  0
    0.1941    0.2760    0.3039 C   0  0  2  0  0  0  0  0  0  0  0  0
   -0.9723    1.1299    0.8737 C   0  0  0  0  0  0  0  0  0  0  0  0
   -1.5391    0.7596    1.8957 O   0  0  0  0  0  0  0  0  0  0  0  0
    0.7948    0.7380   -1.0620 C   0  0  2  0  0  0  0  0  0  0  0  0
    1.9753   -0.1933   -1.4529 C   0  0  0  0  0  0  0  0  0  0  0  0
    1.3779    2.1717   -0.9808 C   0  0  0  0  0  0  0  0  0  0  0  0
    2.4621    0.0047   -2.8930 C   0  0  0  0  0  0  0  0  0  0  0  0
   -1.3418   -1.1650   -0.0603 H   0  0  0  0  0  0  0  0  0  0  0  0
    0.9929    0.3117    1.0529 H   0  0  0  0  0  0  0  0  0  0  0  0
    0.0159    0.6958   -1.8311 H   0  0  0  0  0  0  0  0  0  0  0  0
    2.8107   -0.0552   -0.7583 H   0  0  0  0  0  0  0  0  0  0  0  0
    1.6618   -1.2376   -1.3736 H   0  0  0  0  0  0  0  0  0  0  0  0
    2.1850    2.2113   -0.2422 H   0  0  0  0  0  0  0  0  0  0  0  0
    1.7800    2.4826   -1.9481 H   0  0  0  0  0  0  0  0  0  0  0  0
    0.6365    2.9196   -0.7044 H   0  0  0  0  0  0  0  0  0  0  0  0
    1.6218   -0.0494   -3.5920 H   0  0  0  0  0  0  0  0  0  0  0  0
    3.1773   -0.7822   -3.1519 H   0  0  0  0  0  0  0  0  0  0  0  0
    2.9645    0.9675   -3.0170 H   0  0  0  0  0  0  0  0  0  0  0  0
   -1.5065    2.2222    0.2179 N   0  0  0  0  0  0  0  0  0  0  0  0
   -2.7243    2.9394    0.6166 C   0  0  2  0  0  0  0  0  0  0  0  0
   -3.4403    3.5485   -0.6068 C   0  0  0  0  0  0  0  0  0  0  0  0
   -2.8787    3.5729   -1.6971 O   0  0  0  0  0  0  0  0  0  0  0  0
   -2.3379    4.0329    1.6173 C   0  0  0  0  0  0  0  0  0  0  0  0
   -1.1479    2.4228   -0.7157 H   0  0  0  0  0  0  0  0  0  0  0  0
   -3.4253    2.2454    1.0923 H   0  0  0  0  0  0  0  0  0  0  0  0
   -1.6431    4.7442    1.1593 H   0  0  0  0  0  0  0  0  0  0  0  0
   -3.2251    4.5781    1.9526 H   0  0  0  0  0  0  0  0  0  0  0  0
   -1.8547    3.5902    2.4942 H   0  0  0  0  0  0  0  0  0  0  0  0
   -4.7225    4.0530   -0.4912 N   0  0  0  0  0  0  0  0  0  0  0  0
   -5.4588    4.6321   -1.6085 C   0  0  0  0  0  0  0  0  0  0  0  0
   -5.1642    4.0157    0.4231 H   0  0  0  0  0  0  0  0  0  0  0  0
   -4.9360    5.5123   -1.9973 H   0  0  0  0  0  0  0  0  0  0  0  0
   -5.5678    3.9008   -2.4165 H   0  0  0  0  0  0  0  0  0  0  0  0
   -6.4579    4.9394   -1.2847 H   0  0  0  0  0  0  0  0  0  0  0  0
  1  2  2  0  0  0  0
  1  3  1  0  0  0  0
  1  7  1  0  0  0  0
  3  4  1  0  0  0  0
  3  5  1  0  0  0  0
  3  6  1  0  0  0  0
  7  8  1  0  0  0  0
  7 12  1  0  0  0  0
  8  9  1  0  0  0  0
  8 11  1  0  0  0  0
  8 13  1  0  0  0  0
  9 10  2  0  0  0  0
  9 17  1  0  0  0  0
 11 14  1  0  0  0  0
 11 15  1  0  0  0  0
 11 16  1  0  0  0  0
 17 18  1  0  0  0  0
 17 25  1  0  0  0  0
 18 19  1  0  0  0  0
 18 21  1  0  0  0  0
 18 26  1  0  0  0  0
 19 20  2  0  0  0  0
 19 36  1  0  0  0  0
 21 22  1  0  0  0  0
 21 23  1  0  0  0  0
 21 27  1  0  0  0  0
 22 24  1  0  0  0  0
 22 28  1  0  0  0  0
 22 29  1  0  0  0  0
 23 30  1  0  0  0  0
 23 31  1  0  0  0  0
 23 32  1  0  0  0  0
 24 33  1  0  0  0  0
 24 34  1  0  0  0  0
 24 35  1  0  0  0  0
 36 37  1  0  0  0  0
 36 41  1  0  0  0  0
 37 38  1  0  0  0  0
 37 40  1  0  0  0  0
 37 42  1  0  0  0  0
 38 39  2  0  0  0  0
 38 46  1  0  0  0  0
 40 43  1  0  0  0  0
 40 44  1  0  0  0  0
 40 45  1  0  0  0  0
 46 47  1  0  0  0  0
 46 48  1  0  0  0  0
 47 49  1  0  0  0  0
 47 50  1  0  0  0  0
 47 51  1  0  0  0  0
M  END
$$$$

  -OEChem-05262216503D

 51 50  0     1  0  0  0  0  0999 V2000
    0.5860   -5.6005    0.3561 C   0  0  0  0  0  0  0  0  0  0  0  0
   -0.0325   -5.7070   -0.6914 O   0  0  0  0  0  0  0  0  0  0  0  0
    1.7635   -6.5158    0.6356 C   0  0  0  0  0  0  0  0  0  0  0  0
    1.9030   -7.2156   -0.1933 H   0  0  0  0  0  0  0  0  0  0  0  0
    2.6748   -5.9243    0.7538 H   0  0  0  0  0  0  0  0  0  0  0  0
    1.5855   -7.0851    1.5512 H   0  0  0  0  0  0  0  0  0  0  0  0
    0.2390   -4.6385    1.2818 N   0  0  0  0  0  0  0  0  0  0  0  0
   -0.6656   -3.5174    0.9876 C   0  0  2  0  0  0  0  0  0  0  0  0
    0.0965   -2.1775    0.9300 C   0  0  0  0  0  0  0  0  0  0  0  0
    1.1765   -2.0654    1.5009 O   0  0  0  0  0  0  0  0  0  0  0  0
   -1.7326   -3.4756    2.0837 C   0  0  0  0  0  0  0  0  0  0  0  0
    0.9283   -4.4697    2.0121 H   0  0  0  0  0  0  0  0  0  0  0  0
   -1.1620   -3.6608    0.0223 H   0  0  0  0  0  0  0  0  0  0  0  0
   -1.2696   -3.3170    3.0631 H   0  0  0  0  0  0  0  0  0  0  0  0
   -2.4406   -2.6615    1.8996 H   0  0  0  0  0  0  0  0  0  0  0  0
   -2.2878   -4.4185    2.1081 H   0  0  0  0  0  0  0  0  0  0  0  0
   -0.4364   -1.1033    0.2394 N   0  0  0  0  0  0  0  0  0  0  0  0
    0.0806    0.2745    0.3448 C   0  0  2  0  0  0  0  0  0  0  0  0
   -1.0894    1.1438    0.8722 C   0  0  0  0  0  0  0  0  0  0  0  0
   -1.4989    0.9792    2.0140 O   0  0  0  0  0  0  0  0  0  0  0  0
    0.6872    0.7202   -1.0202 C   0  0  2  0  0  0  0  0  0  0  0  0
    1.8952   -0.1840   -1.3827 C   0  0  0  0  0  0  0  0  0  0  0  0
    1.2039    2.1770   -0.9569 C   0  0  0  0  0  0  0  0  0  0  0  0
    2.3848    0.0066   -2.8220 C   0  0  0  0  0  0  0  0  0  0  0  0
   -1.3735   -1.2318   -0.1317 H   0  0  0  0  0  0  0  0  0  0  0  0
    0.8716    0.3392    1.1007 H   0  0  0  0  0  0  0  0  0  0  0  0
   -0.0807    0.6362   -1.7970 H   0  0  0  0  0  0  0  0  0  0  0  0
    2.7212   -0.0062   -0.6861 H   0  0  0  0  0  0  0  0  0  0  0  0
    1.6119   -1.2352   -1.2841 H   0  0  0  0  0  0  0  0  0  0  0  0
    2.0108    2.2626   -0.2218 H   0  0  0  0  0  0  0  0  0  0  0  0
    1.5873    2.4953   -1.9297 H   0  0  0  0  0  0  0  0  0  0  0  0
    0.4218    2.8854   -0.6812 H   0  0  0  0  0  0  0  0  0  0  0  0
    1.5531   -0.0905   -3.5266 H   0  0  0  0  0  0  0  0  0  0  0  0
    3.1310   -0.7571   -3.0623 H   0  0  0  0  0  0  0  0  0  0  0  0
    2.8507    0.9863   -2.9571 H   0  0  0  0  0  0  0  0  0  0  0  0
   -1.7972    2.0054    0.0544 N   0  0  0  0  0  0  0  0  0  0  0  0
   -3.0210    2.7238    0.4331 C   0  0  2  0  0  0  0  0  0  0  0  0
   -3.8949    3.0270   -0.8026 C   0  0  0  0  0  0  0  0  0  0  0  0
   -3.4552    2.8216   -1.9291 O   0  0  0  0  0  0  0  0  0  0  0  0
   -2.6232    4.0217    1.1447 C   0  0  0  0  0  0  0  0  0  0  0  0
   -1.5442    2.0264   -0.9335 H   0  0  0  0  0  0  0  0  0  0  0  0
   -3.6170    2.1055    1.1128 H   0  0  0  0  0  0  0  0  0  0  0  0
   -2.0283    4.6552    0.4790 H   0  0  0  0  0  0  0  0  0  0  0  0
   -3.5115    4.5798    1.4556 H   0  0  0  0  0  0  0  0  0  0  0  0
   -2.0288    3.7994    2.0369 H   0  0  0  0  0  0  0  0  0  0  0  0
   -5.1807    3.5150   -0.6565 N   0  0  0  0  0  0  0  0  0  0  0  0
   -6.0558    3.8144   -1.7842 C   0  0  0  0  0  0  0  0  0  0  0  0
   -5.5228    3.6709    0.2874 H   0  0  0  0  0  0  0  0  0  0  0  0
   -5.6029    4.5737   -2.4306 H   0  0  0  0  0  0  0  0  0  0  0  0
   -6.2401    2.9121   -2.3770 H   0  0  0  0  0  0  0  0  0  0  0  0
   -7.0177    4.1953   -1.4270 H   0  0  0  0  0  0  0  0  0  0  0  0
  1  2  2  0  0  0  0
  1  3  1  0  0  0  0
  1  7  1  0  0  0  0
  3  4  1  0  0  0  0
  3  5  1  0  0  0  0
  3  6  1  0  0  0  0
  7  8  1  0  0  0  0
  7 12  1  0  0  0  0
  8  9  1  0  0  0  0
  8 11  1  0  0  0  0
  8 13  1  0  0  0  0
  9 10  2  0  0  0  0
  9 17  1  0  0  0  0
 11 14  1  0  0  0  0
 11 15  1  0  0  0  0
 11 16  1  0  0  0  0
 17 18  1  0  0  0  0
 17 25  1  0  0  0  0
 18 19  1  0  0  0  0
 18 21  1  0  0  0  0
 18 26  1  0  0  0  0
 19 20  2  0  0  0  0
 19 36  1  0  0  0  0
 21 22  1  0  0  0  0
 21 23  1  0  0  0  0
 21 27  1  0  0  0  0
 22 24  1  0  0  0  0
 22 28  1  0  0  0  0
 22 29  1  0  0  0  0
 23 30  1  0  0  0  0
 23 31  1  0  0  0  0
 23 32  1  0  0  0  0
 24 33  1  0  0  0  0
 24 34  1  0  0  0  0
 24 35  1  0  0  0  0
 36 37  1  0  0  0  0
 36 41  1  0  0  0  0
 37 38  1  0  0  0  0
 37 40  1  0  0  0  0
 37 42  1  0  0  0  0
 38 39  2  0  0  0  0
 38 46  1  0  0  0  0
 40 43  1  0  0  0  0
 40 44  1  0  0  0  0
 40 45  1  0  0  0  0
 46 47  1  0  0  0  0
 46 48  1  0  0  0  0
 47 49  1  0  0  0  0
 47 50  1  0  0  0  0
 47 51  1  0  0  0  0
M  END
$$$$

  -OEChem-05262216503D

 51 50  0     1  0  0  0  0  0999 V2000
    0.6834   -5.5777    0.3525 C   0  0  0  0  0  0  0  0  0  0  0  0
    0.0958   -5.7040   -0.7104 O   0  0  0  0  0  0  0  0  0  0  0  0
    1.8910   -6.4433    0.6585 C   0  0  0  0  0  0  0  0  0  0  0  0
    2.0635   -7.1519   -0.1561 H   0  0  0  0  0  0  0  0  0  0  0  0
    2.7788   -5.8167    0.7742 H   0  0  0  0  0  0  0  0  0  0  0  0
    1.7251   -7.0024    1.5825 H   0  0  0  0  0  0  0  0  0  0  0  0
    0.2724   -4.6372    1.2739 N   0  0  0  0  0  0  0  0  0  0  0  0
   -0.6664   -3.5500    0.9613 C   0  0  2  0  0  0  0  0  0  0  0  0
    0.0397   -2.1788    0.9736 C   0  0  0  0  0  0  0  0  0  0  0  0
    1.0815   -2.0374    1.6051 O   0  0  0  0  0  0  0  0  0  0  0  0
   -1.7868   -3.5819    2.0024 C   0  0  0  0  0  0  0  0  0  0  0  0
    0.9330   -4.4463    2.0252 H   0  0  0  0  0  0  0  0  0  0  0  0
   -1.1072   -3.6893   -0.0311 H   0  0  0  0  0  0  0  0  0  0  0  0
   -1.3816   -3.4201    3.0066 H   0  0  0  0  0  0  0  0  0  0  0  0
   -2.5243   -2.8004    1.7956 H   0  0  0  0  0  0  0  0  0  0  0  0
   -2.2942   -4.5514    1.9820 H   0  0  0  0  0  0  0  0  0  0  0  0
   -0.4928   -1.1137    0.2685 N   0  0  0  0  0  0  0  0  0  0  0  0
    0.0020    0.2726    0.3702 C   0  0  2  0  0  0  0  0  0  0  0  0
   -1.1631    1.1577    0.8688 C   0  0  0  0  0  0  0  0  0  0  0  0
   -1.4034    1.2476    2.0647 O   0  0  0  0  0  0  0  0  0  0  0  0
    0.6092    0.7210   -0.9908 C   0  0  2  0  0  0  0  0  0  0  0  0
    1.8345   -0.1598   -1.3452 C   0  0  0  0  0  0  0  0  0  0  0  0
    1.0606    2.1977   -0.9326 C   0  0  0  0  0  0  0  0  0  0  0  0
    2.3244    0.0382   -2.7832 C   0  0  0  0  0  0  0  0  0  0  0  0
   -1.3818   -1.2758   -0.1963 H   0  0  0  0  0  0  0  0  0  0  0  0
    0.7883    0.3496    1.1298 H   0  0  0  0  0  0  0  0  0  0  0  0
   -0.1498    0.6081   -1.7723 H   0  0  0  0  0  0  0  0  0  0  0  0
    2.6532    0.0404   -0.6461 H   0  0  0  0  0  0  0  0  0  0  0  0
    1.5725   -1.2165   -1.2423 H   0  0  0  0  0  0  0  0  0  0  0  0
    1.8442    2.3276   -0.1790 H   0  0  0  0  0  0  0  0  0  0  0  0
    1.4524    2.5236   -1.8994 H   0  0  0  0  0  0  0  0  0  0  0  0
    0.2341    2.8672   -0.6829 H   0  0  0  0  0  0  0  0  0  0  0  0
    1.5015   -0.0988   -3.4913 H   0  0  0  0  0  0  0  0  0  0  0  0
    3.1023   -0.6965   -3.0123 H   0  0  0  0  0  0  0  0  0  0  0  0
    2.7506    1.0349   -2.9247 H   0  0  0  0  0  0  0  0  0  0  0  0
   -2.0292    1.7643   -0.0217 N   0  0  0  0  0  0  0  0  0  0  0  0
   -3.2593    2.4744    0.3477 C   0  0  2  0  0  0  0  0  0  0  0  0
   -4.2997    2.4159   -0.7902 C   0  0  0  0  0  0  0  0  0  0  0  0
   -3.9847    1.9665   -1.8874 O   0  0  0  0  0  0  0  0  0  0  0  0
   -2.9021    3.9262    0.6830 C   0  0  0  0  0  0  0  0  0  0  0  0
   -1.8901    1.5759   -1.0140 H   0  0  0  0  0  0  0  0  0  0  0  0
   -3.7087    2.0006    1.2269 H   0  0  0  0  0  0  0  0  0  0  0  0
   -2.4539    4.4208   -0.1846 H   0  0  0  0  0  0  0  0  0  0  0  0
   -3.7948    4.4844    0.9803 H   0  0  0  0  0  0  0  0  0  0  0  0
   -2.1867    3.9586    1.5110 H   0  0  0  0  0  0  0  0  0  0  0  0
   -5.5960    2.8477   -0.5795 N   0  0  0  0  0  0  0  0  0  0  0  0
   -6.6277    2.8186   -1.6091 C   0  0  0  0  0  0  0  0  0  0  0  0
   -5.8286    3.2101    0.3407 H   0  0  0  0  0  0  0  0  0  0  0  0
   -6.3292    3.4289   -2.4679 H   0  0  0  0  0  0  0  0  0  0  0  0
   -6.8016    1.7921   -1.9488 H   0  0  0  0  0  0  0  0  0  0  0  0
   -7.5677    3.2156   -1.2139 H   0  0  0  0  0  0  0  0  0  0  0  0
  1  2  2  0  0  0  0
  1  3  1  0  0  0  0
  1  7  1  0  0  0  0
  3  4  1  0  0  0  0
  3  5  1  0  0  0  0
  3  6  1  0  0  0  0
  7  8  1  0  0  0  0
  7 12  1  0  0  0  0
  8  9  1  0  0  0  0
  8 11  1  0  0  0  0
  8 13  1  0  0  0  0
  9 10  2  0  0  0  0
  9 17  1  0  0  0  0
 11 14  1  0  0  0  0
 11 15  1  0  0  0  0
 11 16  1  0  0  0  0
 17 18  1  0  0  0  0
 17 25  1  0  0  0  0
 18 19  1  0  0  0  0
 18 21  1  0  0  0  0
 18 26  1  0  0  0  0
 19 20  2  0  0  0  0
 19 36  1  0  0  0  0
 21 22  1  0  0  0  0
 21 23  1  0  0  0  0
 21 27  1  0  0  0  0
 22 24  1  0  0  0  0
 22 28  1  0  0  0  0
 22 29  1  0  0  0  0
 23 30  1  0  0  0  0
 23 31  1  0  0  0  0
 23 32  1  0  0  0  0
 24 33  1  0  0  0  0
 24 34  1  0  0  0  0
 24 35  1  0  0  0  0
 36 37  1  0  0  0  0
 36 41  1  0  0  0  0
 37 38  1  0  0  0  0
 37 40  1  0  0  0  0
 37 42  1  0  0  0  0
 38 39  2  0  0  0  0
 38 46  1  0  0  0  0
 40 43  1  0  0  0  0
 40 44  1  0  0  0  0
 40 45  1  0  0  0  0
 46 47  1  0  0  0  0
 46 48  1  0  0  0  0
 47 49  1  0  0  0  0
 47 50  1  0  0  0  0
 47 51  1  0  0  0  0
M  END
$$$$

  -OEChem-05262216503D

 51 50  0     1  0  0  0  0  0999 V2000
    0.6248   -5.4353    0.2370 C   0  0  0  0  0  0  0  0  0  0  0  0
    0.1439   -5.4277   -0.8854 O   0  0  0  0  0  0  0  0  0  0  0  0
    1.7935   -6.3495    0.5535 C   0  0  0  0  0  0  0  0  0  0  0  0
    2.0609   -6.9385   -0.3283 H   0  0  0  0  0  0  0  0  0  0  0  0
    2.6598   -5.7559    0.8563 H   0  0  0  0  0  0  0  0  0  0  0  0
    1.5250   -7.0312    1.3643 H   0  0  0  0  0  0  0  0  0  0  0  0
    0.1256   -4.6047    1.2190 N   0  0  0  0  0  0  0  0  0  0  0  0
   -0.7913   -3.4892    0.9429 C   0  0  2  0  0  0  0  0  0  0  0  0
   -0.0643   -2.1306    1.0112 C   0  0  0  0  0  0  0  0  0  0  0  0
    0.9303   -2.0080    1.7170 O   0  0  0  0  0  0  0  0  0  0  0  0
   -1.9187   -3.5410    1.9757 C   0  0  0  0  0  0  0  0  0  0  0  0
    0.7152   -4.5022    2.0427 H   0  0  0  0  0  0  0  0  0  0  0  0
   -1.2317   -3.5865   -0.0550 H   0  0  0  0  0  0  0  0  0  0  0  0
   -1.5166   -3.4309    2.9881 H   0  0  0  0  0  0  0  0  0  0  0  0
   -2.6377   -2.7353    1.7980 H   0  0  0  0  0  0  0  0  0  0  0  0
   -2.4472   -4.4972    1.9110 H   0  0  0  0  0  0  0  0  0  0  0  0
   -0.5349   -1.0521    0.2833 N   0  0  0  0  0  0  0  0  0  0  0  0
   -0.0090    0.3221    0.3983 C   0  0  2  0  0  0  0  0  0  0  0  0
   -1.1575    1.2524    0.8436 C   0  0  0  0  0  0  0  0  0  0  0  0
   -1.2578    1.6131    2.0077 O   0  0  0  0  0  0  0  0  0  0  0  0
    0.6443    0.7530   -0.9450 C   0  0  2  0  0  0  0  0  0  0  0  0
    1.8579   -0.1534   -1.2711 C   0  0  0  0  0  0  0  0  0  0  0  0
    1.1052    2.2242   -0.8767 C   0  0  0  0  0  0  0  0  0  0  0  0
    2.3828    0.0387   -2.6974 C   0  0  0  0  0  0  0  0  0  0  0  0
   -1.3822   -1.2042   -0.2571 H   0  0  0  0  0  0  0  0  0  0  0  0
    0.7570    0.3799    1.1802 H   0  0  0  0  0  0  0  0  0  0  0  0
   -0.0959    0.6521   -1.7460 H   0  0  0  0  0  0  0  0  0  0  0  0
    2.6646    0.0313   -0.5539 H   0  0  0  0  0  0  0  0  0  0  0  0
    1.5726   -1.2046   -1.1744 H   0  0  0  0  0  0  0  0  0  0  0  0
    1.8551    2.3530   -0.0894 H   0  0  0  0  0  0  0  0  0  0  0  0
    1.5414    2.5425   -1.8270 H   0  0  0  0  0  0  0  0  0  0  0  0
    0.2679    2.8960   -0.6681 H   0  0  0  0  0  0  0  0  0  0  0  0
    1.5727   -0.0824   -3.4233 H   0  0  0  0  0  0  0  0  0  0  0  0
    3.1528   -0.7088   -2.9120 H   0  0  0  0  0  0  0  0  0  0  0  0
    2.8288    1.0285   -2.8266 H   0  0  0  0  0  0  0  0  0  0  0  0
   -2.1370    1.6229   -0.0592 N   0  0  0  0  0  0  0  0  0  0  0  0
   -3.4100    2.2571    0.3040 C   0  0  2  0  0  0  0  0  0  0  0  0
   -4.5791    1.6560   -0.5054 C   0  0  0  0  0  0  0  0  0  0  0  0
   -4.3505    0.8576   -1.4090 O   0  0  0  0  0  0  0  0  0  0  0  0
   -3.2762    3.7609    0.0518 C   0  0  0  0  0  0  0  0  0  0  0  0
   -2.1008    1.1829   -0.9774 H   0  0  0  0  0  0  0  0  0  0  0  0
   -3.6297    2.0885    1.3638 H   0  0  0  0  0  0  0  0  0  0  0  0
   -3.0732    3.9559   -1.0063 H   0  0  0  0  0  0  0  0  0  0  0  0
   -4.1953    4.2828    0.3338 H   0  0  0  0  0  0  0  0  0  0  0  0
   -2.4524    4.1692    0.6461 H   0  0  0  0  0  0  0  0  0  0  0  0
   -5.8884    1.9897   -0.2110 N   0  0  0  0  0  0  0  0  0  0  0  0
   -7.0339    1.4538   -0.9371 C   0  0  0  0  0  0  0  0  0  0  0  0
   -6.0496    2.6445    0.5491 H   0  0  0  0  0  0  0  0  0  0  0  0
   -6.9830    1.7344   -1.9945 H   0  0  0  0  0  0  0  0  0  0  0  0
   -7.0580    0.3614   -0.8632 H   0  0  0  0  0  0  0  0  0  0  0  0
   -7.9654    1.8486   -0.5201 H   0  0  0  0  0  0  0  0  0  0  0  0
  1  2  2  0  0  0  0
  1  3  1  0  0  0  0
  1  7  1  0  0  0  0
  3  4  1  0  0  0  0
  3  5  1  0  0  0  0
  3  6  1  0  0  0  0
  7  8  1  0  0  0  0
  7 12  1  0  0  0  0
  8  9  1  0  0  0  0
  8 11  1  0  0  0  0
  8 13  1  0  0  0  0
  9 10  2  0  0  0  0
  9 17  1  0  0  0  0
 11 14  1  0  0  0  0
 11 15  1  0  0  0  0
 11 16  1  0  0  0  0
 17 18  1  0  0  0  0
 17 25  1  0  0  0  0
 18 19  1  0  0  0  0
 18 21  1  0  0  0  0
 18 26  1  0  0  0  0
 19 20  2  0  0  0  0
 19 36  1  0  0  0  0
 21 22  1  0  0  0  0
 21 23  1  0  0  0  0
 21 27  1  0  0  0  0
 22 24  1  0  0  0  0
 22 28  1  0  0  0  0
 22 29  1  0  0  0  0
 23 30  1  0  0  0  0
 23 31  1  0  0  0  0
 23 32  1  0  0  0  0
 24 33  1  0  0  0  0
 24 34  1  0  0  0  0
 24 35  1  0  0  0  0
 36 37  1  0  0  0  0
 36 41  1  0  0  0  0
 37 38  1  0  0  0  0
 37 40  1  0  0  0  0
 37 42  1  0  0  0  0
 38 39  2  0  0  0  0
 38 46  1  0  0  0  0
 40 43  1  0  0  0  0
 40 44  1  0  0  0  0
 40 45  1  0  0  0  0
 46 47  1  0  0  0  0
 46 48  1  0  0  0  0
 47 49  1  0  0  0  0
 47 50  1  0  0  0  0
 47 51  1  0  0  0  0
M  END
$$$$

  -OEChem-05262216503D

 51 50  0     1  0  0  0  0  0999 V2000
   -0.3395   -5.0913   -0.0937 C   0  0  0  0  0  0  0  0  0  0  0  0
   -0.7968   -4.8919   -1.2081 O   0  0  0  0  0  0  0  0  0  0  0  0
    0.6595   -6.2129    0.1225 C   0  0  0  0  0  0  0  0  0  0  0  0
    0.8361   -6.7473   -0.8152 H   0  0  0  0  0  0  0  0  0  0  0  0
    1.6082   -5.8031    0.4784 H   0  0  0  0  0  0  0  0  0  0  0  0
    0.2741   -6.9184    0.8623 H   0  0  0  0  0  0  0  0  0  0  0  0
   -0.7019   -4.2912    0.9700 N   0  0  0  0  0  0  0  0  0  0  0  0
   -1.4026   -3.0091    0.8070 C   0  0  2  0  0  0  0  0  0  0  0  0
   -0.4194   -1.8228    0.8628 C   0  0  0  0  0  0  0  0  0  0  0  0
    0.5636   -1.8825    1.5947 O   0  0  0  0  0  0  0  0  0  0  0  0
   -2.4351   -2.8961    1.9299 C   0  0  0  0  0  0  0  0  0  0  0  0
   -0.1127   -4.3741    1.7952 H   0  0  0  0  0  0  0  0  0  0  0  0
   -1.9303   -2.9706   -0.1524 H   0  0  0  0  0  0  0  0  0  0  0  0
   -1.9449   -2.9371    2.9078 H   0  0  0  0  0  0  0  0  0  0  0  0
   -2.9776   -1.9493    1.8548 H   0  0  0  0  0  0  0  0  0  0  0  0
   -3.1567   -3.7160    1.8641 H   0  0  0  0  0  0  0  0  0  0  0  0
   -0.6455   -0.6955    0.0955 N   0  0  0  0  0  0  0  0  0  0  0  0
    0.0080    0.6031    0.3632 C   0  0  2  0  0  0  0  0  0  0  0  0
   -1.0973    1.6409    0.6388 C   0  0  0  0  0  0  0  0  0  0  0  0
   -1.3357    2.0142    1.7791 O   0  0  0  0  0  0  0  0  0  0  0  0
    0.9173    0.9976   -0.8325 C   0  0  2  0  0  0  0  0  0  0  0  0
    2.0582   -0.0351   -1.0074 C   0  0  0  0  0  0  0  0  0  0  0  0
    1.5105    2.4051   -0.6205 C   0  0  0  0  0  0  0  0  0  0  0  0
    2.8311    0.1387   -2.3182 C   0  0  0  0  0  0  0  0  0  0  0  0
   -1.5769   -0.6729   -0.3302 H   0  0  0  0  0  0  0  0  0  0  0  0
    0.6273    0.5529    1.2664 H   0  0  0  0  0  0  0  0  0  0  0  0
    0.3118    1.0059   -1.7446 H   0  0  0  0  0  0  0  0  0  0  0  0
    2.7500    0.0275   -0.1609 H   0  0  0  0  0  0  0  0  0  0  0  0
    1.6432   -1.0470   -1.0126 H   0  0  0  0  0  0  0  0  0  0  0  0
    2.1228    2.4294    0.2868 H   0  0  0  0  0  0  0  0  0  0  0  0
    2.1347    2.6986   -1.4682 H   0  0  0  0  0  0  0  0  0  0  0  0
    0.7221    3.1573   -0.5256 H   0  0  0  0  0  0  0  0  0  0  0  0
    2.1450    0.1420   -3.1707 H   0  0  0  0  0  0  0  0  0  0  0  0
    3.5344   -0.6901   -2.4451 H   0  0  0  0  0  0  0  0  0  0  0  0
    3.4033    1.0702   -2.3207 H   0  0  0  0  0  0  0  0  0  0  0  0
   -2.0261    1.8800   -0.3587 N   0  0  0  0  0  0  0  0  0  0  0  0
   -3.4537    2.0025   -0.0398 C   0  0  2  0  0  0  0  0  0  0  0  0
   -4.1065    0.6073    0.0896 C   0  0  0  0  0  0  0  0  0  0  0  0
   -3.5396   -0.3812   -0.3738 O   0  0  0  0  0  0  0  0  0  0  0  0
   -4.1158    2.8107   -1.1577 C   0  0  0  0  0  0  0  0  0  0  0  0
   -1.8169    1.3915   -1.2253 H   0  0  0  0  0  0  0  0  0  0  0  0
   -3.5920    2.5395    0.9051 H   0  0  0  0  0  0  0  0  0  0  0  0
   -4.0094    2.2977   -2.1191 H   0  0  0  0  0  0  0  0  0  0  0  0
   -5.1822    2.9459   -0.9523 H   0  0  0  0  0  0  0  0  0  0  0  0
   -3.6514    3.7988   -1.2362 H   0  0  0  0  0  0  0  0  0  0  0  0
   -5.3259    0.4559    0.7219 N   0  0  0  0  0  0  0  0  0  0  0  0
   -5.9800   -0.8340    0.9070 C   0  0  0  0  0  0  0  0  0  0  0  0
   -5.7363    1.2796    1.1530 H   0  0  0  0  0  0  0  0  0  0  0  0
   -6.1028   -1.3448   -0.0539 H   0  0  0  0  0  0  0  0  0  0  0  0
   -5.3899   -1.4716    1.5727 H   0  0  0  0  0  0  0  0  0  0  0  0
   -6.9709   -0.6943    1.3498 H   0  0  0  0  0  0  0  0  0  0  0  0
  1  2  2  0  0  0  0
  1  3  1  0  0  0  0
  1  7  1  0  0  0  0
  3  4  1  0  0  0  0
  3  5  1  0  0  0  0
  3  6  1  0  0  0  0
  7  8  1  0  0  0  0
  7 12  1  0  0  0  0
  8  9  1  0  0  0  0
  8 11  1  0  0  0  0
  8 13  1  0  0  0  0
  9 10  2  0  0  0  0
  9 17  1  0  0  0  0
 11 14  1  0  0  0  0
 11 15  1  0  0  0  0
 11 16  1  0  0  0  0
 17 18  1  0  0  0  0
 17 25  1  0  0  0  0
 18 19  1  0  0  0  0
 18 21  1  0  0  0  0
 18 26  1  0  0  0  0
 19 20  2  0  0  0  0
 19 36  1  0  0  0  0
 21 22  1  0  0  0  0
 21 23  1  0  0  0  0
 21 27  1  0  0  0  0
 22 24  1  0  0  0  0
 22 28  1  0  0  0  0
 22 29  1  0  0  0  0
 23 30  1  0  0  0  0
 23 31  1  0  0  0  0
 23 32  1  0  0  0  0
 24 33  1  0  0  0  0
 24 34  1  0  0  0  0
 24 35  1  0  0  0  0
 36 37  1  0  0  0  0
 36 41  1  0  0  0  0
 37 38  1  0  0  0  0
 37 40  1  0  0  0  0
 37 42  1  0  0  0  0
 38 39  2  0  0  0  0
 38 46  1  0  0  0  0
 40 43  1  0  0  0  0
 40 44  1  0  0  0  0
 40 45  1  0  0  0  0
 46 47  1  0  0  0  0
 46 48  1  0  0  0  0
 47 49  1  0  0  0  0
 47 50  1  0  0  0  0
 47 51  1  0  0  0  0
M  END
$$$$

  -OEChem-05262216503D

 51 50  0     1  0  0  0  0  0999 V2000
   -0.1402   -4.8649   -0.1235 C   0  0  0  0  0  0  0  0  0  0  0  0
   -0.5148   -4.4643   -1.2148 O   0  0  0  0  0  0  0  0  0  0  0  0
    0.9259   -5.9408   -0.0379 C   0  0  0  0  0  0  0  0  0  0  0  0
    1.2268   -6.2546   -1.0415 H   0  0  0  0  0  0  0  0  0  0  0  0
    1.8031   -5.5551    0.4875 H   0  0  0  0  0  0  0  0  0  0  0  0
    0.5382   -6.8085    0.5012 H   0  0  0  0  0  0  0  0  0  0  0  0
   -0.6511   -4.3178    1.0355 N   0  0  0  0  0  0  0  0  0  0  0  0
   -1.4436   -3.0812    1.0336 C   0  0  2  0  0  0  0  0  0  0  0  0
   -0.5358   -1.8357    1.0784 C   0  0  0  0  0  0  0  0  0  0  0  0
    0.3718   -1.7760    1.9012 O   0  0  0  0  0  0  0  0  0  0  0  0
   -2.3746   -3.1103    2.2469 C   0  0  0  0  0  0  0  0  0  0  0  0
   -0.1329   -4.5258    1.8849 H   0  0  0  0  0  0  0  0  0  0  0  0
   -2.0630   -3.0274    0.1315 H   0  0  0  0  0  0  0  0  0  0  0  0
   -1.7972   -3.1829    3.1742 H   0  0  0  0  0  0  0  0  0  0  0  0
   -2.9740   -2.1960    2.2836 H   0  0  0  0  0  0  0  0  0  0  0  0
   -3.0514   -3.9678    2.1861 H   0  0  0  0  0  0  0  0  0  0  0  0
   -0.7307   -0.8028    0.1805 N   0  0  0  0  0  0  0  0  0  0  0  0
   -0.1403    0.5430    0.3590 C   0  0  2  0  0  0  0  0  0  0  0  0
   -1.2755    1.5833    0.4365 C   0  0  0  0  0  0  0  0  0  0  0  0
   -1.4202    2.2751    1.4349 O   0  0  0  0  0  0  0  0  0  0  0  0
    0.8436    0.8370   -0.8055 C   0  0  2  0  0  0  0  0  0  0  0  0
    2.0216   -0.1686   -0.7820 C   0  0  0  0  0  0  0  0  0  0  0  0
    1.3830    2.2792   -0.7129 C   0  0  0  0  0  0  0  0  0  0  0  0
    2.8860   -0.1136   -2.0450 C   0  0  0  0  0  0  0  0  0  0  0  0
   -1.6202   -0.8713   -0.3169 H   0  0  0  0  0  0  0  0  0  0  0  0
    0.4130    0.6058    1.3033 H   0  0  0  0  0  0  0  0  0  0  0  0
    0.3049    0.7253   -1.7523 H   0  0  0  0  0  0  0  0  0  0  0  0
    2.6458    0.0125    0.0993 H   0  0  0  0  0  0  0  0  0  0  0  0
    1.6365   -1.1892   -0.7024 H   0  0  0  0  0  0  0  0  0  0  0  0
    1.9149    2.4287    0.2324 H   0  0  0  0  0  0  0  0  0  0  0  0
    2.0695    2.4949   -1.5354 H   0  0  0  0  0  0  0  0  0  0  0  0
    0.5716    3.0102   -0.7725 H   0  0  0  0  0  0  0  0  0  0  0  0
    2.2654   -0.2276   -2.9390 H   0  0  0  0  0  0  0  0  0  0  0  0
    3.6177   -0.9271   -2.0265 H   0  0  0  0  0  0  0  0  0  0  0  0
    3.4326    0.8307   -2.1115 H   0  0  0  0  0  0  0  0  0  0  0  0
   -2.3063    1.4998   -0.4825 N   0  0  0  0  0  0  0  0  0  0  0  0
   -3.7076    1.6352   -0.0698 C   0  0  2  0  0  0  0  0  0  0  0  0
   -4.2880    0.2575    0.3187 C   0  0  0  0  0  0  0  0  0  0  0  0
   -3.7233   -0.7701   -0.0528 O   0  0  0  0  0  0  0  0  0  0  0  0
   -4.4864    2.2440   -1.2374 C   0  0  0  0  0  0  0  0  0  0  0  0
   -2.1386    0.8200   -1.2192 H   0  0  0  0  0  0  0  0  0  0  0  0
   -3.7962    2.3034    0.7936 H   0  0  0  0  0  0  0  0  0  0  0  0
   -4.4345    1.5926   -2.1159 H   0  0  0  0  0  0  0  0  0  0  0  0
   -5.5379    2.3793   -0.9665 H   0  0  0  0  0  0  0  0  0  0  0  0
   -4.0695    3.2209   -1.5022 H   0  0  0  0  0  0  0  0  0  0  0  0
   -5.4373    0.1661    1.0805 N   0  0  0  0  0  0  0  0  0  0  0  0
   -6.0167   -1.1002    1.5122 C   0  0  0  0  0  0  0  0  0  0  0  0
   -5.8393    1.0326    1.4280 H   0  0  0  0  0  0  0  0  0  0  0  0
   -6.1915   -1.7565    0.6531 H   0  0  0  0  0  0  0  0  0  0  0  0
   -5.3487   -1.6080    2.2149 H   0  0  0  0  0  0  0  0  0  0  0  0
   -6.9749   -0.9261    2.0112 H   0  0  0  0  0  0  0  0  0  0  0  0
  1  2  2  0  0  0  0
  1  3  1  0  0  0  0
  1  7  1  0  0  0  0
  3  4  1  0  0  0  0
  3  5  1  0  0  0  0
  3  6  1  0  0  0  0
  7  8  1  0  0  0  0
  7 12  1  0  0  0  0
  8  9  1  0  0  0  0
  8 11  1  0  0  0  0
  8 13  1  0  0  0  0
  9 10  2  0  0  0  0
  9 17  1  0  0  0  0
 11 14  1  0  0  0  0
 11 15  1  0  0  0  0
 11 16  1  0  0  0  0
 17 18  1  0  0  0  0
 17 25  1  0  0  0  0
 18 19  1  0  0  0  0
 18 21  1  0  0  0  0
 18 26  1  0  0  0  0
 19 20  2  0  0  0  0
 19 36  1  0  0  0  0
 21 22  1  0  0  0  0
 21 23  1  0  0  0  0
 21 27  1  0  0  0  0
 22 24  1  0  0  0  0
 22 28  1  0  0  0  0
 22 29  1  0  0  0  0
 23 30  1  0  0  0  0
 23 31  1  0  0  0  0
 23 32  1  0  0  0  0
 24 33  1  0  0  0  0
 24 34  1  0  0  0  0
 24 35  1  0  0  0  0
 36 37  1  0  0  0  0
 36 41  1  0  0  0  0
 37 38  1  0  0  0  0
 37 40  1  0  0  0  0
 37 42  1  0  0  0  0
 38 39  2  0  0  0  0
 38 46  1  0  0  0  0
 40 43  1  0  0  0  0
 40 44  1  0  0  0  0
 40 45  1  0  0  0  0
 46 47  1  0  0  0  0
 46 48  1  0  0  0  0
 47 49  1  0  0  0  0
 47 50  1  0  0  0  0
 47 51  1  0  0  0  0
M  END
$$$$

  -OEChem-05262216503D

 51 50  0     1  0  0  0  0  0999 V2000
    1.0613   -4.8259    0.1477 C   0  0  0  0  0  0  0  0  0  0  0  0
    0.9606   -4.3758   -0.9841 O   0  0  0  0  0  0  0  0  0  0  0  0
    2.2953   -5.6103    0.5509 C   0  0  0  0  0  0  0  0  0  0  0  0
    2.9647   -5.7287   -0.3057 H   0  0  0  0  0  0  0  0  0  0  0  0
    2.8291   -5.0822    1.3452 H   0  0  0  0  0  0  0  0  0  0  0  0
    2.0059   -6.6005    0.9111 H   0  0  0  0  0  0  0  0  0  0  0  0
    0.0683   -4.5888    1.0756 N   0  0  0  0  0  0  0  0  0  0  0  0
   -0.9949   -3.6060    0.8347 C   0  0  2  0  0  0  0  0  0  0  0  0
   -0.5100   -2.1707    1.1214 C   0  0  0  0  0  0  0  0  0  0  0  0
    0.1405   -1.9348    2.1323 O   0  0  0  0  0  0  0  0  0  0  0  0
   -2.1907   -3.9568    1.7228 C   0  0  0  0  0  0  0  0  0  0  0  0
    0.3201   -4.7673    2.0443 H   0  0  0  0  0  0  0  0  0  0  0  0
   -1.3224   -3.6609   -0.2091 H   0  0  0  0  0  0  0  0  0  0  0  0
   -1.9131   -3.9068    2.7806 H   0  0  0  0  0  0  0  0  0  0  0  0
   -3.0130   -3.2552    1.5469 H   0  0  0  0  0  0  0  0  0  0  0  0
   -2.5459   -4.9678    1.5009 H   0  0  0  0  0  0  0  0  0  0  0  0
   -0.8350   -1.1500    0.2476 N   0  0  0  0  0  0  0  0  0  0  0  0
   -0.2944    0.2230    0.3397 C   0  0  2  0  0  0  0  0  0  0  0  0
   -1.4582    1.2218    0.5327 C   0  0  0  0  0  0  0  0  0  0  0  0
   -1.3150    2.2371    1.2017 O   0  0  0  0  0  0  0  0  0  0  0  0
    0.5378    0.5163   -0.9417 C   0  0  2  0  0  0  0  0  0  0  0  0
    1.7530   -0.4436   -1.0299 C   0  0  0  0  0  0  0  0  0  0  0  0
    1.0274    1.9788   -0.9650 C   0  0  0  0  0  0  0  0  0  0  0  0
    2.4646   -0.3981   -2.3861 C   0  0  0  0  0  0  0  0  0  0  0  0
   -1.1998   -1.4548   -0.6503 H   0  0  0  0  0  0  0  0  0  0  0  0
    0.3621    0.3293    1.2108 H   0  0  0  0  0  0  0  0  0  0  0  0
   -0.1030    0.3550   -1.8151 H   0  0  0  0  0  0  0  0  0  0  0  0
    2.4675   -0.2098   -0.2335 H   0  0  0  0  0  0  0  0  0  0  0  0
    1.4262   -1.4761   -0.8786 H   0  0  0  0  0  0  0  0  0  0  0  0
    1.6368    2.1929   -0.0810 H   0  0  0  0  0  0  0  0  0  0  0  0
    1.6253    2.1813   -1.8566 H   0  0  0  0  0  0  0  0  0  0  0  0
    0.1849    2.6757   -0.9830 H   0  0  0  0  0  0  0  0  0  0  0  0
    1.7512   -0.5593   -3.2001 H   0  0  0  0  0  0  0  0  0  0  0  0
    3.2227   -1.1860   -2.4319 H   0  0  0  0  0  0  0  0  0  0  0  0
    2.9662    0.5610   -2.5394 H   0  0  0  0  0  0  0  0  0  0  0  0
   -2.7002    0.9332   -0.0009 N   0  0  0  0  0  0  0  0  0  0  0  0
   -3.9517    1.4925    0.5213 C   0  0  2  0  0  0  0  0  0  0  0  0
   -4.8988    0.3545    0.9585 C   0  0  0  0  0  0  0  0  0  0  0  0
   -4.6989   -0.7936    0.5688 O   0  0  0  0  0  0  0  0  0  0  0  0
   -4.5862    2.3453   -0.5782 C   0  0  0  0  0  0  0  0  0  0  0  0
   -2.7829   -0.0181   -0.3525 H   0  0  0  0  0  0  0  0  0  0  0  0
   -3.7640    2.1219    1.3975 H   0  0  0  0  0  0  0  0  0  0  0  0
   -4.8001    1.7352   -1.4617 H   0  0  0  0  0  0  0  0  0  0  0  0
   -5.5213    2.7916   -0.2270 H   0  0  0  0  0  0  0  0  0  0  0  0
   -3.9050    3.1520   -0.8672 H   0  0  0  0  0  0  0  0  0  0  0  0
   -5.9687    0.6106    1.7955 N   0  0  0  0  0  0  0  0  0  0  0  0
   -6.8706   -0.4276    2.2796 C   0  0  0  0  0  0  0  0  0  0  0  0
   -6.0772    1.5589    2.1440 H   0  0  0  0  0  0  0  0  0  0  0  0
   -7.3766   -0.9170    1.4408 H   0  0  0  0  0  0  0  0  0  0  0  0
   -6.3166   -1.1832    2.8464 H   0  0  0  0  0  0  0  0  0  0  0  0
   -7.6313    0.0071    2.9349 H   0  0  0  0  0  0  0  0  0  0  0  0
  1  2  2  0  0  0  0
  1  3  1  0  0  0  0
  1  7  1  0  0  0  0
  3  4  1  0  0  0  0
  3  5  1  0  0  0  0
  3  6  1  0  0  0  0
  7  8  1  0  0  0  0
  7 12  1  0  0  0  0
  8  9  1  0  0  0  0
  8 11  1  0  0  0  0
  8 13  1  0  0  0  0
  9 10  2  0  0  0  0
  9 17  1  0  0  0  0
 11 14  1  0  0  0  0
 11 15  1  0  0  0  0
 11 16  1  0  0  0  0
 17 18  1  0  0  0  0
 17 25  1  0  0  0  0
 18 19  1  0  0  0  0
 18 21  1  0  0  0  0
 18 26  1  0  0  0  0
 19 20  2  0  0  0  0
 19 36  1  0  0  0  0
 21 22  1  0  0  0  0
 21 23  1  0  0  0  0
 21 27  1  0  0  0  0
 22 24  1  0  0  0  0
 22 28  1  0  0  0  0
 22 29  1  0  0  0  0
 23 30  1  0  0  0  0
 23 31  1  0  0  0  0
 23 32  1  0  0  0  0
 24 33  1  0  0  0  0
 24 34  1  0  0  0  0
 24 35  1  0  0  0  0
 36 37  1  0  0  0  0
 36 41  1  0  0  0  0
 37 38  1  0  0  0  0
 37 40  1  0  0  0  0
 37 42  1  0  0  0  0
 38 39  2  0  0  0  0
 38 46  1  0  0  0  0
 40 43  1  0  0  0  0
 40 44  1  0  0  0  0
 40 45  1  0  0  0  0
 46 47  1  0  0  0  0
 46 48  1  0  0  0  0
 47 49  1  0  0  0  0
 47 50  1  0  0  0  0
 47 51  1  0  0  0  0
M  END
$$$$

  -OEChem-05262216503D

 51 50  0     1  0  0  0  0  0999 V2000
    0.0976   -4.1098   -0.7428 C   0  0  0  0  0  0  0  0  0  0  0  0
   -0.8011   -3.4225   -1.2060 O   0  0  0  0  0  0  0  0  0  0  0  0
    1.1598   -4.6913   -1.6553 C   0  0  0  0  0  0  0  0  0  0  0  0
    0.8856   -4.5319   -2.7022 H   0  0  0  0  0  0  0  0  0  0  0  0
    2.1211   -4.2071   -1.4644 H   0  0  0  0  0  0  0  0  0  0  0  0
    1.2586   -5.7653   -1.4787 H   0  0  0  0  0  0  0  0  0  0  0  0
    0.1895   -4.2842    0.6232 N   0  0  0  0  0  0  0  0  0  0  0  0
   -0.7517   -3.7093    1.5990 C   0  0  2  0  0  0  0  0  0  0  0  0
   -0.5353   -2.1900    1.8025 C   0  0  0  0  0  0  0  0  0  0  0  0
   -0.1178   -1.7321    2.8579 O   0  0  0  0  0  0  0  0  0  0  0  0
   -0.6094   -4.5092    2.9000 C   0  0  0  0  0  0  0  0  0  0  0  0
    0.9990   -4.7883    0.9743 H   0  0  0  0  0  0  0  0  0  0  0  0
   -1.7781   -3.8415    1.2390 H   0  0  0  0  0  0  0  0  0  0  0  0
    0.4038   -4.4144    3.3041 H   0  0  0  0  0  0  0  0  0  0  0  0
   -1.3158   -4.1389    3.6500 H   0  0  0  0  0  0  0  0  0  0  0  0
   -0.8194   -5.5683    2.7226 H   0  0  0  0  0  0  0  0  0  0  0  0
   -0.7675   -1.3470    0.7331 N   0  0  0  0  0  0  0  0  0  0  0  0
   -0.4128    0.0850    0.6864 C   0  0  2  0  0  0  0  0  0  0  0  0
   -1.6902    0.9338    0.4763 C   0  0  0  0  0  0  0  0  0  0  0  0
   -1.7122    2.1230    0.7698 O   0  0  0  0  0  0  0  0  0  0  0  0
    0.6418    0.2664   -0.4475 C   0  0  2  0  0  0  0  0  0  0  0  0
    1.9351   -0.5259   -0.1167 C   0  0  0  0  0  0  0  0  0  0  0  0
    0.9867    1.7530   -0.6711 C   0  0  0  0  0  0  0  0  0  0  0  0
    2.9103   -0.6169   -1.2950 C   0  0  0  0  0  0  0  0  0  0  0  0
   -0.9436   -1.8290   -0.1536 H   0  0  0  0  0  0  0  0  0  0  0  0
    0.0298    0.4109    1.6344 H   0  0  0  0  0  0  0  0  0  0  0  0
    0.2167   -0.1280   -1.3774 H   0  0  0  0  0  0  0  0  0  0  0  0
    2.4385   -0.0655    0.7402 H   0  0  0  0  0  0  0  0  0  0  0  0
    1.6857   -1.5512    0.1669 H   0  0  0  0  0  0  0  0  0  0  0  0
    1.3319    2.2109    0.2613 H   0  0  0  0  0  0  0  0  0  0  0  0
    1.7664    1.8727   -1.4262 H   0  0  0  0  0  0  0  0  0  0  0  0
    0.1147    2.3065   -1.0300 H   0  0  0  0  0  0  0  0  0  0  0  0
    2.3988   -0.9910   -2.1871 H   0  0  0  0  0  0  0  0  0  0  0  0
    3.7243   -1.3054   -1.0490 H   0  0  0  0  0  0  0  0  0  0  0  0
    3.3523    0.3567   -1.5226 H   0  0  0  0  0  0  0  0  0  0  0  0
   -2.8601    0.3259    0.0563 N   0  0  0  0  0  0  0  0  0  0  0  0
   -4.1922    0.9268    0.1923 C   0  0  2  0  0  0  0  0  0  0  0  0
   -5.0060    0.2212    1.2956 C   0  0  0  0  0  0  0  0  0  0  0  0
   -4.8835   -0.9871    1.4699 O   0  0  0  0  0  0  0  0  0  0  0  0
   -4.9009    0.8032   -1.1575 C   0  0  0  0  0  0  0  0  0  0  0  0
   -2.8299   -0.6917    0.0806 H   0  0  0  0  0  0  0  0  0  0  0  0
   -4.1188    1.9881    0.4499 H   0  0  0  0  0  0  0  0  0  0  0  0
   -5.0047   -0.2492   -1.4416 H   0  0  0  0  0  0  0  0  0  0  0  0
   -5.8984    1.2500   -1.1070 H   0  0  0  0  0  0  0  0  0  0  0  0
   -4.3280    1.3194   -1.9342 H   0  0  0  0  0  0  0  0  0  0  0  0
   -5.9009    0.9347    2.0711 N   0  0  0  0  0  0  0  0  0  0  0  0
   -6.6597    0.3386    3.1637 C   0  0  0  0  0  0  0  0  0  0  0  0
   -5.9114    1.9446    1.9603 H   0  0  0  0  0  0  0  0  0  0  0  0
   -7.2925   -0.4745    2.7924 H   0  0  0  0  0  0  0  0  0  0  0  0
   -5.9833   -0.0611    3.9266 H   0  0  0  0  0  0  0  0  0  0  0  0
   -7.3036    1.0900    3.6308 H   0  0  0  0  0  0  0  0  0  0  0  0
  1  2  2  0  0  0  0
  1  3  1  0  0  0  0
  1  7  1  0  0  0  0
  3  4  1  0  0  0  0
  3  5  1  0  0  0  0
  3  6  1  0  0  0  0
  7  8  1  0  0  0  0
  7 12  1  0  0  0  0
  8  9  1  0  0  0  0
  8 11  1  0  0  0  0
  8 13  1  0  0  0  0
  9 10  2  0  0  0  0
  9 17  1  0  0  0  0
 11 14  1  0  0  0  0
 11 15  1  0  0  0  0
 11 16  1  0  0  0  0
 17 18  1  0  0  0  0
 17 25  1  0  0  0  0
 18 19  1  0  0  0  0
 18 21  1  0  0  0  0
 18 26  1  0  0  0  0
 19 20  2  0  0  0  0
 19 36  1  0  0  0  0
 21 22  1  0  0  0  0
 21 23  1  0  0  0  0
 21 27  1  0  0  0  0
 22 24  1  0  0  0  0
 22 28  1  0  0  0  0
 22 29  1  0  0  0  0
 23 30  1  0  0  0  0
 23 31  1  0  0  0  0
 23 32  1  0  0  0  0
 24 33  1  0  0  0  0
 24 34  1  0  0  0  0
 24 35  1  0  0  0  0
 36 37  1  0  0  0  0
 36 41  1  0  0  0  0
 37 38  1  0  0  0  0
 37 40  1  0  0  0  0
 37 42  1  0  0  0  0
 38 39  2  0  0  0  0
 38 46  1  0  0  0  0
 40 43  1  0  0  0  0
 40 44  1  0  0  0  0
 40 45  1  0  0  0  0
 46 47  1  0  0  0  0
 46 48  1  0  0  0  0
 47 49  1  0  0  0  0
 47 50  1  0  0  0  0
 47 51  1  0  0  0  0
M  END
$$$$

  -OEChem-05262216503D

 51 50  0     1  0  0  0  0  0999 V2000
    1.2932   -4.8257    0.0629 C   0  0  0  0  0  0  0  0  0  0  0  0
    1.0655   -4.3962   -1.0585 O   0  0  0  0  0  0  0  0  0  0  0  0
    2.6282   -5.4754    0.3748 C   0  0  0  0  0  0  0  0  0  0  0  0
    3.2647   -5.4744   -0.5144 H   0  0  0  0  0  0  0  0  0  0  0  0
    3.1348   -4.9228    1.1700 H   0  0  0  0  0  0  0  0  0  0  0  0
    2.4759   -6.5079    0.6980 H   0  0  0  0  0  0  0  0  0  0  0  0
    0.3554   -4.6703    1.0635 N   0  0  0  0  0  0  0  0  0  0  0  0
   -0.7969   -3.7746    0.9055 C   0  0  2  0  0  0  0  0  0  0  0  0
   -0.3982   -2.3054    1.1485 C   0  0  0  0  0  0  0  0  0  0  0  0
    0.2702   -2.0074    2.1306 O   0  0  0  0  0  0  0  0  0  0  0  0
   -1.8885   -4.2037    1.8890 C   0  0  0  0  0  0  0  0  0  0  0  0
    0.6932   -4.8223    2.0105 H   0  0  0  0  0  0  0  0  0  0  0  0
   -1.2022   -3.8635   -0.1081 H   0  0  0  0  0  0  0  0  0  0  0  0
   -1.5314   -4.1252    2.9209 H   0  0  0  0  0  0  0  0  0  0  0  0
   -2.7713   -3.5649    1.7804 H   0  0  0  0  0  0  0  0  0  0  0  0
   -2.1856   -5.2395    1.6990 H   0  0  0  0  0  0  0  0  0  0  0  0
   -0.8299   -1.3191    0.2807 N   0  0  0  0  0  0  0  0  0  0  0  0
   -0.3753    0.0889    0.3378 C   0  0  2  0  0  0  0  0  0  0  0  0
   -1.5996    1.0117    0.5775 C   0  0  0  0  0  0  0  0  0  0  0  0
   -1.4752    2.2006    0.8420 O   0  0  0  0  0  0  0  0  0  0  0  0
    0.3982    0.3800   -0.9876 C   0  0  2  0  0  0  0  0  0  0  0  0
    1.6606   -0.5201   -1.0837 C   0  0  0  0  0  0  0  0  0  0  0  0
    0.8173    1.8602   -1.1007 C   0  0  0  0  0  0  0  0  0  0  0  0
    2.3290   -0.4944   -2.4626 C   0  0  0  0  0  0  0  0  0  0  0  0
   -1.2130   -1.6522   -0.6004 H   0  0  0  0  0  0  0  0  0  0  0  0
    0.3064    0.2530    1.1795 H   0  0  0  0  0  0  0  0  0  0  0  0
   -0.2622    0.1496   -1.8306 H   0  0  0  0  0  0  0  0  0  0  0  0
    2.3862   -0.2208   -0.3202 H   0  0  0  0  0  0  0  0  0  0  0  0
    1.3952   -1.5616   -0.8866 H   0  0  0  0  0  0  0  0  0  0  0  0
    1.3781    2.1687   -0.2127 H   0  0  0  0  0  0  0  0  0  0  0  0
    1.4395    2.0343   -1.9810 H   0  0  0  0  0  0  0  0  0  0  0  0
   -0.0578    2.5066   -1.2060 H   0  0  0  0  0  0  0  0  0  0  0  0
    1.5940   -0.6936   -3.2484 H   0  0  0  0  0  0  0  0  0  0  0  0
    3.1027   -1.2667   -2.5112 H   0  0  0  0  0  0  0  0  0  0  0  0
    2.8051    0.4696   -2.6586 H   0  0  0  0  0  0  0  0  0  0  0  0
   -2.8552    0.4455    0.6954 N   0  0  0  0  0  0  0  0  0  0  0  0
   -3.9860    1.0681    1.3903 C   0  0  2  0  0  0  0  0  0  0  0  0
   -4.7467    0.0120    2.2200 C   0  0  0  0  0  0  0  0  0  0  0  0
   -4.5435   -1.1843    2.0279 O   0  0  0  0  0  0  0  0  0  0  0  0
   -4.9013    1.7149    0.3484 C   0  0  0  0  0  0  0  0  0  0  0  0
   -2.8538   -0.5740    0.7061 H   0  0  0  0  0  0  0  0  0  0  0  0
   -3.6279    1.8365    2.0837 H   0  0  0  0  0  0  0  0  0  0  0  0
   -5.2812    0.9616   -0.3491 H   0  0  0  0  0  0  0  0  0  0  0  0
   -5.7520    2.2024    0.8336 H   0  0  0  0  0  0  0  0  0  0  0  0
   -4.3485    2.4698   -0.2199 H   0  0  0  0  0  0  0  0  0  0  0  0
   -5.6400    0.3983    3.2015 N   0  0  0  0  0  0  0  0  0  0  0  0
   -6.3355   -0.5483    4.0647 C   0  0  0  0  0  0  0  0  0  0  0  0
   -5.7426    1.3934    3.3792 H   0  0  0  0  0  0  0  0  0  0  0  0
   -6.9348   -1.2439    3.4678 H   0  0  0  0  0  0  0  0  0  0  0  0
   -5.6177   -1.1227    4.6599 H   0  0  0  0  0  0  0  0  0  0  0  0
   -7.0043   -0.0155    4.7474 H   0  0  0  0  0  0  0  0  0  0  0  0
  1  2  2  0  0  0  0
  1  3  1  0  0  0  0
  1  7  1  0  0  0  0
  3  4  1  0  0  0  0
  3  5  1  0  0  0  0
  3  6  1  0  0  0  0
  7  8  1  0  0  0  0
  7 12  1  0  0  0  0
  8  9  1  0  0  0  0
  8 11  1  0  0  0  0
  8 13  1  0  0  0  0
  9 10  2  0  0  0  0
  9 17  1  0  0  0  0
 11 14  1  0  0  0  0
 11 15  1  0  0  0  0
 11 16  1  0  0  0  0
 17 18  1  0  0  0  0
 17 25  1  0  0  0  0
 18 19  1  0  0  0  0
 18 21  1  0  0  0  0
 18 26  1  0  0  0  0
 19 20  2  0  0  0  0
 19 36  1  0  0  0  0
 21 22  1  0  0  0  0
 21 23  1  0  0  0  0
 21 27  1  0  0  0  0
 22 24  1  0  0  0  0
 22 28  1  0  0  0  0
 22 29  1  0  0  0  0
 23 30  1  0  0  0  0
 23 31  1  0  0  0  0
 23 32  1  0  0  0  0
 24 33  1  0  0  0  0
 24 34  1  0  0  0  0
 24 35  1  0  0  0  0
 36 37  1  0  0  0  0
 36 41  1  0  0  0  0
 37 38  1  0  0  0  0
 37 40  1  0  0  0  0
 37 42  1  0  0  0  0
 38 39  2  0  0  0  0
 38 46  1  0  0  0  0
 40 43  1  0  0  0  0
 40 44  1  0  0  0  0
 40 45  1  0  0  0  0
 46 47  1  0  0  0  0
 46 48  1  0  0  0  0
 47 49  1  0  0  0  0
 47 50  1  0  0  0  0
 47 51  1  0  0  0  0
M  END
$$$$

  -OEChem-05262216503D

 51 50  0     1  0  0  0  0  0999 V2000
    1.3849   -4.9692    0.0906 C   0  0  0  0  0  0  0  0  0  0  0  0
    1.1587   -4.5889   -1.0484 O   0  0  0  0  0  0  0  0  0  0  0  0
    2.6928   -5.6645    0.4169 C   0  0  0  0  0  0  0  0  0  0  0  0
    3.2793   -5.8117   -0.4942 H   0  0  0  0  0  0  0  0  0  0  0  0
    3.2727   -5.0558    1.1150 H   0  0  0  0  0  0  0  0  0  0  0  0
    2.4959   -6.6391    0.8698 H   0  0  0  0  0  0  0  0  0  0  0  0
    0.4694   -4.7266    1.0940 N   0  0  0  0  0  0  0  0  0  0  0  0
   -0.6572   -3.8038    0.9062 C   0  0  2  0  0  0  0  0  0  0  0  0
   -0.2278   -2.3361    1.1039 C   0  0  0  0  0  0  0  0  0  0  0  0
    0.5312   -2.0366    2.0172 O   0  0  0  0  0  0  0  0  0  0  0  0
   -1.7580   -4.1752    1.9028 C   0  0  0  0  0  0  0  0  0  0  0  0
    0.8176   -4.8413    2.0423 H   0  0  0  0  0  0  0  0  0  0  0  0
   -1.0635   -3.9139   -0.1049 H   0  0  0  0  0  0  0  0  0  0  0  0
   -1.3986   -4.0701    2.9316 H   0  0  0  0  0  0  0  0  0  0  0  0
   -2.6270   -3.5218    1.7736 H   0  0  0  0  0  0  0  0  0  0  0  0
   -2.0780   -5.2100    1.7475 H   0  0  0  0  0  0  0  0  0  0  0  0
   -0.7583   -1.3438    0.2992 N   0  0  0  0  0  0  0  0  0  0  0  0
   -0.3436    0.0769    0.3448 C   0  0  2  0  0  0  0  0  0  0  0  0
   -1.5852    0.9397    0.7082 C   0  0  0  0  0  0  0  0  0  0  0  0
   -1.5698    2.1630    0.7262 O   0  0  0  0  0  0  0  0  0  0  0  0
    0.3308    0.4005   -1.0302 C   0  0  2  0  0  0  0  0  0  0  0  0
    1.6091   -0.4656   -1.2155 C   0  0  0  0  0  0  0  0  0  0  0  0
    0.7097    1.8912   -1.1630 C   0  0  0  0  0  0  0  0  0  0  0  0
    2.1882   -0.4172   -2.6342 C   0  0  0  0  0  0  0  0  0  0  0  0
   -1.2713   -1.6598   -0.5199 H   0  0  0  0  0  0  0  0  0  0  0  0
    0.3930    0.2507    1.1367 H   0  0  0  0  0  0  0  0  0  0  0  0
   -0.3772    0.1579   -1.8300 H   0  0  0  0  0  0  0  0  0  0  0  0
    2.3743   -0.1513   -0.4981 H   0  0  0  0  0  0  0  0  0  0  0  0
    1.3857   -1.5155   -1.0100 H   0  0  0  0  0  0  0  0  0  0  0  0
    1.2705    2.2244   -0.2840 H   0  0  0  0  0  0  0  0  0  0  0  0
    1.3178    2.0771   -2.0502 H   0  0  0  0  0  0  0  0  0  0  0  0
   -0.1832    2.5121   -1.2685 H   0  0  0  0  0  0  0  0  0  0  0  0
    1.4080   -0.6195   -3.3743 H   0  0  0  0  0  0  0  0  0  0  0  0
    2.9676   -1.1781   -2.7398 H   0  0  0  0  0  0  0  0  0  0  0  0
    2.6388    0.5548   -2.8505 H   0  0  0  0  0  0  0  0  0  0  0  0
   -2.7046    0.3095    1.2192 N   0  0  0  0  0  0  0  0  0  0  0  0
   -3.8101    0.9656    1.9231 C   0  0  2  0  0  0  0  0  0  0  0  0
   -4.4649   -0.0128    2.9214 C   0  0  0  0  0  0  0  0  0  0  0  0
   -4.2193   -1.2144    2.8561 O   0  0  0  0  0  0  0  0  0  0  0  0
   -4.8317    1.4533    0.8915 C   0  0  0  0  0  0  0  0  0  0  0  0
   -2.6023   -0.6911    1.3871 H   0  0  0  0  0  0  0  0  0  0  0  0
   -3.4304    1.8202    2.4932 H   0  0  0  0  0  0  0  0  0  0  0  0
   -5.2241    0.6103    0.3140 H   0  0  0  0  0  0  0  0  0  0  0  0
   -5.6672    1.9574    1.3861 H   0  0  0  0  0  0  0  0  0  0  0  0
   -4.3636    2.1612    0.2001 H   0  0  0  0  0  0  0  0  0  0  0  0
   -5.3158    0.4511    3.9073 N   0  0  0  0  0  0  0  0  0  0  0  0
   -5.9282   -0.4153    4.9075 C   0  0  0  0  0  0  0  0  0  0  0  0
   -5.4768    1.4529    3.9580 H   0  0  0  0  0  0  0  0  0  0  0  0
   -6.5413   -1.1837    4.4246 H   0  0  0  0  0  0  0  0  0  0  0  0
   -5.1582   -0.9068    5.5118 H   0  0  0  0  0  0  0  0  0  0  0  0
   -6.5698    0.1691    5.5742 H   0  0  0  0  0  0  0  0  0  0  0  0
  1  2  2  0  0  0  0
  1  3  1  0  0  0  0
  1  7  1  0  0  0  0
  3  4  1  0  0  0  0
  3  5  1  0  0  0  0
  3  6  1  0  0  0  0
  7  8  1  0  0  0  0
  7 12  1  0  0  0  0
  8  9  1  0  0  0  0
  8 11  1  0  0  0  0
  8 13  1  0  0  0  0
  9 10  2  0  0  0  0
  9 17  1  0  0  0  0
 11 14  1  0  0  0  0
 11 15  1  0  0  0  0
 11 16  1  0  0  0  0
 17 18  1  0  0  0  0
 17 25  1  0  0  0  0
 18 19  1  0  0  0  0
 18 21  1  0  0  0  0
 18 26  1  0  0  0  0
 19 20  2  0  0  0  0
 19 36  1  0  0  0  0
 21 22  1  0  0  0  0
 21 23  1  0  0  0  0
 21 27  1  0  0  0  0
 22 24  1  0  0  0  0
 22 28  1  0  0  0  0
 22 29  1  0  0  0  0
 23 30  1  0  0  0  0
 23 31  1  0  0  0  0
 23 32  1  0  0  0  0
 24 33  1  0  0  0  0
 24 34  1  0  0  0  0
 24 35  1  0  0  0  0
 36 37  1  0  0  0  0
 36 41  1  0  0  0  0
 37 38  1  0  0  0  0
 37 40  1  0  0  0  0
 37 42  1  0  0  0  0
 38 39  2  0  0  0  0
 38 46  1  0  0  0  0
 40 43  1  0  0  0  0
 40 44  1  0  0  0  0
 40 45  1  0  0  0  0
 46 47  1  0  0  0  0
 46 48  1  0  0  0  0
 47 49  1  0  0  0  0
 47 50  1  0  0  0  0
 47 51  1  0  0  0  0
M  END
$$$$

  -OEChem-05262216503D

 51 50  0     1  0  0  0  0  0999 V2000
    1.2425   -5.3001    0.2160 C   0  0  0  0  0  0  0  0  0  0  0  0
    0.9547   -5.1650   -0.9632 O   0  0  0  0  0  0  0  0  0  0  0  0
    2.4839   -6.0770    0.6114 C   0  0  0  0  0  0  0  0  0  0  0  0
    2.9861   -6.4651   -0.2794 H   0  0  0  0  0  0  0  0  0  0  0  0
    3.1757   -5.4246    1.1501 H   0  0  0  0  0  0  0  0  0  0  0  0
    2.2093   -6.9159    1.2553 H   0  0  0  0  0  0  0  0  0  0  0  0
    0.4582   -4.7238    1.1937 N   0  0  0  0  0  0  0  0  0  0  0  0
   -0.5806   -3.7294    0.8930 C   0  0  2  0  0  0  0  0  0  0  0  0
   -0.0409   -2.2874    0.9832 C   0  0  0  0  0  0  0  0  0  0  0  0
    0.8531   -2.0117    1.7737 O   0  0  0  0  0  0  0  0  0  0  0  0
   -1.7248   -3.9290    1.8910 C   0  0  0  0  0  0  0  0  0  0  0  0
    0.8776   -4.6772    2.1192 H   0  0  0  0  0  0  0  0  0  0  0  0
   -0.9752   -3.8845   -0.1168 H   0  0  0  0  0  0  0  0  0  0  0  0
   -1.3771   -3.7597    2.9155 H   0  0  0  0  0  0  0  0  0  0  0  0
   -2.5419   -3.2302    1.6850 H   0  0  0  0  0  0  0  0  0  0  0  0
   -2.1165   -4.9483    1.8195 H   0  0  0  0  0  0  0  0  0  0  0  0
   -0.6511   -1.2724    0.2682 N   0  0  0  0  0  0  0  0  0  0  0  0
   -0.2568    0.1533    0.3196 C   0  0  2  0  0  0  0  0  0  0  0  0
   -1.4993    0.9416    0.8271 C   0  0  0  0  0  0  0  0  0  0  0  0
   -1.7492    2.1043    0.5445 O   0  0  0  0  0  0  0  0  0  0  0  0
    0.3119    0.5489   -1.0842 C   0  0  2  0  0  0  0  0  0  0  0  0
    1.5897   -0.2834   -1.3876 C   0  0  0  0  0  0  0  0  0  0  0  0
    0.6833    2.0475   -1.1610 C   0  0  0  0  0  0  0  0  0  0  0  0
    2.0741   -0.1710   -2.8387 C   0  0  0  0  0  0  0  0  0  0  0  0
   -1.3550   -1.5497   -0.4111 H   0  0  0  0  0  0  0  0  0  0  0  0
    0.5328    0.3177    1.0607 H   0  0  0  0  0  0  0  0  0  0  0  0
   -0.4454    0.3360   -1.8461 H   0  0  0  0  0  0  0  0  0  0  0  0
    2.3950    0.0161   -0.7087 H   0  0  0  0  0  0  0  0  0  0  0  0
    1.3957   -1.3441   -1.2098 H   0  0  0  0  0  0  0  0  0  0  0  0
    1.2607    2.3444   -0.2798 H   0  0  0  0  0  0  0  0  0  0  0  0
    1.2743    2.2750   -2.0496 H   0  0  0  0  0  0  0  0  0  0  0  0
   -0.2094    2.6727   -1.2252 H   0  0  0  0  0  0  0  0  0  0  0  0
    1.2481   -0.3506   -3.5335 H   0  0  0  0  0  0  0  0  0  0  0  0
    2.8505   -0.9190   -3.0265 H   0  0  0  0  0  0  0  0  0  0  0  0
    2.5031    0.8124   -3.0462 H   0  0  0  0  0  0  0  0  0  0  0  0
   -2.3753    0.2947    1.6790 N   0  0  0  0  0  0  0  0  0  0  0  0
   -3.5442    0.8827    2.3405 C   0  0  2  0  0  0  0  0  0  0  0  0
   -3.9550    0.0327    3.5617 C   0  0  0  0  0  0  0  0  0  0  0  0
   -3.5485   -1.1208    3.6711 O   0  0  0  0  0  0  0  0  0  0  0  0
   -4.7041    0.9608    1.3413 C   0  0  0  0  0  0  0  0  0  0  0  0
   -2.0861   -0.6284    2.0024 H   0  0  0  0  0  0  0  0  0  0  0  0
   -3.2965    1.8891    2.6936 H   0  0  0  0  0  0  0  0  0  0  0  0
   -4.9559   -0.0378    0.9705 H   0  0  0  0  0  0  0  0  0  0  0  0
   -5.5915    1.3903    1.8159 H   0  0  0  0  0  0  0  0  0  0  0  0
   -4.4329    1.5910    0.4886 H   0  0  0  0  0  0  0  0  0  0  0  0
   -4.7820    0.5556    4.5385 N   0  0  0  0  0  0  0  0  0  0  0  0
   -5.1937   -0.1918    5.7207 C   0  0  0  0  0  0  0  0  0  0  0  0
   -5.0863    1.5193    4.4335 H   0  0  0  0  0  0  0  0  0  0  0  0
   -5.7357   -1.0986    5.4319 H   0  0  0  0  0  0  0  0  0  0  0  0
   -4.3202   -0.4784    6.3158 H   0  0  0  0  0  0  0  0  0  0  0  0
   -5.8523    0.4196    6.3451 H   0  0  0  0  0  0  0  0  0  0  0  0
  1  2  2  0  0  0  0
  1  3  1  0  0  0  0
  1  7  1  0  0  0  0
  3  4  1  0  0  0  0
  3  5  1  0  0  0  0
  3  6  1  0  0  0  0
  7  8  1  0  0  0  0
  7 12  1  0  0  0  0
  8  9  1  0  0  0  0
  8 11  1  0  0  0  0
  8 13  1  0  0  0  0
  9 10  2  0  0  0  0
  9 17  1  0  0  0  0
 11 14  1  0  0  0  0
 11 15  1  0  0  0  0
 11 16  1  0  0  0  0
 17 18  1  0  0  0  0
 17 25  1  0  0  0  0
 18 19  1  0  0  0  0
 18 21  1  0  0  0  0
 18 26  1  0  0  0  0
 19 20  2  0  0  0  0
 19 36  1  0  0  0  0
 21 22  1  0  0  0  0
 21 23  1  0  0  0  0
 21 27  1  0  0  0  0
 22 24  1  0  0  0  0
 22 28  1  0  0  0  0
 22 29  1  0  0  0  0
 23 30  1  0  0  0  0
 23 31  1  0  0  0  0
 23 32  1  0  0  0  0
 24 33  1  0  0  0  0
 24 34  1  0  0  0  0
 24 35  1  0  0  0  0
 36 37  1  0  0  0  0
 36 41  1  0  0  0  0
 37 38  1  0  0  0  0
 37 40  1  0  0  0  0
 37 42  1  0  0  0  0
 38 39  2  0  0  0  0
 38 46  1  0  0  0  0
 40 43  1  0  0  0  0
 40 44  1  0  0  0  0
 40 45  1  0  0  0  0
 46 47  1  0  0  0  0
 46 48  1  0  0  0  0
 47 49  1  0  0  0  0
 47 50  1  0  0  0  0
 47 51  1  0  0  0  0
M  END
$$$$

  -OEChem-05262216503D

 51 50  0     1  0  0  0  0  0999 V2000
    1.0856   -5.4210    0.1687 C   0  0  0  0  0  0  0  0  0  0  0  0
    0.6233   -5.3726   -0.9606 O   0  0  0  0  0  0  0  0  0  0  0  0
    2.3337   -6.2385    0.4426 C   0  0  0  0  0  0  0  0  0  0  0  0
    2.6674   -6.7358   -0.4724 H   0  0  0  0  0  0  0  0  0  0  0  0
    3.1345   -5.5874    0.8013 H   0  0  0  0  0  0  0  0  0  0  0  0
    2.1237   -6.9978    1.1997 H   0  0  0  0  0  0  0  0  0  0  0  0
    0.4923   -4.7163    1.1960 N   0  0  0  0  0  0  0  0  0  0  0  0
   -0.5403   -3.6941    0.9749 C   0  0  2  0  0  0  0  0  0  0  0  0
    0.0478   -2.2697    0.9935 C   0  0  0  0  0  0  0  0  0  0  0  0
    1.0085   -2.0088    1.7076 O   0  0  0  0  0  0  0  0  0  0  0  0
   -1.5945   -3.8413    2.0755 C   0  0  0  0  0  0  0  0  0  0  0  0
    1.0475   -4.6251    2.0440 H   0  0  0  0  0  0  0  0  0  0  0  0
   -1.0305   -3.8464    0.0077 H   0  0  0  0  0  0  0  0  0  0  0  0
   -1.1483   -3.6761    3.0618 H   0  0  0  0  0  0  0  0  0  0  0  0
   -2.3995   -3.1131    1.9351 H   0  0  0  0  0  0  0  0  0  0  0  0
   -2.0293   -4.8453    2.0521 H   0  0  0  0  0  0  0  0  0  0  0  0
   -0.5883   -1.2486    0.3128 N   0  0  0  0  0  0  0  0  0  0  0  0
   -0.1820    0.1710    0.3485 C   0  0  2  0  0  0  0  0  0  0  0  0
   -1.4083    0.9339    0.9200 C   0  0  0  0  0  0  0  0  0  0  0  0
   -1.9659    1.8616    0.3497 O   0  0  0  0  0  0  0  0  0  0  0  0
    0.3165    0.6049   -1.0657 C   0  0  2  0  0  0  0  0  0  0  0  0
    1.5743   -0.2198   -1.4550 C   0  0  0  0  0  0  0  0  0  0  0  0
    0.7204    2.0988   -1.0955 C   0  0  0  0  0  0  0  0  0  0  0  0
    1.9793   -0.0591   -2.9251 C   0  0  0  0  0  0  0  0  0  0  0  0
   -1.3797   -1.5050   -0.2722 H   0  0  0  0  0  0  0  0  0  0  0  0
    0.6400    0.3303    1.0546 H   0  0  0  0  0  0  0  0  0  0  0  0
   -0.4833    0.4326   -1.7941 H   0  0  0  0  0  0  0  0  0  0  0  0
    2.4164    0.0537   -0.8104 H   0  0  0  0  0  0  0  0  0  0  0  0
    1.3812   -1.2845   -1.2996 H   0  0  0  0  0  0  0  0  0  0  0  0
    1.4887    2.3016   -0.3428 H   0  0  0  0  0  0  0  0  0  0  0  0
    1.1125    2.3813   -2.0749 H   0  0  0  0  0  0  0  0  0  0  0  0
   -0.1267    2.7589   -0.9058 H   0  0  0  0  0  0  0  0  0  0  0  0
    1.1211   -0.2350   -3.5810 H   0  0  0  0  0  0  0  0  0  0  0  0
    2.7592   -0.7849   -3.1754 H   0  0  0  0  0  0  0  0  0  0  0  0
    2.3766    0.9397   -3.1234 H   0  0  0  0  0  0  0  0  0  0  0  0
   -2.0417    0.3965    2.0259 N   0  0  0  0  0  0  0  0  0  0  0  0
   -3.2915    0.8751    2.6276 C   0  0  2  0  0  0  0  0  0  0  0  0
   -3.4478    0.3427    4.0667 C   0  0  0  0  0  0  0  0  0  0  0  0
   -2.8513   -0.6719    4.4127 O   0  0  0  0  0  0  0  0  0  0  0  0
   -4.4768    0.4072    1.7741 C   0  0  0  0  0  0  0  0  0  0  0  0
   -1.5701   -0.3792    2.4926 H   0  0  0  0  0  0  0  0  0  0  0  0
   -3.2782    1.9692    2.6681 H   0  0  0  0  0  0  0  0  0  0  0  0
   -4.4943   -0.6855    1.7120 H   0  0  0  0  0  0  0  0  0  0  0  0
   -5.4206    0.7465    2.2115 H   0  0  0  0  0  0  0  0  0  0  0  0
   -4.4054    0.8116    0.7598 H   0  0  0  0  0  0  0  0  0  0  0  0
   -4.2705    0.9894    4.9701 N   0  0  0  0  0  0  0  0  0  0  0  0
   -4.4586    0.5412    6.3446 C   0  0  0  0  0  0  0  0  0  0  0  0
   -4.7414    1.8339    4.6585 H   0  0  0  0  0  0  0  0  0  0  0  0
   -4.8952   -0.4631    6.3643 H   0  0  0  0  0  0  0  0  0  0  0  0
   -3.5013    0.5204    6.8762 H   0  0  0  0  0  0  0  0  0  0  0  0
   -5.1322    1.2212    6.8750 H   0  0  0  0  0  0  0  0  0  0  0  0
  1  2  2  0  0  0  0
  1  3  1  0  0  0  0
  1  7  1  0  0  0  0
  3  4  1  0  0  0  0
  3  5  1  0  0  0  0
  3  6  1  0  0  0  0
  7  8  1  0  0  0  0
  7 12  1  0  0  0  0
  8  9  1  0  0  0  0
  8 11  1  0  0  0  0
  8 13  1  0  0  0  0
  9 10  2  0  0  0  0
  9 17  1  0  0  0  0
 11 14  1  0  0  0  0
 11 15  1  0  0  0  0
 11 16  1  0  0  0  0
 17 18  1  0  0  0  0
 17 25  1  0  0  0  0
 18 19  1  0  0  0  0
 18 21  1  0  0  0  0
 18 26  1  0  0  0  0
 19 20  2  0  0  0  0
 19 36  1  0  0  0  0
 21 22  1  0  0  0  0
 21 23  1  0  0  0  0
 21 27  1  0  0  0  0
 22 24  1  0  0  0  0
 22 28  1  0  0  0  0
 22 29  1  0  0  0  0
 23 30  1  0  0  0  0
 23 31  1  0  0  0  0
 23 32  1  0  0  0  0
 24 33  1  0  0  0  0
 24 34  1  0  0  0  0
 24 35  1  0  0  0  0
 36 37  1  0  0  0  0
 36 41  1  0  0  0  0
 37 38  1  0  0  0  0
 37 40  1  0  0  0  0
 37 42  1  0  0  0  0
 38 39  2  0  0  0  0
 38 46  1  0  0  0  0
 40 43  1  0  0  0  0
 40 44  1  0  0  0  0
 40 45  1  0  0  0  0
 46 47  1  0  0  0  0
 46 48  1  0  0  0  0
 47 49  1  0  0  0  0
 47 50  1  0  0  0  0
 47 51  1  0  0  0  0
M  END
$$$$

  -OEChem-05262216503D

 51 50  0     1  0  0  0  0  0999 V2000
    1.0733   -5.6039    0.1290 C   0  0  0  0  0  0  0  0  0  0  0  0
    0.5079   -5.6967   -0.9491 O   0  0  0  0  0  0  0  0  0  0  0  0
    2.3368   -6.4006    0.3925 C   0  0  0  0  0  0  0  0  0  0  0  0
    2.5950   -7.0004   -0.4848 H   0  0  0  0  0  0  0  0  0  0  0  0
    3.1654   -5.7228    0.6117 H   0  0  0  0  0  0  0  0  0  0  0  0
    2.1854   -7.0686    1.2439 H   0  0  0  0  0  0  0  0  0  0  0  0
    0.5809   -4.7655    1.1077 N   0  0  0  0  0  0  0  0  0  0  0  0
   -0.4696   -3.7647    0.8718 C   0  0  2  0  0  0  0  0  0  0  0  0
    0.0829   -2.3285    0.9591 C   0  0  0  0  0  0  0  0  0  0  0  0
    1.0528   -2.0847    1.6673 O   0  0  0  0  0  0  0  0  0  0  0  0
   -1.5624   -3.9750    1.9226 C   0  0  0  0  0  0  0  0  0  0  0  0
    1.2068   -4.5844    1.8903 H   0  0  0  0  0  0  0  0  0  0  0  0
   -0.9118   -3.8918   -0.1217 H   0  0  0  0  0  0  0  0  0  0  0  0
   -1.1595   -3.8324    2.9309 H   0  0  0  0  0  0  0  0  0  0  0  0
   -2.3809   -3.2640    1.7726 H   0  0  0  0  0  0  0  0  0  0  0  0
   -1.9671   -4.9893    1.8486 H   0  0  0  0  0  0  0  0  0  0  0  0
   -0.5645   -1.2917    0.3142 N   0  0  0  0  0  0  0  0  0  0  0  0
   -0.1633    0.1253    0.3826 C   0  0  2  0  0  0  0  0  0  0  0  0
   -1.3764    0.8739    0.9861 C   0  0  0  0  0  0  0  0  0  0  0  0
   -2.1101    1.5926    0.3187 O   0  0  0  0  0  0  0  0  0  0  0  0
    0.3016    0.6130   -1.0217 C   0  0  2  0  0  0  0  0  0  0  0  0
    1.5544   -0.1829   -1.4729 C   0  0  0  0  0  0  0  0  0  0  0  0
    0.6720    2.1135   -0.9973 C   0  0  0  0  0  0  0  0  0  0  0  0
    1.9158    0.0445   -2.9447 C   0  0  0  0  0  0  0  0  0  0  0  0
   -1.3705   -1.5304   -0.2583 H   0  0  0  0  0  0  0  0  0  0  0  0
    0.6717    0.2680    1.0763 H   0  0  0  0  0  0  0  0  0  0  0  0
   -0.5127    0.4554   -1.7376 H   0  0  0  0  0  0  0  0  0  0  0  0
    2.4098    0.0746   -0.8395 H   0  0  0  0  0  0  0  0  0  0  0  0
    1.3743   -1.2547   -1.3537 H   0  0  0  0  0  0  0  0  0  0  0  0
    1.4974    2.2937   -0.3016 H   0  0  0  0  0  0  0  0  0  0  0  0
    0.9738    2.4564   -1.9899 H   0  0  0  0  0  0  0  0  0  0  0  0
   -0.1720    2.7361   -0.6940 H   0  0  0  0  0  0  0  0  0  0  0  0
    1.0442   -0.1262   -3.5842 H   0  0  0  0  0  0  0  0  0  0  0  0
    2.7053   -0.6515   -3.2447 H   0  0  0  0  0  0  0  0  0  0  0  0
    2.2828    1.0608   -3.1111 H   0  0  0  0  0  0  0  0  0  0  0  0
   -1.8062    0.5091    2.2484 N   0  0  0  0  0  0  0  0  0  0  0  0
   -3.0157    1.0095    2.9133 C   0  0  2  0  0  0  0  0  0  0  0  0
   -2.9008    0.9121    4.4481 C   0  0  0  0  0  0  0  0  0  0  0  0
   -2.0770    0.1607    4.9577 O   0  0  0  0  0  0  0  0  0  0  0  0
   -4.2194    0.1962    2.4240 C   0  0  0  0  0  0  0  0  0  0  0  0
   -1.1935   -0.1009    2.7918 H   0  0  0  0  0  0  0  0  0  0  0  0
   -3.1608    2.0643    2.6578 H   0  0  0  0  0  0  0  0  0  0  0  0
   -4.0915   -0.8627    2.6710 H   0  0  0  0  0  0  0  0  0  0  0  0
   -5.1405    0.5547    2.8930 H   0  0  0  0  0  0  0  0  0  0  0  0
   -4.3281    0.2904    1.3391 H   0  0  0  0  0  0  0  0  0  0  0  0
   -3.7291    1.6636    5.2610 N   0  0  0  0  0  0  0  0  0  0  0  0
   -3.6696    1.6263    6.7172 C   0  0  0  0  0  0  0  0  0  0  0  0
   -4.3915    2.2885    4.8108 H   0  0  0  0  0  0  0  0  0  0  0  0
   -3.9055    0.6221    7.0847 H   0  0  0  0  0  0  0  0  0  0  0  0
   -2.6696    1.9038    7.0670 H   0  0  0  0  0  0  0  0  0  0  0  0
   -4.3917    2.3293    7.1440 H   0  0  0  0  0  0  0  0  0  0  0  0
  1  2  2  0  0  0  0
  1  3  1  0  0  0  0
  1  7  1  0  0  0  0
  3  4  1  0  0  0  0
  3  5  1  0  0  0  0
  3  6  1  0  0  0  0
  7  8  1  0  0  0  0
  7 12  1  0  0  0  0
  8  9  1  0  0  0  0
  8 11  1  0  0  0  0
  8 13  1  0  0  0  0
  9 10  2  0  0  0  0
  9 17  1  0  0  0  0
 11 14  1  0  0  0  0
 11 15  1  0  0  0  0
 11 16  1  0  0  0  0
 17 18  1  0  0  0  0
 17 25  1  0  0  0  0
 18 19  1  0  0  0  0
 18 21  1  0  0  0  0
 18 26  1  0  0  0  0
 19 20  2  0  0  0  0
 19 36  1  0  0  0  0
 21 22  1  0  0  0  0
 21 23  1  0  0  0  0
 21 27  1  0  0  0  0
 22 24  1  0  0  0  0
 22 28  1  0  0  0  0
 22 29  1  0  0  0  0
 23 30  1  0  0  0  0
 23 31  1  0  0  0  0
 23 32  1  0  0  0  0
 24 33  1  0  0  0  0
 24 34  1  0  0  0  0
 24 35  1  0  0  0  0
 36 37  1  0  0  0  0
 36 41  1  0  0  0  0
 37 38  1  0  0  0  0
 37 40  1  0  0  0  0
 37 42  1  0  0  0  0
 38 39  2  0  0  0  0
 38 46  1  0  0  0  0
 40 43  1  0  0  0  0
 40 44  1  0  0  0  0
 40 45  1  0  0  0  0
 46 47  1  0  0  0  0
 46 48  1  0  0  0  0
 47 49  1  0  0  0  0
 47 50  1  0  0  0  0
 47 51  1  0  0  0  0
M  END
$$$$

  -OEChem-05262216503D

 51 50  0     1  0  0  0  0  0999 V2000
    1.1028   -5.6841    0.1441 C   0  0  0  0  0  0  0  0  0  0  0  0
    0.5637   -5.8072   -0.9444 O   0  0  0  0  0  0  0  0  0  0  0  0
    2.3603   -6.4726    0.4589 C   0  0  0  0  0  0  0  0  0  0  0  0
    2.6291   -7.1082   -0.3894 H   0  0  0  0  0  0  0  0  0  0  0  0
    3.1882   -5.7890    0.6626 H   0  0  0  0  0  0  0  0  0  0  0  0
    2.1949   -7.1054    1.3341 H   0  0  0  0  0  0  0  0  0  0  0  0
    0.5871   -4.8184    1.0865 N   0  0  0  0  0  0  0  0  0  0  0  0
   -0.4501   -3.8178    0.7952 C   0  0  2  0  0  0  0  0  0  0  0  0
    0.0913   -2.3815    0.9358 C   0  0  0  0  0  0  0  0  0  0  0  0
    1.0623   -2.1554    1.6489 O   0  0  0  0  0  0  0  0  0  0  0  0
   -1.6098   -4.0451    1.7672 C   0  0  0  0  0  0  0  0  0  0  0  0
    1.1951   -4.6156    1.8782 H   0  0  0  0  0  0  0  0  0  0  0  0
   -0.8244   -3.9312   -0.2276 H   0  0  0  0  0  0  0  0  0  0  0  0
   -1.2748   -3.9152    2.8014 H   0  0  0  0  0  0  0  0  0  0  0  0
   -2.4188   -3.3343    1.5718 H   0  0  0  0  0  0  0  0  0  0  0  0
   -2.0053   -5.0592    1.6526 H   0  0  0  0  0  0  0  0  0  0  0  0
   -0.5570   -1.3297    0.3173 N   0  0  0  0  0  0  0  0  0  0  0  0
   -0.1431    0.0807    0.4045 C   0  0  2  0  0  0  0  0  0  0  0  0
   -1.3293    0.8435    1.0353 C   0  0  0  0  0  0  0  0  0  0  0  0
   -2.1823    1.3979    0.3518 O   0  0  0  0  0  0  0  0  0  0  0  0
    0.2874    0.5922   -0.9998 C   0  0  2  0  0  0  0  0  0  0  0  0
    1.5214   -0.1995   -1.5044 C   0  0  0  0  0  0  0  0  0  0  0  0
    0.6442    2.0939   -0.9509 C   0  0  0  0  0  0  0  0  0  0  0  0
    1.8400    0.0588   -2.9804 C   0  0  0  0  0  0  0  0  0  0  0  0
   -1.3655   -1.5519   -0.2584 H   0  0  0  0  0  0  0  0  0  0  0  0
    0.7107    0.2032    1.0793 H   0  0  0  0  0  0  0  0  0  0  0  0
   -0.5463    0.4487   -1.6958 H   0  0  0  0  0  0  0  0  0  0  0  0
    2.3961    0.0439   -0.8925 H   0  0  0  0  0  0  0  0  0  0  0  0
    1.3418   -1.2729   -1.3999 H   0  0  0  0  0  0  0  0  0  0  0  0
    1.4891    2.2656   -0.2766 H   0  0  0  0  0  0  0  0  0  0  0  0
    0.9110    2.4632   -1.9443 H   0  0  0  0  0  0  0  0  0  0  0  0
   -0.1993    2.6965   -0.6043 H   0  0  0  0  0  0  0  0  0  0  0  0
    0.9536   -0.1088   -3.6002 H   0  0  0  0  0  0  0  0  0  0  0  0
    2.6283   -0.6229   -3.3143 H   0  0  0  0  0  0  0  0  0  0  0  0
    2.1914    1.0821   -3.1360 H   0  0  0  0  0  0  0  0  0  0  0  0
   -1.5575    0.7080    2.3909 N   0  0  0  0  0  0  0  0  0  0  0  0
   -2.6935    1.2840    3.1208 C   0  0  2  0  0  0  0  0  0  0  0  0
   -2.3563    1.5104    4.6095 C   0  0  0  0  0  0  0  0  0  0  0  0
   -1.3923    0.9469    5.1155 O   0  0  0  0  0  0  0  0  0  0  0  0
   -3.8911    0.3364    2.9869 C   0  0  0  0  0  0  0  0  0  0  0  0
   -0.8441    0.2282    2.9420 H   0  0  0  0  0  0  0  0  0  0  0  0
   -2.9491    2.2568    2.6877 H   0  0  0  0  0  0  0  0  0  0  0  0
   -3.6522   -0.6423    3.4157 H   0  0  0  0  0  0  0  0  0  0  0  0
   -4.7632    0.7427    3.5081 H   0  0  0  0  0  0  0  0  0  0  0  0
   -4.1544    0.2003    1.9330 H   0  0  0  0  0  0  0  0  0  0  0  0
   -3.1383    2.3440    5.3879 N   0  0  0  0  0  0  0  0  0  0  0  0
   -2.8855    2.5866    6.8035 C   0  0  0  0  0  0  0  0  0  0  0  0
   -3.9313    2.7978    4.9440 H   0  0  0  0  0  0  0  0  0  0  0  0
   -3.0177    1.6643    7.3788 H   0  0  0  0  0  0  0  0  0  0  0  0
   -1.8644    2.9528    6.9555 H   0  0  0  0  0  0  0  0  0  0  0  0
   -3.5809    3.3385    7.1890 H   0  0  0  0  0  0  0  0  0  0  0  0
  1  2  2  0  0  0  0
  1  3  1  0  0  0  0
  1  7  1  0  0  0  0
  3  4  1  0  0  0  0
  3  5  1  0  0  0  0
  3  6  1  0  0  0  0
  7  8  1  0  0  0  0
  7 12  1  0  0  0  0
  8  9  1  0  0  0  0
  8 11  1  0  0  0  0
  8 13  1  0  0  0  0
  9 10  2  0  0  0  0
  9 17  1  0  0  0  0
 11 14  1  0  0  0  0
 11 15  1  0  0  0  0
 11 16  1  0  0  0  0
 17 18  1  0  0  0  0
 17 25  1  0  0  0  0
 18 19  1  0  0  0  0
 18 21  1  0  0  0  0
 18 26  1  0  0  0  0
 19 20  2  0  0  0  0
 19 36  1  0  0  0  0
 21 22  1  0  0  0  0
 21 23  1  0  0  0  0
 21 27  1  0  0  0  0
 22 24  1  0  0  0  0
 22 28  1  0  0  0  0
 22 29  1  0  0  0  0
 23 30  1  0  0  0  0
 23 31  1  0  0  0  0
 23 32  1  0  0  0  0
 24 33  1  0  0  0  0
 24 34  1  0  0  0  0
 24 35  1  0  0  0  0
 36 37  1  0  0  0  0
 36 41  1  0  0  0  0
 37 38  1  0  0  0  0
 37 40  1  0  0  0  0
 37 42  1  0  0  0  0
 38 39  2  0  0  0  0
 38 46  1  0  0  0  0
 40 43  1  0  0  0  0
 40 44  1  0  0  0  0
 40 45  1  0  0  0  0
 46 47  1  0  0  0  0
 46 48  1  0  0  0  0
 47 49  1  0  0  0  0
 47 50  1  0  0  0  0
 47 51  1  0  0  0  0
M  END
$$$$

  -OEChem-05262216503D

 51 50  0     1  0  0  0  0  0999 V2000
    1.0638   -5.7691    0.1521 C   0  0  0  0  0  0  0  0  0  0  0  0
    0.5294   -5.9002   -0.9378 O   0  0  0  0  0  0  0  0  0  0  0  0
    2.3054   -6.5734    0.4883 C   0  0  0  0  0  0  0  0  0  0  0  0
    2.5999   -7.1878   -0.3670 H   0  0  0  0  0  0  0  0  0  0  0  0
    3.1294   -5.9005    0.7381 H   0  0  0  0  0  0  0  0  0  0  0  0
    2.1063   -7.2280    1.3401 H   0  0  0  0  0  0  0  0  0  0  0  0
    0.5564   -4.8819    1.0788 N   0  0  0  0  0  0  0  0  0  0  0  0
   -0.4526   -3.8603    0.7619 C   0  0  2  0  0  0  0  0  0  0  0  0
    0.1176   -2.4355    0.9104 C   0  0  0  0  0  0  0  0  0  0  0  0
    1.1092   -2.2372    1.6039 O   0  0  0  0  0  0  0  0  0  0  0  0
   -1.6395   -4.0608    1.7074 C   0  0  0  0  0  0  0  0  0  0  0  0
    1.1653   -4.6772    1.8692 H   0  0  0  0  0  0  0  0  0  0  0  0
   -0.8042   -3.9674   -0.2696 H   0  0  0  0  0  0  0  0  0  0  0  0
   -1.3266   -3.9360    2.7490 H   0  0  0  0  0  0  0  0  0  0  0  0
   -2.4286   -3.3336    1.4923 H   0  0  0  0  0  0  0  0  0  0  0  0
   -2.0534   -5.0666    1.5853 H   0  0  0  0  0  0  0  0  0  0  0  0
   -0.5257   -1.3639    0.3218 N   0  0  0  0  0  0  0  0  0  0  0  0
   -0.0968    0.0395    0.4324 C   0  0  2  0  0  0  0  0  0  0  0  0
   -1.2569    0.8147    1.0910 C   0  0  0  0  0  0  0  0  0  0  0  0
   -2.2217    1.1899    0.4343 O   0  0  0  0  0  0  0  0  0  0  0  0
    0.3022    0.5860   -0.9665 C   0  0  2  0  0  0  0  0  0  0  0  0
    1.5158   -0.1967   -1.5279 C   0  0  0  0  0  0  0  0  0  0  0  0
    0.6515    2.0866   -0.8837 C   0  0  0  0  0  0  0  0  0  0  0  0
    1.7934    0.1058   -3.0037 C   0  0  0  0  0  0  0  0  0  0  0  0
   -1.3634   -1.5600   -0.2214 H   0  0  0  0  0  0  0  0  0  0  0  0
    0.7743    0.1351    1.0893 H   0  0  0  0  0  0  0  0  0  0  0  0
   -0.5494    0.4611   -1.6447 H   0  0  0  0  0  0  0  0  0  0  0  0
    2.4088    0.0246   -0.9341 H   0  0  0  0  0  0  0  0  0  0  0  0
    1.3320   -1.2717   -1.4501 H   0  0  0  0  0  0  0  0  0  0  0  0
    1.5096    2.2452   -0.2229 H   0  0  0  0  0  0  0  0  0  0  0  0
    0.8950    2.4856   -1.8715 H   0  0  0  0  0  0  0  0  0  0  0  0
   -0.1911    2.6702   -0.5024 H   0  0  0  0  0  0  0  0  0  0  0  0
    0.8902   -0.0445   -3.6035 H   0  0  0  0  0  0  0  0  0  0  0  0
    2.5727   -0.5647   -3.3788 H   0  0  0  0  0  0  0  0  0  0  0  0
    2.1398    1.1339   -3.1386 H   0  0  0  0  0  0  0  0  0  0  0  0
   -1.3021    0.9292    2.4663 N   0  0  0  0  0  0  0  0  0  0  0  0
   -2.3834    1.5714    3.2227 C   0  0  2  0  0  0  0  0  0  0  0  0
   -1.8786    2.1496    4.5613 C   0  0  0  0  0  0  0  0  0  0  0  0
   -0.7828    1.8206    5.0017 O   0  0  0  0  0  0  0  0  0  0  0  0
   -3.4805    0.5309    3.4697 C   0  0  0  0  0  0  0  0  0  0  0  0
   -0.4866    0.6164    2.9946 H   0  0  0  0  0  0  0  0  0  0  0  0
   -2.7953    2.4023    2.6401 H   0  0  0  0  0  0  0  0  0  0  0  0
   -3.0860   -0.3088    4.0509 H   0  0  0  0  0  0  0  0  0  0  0  0
   -4.3155    0.9745    4.0201 H   0  0  0  0  0  0  0  0  0  0  0  0
   -3.8615    0.1474    2.5180 H   0  0  0  0  0  0  0  0  0  0  0  0
   -2.6536    3.0448    5.2757 N   0  0  0  0  0  0  0  0  0  0  0  0
   -2.2305    3.6355    6.5399 C   0  0  0  0  0  0  0  0  0  0  0  0
   -3.5527    3.3095    4.8837 H   0  0  0  0  0  0  0  0  0  0  0  0
   -2.0404    2.8538    7.2831 H   0  0  0  0  0  0  0  0  0  0  0  0
   -1.3151    4.2210    6.4018 H   0  0  0  0  0  0  0  0  0  0  0  0
   -3.0099    4.2984    6.9281 H   0  0  0  0  0  0  0  0  0  0  0  0
  1  2  2  0  0  0  0
  1  3  1  0  0  0  0
  1  7  1  0  0  0  0
  3  4  1  0  0  0  0
  3  5  1  0  0  0  0
  3  6  1  0  0  0  0
  7  8  1  0  0  0  0
  7 12  1  0  0  0  0
  8  9  1  0  0  0  0
  8 11  1  0  0  0  0
  8 13  1  0  0  0  0
  9 10  2  0  0  0  0
  9 17  1  0  0  0  0
 11 14  1  0  0  0  0
 11 15  1  0  0  0  0
 11 16  1  0  0  0  0
 17 18  1  0  0  0  0
 17 25  1  0  0  0  0
 18 19  1  0  0  0  0
 18 21  1  0  0  0  0
 18 26  1  0  0  0  0
 19 20  2  0  0  0  0
 19 36  1  0  0  0  0
 21 22  1  0  0  0  0
 21 23  1  0  0  0  0
 21 27  1  0  0  0  0
 22 24  1  0  0  0  0
 22 28  1  0  0  0  0
 22 29  1  0  0  0  0
 23 30  1  0  0  0  0
 23 31  1  0  0  0  0
 23 32  1  0  0  0  0
 24 33  1  0  0  0  0
 24 34  1  0  0  0  0
 24 35  1  0  0  0  0
 36 37  1  0  0  0  0
 36 41  1  0  0  0  0
 37 38  1  0  0  0  0
 37 40  1  0  0  0  0
 37 42  1  0  0  0  0
 38 39  2  0  0  0  0
 38 46  1  0  0  0  0
 40 43  1  0  0  0  0
 40 44  1  0  0  0  0
 40 45  1  0  0  0  0
 46 47  1  0  0  0  0
 46 48  1  0  0  0  0
 47 49  1  0  0  0  0
 47 50  1  0  0  0  0
 47 51  1  0  0  0  0
M  END
$$$$

  -OEChem-05262216503D

 51 50  0     1  0  0  0  0  0999 V2000
    0.8890   -6.0818    0.2451 C   0  0  0  0  0  0  0  0  0  0  0  0
    0.0435   -6.4195   -0.5684 O   0  0  0  0  0  0  0  0  0  0  0  0
    2.0980   -6.9640    0.4963 C   0  0  0  0  0  0  0  0  0  0  0  0
    2.0769   -7.8309   -0.1703 H   0  0  0  0  0  0  0  0  0  0  0  0
    3.0171   -6.4019    0.3129 H   0  0  0  0  0  0  0  0  0  0  0  0
    2.0943   -7.3155    1.5310 H   0  0  0  0  0  0  0  0  0  0  0  0
    0.7512   -4.8938    0.9315 N   0  0  0  0  0  0  0  0  0  0  0  0
   -0.2886   -3.8936    0.6557 C   0  0  2  0  0  0  0  0  0  0  0  0
    0.2320   -2.4582    0.8737 C   0  0  0  0  0  0  0  0  0  0  0  0
    1.2598   -2.2661    1.5145 O   0  0  0  0  0  0  0  0  0  0  0  0
   -1.4867   -4.1759    1.5665 C   0  0  0  0  0  0  0  0  0  0  0  0
    1.5372   -4.5910    1.5059 H   0  0  0  0  0  0  0  0  0  0  0  0
   -0.6065   -3.9682   -0.3898 H   0  0  0  0  0  0  0  0  0  0  0  0
   -1.1940   -4.0985    2.6185 H   0  0  0  0  0  0  0  0  0  0  0  0
   -2.2930   -3.4612    1.3750 H   0  0  0  0  0  0  0  0  0  0  0  0
   -1.8708   -5.1849    1.3846 H   0  0  0  0  0  0  0  0  0  0  0  0
   -0.4474   -1.3821    0.3347 N   0  0  0  0  0  0  0  0  0  0  0  0
   -0.0637    0.0296    0.4982 C   0  0  2  0  0  0  0  0  0  0  0  0
   -1.2286    0.7657    1.1926 C   0  0  0  0  0  0  0  0  0  0  0  0
   -2.2876    0.9421    0.6004 O   0  0  0  0  0  0  0  0  0  0  0  0
    0.3035    0.6424   -0.8809 C   0  0  2  0  0  0  0  0  0  0  0  0
    1.5373   -0.0788   -1.4796 C   0  0  0  0  0  0  0  0  0  0  0  0
    0.5918    2.1522   -0.7463 C   0  0  0  0  0  0  0  0  0  0  0  0
    1.7942    0.2862   -2.9444 C   0  0  0  0  0  0  0  0  0  0  0  0
   -1.3252   -1.5747   -0.1430 H   0  0  0  0  0  0  0  0  0  0  0  0
    0.8124    0.1203    1.1485 H   0  0  0  0  0  0  0  0  0  0  0  0
   -0.5486    0.5097   -1.5570 H   0  0  0  0  0  0  0  0  0  0  0  0
    2.4270    0.1491   -0.8831 H   0  0  0  0  0  0  0  0  0  0  0  0
    1.3894   -1.1615   -1.4407 H   0  0  0  0  0  0  0  0  0  0  0  0
    1.4352    2.3240   -0.0702 H   0  0  0  0  0  0  0  0  0  0  0  0
    0.8298    2.5933   -1.7174 H   0  0  0  0  0  0  0  0  0  0  0  0
   -0.2795    2.6869   -0.3574 H   0  0  0  0  0  0  0  0  0  0  0  0
    0.8923    0.1244   -3.5428 H   0  0  0  0  0  0  0  0  0  0  0  0
    2.5938   -0.3426   -3.3474 H   0  0  0  0  0  0  0  0  0  0  0  0
    2.1026    1.3301   -3.0445 H   0  0  0  0  0  0  0  0  0  0  0  0
   -1.1380    1.1208    2.5244 N   0  0  0  0  0  0  0  0  0  0  0  0
   -2.1563    1.8884    3.2534 C   0  0  2  0  0  0  0  0  0  0  0  0
   -1.5213    2.8366    4.2925 C   0  0  0  0  0  0  0  0  0  0  0  0
   -0.3420    2.7092    4.6020 O   0  0  0  0  0  0  0  0  0  0  0  0
   -3.1040    0.8983    3.9364 C   0  0  0  0  0  0  0  0  0  0  0  0
   -0.2285    1.0203    2.9761 H   0  0  0  0  0  0  0  0  0  0  0  0
   -2.7248    2.5086    2.5522 H   0  0  0  0  0  0  0  0  0  0  0  0
   -2.5574    0.2812    4.6569 H   0  0  0  0  0  0  0  0  0  0  0  0
   -3.9003    1.4301    4.4655 H   0  0  0  0  0  0  0  0  0  0  0  0
   -3.5645    0.2405    3.1924 H   0  0  0  0  0  0  0  0  0  0  0  0
   -2.2701    3.8416    4.8774 N   0  0  0  0  0  0  0  0  0  0  0  0
   -1.7350    4.7663    5.8704 C   0  0  0  0  0  0  0  0  0  0  0  0
   -3.2431    3.9278    4.5987 H   0  0  0  0  0  0  0  0  0  0  0  0
   -1.4402    4.2268    6.7767 H   0  0  0  0  0  0  0  0  0  0  0  0
   -0.8605    5.2934    5.4743 H   0  0  0  0  0  0  0  0  0  0  0  0
   -2.4910    5.5099    6.1410 H   0  0  0  0  0  0  0  0  0  0  0  0
  1  2  2  0  0  0  0
  1  3  1  0  0  0  0
  1  7  1  0  0  0  0
  3  4  1  0  0  0  0
  3  5  1  0  0  0  0
  3  6  1  0  0  0  0
  7  8  1  0  0  0  0
  7 12  1  0  0  0  0
  8  9  1  0  0  0  0
  8 11  1  0  0  0  0
  8 13  1  0  0  0  0
  9 10  2  0  0  0  0
  9 17  1  0  0  0  0
 11 14  1  0  0  0  0
 11 15  1  0  0  0  0
 11 16  1  0  0  0  0
 17 18  1  0  0  0  0
 17 25  1  0  0  0  0
 18 19  1  0  0  0  0
 18 21  1  0  0  0  0
 18 26  1  0  0  0  0
 19 20  2  0  0  0  0
 19 36  1  0  0  0  0
 21 22  1  0  0  0  0
 21 23  1  0  0  0  0
 21 27  1  0  0  0  0
 22 24  1  0  0  0  0
 22 28  1  0  0  0  0
 22 29  1  0  0  0  0
 23 30  1  0  0  0  0
 23 31  1  0  0  0  0
 23 32  1  0  0  0  0
 24 33  1  0  0  0  0
 24 34  1  0  0  0  0
 24 35  1  0  0  0  0
 36 37  1  0  0  0  0
 36 41  1  0  0  0  0
 37 38  1  0  0  0  0
 37 40  1  0  0  0  0
 37 42  1  0  0  0  0
 38 39  2  0  0  0  0
 38 46  1  0  0  0  0
 40 43  1  0  0  0  0
 40 44  1  0  0  0  0
 40 45  1  0  0  0  0
 46 47  1  0  0  0  0
 46 48  1  0  0  0  0
 47 49  1  0  0  0  0
 47 50  1  0  0  0  0
 47 51  1  0  0  0  0
M  END
$$$$

  -OEChem-05262216503D

 51 50  0     1  0  0  0  0  0999 V2000
    0.8092   -6.0999    0.2298 C   0  0  0  0  0  0  0  0  0  0  0  0
   -0.0633   -6.4136   -0.5644 O   0  0  0  0  0  0  0  0  0  0  0  0
    2.0225   -6.9907    0.4193 C   0  0  0  0  0  0  0  0  0  0  0  0
    1.9688   -7.8502   -0.2546 H   0  0  0  0  0  0  0  0  0  0  0  0
    2.9350   -6.4304    0.2018 H   0  0  0  0  0  0  0  0  0  0  0  0
    2.0617   -7.3518    1.4498 H   0  0  0  0  0  0  0  0  0  0  0  0
    0.7017   -4.9290    0.9498 N   0  0  0  0  0  0  0  0  0  0  0  0
   -0.3243   -3.9045    0.7152 C   0  0  2  0  0  0  0  0  0  0  0  0
    0.2457   -2.4831    0.8987 C   0  0  0  0  0  0  0  0  0  0  0  0
    1.3045   -2.3168    1.4955 O   0  0  0  0  0  0  0  0  0  0  0  0
   -1.4840   -4.1495    1.6843 C   0  0  0  0  0  0  0  0  0  0  0  0
    1.5147   -4.6419    1.4938 H   0  0  0  0  0  0  0  0  0  0  0  0
   -0.6944   -3.9757   -0.3133 H   0  0  0  0  0  0  0  0  0  0  0  0
   -1.1380   -4.0792    2.7205 H   0  0  0  0  0  0  0  0  0  0  0  0
   -2.2770   -3.4111    1.5301 H   0  0  0  0  0  0  0  0  0  0  0  0
   -1.9060   -5.1469    1.5242 H   0  0  0  0  0  0  0  0  0  0  0  0
   -0.4185   -1.3930    0.3696 N   0  0  0  0  0  0  0  0  0  0  0  0
   -0.0095    0.0106    0.5413 C   0  0  2  0  0  0  0  0  0  0  0  0
   -1.1543    0.7683    1.2452 C   0  0  0  0  0  0  0  0  0  0  0  0
   -2.2778    0.7714    0.7534 O   0  0  0  0  0  0  0  0  0  0  0  0
    0.3507    0.6291   -0.8365 C   0  0  2  0  0  0  0  0  0  0  0  0
    1.5648   -0.1060   -1.4585 C   0  0  0  0  0  0  0  0  0  0  0  0
    0.6642    2.1328   -0.6947 C   0  0  0  0  0  0  0  0  0  0  0  0
    1.8088    0.2687   -2.9234 C   0  0  0  0  0  0  0  0  0  0  0  0
   -1.3364   -1.5599   -0.0383 H   0  0  0  0  0  0  0  0  0  0  0  0
    0.8727    0.0792    1.1862 H   0  0  0  0  0  0  0  0  0  0  0  0
   -0.5127    0.5155   -1.5018 H   0  0  0  0  0  0  0  0  0  0  0  0
    2.4659    0.1012   -0.8717 H   0  0  0  0  0  0  0  0  0  0  0  0
    1.3986   -1.1865   -1.4278 H   0  0  0  0  0  0  0  0  0  0  0  0
    1.5186    2.2862   -0.0278 H   0  0  0  0  0  0  0  0  0  0  0  0
    0.8982    2.5768   -1.6656 H   0  0  0  0  0  0  0  0  0  0  0  0
   -0.1939    2.6786   -0.2916 H   0  0  0  0  0  0  0  0  0  0  0  0
    0.8964    0.1304   -3.5116 H   0  0  0  0  0  0  0  0  0  0  0  0
    2.5912   -0.3708   -3.3432 H   0  0  0  0  0  0  0  0  0  0  0  0
    2.1361    1.3074   -3.0176 H   0  0  0  0  0  0  0  0  0  0  0  0
   -0.9504    1.3858    2.4638 N   0  0  0  0  0  0  0  0  0  0  0  0
   -1.9355    2.2462    3.1318 C   0  0  2  0  0  0  0  0  0  0  0  0
   -1.2546    3.4084    3.8850 C   0  0  0  0  0  0  0  0  0  0  0  0
   -0.0401    3.4049    4.0542 O   0  0  0  0  0  0  0  0  0  0  0  0
   -2.7568    1.3811    4.0920 C   0  0  0  0  0  0  0  0  0  0  0  0
    0.0095    1.4422    2.8052 H   0  0  0  0  0  0  0  0  0  0  0  0
   -2.6039    2.6920    2.3875 H   0  0  0  0  0  0  0  0  0  0  0  0
   -2.1083    0.9278    4.8484 H   0  0  0  0  0  0  0  0  0  0  0  0
   -3.5173    1.9823    4.5991 H   0  0  0  0  0  0  0  0  0  0  0  0
   -3.2617    0.5816    3.5406 H   0  0  0  0  0  0  0  0  0  0  0  0
   -2.0017    4.4729    4.3554 N   0  0  0  0  0  0  0  0  0  0  0  0
   -1.4218    5.6095    5.0611 C   0  0  0  0  0  0  0  0  0  0  0  0
   -3.0035    4.4567    4.1878 H   0  0  0  0  0  0  0  0  0  0  0  0
   -0.9343    5.2796    5.9846 H   0  0  0  0  0  0  0  0  0  0  0  0
   -0.6806    6.1143    4.4324 H   0  0  0  0  0  0  0  0  0  0  0  0
   -2.2020    6.3315    5.3214 H   0  0  0  0  0  0  0  0  0  0  0  0
  1  2  2  0  0  0  0
  1  3  1  0  0  0  0
  1  7  1  0  0  0  0
  3  4  1  0  0  0  0
  3  5  1  0  0  0  0
  3  6  1  0  0  0  0
  7  8  1  0  0  0  0
  7 12  1  0  0  0  0
  8  9  1  0  0  0  0
  8 11  1  0  0  0  0
  8 13  1  0  0  0  0
  9 10  2  0  0  0  0
  9 17  1  0  0  0  0
 11 14  1  0  0  0  0
 11 15  1  0  0  0  0
 11 16  1  0  0  0  0
 17 18  1  0  0  0  0
 17 25  1  0  0  0  0
 18 19  1  0  0  0  0
 18 21  1  0  0  0  0
 18 26  1  0  0  0  0
 19 20  2  0  0  0  0
 19 36  1  0  0  0  0
 21 22  1  0  0  0  0
 21 23  1  0  0  0  0
 21 27  1  0  0  0  0
 22 24  1  0  0  0  0
 22 28  1  0  0  0  0
 22 29  1  0  0  0  0
 23 30  1  0  0  0  0
 23 31  1  0  0  0  0
 23 32  1  0  0  0  0
 24 33  1  0  0  0  0
 24 34  1  0  0  0  0
 24 35  1  0  0  0  0
 36 37  1  0  0  0  0
 36 41  1  0  0  0  0
 37 38  1  0  0  0  0
 37 40  1  0  0  0  0
 37 42  1  0  0  0  0
 38 39  2  0  0  0  0
 38 46  1  0  0  0  0
 40 43  1  0  0  0  0
 40 44  1  0  0  0  0
 40 45  1  0  0  0  0
 46 47  1  0  0  0  0
 46 48  1  0  0  0  0
 47 49  1  0  0  0  0
 47 50  1  0  0  0  0
 47 51  1  0  0  0  0
M  END
$$$$

  -OEChem-05262216503D

 51 50  0     1  0  0  0  0  0999 V2000
    0.6859   -6.1422    0.3075 C   0  0  0  0  0  0  0  0  0  0  0  0
   -0.2342   -6.4540   -0.4319 O   0  0  0  0  0  0  0  0  0  0  0  0
    1.8681   -7.0766    0.4851 C   0  0  0  0  0  0  0  0  0  0  0  0
    1.7403   -7.9681   -0.1353 H   0  0  0  0  0  0  0  0  0  0  0  0
    2.7918   -6.5725    0.1898 H   0  0  0  0  0  0  0  0  0  0  0  0
    1.9462   -7.3838    1.5308 H   0  0  0  0  0  0  0  0  0  0  0  0
    0.6591   -4.9359    0.9747 N   0  0  0  0  0  0  0  0  0  0  0  0
   -0.3345   -3.8812    0.7359 C   0  0  2  0  0  0  0  0  0  0  0  0
    0.2916   -2.4774    0.8682 C   0  0  0  0  0  0  0  0  0  0  0  0
    1.3839   -2.3383    1.4094 O   0  0  0  0  0  0  0  0  0  0  0  0
   -1.4818   -4.0582    1.7346 C   0  0  0  0  0  0  0  0  0  0  0  0
    1.5057   -4.6587    1.4708 H   0  0  0  0  0  0  0  0  0  0  0  0
   -0.7282   -3.9663   -0.2828 H   0  0  0  0  0  0  0  0  0  0  0  0
   -1.1126   -3.9750    2.7618 H   0  0  0  0  0  0  0  0  0  0  0  0
   -2.2503   -3.2953    1.5773 H   0  0  0  0  0  0  0  0  0  0  0  0
   -1.9433   -5.0428    1.6085 H   0  0  0  0  0  0  0  0  0  0  0  0
   -0.3645   -1.3728    0.3601 N   0  0  0  0  0  0  0  0  0  0  0  0
    0.0630    0.0233    0.5519 C   0  0  2  0  0  0  0  0  0  0  0  0
   -1.0676    0.7838    1.2757 C   0  0  0  0  0  0  0  0  0  0  0  0
   -2.2341    0.6143    0.9351 O   0  0  0  0  0  0  0  0  0  0  0  0
    0.4124    0.6622   -0.8197 C   0  0  2  0  0  0  0  0  0  0  0  0
    1.6099   -0.0755   -1.4697 C   0  0  0  0  0  0  0  0  0  0  0  0
    0.7409    2.1620   -0.6634 C   0  0  0  0  0  0  0  0  0  0  0  0
    1.8398    0.3213   -2.9311 C   0  0  0  0  0  0  0  0  0  0  0  0
   -1.3221   -1.5141    0.0422 H   0  0  0  0  0  0  0  0  0  0  0  0
    0.9511    0.0692    1.1908 H   0  0  0  0  0  0  0  0  0  0  0  0
   -0.4603    0.5654   -1.4752 H   0  0  0  0  0  0  0  0  0  0  0  0
    2.5200    0.1145   -0.8909 H   0  0  0  0  0  0  0  0  0  0  0  0
    1.4341   -1.1548   -1.4541 H   0  0  0  0  0  0  0  0  0  0  0  0
    1.6017    2.3008   -0.0014 H   0  0  0  0  0  0  0  0  0  0  0  0
    0.9710    2.6151   -1.6308 H   0  0  0  0  0  0  0  0  0  0  0  0
   -0.1087    2.7123   -0.2494 H   0  0  0  0  0  0  0  0  0  0  0  0
    0.9183    0.2031   -3.5093 H   0  0  0  0  0  0  0  0  0  0  0  0
    2.6089   -0.3198   -3.3722 H   0  0  0  0  0  0  0  0  0  0  0  0
    2.1778    1.3576   -3.0122 H   0  0  0  0  0  0  0  0  0  0  0  0
   -0.7872    1.6290    2.3315 N   0  0  0  0  0  0  0  0  0  0  0  0
   -1.7654    2.5396    2.9398 C   0  0  2  0  0  0  0  0  0  0  0  0
   -1.1218    3.8904    3.3180 C   0  0  0  0  0  0  0  0  0  0  0  0
    0.0954    4.0292    3.2619 O   0  0  0  0  0  0  0  0  0  0  0  0
   -2.3586    1.8523    4.1726 C   0  0  0  0  0  0  0  0  0  0  0  0
    0.1955    1.8402    2.5058 H   0  0  0  0  0  0  0  0  0  0  0  0
   -2.5682    2.7550    2.2267 H   0  0  0  0  0  0  0  0  0  0  0  0
   -1.5736    1.6343    4.9037 H   0  0  0  0  0  0  0  0  0  0  0  0
   -3.1103    2.4904    4.6467 H   0  0  0  0  0  0  0  0  0  0  0  0
   -2.8384    0.9115    3.8854 H   0  0  0  0  0  0  0  0  0  0  0  0
   -1.9100    4.9605    3.6998 N   0  0  0  0  0  0  0  0  0  0  0  0
   -1.3700    6.2664    4.0581 C   0  0  0  0  0  0  0  0  0  0  0  0
   -2.9158    4.8197    3.7256 H   0  0  0  0  0  0  0  0  0  0  0  0
   -0.6939    6.1790    4.9151 H   0  0  0  0  0  0  0  0  0  0  0  0
   -0.8192    6.6986    3.2160 H   0  0  0  0  0  0  0  0  0  0  0  0
   -2.1808    6.9504    4.3266 H   0  0  0  0  0  0  0  0  0  0  0  0
  1  2  2  0  0  0  0
  1  3  1  0  0  0  0
  1  7  1  0  0  0  0
  3  4  1  0  0  0  0
  3  5  1  0  0  0  0
  3  6  1  0  0  0  0
  7  8  1  0  0  0  0
  7 12  1  0  0  0  0
  8  9  1  0  0  0  0
  8 11  1  0  0  0  0
  8 13  1  0  0  0  0
  9 10  2  0  0  0  0
  9 17  1  0  0  0  0
 11 14  1  0  0  0  0
 11 15  1  0  0  0  0
 11 16  1  0  0  0  0
 17 18  1  0  0  0  0
 17 25  1  0  0  0  0
 18 19  1  0  0  0  0
 18 21  1  0  0  0  0
 18 26  1  0  0  0  0
 19 20  2  0  0  0  0
 19 36  1  0  0  0  0
 21 22  1  0  0  0  0
 21 23  1  0  0  0  0
 21 27  1  0  0  0  0
 22 24  1  0  0  0  0
 22 28  1  0  0  0  0
 22 29  1  0  0  0  0
 23 30  1  0  0  0  0
 23 31  1  0  0  0  0
 23 32  1  0  0  0  0
 24 33  1  0  0  0  0
 24 34  1  0  0  0  0
 24 35  1  0  0  0  0
 36 37  1  0  0  0  0
 36 41  1  0  0  0  0
 37 38  1  0  0  0  0
 37 40  1  0  0  0  0
 37 42  1  0  0  0  0
 38 39  2  0  0  0  0
 38 46  1  0  0  0  0
 40 43  1  0  0  0  0
 40 44  1  0  0  0  0
 40 45  1  0  0  0  0
 46 47  1  0  0  0  0
 46 48  1  0  0  0  0
 47 49  1  0  0  0  0
 47 50  1  0  0  0  0
 47 51  1  0  0  0  0
M  END
$$$$

  -OEChem-05262216503D

 51 50  0     1  0  0  0  0  0999 V2000
    0.5952   -6.1338    0.3465 C   0  0  0  0  0  0  0  0  0  0  0  0
   -0.3560   -6.4323   -0.3583 O   0  0  0  0  0  0  0  0  0  0  0  0
    1.7537   -7.0997    0.5084 C   0  0  0  0  0  0  0  0  0  0  0  0
    1.5792   -8.0004   -0.0866 H   0  0  0  0  0  0  0  0  0  0  0  0
    2.6818   -6.6305    0.1730 H   0  0  0  0  0  0  0  0  0  0  0  0
    1.8562   -7.3855    1.5578 H   0  0  0  0  0  0  0  0  0  0  0  0
    0.6256   -4.9135    0.9873 N   0  0  0  0  0  0  0  0  0  0  0  0
   -0.3490   -3.8372    0.7653 C   0  0  2  0  0  0  0  0  0  0  0  0
    0.3124   -2.4471    0.8606 C   0  0  0  0  0  0  0  0  0  0  0  0
    1.4252   -2.3285    1.3639 O   0  0  0  0  0  0  0  0  0  0  0  0
   -1.4678   -3.9742    1.8017 C   0  0  0  0  0  0  0  0  0  0  0  0
    1.4926   -4.6534    1.4563 H   0  0  0  0  0  0  0  0  0  0  0  0
   -0.7766   -3.9244   -0.2394 H   0  0  0  0  0  0  0  0  0  0  0  0
   -1.0631   -3.8869    2.8150 H   0  0  0  0  0  0  0  0  0  0  0  0
   -2.2230   -3.1949    1.6594 H   0  0  0  0  0  0  0  0  0  0  0  0
   -1.9562   -4.9490    1.7037 H   0  0  0  0  0  0  0  0  0  0  0  0
   -0.3360   -1.3337    0.3609 N   0  0  0  0  0  0  0  0  0  0  0  0
    0.1115    0.0545    0.5672 C   0  0  2  0  0  0  0  0  0  0  0  0
   -1.0072    0.8282    1.3020 C   0  0  0  0  0  0  0  0  0  0  0  0
   -2.1833    0.5181    1.1353 O   0  0  0  0  0  0  0  0  0  0  0  0
    0.4692    0.6828   -0.8101 C   0  0  2  0  0  0  0  0  0  0  0  0
    1.6547   -0.0791   -1.4574 C   0  0  0  0  0  0  0  0  0  0  0  0
    0.8200    2.1793   -0.6728 C   0  0  0  0  0  0  0  0  0  0  0  0
    1.8945    0.3023   -2.9218 C   0  0  0  0  0  0  0  0  0  0  0  0
   -1.3161   -1.4554    0.1096 H   0  0  0  0  0  0  0  0  0  0  0  0
    1.0000    0.0851    1.2069 H   0  0  0  0  0  0  0  0  0  0  0  0
   -0.4056    0.5934   -1.4641 H   0  0  0  0  0  0  0  0  0  0  0  0
    2.5676    0.0965   -0.8789 H   0  0  0  0  0  0  0  0  0  0  0  0
    1.4603   -1.1550   -1.4373 H   0  0  0  0  0  0  0  0  0  0  0  0
    1.6528    2.3180    0.0239 H   0  0  0  0  0  0  0  0  0  0  0  0
    1.1020    2.6087   -1.6370 H   0  0  0  0  0  0  0  0  0  0  0  0
   -0.0382    2.7531   -0.3119 H   0  0  0  0  0  0  0  0  0  0  0  0
    0.9704    0.2033   -3.4996 H   0  0  0  0  0  0  0  0  0  0  0  0
    2.6470   -0.3616   -3.3580 H   0  0  0  0  0  0  0  0  0  0  0  0
    2.2597    1.3287   -3.0115 H   0  0  0  0  0  0  0  0  0  0  0  0
   -0.6995    1.8766    2.1475 N   0  0  0  0  0  0  0  0  0  0  0  0
   -1.6849    2.8188    2.6924 C   0  0  2  0  0  0  0  0  0  0  0  0
   -1.1350    4.2612    2.6935 C   0  0  0  0  0  0  0  0  0  0  0  0
    0.0434    4.4699    2.4241 O   0  0  0  0  0  0  0  0  0  0  0  0
   -2.0470    2.3667    4.1095 C   0  0  0  0  0  0  0  0  0  0  0  0
    0.2685    2.1986    2.1398 H   0  0  0  0  0  0  0  0  0  0  0  0
   -2.5881    2.8187    2.0731 H   0  0  0  0  0  0  0  0  0  0  0  0
   -1.1582    2.3606    4.7483 H   0  0  0  0  0  0  0  0  0  0  0  0
   -2.7896    3.0380    4.5508 H   0  0  0  0  0  0  0  0  0  0  0  0
   -2.4670    1.3560    4.0867 H   0  0  0  0  0  0  0  0  0  0  0  0
   -1.9673    5.3313    2.9663 N   0  0  0  0  0  0  0  0  0  0  0  0
   -1.5219    6.7195    2.9399 C   0  0  0  0  0  0  0  0  0  0  0  0
   -2.9438    5.1315    3.1631 H   0  0  0  0  0  0  0  0  0  0  0  0
   -0.7225    6.8802    3.6711 H   0  0  0  0  0  0  0  0  0  0  0  0
   -1.1481    6.9830    1.9447 H   0  0  0  0  0  0  0  0  0  0  0  0
   -2.3525    7.3886    3.1851 H   0  0  0  0  0  0  0  0  0  0  0  0
  1  2  2  0  0  0  0
  1  3  1  0  0  0  0
  1  7  1  0  0  0  0
  3  4  1  0  0  0  0
  3  5  1  0  0  0  0
  3  6  1  0  0  0  0
  7  8  1  0  0  0  0
  7 12  1  0  0  0  0
  8  9  1  0  0  0  0
  8 11  1  0  0  0  0
  8 13  1  0  0  0  0
  9 10  2  0  0  0  0
  9 17  1  0  0  0  0
 11 14  1  0  0  0  0
 11 15  1  0  0  0  0
 11 16  1  0  0  0  0
 17 18  1  0  0  0  0
 17 25  1  0  0  0  0
 18 19  1  0  0  0  0
 18 21  1  0  0  0  0
 18 26  1  0  0  0  0
 19 20  2  0  0  0  0
 19 36  1  0  0  0  0
 21 22  1  0  0  0  0
 21 23  1  0  0  0  0
 21 27  1  0  0  0  0
 22 24  1  0  0  0  0
 22 28  1  0  0  0  0
 22 29  1  0  0  0  0
 23 30  1  0  0  0  0
 23 31  1  0  0  0  0
 23 32  1  0  0  0  0
 24 33  1  0  0  0  0
 24 34  1  0  0  0  0
 24 35  1  0  0  0  0
 36 37  1  0  0  0  0
 36 41  1  0  0  0  0
 37 38  1  0  0  0  0
 37 40  1  0  0  0  0
 37 42  1  0  0  0  0
 38 39  2  0  0  0  0
 38 46  1  0  0  0  0
 40 43  1  0  0  0  0
 40 44  1  0  0  0  0
 40 45  1  0  0  0  0
 46 47  1  0  0  0  0
 46 48  1  0  0  0  0
 47 49  1  0  0  0  0
 47 50  1  0  0  0  0
 47 51  1  0  0  0  0
M  END
$$$$

  -OEChem-05262216503D

 51 50  0     1  0  0  0  0  0999 V2000
    0.4984   -6.0839    0.3783 C   0  0  0  0  0  0  0  0  0  0  0  0
   -0.4773   -6.3591   -0.3020 O   0  0  0  0  0  0  0  0  0  0  0  0
    1.6414   -7.0739    0.5043 C   0  0  0  0  0  0  0  0  0  0  0  0
    1.4490   -7.9532   -0.1169 H   0  0  0  0  0  0  0  0  0  0  0  0
    2.5756   -6.6102    0.1778 H   0  0  0  0  0  0  0  0  0  0  0  0
    1.7447   -7.3926    1.5442 H   0  0  0  0  0  0  0  0  0  0  0  0
    0.5716   -4.8694    1.0268 N   0  0  0  0  0  0  0  0  0  0  0  0
   -0.3796   -3.7671    0.8314 C   0  0  2  0  0  0  0  0  0  0  0  0
    0.3293   -2.3977    0.8610 C   0  0  0  0  0  0  0  0  0  0  0  0
    1.4647   -2.3021    1.3169 O   0  0  0  0  0  0  0  0  0  0  0  0
   -1.4445   -3.8457    1.9287 C   0  0  0  0  0  0  0  0  0  0  0  0
    1.4596   -4.6306    1.4669 H   0  0  0  0  0  0  0  0  0  0  0  0
   -0.8646   -3.8603   -0.1464 H   0  0  0  0  0  0  0  0  0  0  0  0
   -0.9841   -3.7474    2.9170 H   0  0  0  0  0  0  0  0  0  0  0  0
   -2.1823   -3.0465    1.8068 H   0  0  0  0  0  0  0  0  0  0  0  0
   -1.9662   -4.8069    1.8802 H   0  0  0  0  0  0  0  0  0  0  0  0
   -0.3047   -1.2788    0.3556 N   0  0  0  0  0  0  0  0  0  0  0  0
    0.1703    0.1032    0.5524 C   0  0  2  0  0  0  0  0  0  0  0  0
   -0.9330    0.9046    1.2899 C   0  0  0  0  0  0  0  0  0  0  0  0
   -2.0850    0.4799    1.3231 O   0  0  0  0  0  0  0  0  0  0  0  0
    0.5453    0.6866   -0.8456 C   0  0  2  0  0  0  0  0  0  0  0  0
    1.7162   -0.1209   -1.4682 C   0  0  0  0  0  0  0  0  0  0  0  0
    0.9226    2.1804   -0.7762 C   0  0  0  0  0  0  0  0  0  0  0  0
    1.9748    0.2069   -2.9430 C   0  0  0  0  0  0  0  0  0  0  0  0
   -1.3026   -1.3804    0.1738 H   0  0  0  0  0  0  0  0  0  0  0  0
    1.0591    0.1234    1.1918 H   0  0  0  0  0  0  0  0  0  0  0  0
   -0.3289    0.5889   -1.4988 H   0  0  0  0  0  0  0  0  0  0  0  0
    2.6304    0.0512   -0.8905 H   0  0  0  0  0  0  0  0  0  0  0  0
    1.4996   -1.1912   -1.4190 H   0  0  0  0  0  0  0  0  0  0  0  0
    1.7179    2.3439   -0.0423 H   0  0  0  0  0  0  0  0  0  0  0  0
    1.2674    2.5493   -1.7445 H   0  0  0  0  0  0  0  0  0  0  0  0
    0.0562    2.7889   -0.5056 H   0  0  0  0  0  0  0  0  0  0  0  0
    1.0481    0.1318   -3.5203 H   0  0  0  0  0  0  0  0  0  0  0  0
    2.6975   -0.5031   -3.3570 H   0  0  0  0  0  0  0  0  0  0  0  0
    2.3870    1.2121   -3.0632 H   0  0  0  0  0  0  0  0  0  0  0  0
   -0.6608    2.1242    1.8809 N   0  0  0  0  0  0  0  0  0  0  0  0
   -1.6814    3.0615    2.3681 C   0  0  2  0  0  0  0  0  0  0  0  0
   -1.2920    4.5219    2.0540 C   0  0  0  0  0  0  0  0  0  0  0  0
   -0.1635    4.7822    1.6497 O   0  0  0  0  0  0  0  0  0  0  0  0
   -1.8439    2.8520    3.8763 C   0  0  0  0  0  0  0  0  0  0  0  0
    0.2603    2.5235    1.6994 H   0  0  0  0  0  0  0  0  0  0  0  0
   -2.6383    2.8672    1.8722 H   0  0  0  0  0  0  0  0  0  0  0  0
   -0.9013    3.0547    4.3950 H   0  0  0  0  0  0  0  0  0  0  0  0
   -2.6132    3.5185    4.2774 H   0  0  0  0  0  0  0  0  0  0  0  0
   -2.1409    1.8189    4.0843 H   0  0  0  0  0  0  0  0  0  0  0  0
   -2.2105    5.5447    2.2028 N   0  0  0  0  0  0  0  0  0  0  0  0
   -1.9077    6.9408    1.9101 C   0  0  0  0  0  0  0  0  0  0  0  0
   -3.1418    5.2999    2.5266 H   0  0  0  0  0  0  0  0  0  0  0  0
   -1.0942    7.2987    2.5498 H   0  0  0  0  0  0  0  0  0  0  0  0
   -1.6097    7.0576    0.8628 H   0  0  0  0  0  0  0  0  0  0  0  0
   -2.7882    7.5652    2.0897 H   0  0  0  0  0  0  0  0  0  0  0  0
  1  2  2  0  0  0  0
  1  3  1  0  0  0  0
  1  7  1  0  0  0  0
  3  4  1  0  0  0  0
  3  5  1  0  0  0  0
  3  6  1  0  0  0  0
  7  8  1  0  0  0  0
  7 12  1  0  0  0  0
  8  9  1  0  0  0  0
  8 11  1  0  0  0  0
  8 13  1  0  0  0  0
  9 10  2  0  0  0  0
  9 17  1  0  0  0  0
 11 14  1  0  0  0  0
 11 15  1  0  0  0  0
 11 16  1  0  0  0  0
 17 18  1  0  0  0  0
 17 25  1  0  0  0  0
 18 19  1  0  0  0  0
 18 21  1  0  0  0  0
 18 26  1  0  0  0  0
 19 20  2  0  0  0  0
 19 36  1  0  0  0  0
 21 22  1  0  0  0  0
 21 23  1  0  0  0  0
 21 27  1  0  0  0  0
 22 24  1  0  0  0  0
 22 28  1  0  0  0  0
 22 29  1  0  0  0  0
 23 30  1  0  0  0  0
 23 31  1  0  0  0  0
 23 32  1  0  0  0  0
 24 33  1  0  0  0  0
 24 34  1  0  0  0  0
 24 35  1  0  0  0  0
 36 37  1  0  0  0  0
 36 41  1  0  0  0  0
 37 38  1  0  0  0  0
 37 40  1  0  0  0  0
 37 42  1  0  0  0  0
 38 39  2  0  0  0  0
 38 46  1  0  0  0  0
 40 43  1  0  0  0  0
 40 44  1  0  0  0  0
 40 45  1  0  0  0  0
 46 47  1  0  0  0  0
 46 48  1  0  0  0  0
 47 49  1  0  0  0  0
 47 50  1  0  0  0  0
 47 51  1  0  0  0  0
M  END
$$$$

  -OEChem-05262216503D

 51 50  0     1  0  0  0  0  0999 V2000
    0.3414   -5.9924    0.5327 C   0  0  0  0  0  0  0  0  0  0  0  0
   -0.6680   -6.2342   -0.1102 O   0  0  0  0  0  0  0  0  0  0  0  0
    1.4584   -7.0167    0.6052 C   0  0  0  0  0  0  0  0  0  0  0  0
    1.2126   -7.8870   -0.0095 H   0  0  0  0  0  0  0  0  0  0  0  0
    2.3903   -6.5788    0.2393 H   0  0  0  0  0  0  0  0  0  0  0  0
    1.5980   -7.3439    1.6383 H   0  0  0  0  0  0  0  0  0  0  0  0
    0.4789   -4.7861    1.1863 N   0  0  0  0  0  0  0  0  0  0  0  0
   -0.4281   -3.6433    1.0126 C   0  0  2  0  0  0  0  0  0  0  0  0
    0.3529   -2.3274    0.8202 C   0  0  0  0  0  0  0  0  0  0  0  0
    1.5316   -2.2575    1.1555 O   0  0  0  0  0  0  0  0  0  0  0  0
   -1.3283   -3.5576    2.2478 C   0  0  0  0  0  0  0  0  0  0  0  0
    1.4007   -4.5745    1.5659 H   0  0  0  0  0  0  0  0  0  0  0  0
   -1.0517   -3.7838    0.1232 H   0  0  0  0  0  0  0  0  0  0  0  0
   -0.7265   -3.4129    3.1507 H   0  0  0  0  0  0  0  0  0  0  0  0
   -2.0271   -2.7198    2.1585 H   0  0  0  0  0  0  0  0  0  0  0  0
   -1.9068   -4.4802    2.3578 H   0  0  0  0  0  0  0  0  0  0  0  0
   -0.2734   -1.2276    0.2650 N   0  0  0  0  0  0  0  0  0  0  0  0
    0.2615    0.1432    0.3763 C   0  0  2  0  0  0  0  0  0  0  0  0
   -0.5916    0.9240    1.4159 C   0  0  0  0  0  0  0  0  0  0  0  0
   -1.5919    0.4049    1.9052 O   0  0  0  0  0  0  0  0  0  0  0  0
    0.2752    0.7339   -1.0716 C   0  0  2  0  0  0  0  0  0  0  0  0
    1.2395   -0.0943   -1.9671 C   0  0  0  0  0  0  0  0  0  0  0  0
    0.6846    2.2210   -1.1131 C   0  0  0  0  0  0  0  0  0  0  0  0
    1.1289    0.2288   -3.4614 C   0  0  0  0  0  0  0  0  0  0  0  0
   -1.2881   -1.2979    0.2218 H   0  0  0  0  0  0  0  0  0  0  0  0
    1.2896    0.1406    0.7535 H   0  0  0  0  0  0  0  0  0  0  0  0
   -0.7369    0.6523   -1.4834 H   0  0  0  0  0  0  0  0  0  0  0  0
    2.2715    0.0635   -1.6373 H   0  0  0  0  0  0  0  0  0  0  0  0
    1.0276   -1.1618   -1.8613 H   0  0  0  0  0  0  0  0  0  0  0  0
    1.6102    2.3839   -0.5522 H   0  0  0  0  0  0  0  0  0  0  0  0
    0.8412    2.5665   -2.1369 H   0  0  0  0  0  0  0  0  0  0  0  0
   -0.1046    2.8524   -0.6978 H   0  0  0  0  0  0  0  0  0  0  0  0
    0.0849    0.1873   -3.7868 H   0  0  0  0  0  0  0  0  0  0  0  0
    1.7004   -0.5037   -4.0395 H   0  0  0  0  0  0  0  0  0  0  0  0
    1.5317    1.2190   -3.6883 H   0  0  0  0  0  0  0  0  0  0  0  0
   -0.3292    2.2409    1.7416 N   0  0  0  0  0  0  0  0  0  0  0  0
   -1.2219    3.1131    2.5153 C   0  0  2  0  0  0  0  0  0  0  0  0
   -1.1142    4.5793    2.0466 C   0  0  0  0  0  0  0  0  0  0  0  0
   -0.2136    4.9161    1.2847 O   0  0  0  0  0  0  0  0  0  0  0  0
   -0.8572    2.9886    3.9974 C   0  0  0  0  0  0  0  0  0  0  0  0
    0.4184    2.7050    1.2260 H   0  0  0  0  0  0  0  0  0  0  0  0
   -2.2619    2.8020    2.3718 H   0  0  0  0  0  0  0  0  0  0  0  0
    0.1771    3.3062    4.1653 H   0  0  0  0  0  0  0  0  0  0  0  0
   -1.5174    3.6098    4.6099 H   0  0  0  0  0  0  0  0  0  0  0  0
   -0.9606    1.9496    4.3265 H   0  0  0  0  0  0  0  0  0  0  0  0
   -2.0398    5.5200    2.4590 N   0  0  0  0  0  0  0  0  0  0  0  0
   -2.0004    6.9157    2.0396 C   0  0  0  0  0  0  0  0  0  0  0  0
   -2.7817    5.2126    3.0815 H   0  0  0  0  0  0  0  0  0  0  0  0
   -1.0730    7.3904    2.3767 H   0  0  0  0  0  0  0  0  0  0  0  0
   -2.0575    6.9892    0.9484 H   0  0  0  0  0  0  0  0  0  0  0  0
   -2.8451    7.4643    2.4672 H   0  0  0  0  0  0  0  0  0  0  0  0
  1  2  2  0  0  0  0
  1  3  1  0  0  0  0
  1  7  1  0  0  0  0
  3  4  1  0  0  0  0
  3  5  1  0  0  0  0
  3  6  1  0  0  0  0
  7  8  1  0  0  0  0
  7 12  1  0  0  0  0
  8  9  1  0  0  0  0
  8 11  1  0  0  0  0
  8 13  1  0  0  0  0
  9 10  2  0  0  0  0
  9 17  1  0  0  0  0
 11 14  1  0  0  0  0
 11 15  1  0  0  0  0
 11 16  1  0  0  0  0
 17 18  1  0  0  0  0
 17 25  1  0  0  0  0
 18 19  1  0  0  0  0
 18 21  1  0  0  0  0
 18 26  1  0  0  0  0
 19 20  2  0  0  0  0
 19 36  1  0  0  0  0
 21 22  1  0  0  0  0
 21 23  1  0  0  0  0
 21 27  1  0  0  0  0
 22 24  1  0  0  0  0
 22 28  1  0  0  0  0
 22 29  1  0  0  0  0
 23 30  1  0  0  0  0
 23 31  1  0  0  0  0
 23 32  1  0  0  0  0
 24 33  1  0  0  0  0
 24 34  1  0  0  0  0
 24 35  1  0  0  0  0
 36 37  1  0  0  0  0
 36 41  1  0  0  0  0
 37 38  1  0  0  0  0
 37 40  1  0  0  0  0
 37 42  1  0  0  0  0
 38 39  2  0  0  0  0
 38 46  1  0  0  0  0
 40 43  1  0  0  0  0
 40 44  1  0  0  0  0
 40 45  1  0  0  0  0
 46 47  1  0  0  0  0
 46 48  1  0  0  0  0
 47 49  1  0  0  0  0
 47 50  1  0  0  0  0
 47 51  1  0  0  0  0
M  END
$$$$

  -OEChem-05262216503D

 51 50  0     1  0  0  0  0  0999 V2000
    0.3144   -5.8530    0.5237 C   0  0  0  0  0  0  0  0  0  0  0  0
   -0.6087   -6.0351   -0.2545 O   0  0  0  0  0  0  0  0  0  0  0  0
    1.4245   -6.8811    0.6334 C   0  0  0  0  0  0  0  0  0  0  0  0
    1.2612   -7.6895   -0.0847 H   0  0  0  0  0  0  0  0  0  0  0  0
    2.3897   -6.4134    0.4237 H   0  0  0  0  0  0  0  0  0  0  0  0
    1.4431   -7.3032    1.6411 H   0  0  0  0  0  0  0  0  0  0  0  0
    0.3618   -4.7161    1.3030 N   0  0  0  0  0  0  0  0  0  0  0  0
   -0.5060   -3.5463    1.1042 C   0  0  2  0  0  0  0  0  0  0  0  0
    0.3150   -2.2735    0.8130 C   0  0  0  0  0  0  0  0  0  0  0  0
    1.5004   -2.2207    1.1273 O   0  0  0  0  0  0  0  0  0  0  0  0
   -1.3444   -3.3603    2.3707 C   0  0  0  0  0  0  0  0  0  0  0  0
    1.2447   -4.5400    1.7792 H   0  0  0  0  0  0  0  0  0  0  0  0
   -1.1798   -3.7026    0.2554 H   0  0  0  0  0  0  0  0  0  0  0  0
   -0.6977   -3.1827    3.2359 H   0  0  0  0  0  0  0  0  0  0  0  0
   -2.0198   -2.5056    2.2624 H   0  0  0  0  0  0  0  0  0  0  0  0
   -1.9460   -4.2546    2.5607 H   0  0  0  0  0  0  0  0  0  0  0  0
   -0.2924   -1.1834    0.2181 N   0  0  0  0  0  0  0  0  0  0  0  0
    0.2677    0.1805    0.2977 C   0  0  2  0  0  0  0  0  0  0  0  0
   -0.5917    0.9950    1.3123 C   0  0  0  0  0  0  0  0  0  0  0  0
   -1.4402    0.4219    1.9914 O   0  0  0  0  0  0  0  0  0  0  0  0
    0.3309    0.7165   -1.1727 C   0  0  2  0  0  0  0  0  0  0  0  0
    1.3021   -0.1674   -2.0080 C   0  0  0  0  0  0  0  0  0  0  0  0
    0.7865    2.1890   -1.2611 C   0  0  0  0  0  0  0  0  0  0  0  0
    1.2412    0.0951   -3.5180 C   0  0  0  0  0  0  0  0  0  0  0  0
   -1.3078   -1.2385    0.1884 H   0  0  0  0  0  0  0  0  0  0  0  0
    1.2877    0.1726    0.6956 H   0  0  0  0  0  0  0  0  0  0  0  0
   -0.6702    0.6427   -1.6114 H   0  0  0  0  0  0  0  0  0  0  0  0
    2.3284   -0.0184   -1.6556 H   0  0  0  0  0  0  0  0  0  0  0  0
    1.0639   -1.2252   -1.8667 H   0  0  0  0  0  0  0  0  0  0  0  0
    1.6351    2.3721   -0.5945 H   0  0  0  0  0  0  0  0  0  0  0  0
    1.0879    2.4626   -2.2733 H   0  0  0  0  0  0  0  0  0  0  0  0
   -0.0334    2.8622   -1.0007 H   0  0  0  0  0  0  0  0  0  0  0  0
    0.2045    0.0797   -3.8680 H   0  0  0  0  0  0  0  0  0  0  0  0
    1.7953   -0.6845   -4.0495 H   0  0  0  0  0  0  0  0  0  0  0  0
    1.6893    1.0568   -3.7787 H   0  0  0  0  0  0  0  0  0  0  0  0
   -0.5422    2.3718    1.4153 N   0  0  0  0  0  0  0  0  0  0  0  0
   -1.4664    3.2014    2.2000 C   0  0  2  0  0  0  0  0  0  0  0  0
   -1.6370    4.5975    1.5654 C   0  0  0  0  0  0  0  0  0  0  0  0
   -0.8565    4.9764    0.6982 O   0  0  0  0  0  0  0  0  0  0  0  0
   -0.9220    3.3198    3.6268 C   0  0  0  0  0  0  0  0  0  0  0  0
    0.0790    2.8666    0.7765 H   0  0  0  0  0  0  0  0  0  0  0  0
   -2.4551    2.7314    2.2276 H   0  0  0  0  0  0  0  0  0  0  0  0
    0.0621    3.7994    3.6217 H   0  0  0  0  0  0  0  0  0  0  0  0
   -1.5974    3.9148    4.2488 H   0  0  0  0  0  0  0  0  0  0  0  0
   -0.8232    2.3274    4.0784 H   0  0  0  0  0  0  0  0  0  0  0  0
   -2.6757    5.4251    1.9501 N   0  0  0  0  0  0  0  0  0  0  0  0
   -2.8958    6.7488    1.3795 C   0  0  0  0  0  0  0  0  0  0  0  0
   -3.3162    5.0815    2.6599 H   0  0  0  0  0  0  0  0  0  0  0  0
   -2.0475    7.4059    1.5982 H   0  0  0  0  0  0  0  0  0  0  0  0
   -3.0192    6.6828    0.2933 H   0  0  0  0  0  0  0  0  0  0  0  0
   -3.7994    7.1985    1.8022 H   0  0  0  0  0  0  0  0  0  0  0  0
  1  2  2  0  0  0  0
  1  3  1  0  0  0  0
  1  7  1  0  0  0  0
  3  4  1  0  0  0  0
  3  5  1  0  0  0  0
  3  6  1  0  0  0  0
  7  8  1  0  0  0  0
  7 12  1  0  0  0  0
  8  9  1  0  0  0  0
  8 11  1  0  0  0  0
  8 13  1  0  0  0  0
  9 10  2  0  0  0  0
  9 17  1  0  0  0  0
 11 14  1  0  0  0  0
 11 15  1  0  0  0  0
 11 16  1  0  0  0  0
 17 18  1  0  0  0  0
 17 25  1  0  0  0  0
 18 19  1  0  0  0  0
 18 21  1  0  0  0  0
 18 26  1  0  0  0  0
 19 20  2  0  0  0  0
 19 36  1  0  0  0  0
 21 22  1  0  0  0  0
 21 23  1  0  0  0  0
 21 27  1  0  0  0  0
 22 24  1  0  0  0  0
 22 28  1  0  0  0  0
 22 29  1  0  0  0  0
 23 30  1  0  0  0  0
 23 31  1  0  0  0  0
 23 32  1  0  0  0  0
 24 33  1  0  0  0  0
 24 34  1  0  0  0  0
 24 35  1  0  0  0  0
 36 37  1  0  0  0  0
 36 41  1  0  0  0  0
 37 38  1  0  0  0  0
 37 40  1  0  0  0  0
 37 42  1  0  0  0  0
 38 39  2  0  0  0  0
 38 46  1  0  0  0  0
 40 43  1  0  0  0  0
 40 44  1  0  0  0  0
 40 45  1  0  0  0  0
 46 47  1  0  0  0  0
 46 48  1  0  0  0  0
 47 49  1  0  0  0  0
 47 50  1  0  0  0  0
 47 51  1  0  0  0  0
M  END
$$$$

  -OEChem-05262216503D

 51 50  0     1  0  0  0  0  0999 V2000
    0.5075   -5.8566    0.6542 C   0  0  0  0  0  0  0  0  0  0  0  0
   -0.6540   -6.1547    0.4230 O   0  0  0  0  0  0  0  0  0  0  0  0
    1.6114   -6.8765    0.4457 C   0  0  0  0  0  0  0  0  0  0  0  0
    1.1853   -7.8387    0.1480 H   0  0  0  0  0  0  0  0  0  0  0  0
    2.2915   -6.5339   -0.3381 H   0  0  0  0  0  0  0  0  0  0  0  0
    2.1741   -7.0124    1.3726 H   0  0  0  0  0  0  0  0  0  0  0  0
    0.8243   -4.5884    1.0911 N   0  0  0  0  0  0  0  0  0  0  0  0
   -0.1268   -3.4717    1.1602 C   0  0  2  0  0  0  0  0  0  0  0  0
    0.5333   -2.1400    0.7474 C   0  0  0  0  0  0  0  0  0  0  0  0
    1.7548   -2.0647    0.6561 O   0  0  0  0  0  0  0  0  0  0  0  0
   -0.6584   -3.3848    2.5933 C   0  0  0  0  0  0  0  0  0  0  0  0
    1.8134   -4.3448    1.1343 H   0  0  0  0  0  0  0  0  0  0  0  0
   -0.9622   -3.6484    0.4744 H   0  0  0  0  0  0  0  0  0  0  0  0
    0.1618   -3.1998    3.2945 H   0  0  0  0  0  0  0  0  0  0  0  0
   -1.3837   -2.5710    2.6878 H   0  0  0  0  0  0  0  0  0  0  0  0
   -1.1516   -4.3216    2.8712 H   0  0  0  0  0  0  0  0  0  0  0  0
   -0.2516   -1.0423    0.4386 N   0  0  0  0  0  0  0  0  0  0  0  0
    0.2810    0.3361    0.4822 C   0  0  2  0  0  0  0  0  0  0  0  0
   -0.3243    0.9572    1.7837 C   0  0  0  0  0  0  0  0  0  0  0  0
   -0.4023    0.2837    2.8011 O   0  0  0  0  0  0  0  0  0  0  0  0
    0.0178    1.0277   -0.8912 C   0  0  2  0  0  0  0  0  0  0  0  0
    0.7842    0.2598   -2.0055 C   0  0  0  0  0  0  0  0  0  0  0  0
    0.5852    2.4704   -0.9416 C   0  0  0  0  0  0  0  0  0  0  0  0
    0.3837    0.6918   -3.4204 C   0  0  0  0  0  0  0  0  0  0  0  0
   -1.2313   -1.1553    0.6823 H   0  0  0  0  0  0  0  0  0  0  0  0
    1.3657    0.3394    0.6354 H   0  0  0  0  0  0  0  0  0  0  0  0
   -1.0571    1.0301   -1.0975 H   0  0  0  0  0  0  0  0  0  0  0  0
    1.8659    0.3740   -1.8759 H   0  0  0  0  0  0  0  0  0  0  0  0
    0.5687   -0.8098   -1.9320 H   0  0  0  0  0  0  0  0  0  0  0  0
    0.2688    3.0905   -0.1084 H   0  0  0  0  0  0  0  0  0  0  0  0
    0.2607    2.9780   -1.8539 H   0  0  0  0  0  0  0  0  0  0  0  0
    1.6798    2.4522   -0.9259 H   0  0  0  0  0  0  0  0  0  0  0  0
   -0.7027    0.6439   -3.5431 H   0  0  0  0  0  0  0  0  0  0  0  0
    0.8443    0.0233   -4.1541 H   0  0  0  0  0  0  0  0  0  0  0  0
    0.7195    1.7096   -3.6359 H   0  0  0  0  0  0  0  0  0  0  0  0
   -0.6425    2.2692    2.0416 N   0  0  0  0  0  0  0  0  0  0  0  0
   -1.8346    2.8870    1.4359 C   0  0  2  0  0  0  0  0  0  0  0  0
   -1.8121    4.4284    1.5349 C   0  0  0  0  0  0  0  0  0  0  0  0
   -1.2429    4.9842    2.4647 O   0  0  0  0  0  0  0  0  0  0  0  0
   -3.0825    2.3499    2.1474 C   0  0  0  0  0  0  0  0  0  0  0  0
   -0.5694    2.4567    3.0410 H   0  0  0  0  0  0  0  0  0  0  0  0
   -1.9011    2.6254    0.3777 H   0  0  0  0  0  0  0  0  0  0  0  0
   -3.0395    2.5782    3.2178 H   0  0  0  0  0  0  0  0  0  0  0  0
   -3.9861    2.8070    1.7323 H   0  0  0  0  0  0  0  0  0  0  0  0
   -3.1602    1.2650    2.0275 H   0  0  0  0  0  0  0  0  0  0  0  0
   -2.4677    5.1971    0.5897 N   0  0  0  0  0  0  0  0  0  0  0  0
   -2.5011    6.6543    0.6331 C   0  0  0  0  0  0  0  0  0  0  0  0
   -2.9446    4.7179   -0.1678 H   0  0  0  0  0  0  0  0  0  0  0  0
   -2.9813    7.0001    1.5546 H   0  0  0  0  0  0  0  0  0  0  0  0
   -1.4855    7.0617    0.5912 H   0  0  0  0  0  0  0  0  0  0  0  0
   -3.0657    7.0462   -0.2182 H   0  0  0  0  0  0  0  0  0  0  0  0
  1  2  2  0  0  0  0
  1  3  1  0  0  0  0
  1  7  1  0  0  0  0
  3  4  1  0  0  0  0
  3  5  1  0  0  0  0
  3  6  1  0  0  0  0
  7  8  1  0  0  0  0
  7 12  1  0  0  0  0
  8  9  1  0  0  0  0
  8 11  1  0  0  0  0
  8 13  1  0  0  0  0
  9 10  2  0  0  0  0
  9 17  1  0  0  0  0
 11 14  1  0  0  0  0
 11 15  1  0  0  0  0
 11 16  1  0  0  0  0
 17 18  1  0  0  0  0
 17 25  1  0  0  0  0
 18 19  1  0  0  0  0
 18 21  1  0  0  0  0
 18 26  1  0  0  0  0
 19 20  2  0  0  0  0
 19 36  1  0  0  0  0
 21 22  1  0  0  0  0
 21 23  1  0  0  0  0
 21 27  1  0  0  0  0
 22 24  1  0  0  0  0
 22 28  1  0  0  0  0
 22 29  1  0  0  0  0
 23 30  1  0  0  0  0
 23 31  1  0  0  0  0
 23 32  1  0  0  0  0
 24 33  1  0  0  0  0
 24 34  1  0  0  0  0
 24 35  1  0  0  0  0
 36 37  1  0  0  0  0
 36 41  1  0  0  0  0
 37 38  1  0  0  0  0
 37 40  1  0  0  0  0
 37 42  1  0  0  0  0
 38 39  2  0  0  0  0
 38 46  1  0  0  0  0
 40 43  1  0  0  0  0
 40 44  1  0  0  0  0
 40 45  1  0  0  0  0
 46 47  1  0  0  0  0
 46 48  1  0  0  0  0
 47 49  1  0  0  0  0
 47 50  1  0  0  0  0
 47 51  1  0  0  0  0
M  END
$$$$

  -OEChem-05262216503D

 51 50  0     1  0  0  0  0  0999 V2000
    0.3444   -5.6881    0.5340 C   0  0  0  0  0  0  0  0  0  0  0  0
   -0.4594   -5.8350   -0.3735 O   0  0  0  0  0  0  0  0  0  0  0  0
    1.4618   -6.6970    0.7243 C   0  0  0  0  0  0  0  0  0  0  0  0
    1.4148   -7.4641   -0.0537 H   0  0  0  0  0  0  0  0  0  0  0  0
    2.4312   -6.1960    0.6658 H   0  0  0  0  0  0  0  0  0  0  0  0
    1.3671   -7.1792    1.7002 H   0  0  0  0  0  0  0  0  0  0  0  0
    0.2535   -4.6063    1.3853 N   0  0  0  0  0  0  0  0  0  0  0  0
   -0.5980   -3.4354    1.1285 C   0  0  2  0  0  0  0  0  0  0  0  0
    0.2403   -2.1757    0.8300 C   0  0  0  0  0  0  0  0  0  0  0  0
    1.4113   -2.1185    1.1927 O   0  0  0  0  0  0  0  0  0  0  0  0
   -1.4692   -3.2069    2.3656 C   0  0  0  0  0  0  0  0  0  0  0  0
    1.0704   -4.4398    1.9700 H   0  0  0  0  0  0  0  0  0  0  0  0
   -1.2517   -3.6108    0.2678 H   0  0  0  0  0  0  0  0  0  0  0  0
   -0.8446   -3.0202    3.2453 H   0  0  0  0  0  0  0  0  0  0  0  0
   -2.1249   -2.3430    2.2187 H   0  0  0  0  0  0  0  0  0  0  0  0
   -2.0920   -4.0859    2.5581 H   0  0  0  0  0  0  0  0  0  0  0  0
   -0.3338   -1.1061    0.1664 N   0  0  0  0  0  0  0  0  0  0  0  0
    0.2291    0.2578    0.2221 C   0  0  2  0  0  0  0  0  0  0  0  0
   -0.6889    1.0891    1.1673 C   0  0  0  0  0  0  0  0  0  0  0  0
   -1.1446    0.5640    2.1780 O   0  0  0  0  0  0  0  0  0  0  0  0
    0.4183    0.7626   -1.2463 C   0  0  2  0  0  0  0  0  0  0  0  0
    1.4465   -0.1534   -1.9708 C   0  0  0  0  0  0  0  0  0  0  0  0
    0.9525    2.2163   -1.2883 C   0  0  0  0  0  0  0  0  0  0  0  0
    1.5183    0.0705   -3.4873 C   0  0  0  0  0  0  0  0  0  0  0  0
   -1.3380   -1.1793    0.0320 H   0  0  0  0  0  0  0  0  0  0  0  0
    1.2171    0.2585    0.6951 H   0  0  0  0  0  0  0  0  0  0  0  0
   -0.5402    0.7146   -1.7749 H   0  0  0  0  0  0  0  0  0  0  0  0
    2.4407   -0.0112   -1.5335 H   0  0  0  0  0  0  0  0  0  0  0  0
    1.1797   -1.2037   -1.8247 H   0  0  0  0  0  0  0  0  0  0  0  0
    1.6216    2.4055   -0.4428 H   0  0  0  0  0  0  0  0  0  0  0  0
    0.1343    2.9388   -1.2654 H   0  0  0  0  0  0  0  0  0  0  0  0
    1.5105    2.4250   -2.2020 H   0  0  0  0  0  0  0  0  0  0  0  0
    0.5164    0.0328   -3.9261 H   0  0  0  0  0  0  0  0  0  0  0  0
    2.1239   -0.7175   -3.9449 H   0  0  0  0  0  0  0  0  0  0  0  0
    1.9766    1.0294   -3.7395 H   0  0  0  0  0  0  0  0  0  0  0  0
   -1.1309    2.3660    0.8822 N   0  0  0  0  0  0  0  0  0  0  0  0
   -2.1433    3.1075    1.6454 C   0  0  2  0  0  0  0  0  0  0  0  0
   -2.9113    4.0887    0.7352 C   0  0  0  0  0  0  0  0  0  0  0  0
   -2.5150    4.3043   -0.4058 O   0  0  0  0  0  0  0  0  0  0  0  0
   -1.4432    3.8577    2.7830 C   0  0  0  0  0  0  0  0  0  0  0  0
   -0.9065    2.7387   -0.0379 H   0  0  0  0  0  0  0  0  0  0  0  0
   -2.8761    2.4113    2.0669 H   0  0  0  0  0  0  0  0  0  0  0  0
   -0.7029    4.5569    2.3811 H   0  0  0  0  0  0  0  0  0  0  0  0
   -2.1685    4.4206    3.3781 H   0  0  0  0  0  0  0  0  0  0  0  0
   -0.9320    3.1510    3.4444 H   0  0  0  0  0  0  0  0  0  0  0  0
   -4.0610    4.7129    1.1830 N   0  0  0  0  0  0  0  0  0  0  0  0
   -4.8411    5.6337    0.3647 C   0  0  0  0  0  0  0  0  0  0  0  0
   -4.3709    4.5104    2.1292 H   0  0  0  0  0  0  0  0  0  0  0  0
   -4.2390    6.5060    0.0903 H   0  0  0  0  0  0  0  0  0  0  0  0
   -5.1814    5.1387   -0.5510 H   0  0  0  0  0  0  0  0  0  0  0  0
   -5.7205    5.9800    0.9161 H   0  0  0  0  0  0  0  0  0  0  0  0
  1  2  2  0  0  0  0
  1  3  1  0  0  0  0
  1  7  1  0  0  0  0
  3  4  1  0  0  0  0
  3  5  1  0  0  0  0
  3  6  1  0  0  0  0
  7  8  1  0  0  0  0
  7 12  1  0  0  0  0
  8  9  1  0  0  0  0
  8 11  1  0  0  0  0
  8 13  1  0  0  0  0
  9 10  2  0  0  0  0
  9 17  1  0  0  0  0
 11 14  1  0  0  0  0
 11 15  1  0  0  0  0
 11 16  1  0  0  0  0
 17 18  1  0  0  0  0
 17 25  1  0  0  0  0
 18 19  1  0  0  0  0
 18 21  1  0  0  0  0
 18 26  1  0  0  0  0
 19 20  2  0  0  0  0
 19 36  1  0  0  0  0
 21 22  1  0  0  0  0
 21 23  1  0  0  0  0
 21 27  1  0  0  0  0
 22 24  1  0  0  0  0
 22 28  1  0  0  0  0
 22 29  1  0  0  0  0
 23 30  1  0  0  0  0
 23 31  1  0  0  0  0
 23 32  1  0  0  0  0
 24 33  1  0  0  0  0
 24 34  1  0  0  0  0
 24 35  1  0  0  0  0
 36 37  1  0  0  0  0
 36 41  1  0  0  0  0
 37 38  1  0  0  0  0
 37 40  1  0  0  0  0
 37 42  1  0  0  0  0
 38 39  2  0  0  0  0
 38 46  1  0  0  0  0
 40 43  1  0  0  0  0
 40 44  1  0  0  0  0
 40 45  1  0  0  0  0
 46 47  1  0  0  0  0
 46 48  1  0  0  0  0
 47 49  1  0  0  0  0
 47 50  1  0  0  0  0
 47 51  1  0  0  0  0
M  END
$$$$

  -OEChem-05262216503D

 51 50  0     1  0  0  0  0  0999 V2000
    0.3200   -5.6438    0.5408 C   0  0  0  0  0  0  0  0  0  0  0  0
   -0.4653   -5.7742   -0.3854 O   0  0  0  0  0  0  0  0  0  0  0  0
    1.4309   -6.6578    0.7395 C   0  0  0  0  0  0  0  0  0  0  0  0
    1.3673   -7.4420   -0.0200 H   0  0  0  0  0  0  0  0  0  0  0  0
    2.4033   -6.1660    0.6585 H   0  0  0  0  0  0  0  0  0  0  0  0
    1.3439   -7.1168    1.7271 H   0  0  0  0  0  0  0  0  0  0  0  0
    0.2152   -4.5743    1.4057 N   0  0  0  0  0  0  0  0  0  0  0  0
   -0.6317   -3.4002    1.1497 C   0  0  2  0  0  0  0  0  0  0  0  0
    0.2108   -2.1401    0.8646 C   0  0  0  0  0  0  0  0  0  0  0  0
    1.3695   -2.0747    1.2628 O   0  0  0  0  0  0  0  0  0  0  0  0
   -1.5125   -3.1796    2.3813 C   0  0  0  0  0  0  0  0  0  0  0  0
    1.0207   -4.4175    2.0086 H   0  0  0  0  0  0  0  0  0  0  0  0
   -1.2794   -3.5698    0.2835 H   0  0  0  0  0  0  0  0  0  0  0  0
   -0.8954   -2.9884    3.2652 H   0  0  0  0  0  0  0  0  0  0  0  0
   -2.1749   -2.3215    2.2307 H   0  0  0  0  0  0  0  0  0  0  0  0
   -2.1283   -4.0645    2.5695 H   0  0  0  0  0  0  0  0  0  0  0  0
   -0.3461   -1.0810    0.1699 N   0  0  0  0  0  0  0  0  0  0  0  0
    0.2099    0.2852    0.2188 C   0  0  2  0  0  0  0  0  0  0  0  0
   -0.7537    1.0992    1.1279 C   0  0  0  0  0  0  0  0  0  0  0  0
   -1.0297    0.6780    2.2452 O   0  0  0  0  0  0  0  0  0  0  0  0
    0.4191    0.8034   -1.2380 C   0  0  2  0  0  0  0  0  0  0  0  0
    1.4590   -0.1002   -1.9577 C   0  0  0  0  0  0  0  0  0  0  0  0
    0.9939    2.2424   -1.2638 C   0  0  0  0  0  0  0  0  0  0  0  0
    1.5425    0.1514   -3.4674 C   0  0  0  0  0  0  0  0  0  0  0  0
   -1.3383   -1.1702   -0.0276 H   0  0  0  0  0  0  0  0  0  0  0  0
    1.1854    0.3007    0.7168 H   0  0  0  0  0  0  0  0  0  0  0  0
   -0.5364    0.7755   -1.7728 H   0  0  0  0  0  0  0  0  0  0  0  0
    2.4491    0.0335   -1.5088 H   0  0  0  0  0  0  0  0  0  0  0  0
    1.1891   -1.1523   -1.8284 H   0  0  0  0  0  0  0  0  0  0  0  0
    1.9615    2.2742   -0.7524 H   0  0  0  0  0  0  0  0  0  0  0  0
    1.1354    2.5860   -2.2913 H   0  0  0  0  0  0  0  0  0  0  0  0
    0.3400    2.9712   -0.7875 H   0  0  0  0  0  0  0  0  0  0  0  0
    0.5466    0.1046   -3.9187 H   0  0  0  0  0  0  0  0  0  0  0  0
    2.1695   -0.6139   -3.9347 H   0  0  0  0  0  0  0  0  0  0  0  0
    1.9850    1.1264   -3.6867 H   0  0  0  0  0  0  0  0  0  0  0  0
   -1.4415    2.2155    0.6920 N   0  0  0  0  0  0  0  0  0  0  0  0
   -2.4983    2.9114    1.4370 C   0  0  2  0  0  0  0  0  0  0  0  0
   -3.4686    3.6341    0.4783 C   0  0  0  0  0  0  0  0  0  0  0  0
   -3.1941    3.7325   -0.7134 O   0  0  0  0  0  0  0  0  0  0  0  0
   -1.8430    3.9103    2.3971 C   0  0  0  0  0  0  0  0  0  0  0  0
   -1.3402    2.4695   -0.2905 H   0  0  0  0  0  0  0  0  0  0  0  0
   -3.0841    2.1854    2.0109 H   0  0  0  0  0  0  0  0  0  0  0  0
   -1.2588    4.6493    1.8396 H   0  0  0  0  0  0  0  0  0  0  0  0
   -2.6020    4.4357    2.9841 H   0  0  0  0  0  0  0  0  0  0  0  0
   -1.1743    3.3893    3.0898 H   0  0  0  0  0  0  0  0  0  0  0  0
   -4.6606    4.1566    0.9448 N   0  0  0  0  0  0  0  0  0  0  0  0
   -5.6240    4.8426    0.0916 C   0  0  0  0  0  0  0  0  0  0  0  0
   -4.8644    4.0547    1.9349 H   0  0  0  0  0  0  0  0  0  0  0  0
   -5.1730    5.7340   -0.3570 H   0  0  0  0  0  0  0  0  0  0  0  0
   -5.9680    4.1807   -0.7103 H   0  0  0  0  0  0  0  0  0  0  0  0
   -6.4937    5.1537    0.6784 H   0  0  0  0  0  0  0  0  0  0  0  0
  1  2  2  0  0  0  0
  1  3  1  0  0  0  0
  1  7  1  0  0  0  0
  3  4  1  0  0  0  0
  3  5  1  0  0  0  0
  3  6  1  0  0  0  0
  7  8  1  0  0  0  0
  7 12  1  0  0  0  0
  8  9  1  0  0  0  0
  8 11  1  0  0  0  0
  8 13  1  0  0  0  0
  9 10  2  0  0  0  0
  9 17  1  0  0  0  0
 11 14  1  0  0  0  0
 11 15  1  0  0  0  0
 11 16  1  0  0  0  0
 17 18  1  0  0  0  0
 17 25  1  0  0  0  0
 18 19  1  0  0  0  0
 18 21  1  0  0  0  0
 18 26  1  0  0  0  0
 19 20  2  0  0  0  0
 19 36  1  0  0  0  0
 21 22  1  0  0  0  0
 21 23  1  0  0  0  0
 21 27  1  0  0  0  0
 22 24  1  0  0  0  0
 22 28  1  0  0  0  0
 22 29  1  0  0  0  0
 23 30  1  0  0  0  0
 23 31  1  0  0  0  0
 23 32  1  0  0  0  0
 24 33  1  0  0  0  0
 24 34  1  0  0  0  0
 24 35  1  0  0  0  0
 36 37  1  0  0  0  0
 36 41  1  0  0  0  0
 37 38  1  0  0  0  0
 37 40  1  0  0  0  0
 37 42  1  0  0  0  0
 38 39  2  0  0  0  0
 38 46  1  0  0  0  0
 40 43  1  0  0  0  0
 40 44  1  0  0  0  0
 40 45  1  0  0  0  0
 46 47  1  0  0  0  0
 46 48  1  0  0  0  0
 47 49  1  0  0  0  0
 47 50  1  0  0  0  0
 47 51  1  0  0  0  0
M  END
$$$$

  -OEChem-05262216503D

 51 50  0     1  0  0  0  0  0999 V2000
    0.4029   -5.6014    0.4825 C   0  0  0  0  0  0  0  0  0  0  0  0
   -0.3343   -5.7401   -0.4811 O   0  0  0  0  0  0  0  0  0  0  0  0
    1.5721   -6.5474    0.6829 C   0  0  0  0  0  0  0  0  0  0  0  0
    1.5938   -7.2960   -0.1141 H   0  0  0  0  0  0  0  0  0  0  0  0
    2.5106   -5.9877    0.6661 H   0  0  0  0  0  0  0  0  0  0  0  0
    1.4777   -7.0588    1.6437 H   0  0  0  0  0  0  0  0  0  0  0  0
    0.1984   -4.5748    1.3809 N   0  0  0  0  0  0  0  0  0  0  0  0
   -0.6839   -3.4287    1.1171 C   0  0  2  0  0  0  0  0  0  0  0  0
    0.1225   -2.1253    0.9475 C   0  0  0  0  0  0  0  0  0  0  0  0
    1.2449   -2.0356    1.4339 O   0  0  0  0  0  0  0  0  0  0  0  0
   -1.6581   -3.3018    2.2900 C   0  0  0  0  0  0  0  0  0  0  0  0
    0.9677   -4.3999    2.0253 H   0  0  0  0  0  0  0  0  0  0  0  0
   -1.2602   -3.5853    0.1996 H   0  0  0  0  0  0  0  0  0  0  0  0
   -1.1141   -3.1201    3.2227 H   0  0  0  0  0  0  0  0  0  0  0  0
   -2.3500   -2.4700    2.1254 H   0  0  0  0  0  0  0  0  0  0  0  0
   -2.2414   -4.2215    2.3985 H   0  0  0  0  0  0  0  0  0  0  0  0
   -0.4112   -1.0671    0.2334 N   0  0  0  0  0  0  0  0  0  0  0  0
    0.1374    0.3012    0.2808 C   0  0  2  0  0  0  0  0  0  0  0  0
   -0.8302    1.1444    1.1501 C   0  0  0  0  0  0  0  0  0  0  0  0
   -0.9239    0.9236    2.3502 O   0  0  0  0  0  0  0  0  0  0  0  0
    0.3792    0.8142   -1.1693 C   0  0  2  0  0  0  0  0  0  0  0  0
    1.4398   -0.0804   -1.8660 C   0  0  0  0  0  0  0  0  0  0  0  0
    0.9165    2.2653   -1.1676 C   0  0  0  0  0  0  0  0  0  0  0  0
    1.5513    0.1754   -3.3726 C   0  0  0  0  0  0  0  0  0  0  0  0
   -1.3712   -1.1817   -0.0781 H   0  0  0  0  0  0  0  0  0  0  0  0
    1.1033    0.3182    0.7985 H   0  0  0  0  0  0  0  0  0  0  0  0
   -0.5619    0.7725   -1.7281 H   0  0  0  0  0  0  0  0  0  0  0  0
    2.4187    0.0624   -1.3962 H   0  0  0  0  0  0  0  0  0  0  0  0
    1.1746   -1.1347   -1.7420 H   0  0  0  0  0  0  0  0  0  0  0  0
    1.8709    2.3171   -0.6334 H   0  0  0  0  0  0  0  0  0  0  0  0
    1.0717    2.6244   -2.1881 H   0  0  0  0  0  0  0  0  0  0  0  0
    0.2263    2.9635   -0.6921 H   0  0  0  0  0  0  0  0  0  0  0  0
    0.5662    0.1158   -3.8458 H   0  0  0  0  0  0  0  0  0  0  0  0
    2.1992   -0.5795   -3.8285 H   0  0  0  0  0  0  0  0  0  0  0  0
    1.9840    1.1581   -3.5781 H   0  0  0  0  0  0  0  0  0  0  0  0
   -1.7084    2.0564    0.5944 N   0  0  0  0  0  0  0  0  0  0  0  0
   -2.7830    2.7478    1.3174 C   0  0  2  0  0  0  0  0  0  0  0  0
   -3.9672    3.0689    0.3813 C   0  0  0  0  0  0  0  0  0  0  0  0
   -3.8569    2.8971   -0.8285 O   0  0  0  0  0  0  0  0  0  0  0  0
   -2.2075    4.0307    1.9260 C   0  0  0  0  0  0  0  0  0  0  0  0
   -1.7323    2.1197   -0.4231 H   0  0  0  0  0  0  0  0  0  0  0  0
   -3.1649    2.1061    2.1188 H   0  0  0  0  0  0  0  0  0  0  0  0
   -1.8302    4.6916    1.1389 H   0  0  0  0  0  0  0  0  0  0  0  0
   -2.9747    4.5656    2.4936 H   0  0  0  0  0  0  0  0  0  0  0  0
   -1.3826    3.7911    2.6048 H   0  0  0  0  0  0  0  0  0  0  0  0
   -5.1654    3.5304    0.8943 N   0  0  0  0  0  0  0  0  0  0  0  0
   -6.3258    3.8368    0.0663 C   0  0  0  0  0  0  0  0  0  0  0  0
   -5.2339    3.6481    1.9012 H   0  0  0  0  0  0  0  0  0  0  0  0
   -6.0773    4.6059   -0.6728 H   0  0  0  0  0  0  0  0  0  0  0  0
   -6.6687    2.9399   -0.4603 H   0  0  0  0  0  0  0  0  0  0  0  0
   -7.1470    4.2081    0.6871 H   0  0  0  0  0  0  0  0  0  0  0  0
  1  2  2  0  0  0  0
  1  3  1  0  0  0  0
  1  7  1  0  0  0  0
  3  4  1  0  0  0  0
  3  5  1  0  0  0  0
  3  6  1  0  0  0  0
  7  8  1  0  0  0  0
  7 12  1  0  0  0  0
  8  9  1  0  0  0  0
  8 11  1  0  0  0  0
  8 13  1  0  0  0  0
  9 10  2  0  0  0  0
  9 17  1  0  0  0  0
 11 14  1  0  0  0  0
 11 15  1  0  0  0  0
 11 16  1  0  0  0  0
 17 18  1  0  0  0  0
 17 25  1  0  0  0  0
 18 19  1  0  0  0  0
 18 21  1  0  0  0  0
 18 26  1  0  0  0  0
 19 20  2  0  0  0  0
 19 36  1  0  0  0  0
 21 22  1  0  0  0  0
 21 23  1  0  0  0  0
 21 27  1  0  0  0  0
 22 24  1  0  0  0  0
 22 28  1  0  0  0  0
 22 29  1  0  0  0  0
 23 30  1  0  0  0  0
 23 31  1  0  0  0  0
 23 32  1  0  0  0  0
 24 33  1  0  0  0  0
 24 34  1  0  0  0  0
 24 35  1  0  0  0  0
 36 37  1  0  0  0  0
 36 41  1  0  0  0  0
 37 38  1  0  0  0  0
 37 40  1  0  0  0  0
 37 42  1  0  0  0  0
 38 39  2  0  0  0  0
 38 46  1  0  0  0  0
 40 43  1  0  0  0  0
 40 44  1  0  0  0  0
 40 45  1  0  0  0  0
 46 47  1  0  0  0  0
 46 48  1  0  0  0  0
 47 49  1  0  0  0  0
 47 50  1  0  0  0  0
 47 51  1  0  0  0  0
M  END
$$$$

  -OEChem-05262216503D

 51 50  0     1  0  0  0  0  0999 V2000
    0.4196   -5.5608    0.4271 C   0  0  0  0  0  0  0  0  0  0  0  0
   -0.2804   -5.6910   -0.5649 O   0  0  0  0  0  0  0  0  0  0  0  0
    1.6016   -6.4864    0.6465 C   0  0  0  0  0  0  0  0  0  0  0  0
    1.6296   -7.2546   -0.1317 H   0  0  0  0  0  0  0  0  0  0  0  0
    2.5327   -5.9151    0.6113 H   0  0  0  0  0  0  0  0  0  0  0  0
    1.5185   -6.9747    1.6206 H   0  0  0  0  0  0  0  0  0  0  0  0
    0.1619   -4.5603    1.3411 N   0  0  0  0  0  0  0  0  0  0  0  0
   -0.7400   -3.4298    1.0780 C   0  0  2  0  0  0  0  0  0  0  0  0
    0.0370   -2.0992    1.0137 C   0  0  0  0  0  0  0  0  0  0  0  0
    1.1103   -1.9943    1.5965 O   0  0  0  0  0  0  0  0  0  0  0  0
   -1.7807   -3.3859    2.1985 C   0  0  0  0  0  0  0  0  0  0  0  0
    0.9018   -4.3854    2.0192 H   0  0  0  0  0  0  0  0  0  0  0  0
   -1.2588   -3.5600    0.1226 H   0  0  0  0  0  0  0  0  0  0  0  0
   -1.2938   -3.2343    3.1674 H   0  0  0  0  0  0  0  0  0  0  0  0
   -2.4880   -2.5674    2.0336 H   0  0  0  0  0  0  0  0  0  0  0  0
   -2.3404   -4.3259    2.2318 H   0  0  0  0  0  0  0  0  0  0  0  0
   -0.4606   -1.0383    0.2786 N   0  0  0  0  0  0  0  0  0  0  0  0
    0.0856    0.3304    0.3355 C   0  0  2  0  0  0  0  0  0  0  0  0
   -0.8890    1.2066    1.1558 C   0  0  0  0  0  0  0  0  0  0  0  0
   -0.8112    1.2490    2.3755 O   0  0  0  0  0  0  0  0  0  0  0  0
    0.3673    0.8414   -1.1059 C   0  0  2  0  0  0  0  0  0  0  0  0
    1.4477   -0.0456   -1.7761 C   0  0  0  0  0  0  0  0  0  0  0  0
    0.8638    2.3041   -1.0854 C   0  0  0  0  0  0  0  0  0  0  0  0
    1.5940    0.2168   -3.2783 C   0  0  0  0  0  0  0  0  0  0  0  0
   -1.3742   -1.1731   -0.1448 H   0  0  0  0  0  0  0  0  0  0  0  0
    1.0374    0.3439    0.8787 H   0  0  0  0  0  0  0  0  0  0  0  0
   -0.5566    0.7847   -1.6913 H   0  0  0  0  0  0  0  0  0  0  0  0
    2.4132    0.1059   -1.2815 H   0  0  0  0  0  0  0  0  0  0  0  0
    1.1873   -1.1015   -1.6581 H   0  0  0  0  0  0  0  0  0  0  0  0
    1.8016    2.3810   -0.5257 H   0  0  0  0  0  0  0  0  0  0  0  0
    1.0348    2.6728   -2.1001 H   0  0  0  0  0  0  0  0  0  0  0  0
    0.1348    2.9735   -0.6228 H   0  0  0  0  0  0  0  0  0  0  0  0
    0.6256    0.1254   -3.7797 H   0  0  0  0  0  0  0  0  0  0  0  0
    2.2800   -0.5146   -3.7164 H   0  0  0  0  0  0  0  0  0  0  0  0
    1.9984    1.2141   -3.4695 H   0  0  0  0  0  0  0  0  0  0  0  0
   -1.9253    1.8831    0.5386 N   0  0  0  0  0  0  0  0  0  0  0  0
   -3.0232    2.5567    1.2425 C   0  0  2  0  0  0  0  0  0  0  0  0
   -4.3551    2.4008    0.4797 C   0  0  0  0  0  0  0  0  0  0  0  0
   -4.3627    1.9176   -0.6481 O   0  0  0  0  0  0  0  0  0  0  0  0
   -2.6504    4.0336    1.3978 C   0  0  0  0  0  0  0  0  0  0  0  0
   -2.0653    1.7069   -0.4554 H   0  0  0  0  0  0  0  0  0  0  0  0
   -3.1629    2.1120    2.2336 H   0  0  0  0  0  0  0  0  0  0  0  0
   -2.5156    4.4994    0.4162 H   0  0  0  0  0  0  0  0  0  0  0  0
   -3.4337    4.5751    1.9364 H   0  0  0  0  0  0  0  0  0  0  0  0
   -1.7161    4.1297    1.9606 H   0  0  0  0  0  0  0  0  0  0  0  0
   -5.5490    2.7834    1.0627 N   0  0  0  0  0  0  0  0  0  0  0  0
   -6.8424    2.6415    0.4048 C   0  0  0  0  0  0  0  0  0  0  0  0
   -5.5143    3.1619    2.0050 H   0  0  0  0  0  0  0  0  0  0  0  0
   -6.8493    3.1797   -0.5490 H   0  0  0  0  0  0  0  0  0  0  0  0
   -7.0616    1.5855    0.2150 H   0  0  0  0  0  0  0  0  0  0  0  0
   -7.6361    3.0515    1.0370 H   0  0  0  0  0  0  0  0  0  0  0  0
  1  2  2  0  0  0  0
  1  3  1  0  0  0  0
  1  7  1  0  0  0  0
  3  4  1  0  0  0  0
  3  5  1  0  0  0  0
  3  6  1  0  0  0  0
  7  8  1  0  0  0  0
  7 12  1  0  0  0  0
  8  9  1  0  0  0  0
  8 11  1  0  0  0  0
  8 13  1  0  0  0  0
  9 10  2  0  0  0  0
  9 17  1  0  0  0  0
 11 14  1  0  0  0  0
 11 15  1  0  0  0  0
 11 16  1  0  0  0  0
 17 18  1  0  0  0  0
 17 25  1  0  0  0  0
 18 19  1  0  0  0  0
 18 21  1  0  0  0  0
 18 26  1  0  0  0  0
 19 20  2  0  0  0  0
 19 36  1  0  0  0  0
 21 22  1  0  0  0  0
 21 23  1  0  0  0  0
 21 27  1  0  0  0  0
 22 24  1  0  0  0  0
 22 28  1  0  0  0  0
 22 29  1  0  0  0  0
 23 30  1  0  0  0  0
 23 31  1  0  0  0  0
 23 32  1  0  0  0  0
 24 33  1  0  0  0  0
 24 34  1  0  0  0  0
 24 35  1  0  0  0  0
 36 37  1  0  0  0  0
 36 41  1  0  0  0  0
 37 38  1  0  0  0  0
 37 40  1  0  0  0  0
 37 42  1  0  0  0  0
 38 39  2  0  0  0  0
 38 46  1  0  0  0  0
 40 43  1  0  0  0  0
 40 44  1  0  0  0  0
 40 45  1  0  0  0  0
 46 47  1  0  0  0  0
 46 48  1  0  0  0  0
 47 49  1  0  0  0  0
 47 50  1  0  0  0  0
 47 51  1  0  0  0  0
M  END
$$$$

  -OEChem-05262216503D

 51 50  0     1  0  0  0  0  0999 V2000
    0.5758   -5.4264    0.3702 C   0  0  0  0  0  0  0  0  0  0  0  0
    0.0777   -5.4336   -0.7447 O   0  0  0  0  0  0  0  0  0  0  0  0
    1.7491   -6.3372    0.6802 C   0  0  0  0  0  0  0  0  0  0  0  0
    2.0348   -6.9021   -0.2117 H   0  0  0  0  0  0  0  0  0  0  0  0
    2.6055   -5.7435    1.0096 H   0  0  0  0  0  0  0  0  0  0  0  0
    1.4766   -7.0408    1.4705 H   0  0  0  0  0  0  0  0  0  0  0  0
    0.0971   -4.5765    1.3461 N   0  0  0  0  0  0  0  0  0  0  0  0
   -0.8116   -3.4562    1.0615 C   0  0  2  0  0  0  0  0  0  0  0  0
   -0.0647   -2.1069    1.0682 C   0  0  0  0  0  0  0  0  0  0  0  0
    0.9433   -1.9744    1.7519 O   0  0  0  0  0  0  0  0  0  0  0  0
   -1.9113   -3.4594    2.1253 C   0  0  0  0  0  0  0  0  0  0  0  0
    0.7036   -4.4619    2.1558 H   0  0  0  0  0  0  0  0  0  0  0  0
   -1.2809   -3.5777    0.0796 H   0  0  0  0  0  0  0  0  0  0  0  0
   -1.4805   -3.3209    3.1224 H   0  0  0  0  0  0  0  0  0  0  0  0
   -2.6251   -2.6504    1.9405 H   0  0  0  0  0  0  0  0  0  0  0  0
   -2.4533   -4.4101    2.1075 H   0  0  0  0  0  0  0  0  0  0  0  0
   -0.5314   -1.0504    0.3067 N   0  0  0  0  0  0  0  0  0  0  0  0
    0.0199    0.3176    0.3558 C   0  0  2  0  0  0  0  0  0  0  0  0
   -0.9559    1.2288    1.1317 C   0  0  0  0  0  0  0  0  0  0  0  0
   -0.7265    1.5613    2.2859 O   0  0  0  0  0  0  0  0  0  0  0  0
    0.3136    0.8111   -1.0876 C   0  0  2  0  0  0  0  0  0  0  0  0
    1.3953   -0.0831   -1.7440 C   0  0  0  0  0  0  0  0  0  0  0  0
    0.7924    2.2785   -1.0751 C   0  0  0  0  0  0  0  0  0  0  0  0
    1.5490    0.1668   -3.2472 C   0  0  0  0  0  0  0  0  0  0  0  0
   -1.3848   -1.2127   -0.2205 H   0  0  0  0  0  0  0  0  0  0  0  0
    0.9662    0.3310    0.9091 H   0  0  0  0  0  0  0  0  0  0  0  0
   -0.6062    0.7456   -1.6786 H   0  0  0  0  0  0  0  0  0  0  0  0
    2.3584    0.0736   -1.2467 H   0  0  0  0  0  0  0  0  0  0  0  0
    1.1339   -1.1378   -1.6178 H   0  0  0  0  0  0  0  0  0  0  0  0
    1.7143    2.3755   -0.4923 H   0  0  0  0  0  0  0  0  0  0  0  0
    0.9845    2.6369   -2.0896 H   0  0  0  0  0  0  0  0  0  0  0  0
    0.0388    2.9405   -0.6395 H   0  0  0  0  0  0  0  0  0  0  0  0
    0.5828    0.0741   -3.7529 H   0  0  0  0  0  0  0  0  0  0  0  0
    2.2350   -0.5703   -3.6760 H   0  0  0  0  0  0  0  0  0  0  0  0
    1.9570    1.1618   -3.4441 H   0  0  0  0  0  0  0  0  0  0  0  0
   -2.1302    1.6507    0.5359 N   0  0  0  0  0  0  0  0  0  0  0  0
   -3.2407    2.2937    1.2485 C   0  0  2  0  0  0  0  0  0  0  0  0
   -4.6020    1.7678    0.7457 C   0  0  0  0  0  0  0  0  0  0  0  0
   -4.6504    1.0320   -0.2355 O   0  0  0  0  0  0  0  0  0  0  0  0
   -3.1251    3.8067    1.0446 C   0  0  0  0  0  0  0  0  0  0  0  0
   -2.3550    1.2428   -0.3699 H   0  0  0  0  0  0  0  0  0  0  0  0
   -3.1816    2.0689    2.3189 H   0  0  0  0  0  0  0  0  0  0  0  0
   -3.1998    4.0572   -0.0185 H   0  0  0  0  0  0  0  0  0  0  0  0
   -3.9202    4.3307    1.5833 H   0  0  0  0  0  0  0  0  0  0  0  0
   -2.1611    4.1645    1.4206 H   0  0  0  0  0  0  0  0  0  0  0  0
   -5.7730    2.1025    1.4006 N   0  0  0  0  0  0  0  0  0  0  0  0
   -7.0889    1.6370    0.9777 C   0  0  0  0  0  0  0  0  0  0  0  0
   -5.7015    2.7023    2.2178 H   0  0  0  0  0  0  0  0  0  0  0  0
   -7.3170    1.9962   -0.0315 H   0  0  0  0  0  0  0  0  0  0  0  0
   -7.1278    0.5425    0.9795 H   0  0  0  0  0  0  0  0  0  0  0  0
   -7.8596    2.0103    1.6591 H   0  0  0  0  0  0  0  0  0  0  0  0
  1  2  2  0  0  0  0
  1  3  1  0  0  0  0
  1  7  1  0  0  0  0
  3  4  1  0  0  0  0
  3  5  1  0  0  0  0
  3  6  1  0  0  0  0
  7  8  1  0  0  0  0
  7 12  1  0  0  0  0
  8  9  1  0  0  0  0
  8 11  1  0  0  0  0
  8 13  1  0  0  0  0
  9 10  2  0  0  0  0
  9 17  1  0  0  0  0
 11 14  1  0  0  0  0
 11 15  1  0  0  0  0
 11 16  1  0  0  0  0
 17 18  1  0  0  0  0
 17 25  1  0  0  0  0
 18 19  1  0  0  0  0
 18 21  1  0  0  0  0
 18 26  1  0  0  0  0
 19 20  2  0  0  0  0
 19 36  1  0  0  0  0
 21 22  1  0  0  0  0
 21 23  1  0  0  0  0
 21 27  1  0  0  0  0
 22 24  1  0  0  0  0
 22 28  1  0  0  0  0
 22 29  1  0  0  0  0
 23 30  1  0  0  0  0
 23 31  1  0  0  0  0
 23 32  1  0  0  0  0
 24 33  1  0  0  0  0
 24 34  1  0  0  0  0
 24 35  1  0  0  0  0
 36 37  1  0  0  0  0
 36 41  1  0  0  0  0
 37 38  1  0  0  0  0
 37 40  1  0  0  0  0
 37 42  1  0  0  0  0
 38 39  2  0  0  0  0
 38 46  1  0  0  0  0
 40 43  1  0  0  0  0
 40 44  1  0  0  0  0
 40 45  1  0  0  0  0
 46 47  1  0  0  0  0
 46 48  1  0  0  0  0
 47 49  1  0  0  0  0
 47 50  1  0  0  0  0
 47 51  1  0  0  0  0
M  END
$$$$

  -OEChem-05262216503D

 51 50  0     1  0  0  0  0  0999 V2000
   -0.6443   -4.9876    0.2536 C   0  0  0  0  0  0  0  0  0  0  0  0
   -1.2616   -4.7552   -0.7738 O   0  0  0  0  0  0  0  0  0  0  0  0
    0.3107   -6.1653    0.3109 C   0  0  0  0  0  0  0  0  0  0  0  0
    0.2811   -6.7219   -0.6300 H   0  0  0  0  0  0  0  0  0  0  0  0
    1.3305   -5.8093    0.4770 H   0  0  0  0  0  0  0  0  0  0  0  0
    0.0287   -6.8362    1.1260 H   0  0  0  0  0  0  0  0  0  0  0  0
   -0.7800   -4.1699    1.3563 N   0  0  0  0  0  0  0  0  0  0  0  0
   -1.4244   -2.8505    1.3009 C   0  0  2  0  0  0  0  0  0  0  0  0
   -0.3798   -1.7275    1.1473 C   0  0  0  0  0  0  0  0  0  0  0  0
    0.6577   -1.7762    1.7998 O   0  0  0  0  0  0  0  0  0  0  0  0
   -2.2161   -2.6609    2.5962 C   0  0  0  0  0  0  0  0  0  0  0  0
   -0.0754   -4.2925    2.0796 H   0  0  0  0  0  0  0  0  0  0  0  0
   -2.1222   -2.7910    0.4584 H   0  0  0  0  0  0  0  0  0  0  0  0
   -1.5553   -2.7377    3.4656 H   0  0  0  0  0  0  0  0  0  0  0  0
   -2.6900   -1.6752    2.6110 H   0  0  0  0  0  0  0  0  0  0  0  0
   -2.9957   -3.4239    2.6787 H   0  0  0  0  0  0  0  0  0  0  0  0
   -0.6068   -0.6755    0.2796 N   0  0  0  0  0  0  0  0  0  0  0  0
    0.0915    0.6214    0.4074 C   0  0  2  0  0  0  0  0  0  0  0  0
   -0.9022    1.6476    0.9863 C   0  0  0  0  0  0  0  0  0  0  0  0
   -0.8408    1.9890    2.1589 O   0  0  0  0  0  0  0  0  0  0  0  0
    0.6690    1.0394   -0.9706 C   0  0  2  0  0  0  0  0  0  0  0  0
    1.7272    0.0094   -1.4384 C   0  0  0  0  0  0  0  0  0  0  0  0
    1.3005    2.4439   -0.8907 C   0  0  0  0  0  0  0  0  0  0  0  0
    2.1468    0.2034   -2.8985 C   0  0  0  0  0  0  0  0  0  0  0  0
   -1.5616   -0.6581   -0.0877 H   0  0  0  0  0  0  0  0  0  0  0  0
    0.9257    0.5521    1.1153 H   0  0  0  0  0  0  0  0  0  0  0  0
   -0.1462    1.0616   -1.7016 H   0  0  0  0  0  0  0  0  0  0  0  0
    2.6103    0.0662   -0.7934 H   0  0  0  0  0  0  0  0  0  0  0  0
    1.3256   -1.0045   -1.3480 H   0  0  0  0  0  0  0  0  0  0  0  0
    2.1234    2.4528   -0.1687 H   0  0  0  0  0  0  0  0  0  0  0  0
    1.6900    2.7538   -1.8637 H   0  0  0  0  0  0  0  0  0  0  0  0
    0.5642    3.1925   -0.5847 H   0  0  0  0  0  0  0  0  0  0  0  0
    1.2688    0.2110   -3.5516 H   0  0  0  0  0  0  0  0  0  0  0  0
    2.8005   -0.6179   -3.2076 H   0  0  0  0  0  0  0  0  0  0  0  0
    2.6955    1.1395   -3.0320 H   0  0  0  0  0  0  0  0  0  0  0  0
   -2.0538    1.9066    0.2647 N   0  0  0  0  0  0  0  0  0  0  0  0
   -3.3630    1.9849    0.9240 C   0  0  2  0  0  0  0  0  0  0  0  0
   -4.0220    0.5880    0.9809 C   0  0  0  0  0  0  0  0  0  0  0  0
   -3.5704   -0.3305    0.2985 O   0  0  0  0  0  0  0  0  0  0  0  0
   -4.2281    2.9664    0.1305 C   0  0  0  0  0  0  0  0  0  0  0  0
   -2.0632    1.4523   -0.6448 H   0  0  0  0  0  0  0  0  0  0  0  0
   -3.2622    2.3603    1.9481 H   0  0  0  0  0  0  0  0  0  0  0  0
   -4.3750    2.6091   -0.8938 H   0  0  0  0  0  0  0  0  0  0  0  0
   -5.2086    3.0824    0.6023 H   0  0  0  0  0  0  0  0  0  0  0  0
   -3.7455    3.9481    0.0918 H   0  0  0  0  0  0  0  0  0  0  0  0
   -5.1187    0.3555    1.7891 N   0  0  0  0  0  0  0  0  0  0  0  0
   -5.8027   -0.9302    1.8664 C   0  0  0  0  0  0  0  0  0  0  0  0
   -5.4453    1.1215    2.3719 H   0  0  0  0  0  0  0  0  0  0  0  0
   -6.1375   -1.2476    0.8731 H   0  0  0  0  0  0  0  0  0  0  0  0
   -5.1372   -1.6970    2.2750 H   0  0  0  0  0  0  0  0  0  0  0  0
   -6.6800   -0.8530    2.5159 H   0  0  0  0  0  0  0  0  0  0  0  0
  1  2  2  0  0  0  0
  1  3  1  0  0  0  0
  1  7  1  0  0  0  0
  3  4  1  0  0  0  0
  3  5  1  0  0  0  0
  3  6  1  0  0  0  0
  7  8  1  0  0  0  0
  7 12  1  0  0  0  0
  8  9  1  0  0  0  0
  8 11  1  0  0  0  0
  8 13  1  0  0  0  0
  9 10  2  0  0  0  0
  9 17  1  0  0  0  0
 11 14  1  0  0  0  0
 11 15  1  0  0  0  0
 11 16  1  0  0  0  0
 17 18  1  0  0  0  0
 17 25  1  0  0  0  0
 18 19  1  0  0  0  0
 18 21  1  0  0  0  0
 18 26  1  0  0  0  0
 19 20  2  0  0  0  0
 19 36  1  0  0  0  0
 21 22  1  0  0  0  0
 21 23  1  0  0  0  0
 21 27  1  0  0  0  0
 22 24  1  0  0  0  0
 22 28  1  0  0  0  0
 22 29  1  0  0  0  0
 23 30  1  0  0  0  0
 23 31  1  0  0  0  0
 23 32  1  0  0  0  0
 24 33  1  0  0  0  0
 24 34  1  0  0  0  0
 24 35  1  0  0  0  0
 36 37  1  0  0  0  0
 36 41  1  0  0  0  0
 37 38  1  0  0  0  0
 37 40  1  0  0  0  0
 37 42  1  0  0  0  0
 38 39  2  0  0  0  0
 38 46  1  0  0  0  0
 40 43  1  0  0  0  0
 40 44  1  0  0  0  0
 40 45  1  0  0  0  0
 46 47  1  0  0  0  0
 46 48  1  0  0  0  0
 47 49  1  0  0  0  0
 47 50  1  0  0  0  0
 47 51  1  0  0  0  0
M  END
$$$$

  -OEChem-05262216503D

 51 50  0     1  0  0  0  0  0999 V2000
   -0.2297   -4.0015   -0.7457 C   0  0  0  0  0  0  0  0  0  0  0  0
   -0.9904   -3.2025   -1.2737 O   0  0  0  0  0  0  0  0  0  0  0  0
    0.8443   -4.6913   -1.5645 C   0  0  0  0  0  0  0  0  0  0  0  0
    0.7104   -4.4691   -2.6269 H   0  0  0  0  0  0  0  0  0  0  0  0
    1.8322   -4.3424   -1.2533 H   0  0  0  0  0  0  0  0  0  0  0  0
    0.7859   -5.7734   -1.4233 H   0  0  0  0  0  0  0  0  0  0  0  0
   -0.3030   -4.2134    0.6164 N   0  0  0  0  0  0  0  0  0  0  0  0
   -1.2974   -3.5865    1.5031 C   0  0  2  0  0  0  0  0  0  0  0  0
   -0.9775   -2.1003    1.7949 C   0  0  0  0  0  0  0  0  0  0  0  0
   -0.6859   -1.7077    2.9161 O   0  0  0  0  0  0  0  0  0  0  0  0
   -1.3813   -4.4365    2.7770 C   0  0  0  0  0  0  0  0  0  0  0  0
    0.3945   -4.8257    1.0310 H   0  0  0  0  0  0  0  0  0  0  0  0
   -2.2810   -3.6141    1.0215 H   0  0  0  0  0  0  0  0  0  0  0  0
   -0.4212   -4.4410    3.3031 H   0  0  0  0  0  0  0  0  0  0  0  0
   -2.1423   -4.0314    3.4520 H   0  0  0  0  0  0  0  0  0  0  0  0
   -1.6526   -5.4677    2.5315 H   0  0  0  0  0  0  0  0  0  0  0  0
   -1.0067   -1.2038    0.7456 N   0  0  0  0  0  0  0  0  0  0  0  0
   -0.5238    0.1859    0.8154 C   0  0  2  0  0  0  0  0  0  0  0  0
   -1.7294    1.1454    0.8790 C   0  0  0  0  0  0  0  0  0  0  0  0
   -1.7585    2.0683    1.6843 O   0  0  0  0  0  0  0  0  0  0  0  0
    0.3859    0.4543   -0.4146 C   0  0  2  0  0  0  0  0  0  0  0  0
    1.6347   -0.4634   -0.3728 C   0  0  0  0  0  0  0  0  0  0  0  0
    0.8239    1.9327   -0.4574 C   0  0  0  0  0  0  0  0  0  0  0  0
    2.4358   -0.4476   -1.6785 C   0  0  0  0  0  0  0  0  0  0  0  0
   -1.1043   -1.6385   -0.1764 H   0  0  0  0  0  0  0  0  0  0  0  0
    0.0686    0.3454    1.7238 H   0  0  0  0  0  0  0  0  0  0  0  0
   -0.1841    0.2356   -1.3242 H   0  0  0  0  0  0  0  0  0  0  0  0
    2.2837   -0.1636    0.4568 H   0  0  0  0  0  0  0  0  0  0  0  0
    1.3334   -1.4981   -0.1901 H   0  0  0  0  0  0  0  0  0  0  0  0
    1.3830    2.1924    0.4474 H   0  0  0  0  0  0  0  0  0  0  0  0
    1.4564    2.1313   -1.3263 H   0  0  0  0  0  0  0  0  0  0  0  0
   -0.0405    2.5989   -0.5324 H   0  0  0  0  0  0  0  0  0  0  0  0
    1.7860   -0.6783   -2.5282 H   0  0  0  0  0  0  0  0  0  0  0  0
    3.2287   -1.2002   -1.6363 H   0  0  0  0  0  0  0  0  0  0  0  0
    2.9038    0.5261   -1.8459 H   0  0  0  0  0  0  0  0  0  0  0  0
   -2.8099    0.9632    0.0343 N   0  0  0  0  0  0  0  0  0  0  0  0
   -4.0578    1.7353    0.1242 C   0  0  2  0  0  0  0  0  0  0  0  0
   -4.9471    1.2649    1.3011 C   0  0  0  0  0  0  0  0  0  0  0  0
   -6.0563    0.7774    1.1165 O   0  0  0  0  0  0  0  0  0  0  0  0
   -4.7587    1.6349   -1.2360 C   0  0  0  0  0  0  0  0  0  0  0  0
   -2.8171    0.0990   -0.4999 H   0  0  0  0  0  0  0  0  0  0  0  0
   -3.8236    2.7907    0.2997 H   0  0  0  0  0  0  0  0  0  0  0  0
   -5.0177    0.5952   -1.4610 H   0  0  0  0  0  0  0  0  0  0  0  0
   -5.6790    2.2277   -1.2329 H   0  0  0  0  0  0  0  0  0  0  0  0
   -4.1072    2.0140   -2.0293 H   0  0  0  0  0  0  0  0  0  0  0  0
   -4.4610    1.3656    2.5896 N   0  0  0  0  0  0  0  0  0  0  0  0
   -5.1543    0.8590    3.7656 C   0  0  0  0  0  0  0  0  0  0  0  0
   -3.4978    1.6999    2.6821 H   0  0  0  0  0  0  0  0  0  0  0  0
   -6.1413    1.3240    3.8590 H   0  0  0  0  0  0  0  0  0  0  0  0
   -5.2791   -0.2267    3.6985 H   0  0  0  0  0  0  0  0  0  0  0  0
   -4.5787    1.0871    4.6679 H   0  0  0  0  0  0  0  0  0  0  0  0
  1  2  2  0  0  0  0
  1  3  1  0  0  0  0
  1  7  1  0  0  0  0
  3  4  1  0  0  0  0
  3  5  1  0  0  0  0
  3  6  1  0  0  0  0
  7  8  1  0  0  0  0
  7 12  1  0  0  0  0
  8  9  1  0  0  0  0
  8 11  1  0  0  0  0
  8 13  1  0  0  0  0
  9 10  2  0  0  0  0
  9 17  1  0  0  0  0
 11 14  1  0  0  0  0
 11 15  1  0  0  0  0
 11 16  1  0  0  0  0
 17 18  1  0  0  0  0
 17 25  1  0  0  0  0
 18 19  1  0  0  0  0
 18 21  1  0  0  0  0
 18 26  1  0  0  0  0
 19 20  2  0  0  0  0
 19 36  1  0  0  0  0
 21 22  1  0  0  0  0
 21 23  1  0  0  0  0
 21 27  1  0  0  0  0
 22 24  1  0  0  0  0
 22 28  1  0  0  0  0
 22 29  1  0  0  0  0
 23 30  1  0  0  0  0
 23 31  1  0  0  0  0
 23 32  1  0  0  0  0
 24 33  1  0  0  0  0
 24 34  1  0  0  0  0
 24 35  1  0  0  0  0
 36 37  1  0  0  0  0
 36 41  1  0  0  0  0
 37 38  1  0  0  0  0
 37 40  1  0  0  0  0
 37 42  1  0  0  0  0
 38 39  2  0  0  0  0
 38 46  1  0  0  0  0
 40 43  1  0  0  0  0
 40 44  1  0  0  0  0
 40 45  1  0  0  0  0
 46 47  1  0  0  0  0
 46 48  1  0  0  0  0
 47 49  1  0  0  0  0
 47 50  1  0  0  0  0
 47 51  1  0  0  0  0
M  END
$$$$

  -OEChem-05262216503D

 51 50  0     1  0  0  0  0  0999 V2000
   -0.3216   -4.0286   -0.6004 C   0  0  0  0  0  0  0  0  0  0  0  0
   -1.0872   -3.2161   -1.0992 O   0  0  0  0  0  0  0  0  0  0  0  0
    0.6102   -4.8365   -1.4832 C   0  0  0  0  0  0  0  0  0  0  0  0
    0.4126   -4.6209   -2.5372 H   0  0  0  0  0  0  0  0  0  0  0  0
    1.6496   -4.5821   -1.2613 H   0  0  0  0  0  0  0  0  0  0  0  0
    0.4580   -5.9046   -1.3088 H   0  0  0  0  0  0  0  0  0  0  0  0
   -0.2554   -4.1563    0.7727 N   0  0  0  0  0  0  0  0  0  0  0  0
   -1.0954   -3.4040    1.7198 C   0  0  2  0  0  0  0  0  0  0  0  0
   -0.6450   -1.9314    1.8693 C   0  0  0  0  0  0  0  0  0  0  0  0
   -0.1885   -1.4918    2.9166 O   0  0  0  0  0  0  0  0  0  0  0  0
   -1.0854   -4.1643    3.0513 C   0  0  0  0  0  0  0  0  0  0  0  0
    0.4502   -4.7833    1.1488 H   0  0  0  0  0  0  0  0  0  0  0  0
   -2.1294   -3.3856    1.3566 H   0  0  0  0  0  0  0  0  0  0  0  0
   -0.0724   -4.2080    3.4642 H   0  0  0  0  0  0  0  0  0  0  0  0
   -1.7334   -3.6620    3.7771 H   0  0  0  0  0  0  0  0  0  0  0  0
   -1.4524   -5.1855    2.9112 H   0  0  0  0  0  0  0  0  0  0  0  0
   -0.7474   -1.1067    0.7679 N   0  0  0  0  0  0  0  0  0  0  0  0
   -0.2978    0.2948    0.7031 C   0  0  2  0  0  0  0  0  0  0  0  0
   -1.5330    1.2202    0.7631 C   0  0  0  0  0  0  0  0  0  0  0  0
   -1.4807    2.3039    1.3316 O   0  0  0  0  0  0  0  0  0  0  0  0
    0.5317    0.4767   -0.5975 C   0  0  2  0  0  0  0  0  0  0  0  0
    1.8013   -0.4128   -0.5540 C   0  0  0  0  0  0  0  0  0  0  0  0
    0.9300    1.9529   -0.7962 C   0  0  0  0  0  0  0  0  0  0  0  0
    2.5267   -0.4931   -1.9007 C   0  0  0  0  0  0  0  0  0  0  0  0
   -0.9959   -1.5848   -0.1029 H   0  0  0  0  0  0  0  0  0  0  0  0
    0.3374    0.5406    1.5616 H   0  0  0  0  0  0  0  0  0  0  0  0
   -0.0867    0.1688   -1.4478 H   0  0  0  0  0  0  0  0  0  0  0  0
    2.4899   -0.0354    0.2092 H   0  0  0  0  0  0  0  0  0  0  0  0
    1.5332   -1.4347   -0.2718 H   0  0  0  0  0  0  0  0  0  0  0  0
    1.5153    2.3101    0.0572 H   0  0  0  0  0  0  0  0  0  0  0  0
    1.5236    2.0836   -1.7040 H   0  0  0  0  0  0  0  0  0  0  0  0
    0.0450    2.5872   -0.8993 H   0  0  0  0  0  0  0  0  0  0  0  0
    1.8353   -0.8049   -2.6899 H   0  0  0  0  0  0  0  0  0  0  0  0
    3.3372   -1.2259   -1.8416 H   0  0  0  0  0  0  0  0  0  0  0  0
    2.9638    0.4707   -2.1745 H   0  0  0  0  0  0  0  0  0  0  0  0
   -2.7387    0.7753    0.2505 N   0  0  0  0  0  0  0  0  0  0  0  0
   -4.0276    1.2541    0.7611 C   0  0  2  0  0  0  0  0  0  0  0  0
   -4.5739    0.2816    1.8276 C   0  0  0  0  0  0  0  0  0  0  0  0
   -4.4025   -0.9275    1.6986 O   0  0  0  0  0  0  0  0  0  0  0  0
   -4.9945    1.3626   -0.4195 C   0  0  0  0  0  0  0  0  0  0  0  0
   -2.7208   -0.2094   -0.0074 H   0  0  0  0  0  0  0  0  0  0  0  0
   -3.9247    2.2448    1.2156 H   0  0  0  0  0  0  0  0  0  0  0  0
   -5.1329    0.3855   -0.8939 H   0  0  0  0  0  0  0  0  0  0  0  0
   -5.9696    1.7263   -0.0814 H   0  0  0  0  0  0  0  0  0  0  0  0
   -4.6036    2.0606   -1.1664 H   0  0  0  0  0  0  0  0  0  0  0  0
   -5.2642    0.7588    2.9263 N   0  0  0  0  0  0  0  0  0  0  0  0
   -5.7044   -0.1004    4.0189 C   0  0  0  0  0  0  0  0  0  0  0  0
   -5.2779    1.7657    3.0624 H   0  0  0  0  0  0  0  0  0  0  0  0
   -6.3634   -0.8910    3.6444 H   0  0  0  0  0  0  0  0  0  0  0  0
   -4.8432   -0.5635    4.5124 H   0  0  0  0  0  0  0  0  0  0  0  0
   -6.2570    0.4836    4.7613 H   0  0  0  0  0  0  0  0  0  0  0  0
  1  2  2  0  0  0  0
  1  3  1  0  0  0  0
  1  7  1  0  0  0  0
  3  4  1  0  0  0  0
  3  5  1  0  0  0  0
  3  6  1  0  0  0  0
  7  8  1  0  0  0  0
  7 12  1  0  0  0  0
  8  9  1  0  0  0  0
  8 11  1  0  0  0  0
  8 13  1  0  0  0  0
  9 10  2  0  0  0  0
  9 17  1  0  0  0  0
 11 14  1  0  0  0  0
 11 15  1  0  0  0  0
 11 16  1  0  0  0  0
 17 18  1  0  0  0  0
 17 25  1  0  0  0  0
 18 19  1  0  0  0  0
 18 21  1  0  0  0  0
 18 26  1  0  0  0  0
 19 20  2  0  0  0  0
 19 36  1  0  0  0  0
 21 22  1  0  0  0  0
 21 23  1  0  0  0  0
 21 27  1  0  0  0  0
 22 24  1  0  0  0  0
 22 28  1  0  0  0  0
 22 29  1  0  0  0  0
 23 30  1  0  0  0  0
 23 31  1  0  0  0  0
 23 32  1  0  0  0  0
 24 33  1  0  0  0  0
 24 34  1  0  0  0  0
 24 35  1  0  0  0  0
 36 37  1  0  0  0  0
 36 41  1  0  0  0  0
 37 38  1  0  0  0  0
 37 40  1  0  0  0  0
 37 42  1  0  0  0  0
 38 39  2  0  0  0  0
 38 46  1  0  0  0  0
 40 43  1  0  0  0  0
 40 44  1  0  0  0  0
 40 45  1  0  0  0  0
 46 47  1  0  0  0  0
 46 48  1  0  0  0  0
 47 49  1  0  0  0  0
 47 50  1  0  0  0  0
 47 51  1  0  0  0  0
M  END
$$$$

  -OEChem-05262216503D

 51 50  0     1  0  0  0  0  0999 V2000
   -0.0219   -4.1599   -0.5684 C   0  0  0  0  0  0  0  0  0  0  0  0
   -0.8987   -3.4341   -1.0142 O   0  0  0  0  0  0  0  0  0  0  0  0
    0.9384   -4.8613   -1.5094 C   0  0  0  0  0  0  0  0  0  0  0  0
    0.6865   -4.6287   -2.5481 H   0  0  0  0  0  0  0  0  0  0  0  0
    1.9614   -4.5307   -1.3136 H   0  0  0  0  0  0  0  0  0  0  0  0
    0.8778   -5.9430   -1.3670 H   0  0  0  0  0  0  0  0  0  0  0  0
    0.1392   -4.2762    0.7976 N   0  0  0  0  0  0  0  0  0  0  0  0
   -0.7080   -3.5958    1.7910 C   0  0  2  0  0  0  0  0  0  0  0  0
   -0.3815   -2.0873    1.9080 C   0  0  0  0  0  0  0  0  0  0  0  0
    0.1271   -1.6092    2.9132 O   0  0  0  0  0  0  0  0  0  0  0  0
   -0.5542   -4.3429    3.1213 C   0  0  0  0  0  0  0  0  0  0  0  0
    0.9337   -4.8159    1.1298 H   0  0  0  0  0  0  0  0  0  0  0  0
   -1.7586   -3.6733    1.4892 H   0  0  0  0  0  0  0  0  0  0  0  0
    0.4817   -4.2987    3.4725 H   0  0  0  0  0  0  0  0  0  0  0  0
   -1.1972   -3.8918    3.8842 H   0  0  0  0  0  0  0  0  0  0  0  0
   -0.8421   -5.3922    3.0053 H   0  0  0  0  0  0  0  0  0  0  0  0
   -0.6521   -1.2704    0.8280 N   0  0  0  0  0  0  0  0  0  0  0  0
   -0.2528    0.1463    0.7163 C   0  0  2  0  0  0  0  0  0  0  0  0
   -1.4852    1.0565    0.9366 C   0  0  0  0  0  0  0  0  0  0  0  0
   -1.3573    2.2317    1.2585 O   0  0  0  0  0  0  0  0  0  0  0  0
    0.4140    0.3257   -0.6799 C   0  0  2  0  0  0  0  0  0  0  0  0
    1.7000   -0.5382   -0.7750 C   0  0  0  0  0  0  0  0  0  0  0  0
    0.7575    1.8026   -0.9602 C   0  0  0  0  0  0  0  0  0  0  0  0
    2.2666   -0.6290   -2.1955 C   0  0  0  0  0  0  0  0  0  0  0  0
   -0.9251   -1.7663   -0.0261 H   0  0  0  0  0  0  0  0  0  0  0  0
    0.4791    0.4075    1.4888 H   0  0  0  0  0  0  0  0  0  0  0  0
   -0.2948   -0.0108   -1.4450 H   0  0  0  0  0  0  0  0  0  0  0  0
    2.4642   -0.1318   -0.1041 H   0  0  0  0  0  0  0  0  0  0  0  0
    1.4930   -1.5597   -0.4472 H   0  0  0  0  0  0  0  0  0  0  0  0
    1.4012    2.2029   -0.1705 H   0  0  0  0  0  0  0  0  0  0  0  0
    1.2700    1.9173   -1.9178 H   0  0  0  0  0  0  0  0  0  0  0  0
   -0.1494    2.4114   -1.0133 H   0  0  0  0  0  0  0  0  0  0  0  0
    1.4905   -0.9516   -2.8966 H   0  0  0  0  0  0  0  0  0  0  0  0
    3.0814   -1.3587   -2.2231 H   0  0  0  0  0  0  0  0  0  0  0  0
    2.6659    0.3328   -2.5277 H   0  0  0  0  0  0  0  0  0  0  0  0
   -2.7541    0.5107    0.8798 N   0  0  0  0  0  0  0  0  0  0  0  0
   -3.9392    1.1155    1.4971 C   0  0  2  0  0  0  0  0  0  0  0  0
   -4.6258    0.1150    2.4502 C   0  0  0  0  0  0  0  0  0  0  0  0
   -4.4254   -1.0902    2.3285 O   0  0  0  0  0  0  0  0  0  0  0  0
   -4.8912    1.5415    0.3783 C   0  0  0  0  0  0  0  0  0  0  0  0
   -2.7637   -0.5075    0.8260 H   0  0  0  0  0  0  0  0  0  0  0  0
   -3.6621    1.9959    2.0863 H   0  0  0  0  0  0  0  0  0  0  0  0
   -5.1949    0.6744   -0.2171 H   0  0  0  0  0  0  0  0  0  0  0  0
   -5.7877    2.0101    0.7951 H   0  0  0  0  0  0  0  0  0  0  0  0
   -4.3979    2.2623   -0.2813 H   0  0  0  0  0  0  0  0  0  0  0  0
   -5.4736    0.5651    3.4452 N   0  0  0  0  0  0  0  0  0  0  0  0
   -6.1051   -0.3205    4.4153 C   0  0  0  0  0  0  0  0  0  0  0  0
   -5.5710    1.5698    3.5592 H   0  0  0  0  0  0  0  0  0  0  0  0
   -6.7322   -1.0604    3.9072 H   0  0  0  0  0  0  0  0  0  0  0  0
   -5.3462   -0.8458    5.0045 H   0  0  0  0  0  0  0  0  0  0  0  0
   -6.7364    0.2553    5.0986 H   0  0  0  0  0  0  0  0  0  0  0  0
  1  2  2  0  0  0  0
  1  3  1  0  0  0  0
  1  7  1  0  0  0  0
  3  4  1  0  0  0  0
  3  5  1  0  0  0  0
  3  6  1  0  0  0  0
  7  8  1  0  0  0  0
  7 12  1  0  0  0  0
  8  9  1  0  0  0  0
  8 11  1  0  0  0  0
  8 13  1  0  0  0  0
  9 10  2  0  0  0  0
  9 17  1  0  0  0  0
 11 14  1  0  0  0  0
 11 15  1  0  0  0  0
 11 16  1  0  0  0  0
 17 18  1  0  0  0  0
 17 25  1  0  0  0  0
 18 19  1  0  0  0  0
 18 21  1  0  0  0  0
 18 26  1  0  0  0  0
 19 20  2  0  0  0  0
 19 36  1  0  0  0  0
 21 22  1  0  0  0  0
 21 23  1  0  0  0  0
 21 27  1  0  0  0  0
 22 24  1  0  0  0  0
 22 28  1  0  0  0  0
 22 29  1  0  0  0  0
 23 30  1  0  0  0  0
 23 31  1  0  0  0  0
 23 32  1  0  0  0  0
 24 33  1  0  0  0  0
 24 34  1  0  0  0  0
 24 35  1  0  0  0  0
 36 37  1  0  0  0  0
 36 41  1  0  0  0  0
 37 38  1  0  0  0  0
 37 40  1  0  0  0  0
 37 42  1  0  0  0  0
 38 39  2  0  0  0  0
 38 46  1  0  0  0  0
 40 43  1  0  0  0  0
 40 44  1  0  0  0  0
 40 45  1  0  0  0  0
 46 47  1  0  0  0  0
 46 48  1  0  0  0  0
 47 49  1  0  0  0  0
 47 50  1  0  0  0  0
 47 51  1  0  0  0  0
M  END
$$$$

  -OEChem-05262216503D

 51 50  0     1  0  0  0  0  0999 V2000
    0.1148   -4.2382   -0.6052 C   0  0  0  0  0  0  0  0  0  0  0  0
   -0.8505   -3.5679   -0.9413 O   0  0  0  0  0  0  0  0  0  0  0  0
    1.0132   -4.8643   -1.6542 C   0  0  0  0  0  0  0  0  0  0  0  0
    0.5948   -4.7085   -2.6527 H   0  0  0  0  0  0  0  0  0  0  0  0
    2.0058   -4.4089   -1.6134 H   0  0  0  0  0  0  0  0  0  0  0  0
    1.1044   -5.9386   -1.4756 H   0  0  0  0  0  0  0  0  0  0  0  0
    0.4309   -4.3550    0.7332 N   0  0  0  0  0  0  0  0  0  0  0  0
   -0.3489   -3.7462    1.8231 C   0  0  2  0  0  0  0  0  0  0  0  0
   -0.1117   -2.2208    1.9366 C   0  0  0  0  0  0  0  0  0  0  0  0
    0.4542   -1.7223    2.9002 O   0  0  0  0  0  0  0  0  0  0  0  0
   -0.0008   -4.4992    3.1123 C   0  0  0  0  0  0  0  0  0  0  0  0
    1.2876   -4.8482    0.9696 H   0  0  0  0  0  0  0  0  0  0  0  0
   -1.4180   -3.8920    1.6328 H   0  0  0  0  0  0  0  0  0  0  0  0
    1.0604   -4.3805    3.3537 H   0  0  0  0  0  0  0  0  0  0  0  0
   -0.5914   -4.1104    3.9483 H   0  0  0  0  0  0  0  0  0  0  0  0
   -0.2199   -5.5656    3.0026 H   0  0  0  0  0  0  0  0  0  0  0  0
   -0.5333   -1.4063    0.9039 N   0  0  0  0  0  0  0  0  0  0  0  0
   -0.1933    0.0247    0.7672 C   0  0  2  0  0  0  0  0  0  0  0  0
   -1.4206    0.8977    1.1404 C   0  0  0  0  0  0  0  0  0  0  0  0
   -1.3389    2.1158    1.2436 O   0  0  0  0  0  0  0  0  0  0  0  0
    0.3194    0.2157   -0.6955 C   0  0  2  0  0  0  0  0  0  0  0  0
    1.6136   -0.6140   -0.9220 C   0  0  0  0  0  0  0  0  0  0  0  0
    0.5961    1.6966   -1.0263 C   0  0  0  0  0  0  0  0  0  0  0  0
    2.0360   -0.7009   -2.3924 C   0  0  0  0  0  0  0  0  0  0  0  0
   -0.8734   -1.9038    0.0750 H   0  0  0  0  0  0  0  0  0  0  0  0
    0.6122    0.3027    1.4555 H   0  0  0  0  0  0  0  0  0  0  0  0
   -0.4552   -0.1461   -1.3810 H   0  0  0  0  0  0  0  0  0  0  0  0
    2.4315   -0.1827   -0.3353 H   0  0  0  0  0  0  0  0  0  0  0  0
    1.4716   -1.6390   -0.5720 H   0  0  0  0  0  0  0  0  0  0  0  0
    1.2730    2.1350   -0.2862 H   0  0  0  0  0  0  0  0  0  0  0  0
    1.0440    1.8106   -2.0153 H   0  0  0  0  0  0  0  0  0  0  0  0
   -0.3326    2.2726   -1.0383 H   0  0  0  0  0  0  0  0  0  0  0  0
    1.2001   -1.0429   -3.0106 H   0  0  0  0  0  0  0  0  0  0  0  0
    2.8581   -1.4149   -2.4983 H   0  0  0  0  0  0  0  0  0  0  0  0
    2.3817    0.2656   -2.7679 H   0  0  0  0  0  0  0  0  0  0  0  0
   -2.6025    0.2935    1.5260 N   0  0  0  0  0  0  0  0  0  0  0  0
   -3.7255    0.9731    2.1795 C   0  0  2  0  0  0  0  0  0  0  0  0
   -4.5048    0.0103    3.0998 C   0  0  0  0  0  0  0  0  0  0  0  0
   -4.3230   -1.2015    3.0289 O   0  0  0  0  0  0  0  0  0  0  0  0
   -4.6458    1.5462    1.0973 C   0  0  0  0  0  0  0  0  0  0  0  0
   -2.5720   -0.7222    1.6100 H   0  0  0  0  0  0  0  0  0  0  0  0
   -3.3466    1.7892    2.8039 H   0  0  0  0  0  0  0  0  0  0  0  0
   -5.0320    0.7440    0.4602 H   0  0  0  0  0  0  0  0  0  0  0  0
   -5.4924    2.0706    1.5501 H   0  0  0  0  0  0  0  0  0  0  0  0
   -4.0972    2.2561    0.4700 H   0  0  0  0  0  0  0  0  0  0  0  0
   -5.4147    0.5064    4.0152 N   0  0  0  0  0  0  0  0  0  0  0  0
   -6.1807   -0.3377    4.9236 C   0  0  0  0  0  0  0  0  0  0  0  0
   -5.5287    1.5146    4.0645 H   0  0  0  0  0  0  0  0  0  0  0  0
   -6.8211   -1.0244    4.3599 H   0  0  0  0  0  0  0  0  0  0  0  0
   -5.5099   -0.9235    5.5610 H   0  0  0  0  0  0  0  0  0  0  0  0
   -6.8164    0.2787    5.5665 H   0  0  0  0  0  0  0  0  0  0  0  0
  1  2  2  0  0  0  0
  1  3  1  0  0  0  0
  1  7  1  0  0  0  0
  3  4  1  0  0  0  0
  3  5  1  0  0  0  0
  3  6  1  0  0  0  0
  7  8  1  0  0  0  0
  7 12  1  0  0  0  0
  8  9  1  0  0  0  0
  8 11  1  0  0  0  0
  8 13  1  0  0  0  0
  9 10  2  0  0  0  0
  9 17  1  0  0  0  0
 11 14  1  0  0  0  0
 11 15  1  0  0  0  0
 11 16  1  0  0  0  0
 17 18  1  0  0  0  0
 17 25  1  0  0  0  0
 18 19  1  0  0  0  0
 18 21  1  0  0  0  0
 18 26  1  0  0  0  0
 19 20  2  0  0  0  0
 19 36  1  0  0  0  0
 21 22  1  0  0  0  0
 21 23  1  0  0  0  0
 21 27  1  0  0  0  0
 22 24  1  0  0  0  0
 22 28  1  0  0  0  0
 22 29  1  0  0  0  0
 23 30  1  0  0  0  0
 23 31  1  0  0  0  0
 23 32  1  0  0  0  0
 24 33  1  0  0  0  0
 24 34  1  0  0  0  0
 24 35  1  0  0  0  0
 36 37  1  0  0  0  0
 36 41  1  0  0  0  0
 37 38  1  0  0  0  0
 37 40  1  0  0  0  0
 37 42  1  0  0  0  0
 38 39  2  0  0  0  0
 38 46  1  0  0  0  0
 40 43  1  0  0  0  0
 40 44  1  0  0  0  0
 40 45  1  0  0  0  0
 46 47  1  0  0  0  0
 46 48  1  0  0  0  0
 47 49  1  0  0  0  0
 47 50  1  0  0  0  0
 47 51  1  0  0  0  0
M  END
$$$$

  -OEChem-05262216503D

 51 50  0     1  0  0  0  0  0999 V2000
    1.2484   -5.2108    0.2149 C   0  0  0  0  0  0  0  0  0  0  0  0
    1.0326   -4.9966   -0.9683 O   0  0  0  0  0  0  0  0  0  0  0  0
    2.4752   -5.9988    0.6345 C   0  0  0  0  0  0  0  0  0  0  0  0
    3.0128   -6.3591   -0.2472 H   0  0  0  0  0  0  0  0  0  0  0  0
    3.1439   -5.3621    1.2188 H   0  0  0  0  0  0  0  0  0  0  0  0
    2.1784   -6.8579    1.2411 H   0  0  0  0  0  0  0  0  0  0  0  0
    0.3901   -4.7192    1.1767 N   0  0  0  0  0  0  0  0  0  0  0  0
   -0.6642   -3.7429    0.8721 C   0  0  2  0  0  0  0  0  0  0  0  0
   -0.1672   -2.2915    1.0290 C   0  0  0  0  0  0  0  0  0  0  0  0
    0.6425   -2.0086    1.9029 O   0  0  0  0  0  0  0  0  0  0  0  0
   -1.8378   -4.0070    1.8188 C   0  0  0  0  0  0  0  0  0  0  0  0
    0.7459   -4.7268    2.1296 H   0  0  0  0  0  0  0  0  0  0  0  0
   -1.0173   -3.8761   -0.1559 H   0  0  0  0  0  0  0  0  0  0  0  0
   -1.5356   -3.8549    2.8605 H   0  0  0  0  0  0  0  0  0  0  0  0
   -2.6678   -3.3281    1.5992 H   0  0  0  0  0  0  0  0  0  0  0  0
   -2.1941   -5.0355    1.7050 H   0  0  0  0  0  0  0  0  0  0  0  0
   -0.7176   -1.2792    0.2634 N   0  0  0  0  0  0  0  0  0  0  0  0
   -0.3063    0.1410    0.3382 C   0  0  2  0  0  0  0  0  0  0  0  0
   -1.3991    0.9406    1.1041 C   0  0  0  0  0  0  0  0  0  0  0  0
   -1.3817    2.1590    1.2162 O   0  0  0  0  0  0  0  0  0  0  0  0
   -0.0143    0.6028   -1.1274 C   0  0  2  0  0  0  0  0  0  0  0  0
    1.1724   -0.2159   -1.7110 C   0  0  0  0  0  0  0  0  0  0  0  0
    0.3191    2.1077   -1.2158 C   0  0  0  0  0  0  0  0  0  0  0  0
    1.3671   -0.0319   -3.2211 C   0  0  0  0  0  0  0  0  0  0  0  0
   -1.3294   -1.5620   -0.4974 H   0  0  0  0  0  0  0  0  0  0  0  0
    0.6177    0.2518    0.9163 H   0  0  0  0  0  0  0  0  0  0  0  0
   -0.9063    0.4167   -1.7350 H   0  0  0  0  0  0  0  0  0  0  0  0
    2.0967    0.0580   -1.1911 H   0  0  0  0  0  0  0  0  0  0  0  0
    1.0133   -1.2846   -1.5427 H   0  0  0  0  0  0  0  0  0  0  0  0
    1.0857    2.3751   -0.4814 H   0  0  0  0  0  0  0  0  0  0  0  0
    0.6812    2.3845   -2.2076 H   0  0  0  0  0  0  0  0  0  0  0  0
   -0.5712    2.7152   -1.0340 H   0  0  0  0  0  0  0  0  0  0  0  0
    0.4260   -0.2018   -3.7534 H   0  0  0  0  0  0  0  0  0  0  0  0
    2.1051   -0.7520   -3.5880 H   0  0  0  0  0  0  0  0  0  0  0  0
    1.7329    0.9698   -3.4599 H   0  0  0  0  0  0  0  0  0  0  0  0
   -2.3462    0.2487    1.8362 N   0  0  0  0  0  0  0  0  0  0  0  0
   -3.2431    0.8289    2.8408 C   0  0  2  0  0  0  0  0  0  0  0  0
   -3.6514   -0.2340    3.8829 C   0  0  0  0  0  0  0  0  0  0  0  0
   -3.4781   -1.4267    3.6476 O   0  0  0  0  0  0  0  0  0  0  0  0
   -4.4814    1.3914    2.1357 C   0  0  0  0  0  0  0  0  0  0  0  0
   -2.2104   -0.7603    1.8858 H   0  0  0  0  0  0  0  0  0  0  0  0
   -2.7274    1.6362    3.3717 H   0  0  0  0  0  0  0  0  0  0  0  0
   -5.0046    0.5980    1.5925 H   0  0  0  0  0  0  0  0  0  0  0  0
   -5.1715    1.8306    2.8621 H   0  0  0  0  0  0  0  0  0  0  0  0
   -4.1922    2.1700    1.4226 H   0  0  0  0  0  0  0  0  0  0  0  0
   -4.2044    0.1449    5.0922 N   0  0  0  0  0  0  0  0  0  0  0  0
   -4.5708   -0.8032    6.1373 C   0  0  0  0  0  0  0  0  0  0  0  0
   -4.3047    1.1397    5.2730 H   0  0  0  0  0  0  0  0  0  0  0  0
   -5.3199   -1.5113    5.7675 H   0  0  0  0  0  0  0  0  0  0  0  0
   -3.6913   -1.3629    6.4726 H   0  0  0  0  0  0  0  0  0  0  0  0
   -4.9918   -0.2739    6.9975 H   0  0  0  0  0  0  0  0  0  0  0  0
  1  2  2  0  0  0  0
  1  3  1  0  0  0  0
  1  7  1  0  0  0  0
  3  4  1  0  0  0  0
  3  5  1  0  0  0  0
  3  6  1  0  0  0  0
  7  8  1  0  0  0  0
  7 12  1  0  0  0  0
  8  9  1  0  0  0  0
  8 11  1  0  0  0  0
  8 13  1  0  0  0  0
  9 10  2  0  0  0  0
  9 17  1  0  0  0  0
 11 14  1  0  0  0  0
 11 15  1  0  0  0  0
 11 16  1  0  0  0  0
 17 18  1  0  0  0  0
 17 25  1  0  0  0  0
 18 19  1  0  0  0  0
 18 21  1  0  0  0  0
 18 26  1  0  0  0  0
 19 20  2  0  0  0  0
 19 36  1  0  0  0  0
 21 22  1  0  0  0  0
 21 23  1  0  0  0  0
 21 27  1  0  0  0  0
 22 24  1  0  0  0  0
 22 28  1  0  0  0  0
 22 29  1  0  0  0  0
 23 30  1  0  0  0  0
 23 31  1  0  0  0  0
 23 32  1  0  0  0  0
 24 33  1  0  0  0  0
 24 34  1  0  0  0  0
 24 35  1  0  0  0  0
 36 37  1  0  0  0  0
 36 41  1  0  0  0  0
 37 38  1  0  0  0  0
 37 40  1  0  0  0  0
 37 42  1  0  0  0  0
 38 39  2  0  0  0  0
 38 46  1  0  0  0  0
 40 43  1  0  0  0  0
 40 44  1  0  0  0  0
 40 45  1  0  0  0  0
 46 47  1  0  0  0  0
 46 48  1  0  0  0  0
 47 49  1  0  0  0  0
 47 50  1  0  0  0  0
 47 51  1  0  0  0  0
M  END
$$$$

  -OEChem-05262216503D

 51 50  0     1  0  0  0  0  0999 V2000
    1.1744   -5.2827    0.1957 C   0  0  0  0  0  0  0  0  0  0  0  0
    0.8902   -5.1105   -0.9796 O   0  0  0  0  0  0  0  0  0  0  0  0
    2.4102   -6.0784    0.5703 C   0  0  0  0  0  0  0  0  0  0  0  0
    2.9131   -6.4409   -0.3305 H   0  0  0  0  0  0  0  0  0  0  0  0
    3.1039   -5.4465    1.1307 H   0  0  0  0  0  0  0  0  0  0  0  0
    2.1295   -6.9367    1.1856 H   0  0  0  0  0  0  0  0  0  0  0  0
    0.3918   -4.7289    1.1875 N   0  0  0  0  0  0  0  0  0  0  0  0
   -0.6369   -3.7186    0.9084 C   0  0  2  0  0  0  0  0  0  0  0  0
   -0.0710   -2.2869    0.9890 C   0  0  0  0  0  0  0  0  0  0  0  0
    0.8156   -2.0184    1.7900 O   0  0  0  0  0  0  0  0  0  0  0  0
   -1.7625   -3.8970    1.9311 C   0  0  0  0  0  0  0  0  0  0  0  0
    0.8075   -4.7113    2.1158 H   0  0  0  0  0  0  0  0  0  0  0  0
   -1.0549   -3.8680   -0.0928 H   0  0  0  0  0  0  0  0  0  0  0  0
   -1.3911   -3.7309    2.9482 H   0  0  0  0  0  0  0  0  0  0  0  0
   -2.5707   -3.1841    1.7400 H   0  0  0  0  0  0  0  0  0  0  0  0
   -2.1739   -4.9092    1.8708 H   0  0  0  0  0  0  0  0  0  0  0  0
   -0.6682   -1.2596    0.2826 N   0  0  0  0  0  0  0  0  0  0  0  0
   -0.2457    0.1566    0.3453 C   0  0  2  0  0  0  0  0  0  0  0  0
   -1.2990    0.9103    1.2087 C   0  0  0  0  0  0  0  0  0  0  0  0
   -1.5910    2.0896    1.0714 O   0  0  0  0  0  0  0  0  0  0  0  0
   -0.0323    0.6444   -1.1254 C   0  0  2  0  0  0  0  0  0  0  0  0
    1.1161   -0.1751   -1.7805 C   0  0  0  0  0  0  0  0  0  0  0  0
    0.3386    2.1431   -1.1997 C   0  0  0  0  0  0  0  0  0  0  0  0
    1.2351    0.0292   -3.2955 C   0  0  0  0  0  0  0  0  0  0  0  0
   -1.3928   -1.5161   -0.3827 H   0  0  0  0  0  0  0  0  0  0  0  0
    0.7110    0.2593    0.8689 H   0  0  0  0  0  0  0  0  0  0  0  0
   -0.9578    0.4859   -1.6892 H   0  0  0  0  0  0  0  0  0  0  0  0
    2.0684    0.0808   -1.3040 H   0  0  0  0  0  0  0  0  0  0  0  0
    0.9532   -1.2447   -1.6214 H   0  0  0  0  0  0  0  0  0  0  0  0
    1.1366    2.3761   -0.4877 H   0  0  0  0  0  0  0  0  0  0  0  0
    0.6755    2.4273   -2.1981 H   0  0  0  0  0  0  0  0  0  0  0  0
   -0.5238    2.7763   -0.9817 H   0  0  0  0  0  0  0  0  0  0  0  0
    0.2615   -0.0998   -3.7778 H   0  0  0  0  0  0  0  0  0  0  0  0
    1.9264   -0.7091   -3.7128 H   0  0  0  0  0  0  0  0  0  0  0  0
    1.6215    1.0221   -3.5382 H   0  0  0  0  0  0  0  0  0  0  0  0
   -1.9502    0.2066    2.2051 N   0  0  0  0  0  0  0  0  0  0  0  0
   -2.9275    0.7451    3.1557 C   0  0  2  0  0  0  0  0  0  0  0  0
   -3.0584   -0.1821    4.3821 C   0  0  0  0  0  0  0  0  0  0  0  0
   -2.7122   -1.3572    4.3044 O   0  0  0  0  0  0  0  0  0  0  0  0
   -4.2860    0.8835    2.4589 C   0  0  0  0  0  0  0  0  0  0  0  0
   -1.5973   -0.7321    2.3937 H   0  0  0  0  0  0  0  0  0  0  0  0
   -2.5926    1.7274    3.5045 H   0  0  0  0  0  0  0  0  0  0  0  0
   -4.6332   -0.0913    2.1016 H   0  0  0  0  0  0  0  0  0  0  0  0
   -5.0318    1.2875    3.1501 H   0  0  0  0  0  0  0  0  0  0  0  0
   -4.2101    1.5604    1.6025 H   0  0  0  0  0  0  0  0  0  0  0  0
   -3.5695    0.2963    5.5744 N   0  0  0  0  0  0  0  0  0  0  0  0
   -3.6917   -0.5200    6.7762 C   0  0  0  0  0  0  0  0  0  0  0  0
   -3.8215    1.2795    5.6189 H   0  0  0  0  0  0  0  0  0  0  0  0
   -4.3535   -1.3734    6.5939 H   0  0  0  0  0  0  0  0  0  0  0  0
   -2.7104   -0.8946    7.0865 H   0  0  0  0  0  0  0  0  0  0  0  0
   -4.1099    0.0721    7.5959 H   0  0  0  0  0  0  0  0  0  0  0  0
  1  2  2  0  0  0  0
  1  3  1  0  0  0  0
  1  7  1  0  0  0  0
  3  4  1  0  0  0  0
  3  5  1  0  0  0  0
  3  6  1  0  0  0  0
  7  8  1  0  0  0  0
  7 12  1  0  0  0  0
  8  9  1  0  0  0  0
  8 11  1  0  0  0  0
  8 13  1  0  0  0  0
  9 10  2  0  0  0  0
  9 17  1  0  0  0  0
 11 14  1  0  0  0  0
 11 15  1  0  0  0  0
 11 16  1  0  0  0  0
 17 18  1  0  0  0  0
 17 25  1  0  0  0  0
 18 19  1  0  0  0  0
 18 21  1  0  0  0  0
 18 26  1  0  0  0  0
 19 20  2  0  0  0  0
 19 36  1  0  0  0  0
 21 22  1  0  0  0  0
 21 23  1  0  0  0  0
 21 27  1  0  0  0  0
 22 24  1  0  0  0  0
 22 28  1  0  0  0  0
 22 29  1  0  0  0  0
 23 30  1  0  0  0  0
 23 31  1  0  0  0  0
 23 32  1  0  0  0  0
 24 33  1  0  0  0  0
 24 34  1  0  0  0  0
 24 35  1  0  0  0  0
 36 37  1  0  0  0  0
 36 41  1  0  0  0  0
 37 38  1  0  0  0  0
 37 40  1  0  0  0  0
 37 42  1  0  0  0  0
 38 39  2  0  0  0  0
 38 46  1  0  0  0  0
 40 43  1  0  0  0  0
 40 44  1  0  0  0  0
 40 45  1  0  0  0  0
 46 47  1  0  0  0  0
 46 48  1  0  0  0  0
 47 49  1  0  0  0  0
 47 50  1  0  0  0  0
 47 51  1  0  0  0  0
M  END
$$$$

  -OEChem-05262216503D

 51 50  0     1  0  0  0  0  0999 V2000
    1.0771   -5.3317    0.2324 C   0  0  0  0  0  0  0  0  0  0  0  0
    0.7427   -5.1825   -0.9328 O   0  0  0  0  0  0  0  0  0  0  0  0
    2.2876   -6.1800    0.5736 C   0  0  0  0  0  0  0  0  0  0  0  0
    2.7655   -6.5411   -0.3414 H   0  0  0  0  0  0  0  0  0  0  0  0
    3.0119   -5.5870    1.1374 H   0  0  0  0  0  0  0  0  0  0  0  0
    1.9828   -7.0396    1.1752 H   0  0  0  0  0  0  0  0  0  0  0  0
    0.3698   -4.7123    1.2420 N   0  0  0  0  0  0  0  0  0  0  0  0
   -0.6275   -3.6661    0.9804 C   0  0  2  0  0  0  0  0  0  0  0  0
   -0.0008   -2.2581    0.9800 C   0  0  0  0  0  0  0  0  0  0  0  0
    0.9468   -2.0035    1.7134 O   0  0  0  0  0  0  0  0  0  0  0  0
   -1.7028   -3.7595    2.0667 C   0  0  0  0  0  0  0  0  0  0  0  0
    0.8287   -4.6894    2.1495 H   0  0  0  0  0  0  0  0  0  0  0  0
   -1.1038   -3.8295    0.0078 H   0  0  0  0  0  0  0  0  0  0  0  0
   -1.2693   -3.5781    3.0563 H   0  0  0  0  0  0  0  0  0  0  0  0
   -2.4873   -3.0161    1.8939 H   0  0  0  0  0  0  0  0  0  0  0  0
   -2.1610   -4.7533    2.0628 H   0  0  0  0  0  0  0  0  0  0  0  0
   -0.6191   -1.2201    0.3095 N   0  0  0  0  0  0  0  0  0  0  0  0
   -0.1575    0.1825    0.3360 C   0  0  2  0  0  0  0  0  0  0  0  0
   -1.1500    0.9270    1.2705 C   0  0  0  0  0  0  0  0  0  0  0  0
   -1.7968    1.9113    0.9386 O   0  0  0  0  0  0  0  0  0  0  0  0
   -0.0368    0.7018   -1.1301 C   0  0  2  0  0  0  0  0  0  0  0  0
    1.0367   -0.1283   -1.8868 C   0  0  0  0  0  0  0  0  0  0  0  0
    0.4044    2.1838   -1.1784 C   0  0  0  0  0  0  0  0  0  0  0  0
    1.0452    0.1202   -3.3994 C   0  0  0  0  0  0  0  0  0  0  0  0
   -1.4230   -1.4514   -0.2680 H   0  0  0  0  0  0  0  0  0  0  0  0
    0.8333    0.2669    0.7952 H   0  0  0  0  0  0  0  0  0  0  0  0
   -1.0073    0.5998   -1.6273 H   0  0  0  0  0  0  0  0  0  0  0  0
    2.0296    0.0834   -1.4764 H   0  0  0  0  0  0  0  0  0  0  0  0
    0.8503   -1.1965   -1.7442 H   0  0  0  0  0  0  0  0  0  0  0  0
    1.3517    2.3180   -0.6468 H   0  0  0  0  0  0  0  0  0  0  0  0
    0.5344    2.5224   -2.2088 H   0  0  0  0  0  0  0  0  0  0  0  0
   -0.3364    2.8476   -0.7309 H   0  0  0  0  0  0  0  0  0  0  0  0
    0.0364    0.0181   -3.8112 H   0  0  0  0  0  0  0  0  0  0  0  0
    1.6942   -0.6111   -3.8907 H   0  0  0  0  0  0  0  0  0  0  0  0
    1.4248    1.1171   -3.6372 H   0  0  0  0  0  0  0  0  0  0  0  0
   -1.4838    0.3140    2.4648 N   0  0  0  0  0  0  0  0  0  0  0  0
   -2.5509    0.7230    3.3850 C   0  0  2  0  0  0  0  0  0  0  0  0
   -2.3934    0.0290    4.7531 C   0  0  0  0  0  0  0  0  0  0  0  0
   -1.8387   -1.0624    4.8270 O   0  0  0  0  0  0  0  0  0  0  0  0
   -3.9134    0.3518    2.7851 C   0  0  0  0  0  0  0  0  0  0  0  0
   -0.9378   -0.5119    2.7196 H   0  0  0  0  0  0  0  0  0  0  0  0
   -2.5001    1.8056    3.5400 H   0  0  0  0  0  0  0  0  0  0  0  0
   -3.9697   -0.7268    2.6068 H   0  0  0  0  0  0  0  0  0  0  0  0
   -4.7214    0.6344    3.4668 H   0  0  0  0  0  0  0  0  0  0  0  0
   -4.0715    0.8703    1.8347 H   0  0  0  0  0  0  0  0  0  0  0  0
   -2.9029    0.6103    5.8995 N   0  0  0  0  0  0  0  0  0  0  0  0
   -2.7921    0.0025    7.2203 C   0  0  0  0  0  0  0  0  0  0  0  0
   -3.3458    1.5202    5.8104 H   0  0  0  0  0  0  0  0  0  0  0  0
   -3.2906   -0.9724    7.2369 H   0  0  0  0  0  0  0  0  0  0  0  0
   -1.7401   -0.1357    7.4915 H   0  0  0  0  0  0  0  0  0  0  0  0
   -3.2618    0.6431    7.9729 H   0  0  0  0  0  0  0  0  0  0  0  0
  1  2  2  0  0  0  0
  1  3  1  0  0  0  0
  1  7  1  0  0  0  0
  3  4  1  0  0  0  0
  3  5  1  0  0  0  0
  3  6  1  0  0  0  0
  7  8  1  0  0  0  0
  7 12  1  0  0  0  0
  8  9  1  0  0  0  0
  8 11  1  0  0  0  0
  8 13  1  0  0  0  0
  9 10  2  0  0  0  0
  9 17  1  0  0  0  0
 11 14  1  0  0  0  0
 11 15  1  0  0  0  0
 11 16  1  0  0  0  0
 17 18  1  0  0  0  0
 17 25  1  0  0  0  0
 18 19  1  0  0  0  0
 18 21  1  0  0  0  0
 18 26  1  0  0  0  0
 19 20  2  0  0  0  0
 19 36  1  0  0  0  0
 21 22  1  0  0  0  0
 21 23  1  0  0  0  0
 21 27  1  0  0  0  0
 22 24  1  0  0  0  0
 22 28  1  0  0  0  0
 22 29  1  0  0  0  0
 23 30  1  0  0  0  0
 23 31  1  0  0  0  0
 23 32  1  0  0  0  0
 24 33  1  0  0  0  0
 24 34  1  0  0  0  0
 24 35  1  0  0  0  0
 36 37  1  0  0  0  0
 36 41  1  0  0  0  0
 37 38  1  0  0  0  0
 37 40  1  0  0  0  0
 37 42  1  0  0  0  0
 38 39  2  0  0  0  0
 38 46  1  0  0  0  0
 40 43  1  0  0  0  0
 40 44  1  0  0  0  0
 40 45  1  0  0  0  0
 46 47  1  0  0  0  0
 46 48  1  0  0  0  0
 47 49  1  0  0  0  0
 47 50  1  0  0  0  0
 47 51  1  0  0  0  0
M  END
$$$$

  -OEChem-05262216503D

 51 50  0     1  0  0  0  0  0999 V2000
    0.9866   -5.5927    0.2145 C   0  0  0  0  0  0  0  0  0  0  0  0
    0.4767   -5.6552   -0.8932 O   0  0  0  0  0  0  0  0  0  0  0  0
    2.2039   -6.4386    0.5380 C   0  0  0  0  0  0  0  0  0  0  0  0
    2.4707   -7.0601   -0.3214 H   0  0  0  0  0  0  0  0  0  0  0  0
    3.0516   -5.7936    0.7827 H   0  0  0  0  0  0  0  0  0  0  0  0
    1.9910   -7.0889    1.3902 H   0  0  0  0  0  0  0  0  0  0  0  0
    0.4709   -4.7465    1.1741 N   0  0  0  0  0  0  0  0  0  0  0  0
   -0.5411   -3.7179    0.8952 C   0  0  2  0  0  0  0  0  0  0  0  0
    0.0600   -2.2988    0.9270 C   0  0  0  0  0  0  0  0  0  0  0  0
    1.0295   -2.0561    1.6361 O   0  0  0  0  0  0  0  0  0  0  0  0
   -1.6378   -3.8505    1.9546 C   0  0  0  0  0  0  0  0  0  0  0  0
    1.0606   -4.5914    1.9895 H   0  0  0  0  0  0  0  0  0  0  0  0
   -0.9896   -3.8711   -0.0920 H   0  0  0  0  0  0  0  0  0  0  0  0
   -1.2290   -3.6757    2.9557 H   0  0  0  0  0  0  0  0  0  0  0  0
   -2.4353   -3.1233    1.7738 H   0  0  0  0  0  0  0  0  0  0  0  0
   -2.0718   -4.8549    1.9250 H   0  0  0  0  0  0  0  0  0  0  0  0
   -0.5754   -1.2539    0.2841 N   0  0  0  0  0  0  0  0  0  0  0  0
   -0.1336    0.1516    0.3413 C   0  0  2  0  0  0  0  0  0  0  0  0
   -1.1264    0.8616    1.2932 C   0  0  0  0  0  0  0  0  0  0  0  0
   -1.9874    1.6383    0.8976 O   0  0  0  0  0  0  0  0  0  0  0  0
   -0.0443    0.7328   -1.1002 C   0  0  2  0  0  0  0  0  0  0  0  0
    1.0245   -0.0420   -1.9149 C   0  0  0  0  0  0  0  0  0  0  0  0
    0.3600    2.2247   -1.0759 C   0  0  0  0  0  0  0  0  0  0  0  0
    0.9926    0.2818   -3.4122 C   0  0  0  0  0  0  0  0  0  0  0  0
   -1.4073   -1.4735   -0.2574 H   0  0  0  0  0  0  0  0  0  0  0  0
    0.8613    0.2380    0.7910 H   0  0  0  0  0  0  0  0  0  0  0  0
   -1.0226    0.6343   -1.5836 H   0  0  0  0  0  0  0  0  0  0  0  0
    2.0229    0.1669   -1.5162 H   0  0  0  0  0  0  0  0  0  0  0  0
    0.8565   -1.1182   -1.8169 H   0  0  0  0  0  0  0  0  0  0  0  0
    1.3476    2.3469   -0.6202 H   0  0  0  0  0  0  0  0  0  0  0  0
    0.3911    2.6364   -2.0876 H   0  0  0  0  0  0  0  0  0  0  0  0
   -0.3520    2.8308   -0.5126 H   0  0  0  0  0  0  0  0  0  0  0  0
   -0.0177    0.1499   -3.8114 H   0  0  0  0  0  0  0  0  0  0  0  0
    1.6676   -0.3903   -3.9506 H   0  0  0  0  0  0  0  0  0  0  0  0
    1.3167    1.3078   -3.6041 H   0  0  0  0  0  0  0  0  0  0  0  0
   -1.2137    0.4028    2.5944 N   0  0  0  0  0  0  0  0  0  0  0  0
   -2.2200    0.8188    3.5787 C   0  0  2  0  0  0  0  0  0  0  0  0
   -1.7453    0.5588    5.0226 C   0  0  0  0  0  0  0  0  0  0  0  0
   -0.8940   -0.2935    5.2480 O   0  0  0  0  0  0  0  0  0  0  0  0
   -3.5179    0.0468    3.3149 C   0  0  0  0  0  0  0  0  0  0  0  0
   -0.5138   -0.2802    2.8942 H   0  0  0  0  0  0  0  0  0  0  0  0
   -2.4061    1.8930    3.4746 H   0  0  0  0  0  0  0  0  0  0  0  0
   -3.3464   -1.0303    3.4093 H   0  0  0  0  0  0  0  0  0  0  0  0
   -4.2906    0.3412    4.0314 H   0  0  0  0  0  0  0  0  0  0  0  0
   -3.8893    0.2533    2.3064 H   0  0  0  0  0  0  0  0  0  0  0  0
   -2.2952    1.2622    6.0784 N   0  0  0  0  0  0  0  0  0  0  0  0
   -1.9056    1.0518    7.4674 C   0  0  0  0  0  0  0  0  0  0  0  0
   -2.9920    1.9692    5.8631 H   0  0  0  0  0  0  0  0  0  0  0  0
   -2.1195    0.0221    7.7732 H   0  0  0  0  0  0  0  0  0  0  0  0
   -0.8353    1.2434    7.5989 H   0  0  0  0  0  0  0  0  0  0  0  0
   -2.4609    1.7297    8.1227 H   0  0  0  0  0  0  0  0  0  0  0  0
  1  2  2  0  0  0  0
  1  3  1  0  0  0  0
  1  7  1  0  0  0  0
  3  4  1  0  0  0  0
  3  5  1  0  0  0  0
  3  6  1  0  0  0  0
  7  8  1  0  0  0  0
  7 12  1  0  0  0  0
  8  9  1  0  0  0  0
  8 11  1  0  0  0  0
  8 13  1  0  0  0  0
  9 10  2  0  0  0  0
  9 17  1  0  0  0  0
 11 14  1  0  0  0  0
 11 15  1  0  0  0  0
 11 16  1  0  0  0  0
 17 18  1  0  0  0  0
 17 25  1  0  0  0  0
 18 19  1  0  0  0  0
 18 21  1  0  0  0  0
 18 26  1  0  0  0  0
 19 20  2  0  0  0  0
 19 36  1  0  0  0  0
 21 22  1  0  0  0  0
 21 23  1  0  0  0  0
 21 27  1  0  0  0  0
 22 24  1  0  0  0  0
 22 28  1  0  0  0  0
 22 29  1  0  0  0  0
 23 30  1  0  0  0  0
 23 31  1  0  0  0  0
 23 32  1  0  0  0  0
 24 33  1  0  0  0  0
 24 34  1  0  0  0  0
 24 35  1  0  0  0  0
 36 37  1  0  0  0  0
 36 41  1  0  0  0  0
 37 38  1  0  0  0  0
 37 40  1  0  0  0  0
 37 42  1  0  0  0  0
 38 39  2  0  0  0  0
 38 46  1  0  0  0  0
 40 43  1  0  0  0  0
 40 44  1  0  0  0  0
 40 45  1  0  0  0  0
 46 47  1  0  0  0  0
 46 48  1  0  0  0  0
 47 49  1  0  0  0  0
 47 50  1  0  0  0  0
 47 51  1  0  0  0  0
M  END
$$$$

  -OEChem-05262216503D

 51 50  0     1  0  0  0  0  0999 V2000
    1.0135   -5.6241    0.1713 C   0  0  0  0  0  0  0  0  0  0  0  0
    0.5424   -5.6691   -0.9541 O   0  0  0  0  0  0  0  0  0  0  0  0
    2.2366   -6.4538    0.5146 C   0  0  0  0  0  0  0  0  0  0  0  0
    2.5267   -7.0707   -0.3406 H   0  0  0  0  0  0  0  0  0  0  0  0
    3.0711   -5.7978    0.7749 H   0  0  0  0  0  0  0  0  0  0  0  0
    2.0178   -7.1082    1.3619 H   0  0  0  0  0  0  0  0  0  0  0  0
    0.4497   -4.8121    1.1338 N   0  0  0  0  0  0  0  0  0  0  0  0
   -0.5543   -3.7798    0.8378 C   0  0  2  0  0  0  0  0  0  0  0  0
    0.0472   -2.3627    0.9156 C   0  0  0  0  0  0  0  0  0  0  0  0
    1.0280   -2.1456    1.6183 O   0  0  0  0  0  0  0  0  0  0  0  0
   -1.6921   -3.9275    1.8510 C   0  0  0  0  0  0  0  0  0  0  0  0
    1.0202   -4.6577    1.9627 H   0  0  0  0  0  0  0  0  0  0  0  0
   -0.9646   -3.9138   -0.1685 H   0  0  0  0  0  0  0  0  0  0  0  0
   -1.3199   -3.7816    2.8703 H   0  0  0  0  0  0  0  0  0  0  0  0
   -2.4754   -3.1877    1.6586 H   0  0  0  0  0  0  0  0  0  0  0  0
   -2.1345   -4.9260    1.7799 H   0  0  0  0  0  0  0  0  0  0  0  0
   -0.5801   -1.3010    0.2930 N   0  0  0  0  0  0  0  0  0  0  0  0
   -0.1115    0.0933    0.3568 C   0  0  2  0  0  0  0  0  0  0  0  0
   -1.0625    0.8281    1.3268 C   0  0  0  0  0  0  0  0  0  0  0  0
   -2.0406    1.4524    0.9315 O   0  0  0  0  0  0  0  0  0  0  0  0
   -0.0474    0.6881   -1.0783 C   0  0  2  0  0  0  0  0  0  0  0  0
    0.9866   -0.0937   -1.9294 C   0  0  0  0  0  0  0  0  0  0  0  0
    0.3586    2.1773   -1.0404 C   0  0  0  0  0  0  0  0  0  0  0  0
    0.9214    0.2497   -3.4205 C   0  0  0  0  0  0  0  0  0  0  0  0
   -1.4284   -1.4975   -0.2318 H   0  0  0  0  0  0  0  0  0  0  0  0
    0.8966    0.1545    0.7803 H   0  0  0  0  0  0  0  0  0  0  0  0
   -1.0385    0.6031   -1.5380 H   0  0  0  0  0  0  0  0  0  0  0  0
    1.9976    0.0966   -1.5543 H   0  0  0  0  0  0  0  0  0  0  0  0
    0.8049   -1.1687   -1.8394 H   0  0  0  0  0  0  0  0  0  0  0  0
    1.3619    2.2915   -0.6184 H   0  0  0  0  0  0  0  0  0  0  0  0
    0.3526    2.6073   -2.0451 H   0  0  0  0  0  0  0  0  0  0  0  0
   -0.3359    2.7678   -0.4378 H   0  0  0  0  0  0  0  0  0  0  0  0
   -0.0989    0.1301   -3.7979 H   0  0  0  0  0  0  0  0  0  0  0  0
    1.5788   -0.4205   -3.9829 H   0  0  0  0  0  0  0  0  0  0  0  0
    1.2487    1.2764   -3.6052 H   0  0  0  0  0  0  0  0  0  0  0  0
   -0.9251    0.5976    2.6821 N   0  0  0  0  0  0  0  0  0  0  0  0
   -1.8377    1.0899    3.7214 C   0  0  2  0  0  0  0  0  0  0  0  0
   -1.1552    1.1666    5.1033 C   0  0  0  0  0  0  0  0  0  0  0  0
   -0.1254    0.5392    5.3217 O   0  0  0  0  0  0  0  0  0  0  0  0
   -3.0489    0.1531    3.7876 C   0  0  0  0  0  0  0  0  0  0  0  0
   -0.1354    0.0216    2.9817 H   0  0  0  0  0  0  0  0  0  0  0  0
   -2.1715    2.0999    3.4611 H   0  0  0  0  0  0  0  0  0  0  0  0
   -2.7310   -0.8629    4.0422 H   0  0  0  0  0  0  0  0  0  0  0  0
   -3.7595    0.4968    4.5450 H   0  0  0  0  0  0  0  0  0  0  0  0
   -3.5637    0.1253    2.8225 H   0  0  0  0  0  0  0  0  0  0  0  0
   -1.7102    1.9275    6.1163 N   0  0  0  0  0  0  0  0  0  0  0  0
   -1.1355    2.0225    7.4530 C   0  0  0  0  0  0  0  0  0  0  0  0
   -2.5676    2.4322    5.9116 H   0  0  0  0  0  0  0  0  0  0  0  0
   -1.1418    1.0430    7.9426 H   0  0  0  0  0  0  0  0  0  0  0  0
   -0.1033    2.3849    7.4021 H   0  0  0  0  0  0  0  0  0  0  0  0
   -1.7152    2.7194    8.0658 H   0  0  0  0  0  0  0  0  0  0  0  0
  1  2  2  0  0  0  0
  1  3  1  0  0  0  0
  1  7  1  0  0  0  0
  3  4  1  0  0  0  0
  3  5  1  0  0  0  0
  3  6  1  0  0  0  0
  7  8  1  0  0  0  0
  7 12  1  0  0  0  0
  8  9  1  0  0  0  0
  8 11  1  0  0  0  0
  8 13  1  0  0  0  0
  9 10  2  0  0  0  0
  9 17  1  0  0  0  0
 11 14  1  0  0  0  0
 11 15  1  0  0  0  0
 11 16  1  0  0  0  0
 17 18  1  0  0  0  0
 17 25  1  0  0  0  0
 18 19  1  0  0  0  0
 18 21  1  0  0  0  0
 18 26  1  0  0  0  0
 19 20  2  0  0  0  0
 19 36  1  0  0  0  0
 21 22  1  0  0  0  0
 21 23  1  0  0  0  0
 21 27  1  0  0  0  0
 22 24  1  0  0  0  0
 22 28  1  0  0  0  0
 22 29  1  0  0  0  0
 23 30  1  0  0  0  0
 23 31  1  0  0  0  0
 23 32  1  0  0  0  0
 24 33  1  0  0  0  0
 24 34  1  0  0  0  0
 24 35  1  0  0  0  0
 36 37  1  0  0  0  0
 36 41  1  0  0  0  0
 37 38  1  0  0  0  0
 37 40  1  0  0  0  0
 37 42  1  0  0  0  0
 38 39  2  0  0  0  0
 38 46  1  0  0  0  0
 40 43  1  0  0  0  0
 40 44  1  0  0  0  0
 40 45  1  0  0  0  0
 46 47  1  0  0  0  0
 46 48  1  0  0  0  0
 47 49  1  0  0  0  0
 47 50  1  0  0  0  0
 47 51  1  0  0  0  0
M  END
$$$$

  -OEChem-05262216503D

 51 50  0     1  0  0  0  0  0999 V2000
    0.9275   -5.7968    0.1707 C   0  0  0  0  0  0  0  0  0  0  0  0
    0.3599   -5.9338   -0.9014 O   0  0  0  0  0  0  0  0  0  0  0  0
    2.1586   -6.6255    0.4871 C   0  0  0  0  0  0  0  0  0  0  0  0
    2.4086   -7.2695   -0.3609 H   0  0  0  0  0  0  0  0  0  0  0  0
    3.0077   -5.9686    0.6917 H   0  0  0  0  0  0  0  0  0  0  0  0
    1.9721   -7.2523    1.3625 H   0  0  0  0  0  0  0  0  0  0  0  0
    0.4699   -4.8789    1.0934 N   0  0  0  0  0  0  0  0  0  0  0  0
   -0.5222   -3.8383    0.7860 C   0  0  2  0  0  0  0  0  0  0  0  0
    0.0916   -2.4270    0.8769 C   0  0  0  0  0  0  0  0  0  0  0  0
    1.1033   -2.2364    1.5433 O   0  0  0  0  0  0  0  0  0  0  0  0
   -1.6757   -3.9813    1.7814 C   0  0  0  0  0  0  0  0  0  0  0  0
    1.1066   -4.6750    1.8618 H   0  0  0  0  0  0  0  0  0  0  0  0
   -0.9162   -3.9629   -0.2282 H   0  0  0  0  0  0  0  0  0  0  0  0
   -1.3185   -3.8378    2.8063 H   0  0  0  0  0  0  0  0  0  0  0  0
   -2.4529   -3.2385    1.5769 H   0  0  0  0  0  0  0  0  0  0  0  0
   -2.1212   -4.9781    1.7031 H   0  0  0  0  0  0  0  0  0  0  0  0
   -0.5388   -1.3506    0.2836 N   0  0  0  0  0  0  0  0  0  0  0  0
   -0.0765    0.0425    0.3864 C   0  0  2  0  0  0  0  0  0  0  0  0
   -1.0198    0.7646    1.3708 C   0  0  0  0  0  0  0  0  0  0  0  0
   -2.1048    1.2042    1.0060 O   0  0  0  0  0  0  0  0  0  0  0  0
   -0.0284    0.6813   -1.0283 C   0  0  2  0  0  0  0  0  0  0  0  0
    1.0007   -0.0644   -1.9152 C   0  0  0  0  0  0  0  0  0  0  0  0
    0.3533    2.1738   -0.9398 C   0  0  0  0  0  0  0  0  0  0  0  0
    0.9142    0.3302   -3.3924 C   0  0  0  0  0  0  0  0  0  0  0  0
   -1.4245   -1.5241   -0.1850 H   0  0  0  0  0  0  0  0  0  0  0  0
    0.9351    0.0931    0.8031 H   0  0  0  0  0  0  0  0  0  0  0  0
   -1.0218    0.6001   -1.4831 H   0  0  0  0  0  0  0  0  0  0  0  0
    2.0147    0.1219   -1.5458 H   0  0  0  0  0  0  0  0  0  0  0  0
    0.8283   -1.1430   -1.8578 H   0  0  0  0  0  0  0  0  0  0  0  0
    1.3483    2.2912   -0.4990 H   0  0  0  0  0  0  0  0  0  0  0  0
    0.3558    2.6351   -1.9306 H   0  0  0  0  0  0  0  0  0  0  0  0
   -0.3629    2.7308   -0.3293 H   0  0  0  0  0  0  0  0  0  0  0  0
   -0.1112    0.2211   -3.7590 H   0  0  0  0  0  0  0  0  0  0  0  0
    1.5645   -0.3182   -3.9874 H   0  0  0  0  0  0  0  0  0  0  0  0
    1.2361    1.3636   -3.5455 H   0  0  0  0  0  0  0  0  0  0  0  0
   -0.7115    0.7743    2.7166 N   0  0  0  0  0  0  0  0  0  0  0  0
   -1.5487    1.3618    3.7693 C   0  0  2  0  0  0  0  0  0  0  0  0
   -0.7083    1.8443    4.9704 C   0  0  0  0  0  0  0  0  0  0  0  0
    0.4515    1.4711    5.1040 O   0  0  0  0  0  0  0  0  0  0  0  0
   -2.5658    0.3076    4.2182 C   0  0  0  0  0  0  0  0  0  0  0  0
    0.1879    0.3803    2.9975 H   0  0  0  0  0  0  0  0  0  0  0  0
   -2.0800    2.2323    3.3702 H   0  0  0  0  0  0  0  0  0  0  0  0
   -2.0517   -0.5719    4.6191 H   0  0  0  0  0  0  0  0  0  0  0  0
   -3.2220    0.7125    4.9942 H   0  0  0  0  0  0  0  0  0  0  0  0
   -3.1862   -0.0068    3.3731 H   0  0  0  0  0  0  0  0  0  0  0  0
   -1.2540    2.6988    5.9111 N   0  0  0  0  0  0  0  0  0  0  0  0
   -0.5164    3.1830    7.0719 C   0  0  0  0  0  0  0  0  0  0  0  0
   -2.2173    2.9933    5.7799 H   0  0  0  0  0  0  0  0  0  0  0  0
   -0.2233    2.3466    7.7150 H   0  0  0  0  0  0  0  0  0  0  0  0
    0.3858    3.7180    6.7570 H   0  0  0  0  0  0  0  0  0  0  0  0
   -1.1370    3.8683    7.6569 H   0  0  0  0  0  0  0  0  0  0  0  0
  1  2  2  0  0  0  0
  1  3  1  0  0  0  0
  1  7  1  0  0  0  0
  3  4  1  0  0  0  0
  3  5  1  0  0  0  0
  3  6  1  0  0  0  0
  7  8  1  0  0  0  0
  7 12  1  0  0  0  0
  8  9  1  0  0  0  0
  8 11  1  0  0  0  0
  8 13  1  0  0  0  0
  9 10  2  0  0  0  0
  9 17  1  0  0  0  0
 11 14  1  0  0  0  0
 11 15  1  0  0  0  0
 11 16  1  0  0  0  0
 17 18  1  0  0  0  0
 17 25  1  0  0  0  0
 18 19  1  0  0  0  0
 18 21  1  0  0  0  0
 18 26  1  0  0  0  0
 19 20  2  0  0  0  0
 19 36  1  0  0  0  0
 21 22  1  0  0  0  0
 21 23  1  0  0  0  0
 21 27  1  0  0  0  0
 22 24  1  0  0  0  0
 22 28  1  0  0  0  0
 22 29  1  0  0  0  0
 23 30  1  0  0  0  0
 23 31  1  0  0  0  0
 23 32  1  0  0  0  0
 24 33  1  0  0  0  0
 24 34  1  0  0  0  0
 24 35  1  0  0  0  0
 36 37  1  0  0  0  0
 36 41  1  0  0  0  0
 37 38  1  0  0  0  0
 37 40  1  0  0  0  0
 37 42  1  0  0  0  0
 38 39  2  0  0  0  0
 38 46  1  0  0  0  0
 40 43  1  0  0  0  0
 40 44  1  0  0  0  0
 40 45  1  0  0  0  0
 46 47  1  0  0  0  0
 46 48  1  0  0  0  0
 47 49  1  0  0  0  0
 47 50  1  0  0  0  0
 47 51  1  0  0  0  0
M  END
$$$$

  -OEChem-05262216503D

 51 50  0     1  0  0  0  0  0999 V2000
    0.7488   -6.0816    0.2781 C   0  0  0  0  0  0  0  0  0  0  0  0
   -0.1188   -6.4014   -0.5192 O   0  0  0  0  0  0  0  0  0  0  0  0
    1.9462   -6.9861    0.5025 C   0  0  0  0  0  0  0  0  0  0  0  0
    1.9024   -7.8441   -0.1743 H   0  0  0  0  0  0  0  0  0  0  0  0
    2.8709   -6.4356    0.3125 H   0  0  0  0  0  0  0  0  0  0  0  0
    1.9511   -7.3493    1.5333 H   0  0  0  0  0  0  0  0  0  0  0  0
    0.6469   -4.8934    0.9707 N   0  0  0  0  0  0  0  0  0  0  0  0
   -0.3704   -3.8667    0.7068 C   0  0  2  0  0  0  0  0  0  0  0  0
    0.2077   -2.4440    0.8530 C   0  0  0  0  0  0  0  0  0  0  0  0
    1.2588   -2.2638    1.4588 O   0  0  0  0  0  0  0  0  0  0  0  0
   -1.5341   -4.0815    1.6784 C   0  0  0  0  0  0  0  0  0  0  0  0
    1.4537   -4.6058    1.5237 H   0  0  0  0  0  0  0  0  0  0  0  0
   -0.7382   -3.9616   -0.3208 H   0  0  0  0  0  0  0  0  0  0  0  0
   -1.1939   -3.9773    2.7136 H   0  0  0  0  0  0  0  0  0  0  0  0
   -2.3275   -3.3505    1.4965 H   0  0  0  0  0  0  0  0  0  0  0  0
   -1.9533   -5.0843    1.5485 H   0  0  0  0  0  0  0  0  0  0  0  0
   -0.4505   -1.3633    0.2978 N   0  0  0  0  0  0  0  0  0  0  0  0
   -0.0184    0.0374    0.4299 C   0  0  2  0  0  0  0  0  0  0  0  0
   -0.9504    0.7385    1.4398 C   0  0  0  0  0  0  0  0  0  0  0  0
   -2.1187    0.9696    1.1479 O   0  0  0  0  0  0  0  0  0  0  0  0
   -0.0102    0.7134   -0.9678 C   0  0  2  0  0  0  0  0  0  0  0  0
    1.0194    0.0178   -1.8938 C   0  0  0  0  0  0  0  0  0  0  0  0
    0.3254    2.2142   -0.8471 C   0  0  0  0  0  0  0  0  0  0  0  0
    0.8973    0.4491   -3.3587 C   0  0  0  0  0  0  0  0  0  0  0  0
   -1.3703   -1.5344   -0.1019 H   0  0  0  0  0  0  0  0  0  0  0  0
    1.0002    0.0938    0.8281 H   0  0  0  0  0  0  0  0  0  0  0  0
   -1.0094    0.6153   -1.4067 H   0  0  0  0  0  0  0  0  0  0  0  0
    2.0348    0.2192   -1.5368 H   0  0  0  0  0  0  0  0  0  0  0  0
    0.8737   -1.0657   -1.8629 H   0  0  0  0  0  0  0  0  0  0  0  0
    1.3211    2.3524   -0.4140 H   0  0  0  0  0  0  0  0  0  0  0  0
    0.3019    2.6993   -1.8263 H   0  0  0  0  0  0  0  0  0  0  0  0
   -0.4025    2.7322   -0.2158 H   0  0  0  0  0  0  0  0  0  0  0  0
   -0.1312    0.3226   -3.7108 H   0  0  0  0  0  0  0  0  0  0  0  0
    1.5538   -0.1657   -3.9822 H   0  0  0  0  0  0  0  0  0  0  0  0
    1.1895    1.4945   -3.4902 H   0  0  0  0  0  0  0  0  0  0  0  0
   -0.5081    1.0206    2.7172 N   0  0  0  0  0  0  0  0  0  0  0  0
   -1.2955    1.7215    3.7395 C   0  0  2  0  0  0  0  0  0  0  0  0
   -0.4038    2.5588    4.6806 C   0  0  0  0  0  0  0  0  0  0  0  0
    0.8140    2.4178    4.6668 O   0  0  0  0  0  0  0  0  0  0  0  0
   -2.0865    0.6776    4.5336 C   0  0  0  0  0  0  0  0  0  0  0  0
    0.4760    0.8482    2.9254 H   0  0  0  0  0  0  0  0  0  0  0  0
   -1.9935    2.4130    3.2559 H   0  0  0  0  0  0  0  0  0  0  0  0
   -1.4056   -0.0180    5.0347 H   0  0  0  0  0  0  0  0  0  0  0  0
   -2.7109    1.1613    5.2906 H   0  0  0  0  0  0  0  0  0  0  0  0
   -2.7377    0.1064    3.8645 H   0  0  0  0  0  0  0  0  0  0  0  0
   -0.9678    3.4834    5.5409 N   0  0  0  0  0  0  0  0  0  0  0  0
   -0.1857    4.3058    6.4565 C   0  0  0  0  0  0  0  0  0  0  0  0
   -1.9788    3.5829    5.5297 H   0  0  0  0  0  0  0  0  0  0  0  0
    0.3493    3.6759    7.1753 H   0  0  0  0  0  0  0  0  0  0  0  0
    0.5439    4.9073    5.9036 H   0  0  0  0  0  0  0  0  0  0  0  0
   -0.8417    4.9837    7.0113 H   0  0  0  0  0  0  0  0  0  0  0  0
  1  2  2  0  0  0  0
  1  3  1  0  0  0  0
  1  7  1  0  0  0  0
  3  4  1  0  0  0  0
  3  5  1  0  0  0  0
  3  6  1  0  0  0  0
  7  8  1  0  0  0  0
  7 12  1  0  0  0  0
  8  9  1  0  0  0  0
  8 11  1  0  0  0  0
  8 13  1  0  0  0  0
  9 10  2  0  0  0  0
  9 17  1  0  0  0  0
 11 14  1  0  0  0  0
 11 15  1  0  0  0  0
 11 16  1  0  0  0  0
 17 18  1  0  0  0  0
 17 25  1  0  0  0  0
 18 19  1  0  0  0  0
 18 21  1  0  0  0  0
 18 26  1  0  0  0  0
 19 20  2  0  0  0  0
 19 36  1  0  0  0  0
 21 22  1  0  0  0  0
 21 23  1  0  0  0  0
 21 27  1  0  0  0  0
 22 24  1  0  0  0  0
 22 28  1  0  0  0  0
 22 29  1  0  0  0  0
 23 30  1  0  0  0  0
 23 31  1  0  0  0  0
 23 32  1  0  0  0  0
 24 33  1  0  0  0  0
 24 34  1  0  0  0  0
 24 35  1  0  0  0  0
 36 37  1  0  0  0  0
 36 41  1  0  0  0  0
 37 38  1  0  0  0  0
 37 40  1  0  0  0  0
 37 42  1  0  0  0  0
 38 39  2  0  0  0  0
 38 46  1  0  0  0  0
 40 43  1  0  0  0  0
 40 44  1  0  0  0  0
 40 45  1  0  0  0  0
 46 47  1  0  0  0  0
 46 48  1  0  0  0  0
 47 49  1  0  0  0  0
 47 50  1  0  0  0  0
 47 51  1  0  0  0  0
M  END
$$$$

  -OEChem-05262216503D

 51 50  0     1  0  0  0  0  0999 V2000
    0.6179   -6.1112    0.2183 C   0  0  0  0  0  0  0  0  0  0  0  0
   -0.2987   -6.3788   -0.5424 O   0  0  0  0  0  0  0  0  0  0  0  0
    1.8062   -7.0470    0.3362 C   0  0  0  0  0  0  0  0  0  0  0  0
    1.7035   -7.8778   -0.3676 H   0  0  0  0  0  0  0  0  0  0  0  0
    2.7302   -6.5086    0.1114 H   0  0  0  0  0  0  0  0  0  0  0  0
    1.8645   -7.4488    1.3507 H   0  0  0  0  0  0  0  0  0  0  0  0
    0.5841   -4.9524    0.9648 N   0  0  0  0  0  0  0  0  0  0  0  0
   -0.4077   -3.8838    0.7869 C   0  0  2  0  0  0  0  0  0  0  0  0
    0.2437   -2.4892    0.8705 C   0  0  0  0  0  0  0  0  0  0  0  0
    1.3323   -2.3482    1.4181 O   0  0  0  0  0  0  0  0  0  0  0  0
   -1.4812   -4.0393    1.8665 C   0  0  0  0  0  0  0  0  0  0  0  0
    1.4323   -4.7057    1.4732 H   0  0  0  0  0  0  0  0  0  0  0  0
   -0.8754   -3.9650   -0.2004 H   0  0  0  0  0  0  0  0  0  0  0  0
   -1.0371   -3.9502    2.8632 H   0  0  0  0  0  0  0  0  0  0  0  0
   -2.2507   -3.2688    1.7580 H   0  0  0  0  0  0  0  0  0  0  0  0
   -1.9604   -5.0200    1.7838 H   0  0  0  0  0  0  0  0  0  0  0  0
   -0.3957   -1.3923    0.3266 N   0  0  0  0  0  0  0  0  0  0  0  0
    0.0618   -0.0018    0.4774 C   0  0  2  0  0  0  0  0  0  0  0  0
   -0.8565    0.7086    1.4929 C   0  0  0  0  0  0  0  0  0  0  0  0
   -2.0668    0.7505    1.2983 O   0  0  0  0  0  0  0  0  0  0  0  0
    0.0709    0.6962   -0.9080 C   0  0  2  0  0  0  0  0  0  0  0  0
    1.0812   -0.0030   -1.8520 C   0  0  0  0  0  0  0  0  0  0  0  0
    0.4286    2.1899   -0.7636 C   0  0  0  0  0  0  0  0  0  0  0  0
    0.9554    0.4537   -3.3083 C   0  0  0  0  0  0  0  0  0  0  0  0
   -1.3540   -1.5300    0.0126 H   0  0  0  0  0  0  0  0  0  0  0  0
    1.0820    0.0288    0.8743 H   0  0  0  0  0  0  0  0  0  0  0  0
   -0.9331    0.6195   -1.3404 H   0  0  0  0  0  0  0  0  0  0  0  0
    2.1026    0.1752   -1.4998 H   0  0  0  0  0  0  0  0  0  0  0  0
    0.9167   -1.0844   -1.8369 H   0  0  0  0  0  0  0  0  0  0  0  0
    1.4222    2.3063   -0.3194 H   0  0  0  0  0  0  0  0  0  0  0  0
    0.4221    2.6896   -1.7354 H   0  0  0  0  0  0  0  0  0  0  0  0
   -0.2975    2.7098   -0.1319 H   0  0  0  0  0  0  0  0  0  0  0  0
   -0.0761    0.3433   -3.6570 H   0  0  0  0  0  0  0  0  0  0  0  0
    1.6025   -0.1571   -3.9451 H   0  0  0  0  0  0  0  0  0  0  0  0
    1.2575    1.4979   -3.4231 H   0  0  0  0  0  0  0  0  0  0  0  0
   -0.3410    1.2470    2.6552 N   0  0  0  0  0  0  0  0  0  0  0  0
   -1.1138    2.0463    3.6137 C   0  0  2  0  0  0  0  0  0  0  0  0
   -0.2613    3.1741    4.2316 C   0  0  0  0  0  0  0  0  0  0  0  0
    0.9547    3.1859    4.0733 O   0  0  0  0  0  0  0  0  0  0  0  0
   -1.6440    1.1050    4.6983 C   0  0  0  0  0  0  0  0  0  0  0  0
    0.6741    1.2658    2.7550 H   0  0  0  0  0  0  0  0  0  0  0  0
   -1.9589    2.5227    3.1054 H   0  0  0  0  0  0  0  0  0  0  0  0
   -0.8142    0.6245    5.2264 H   0  0  0  0  0  0  0  0  0  0  0  0
   -2.2488    1.6558    5.4245 H   0  0  0  0  0  0  0  0  0  0  0  0
   -2.2687    0.3263    4.2492 H   0  0  0  0  0  0  0  0  0  0  0  0
   -0.8607    4.1923    4.9502 N   0  0  0  0  0  0  0  0  0  0  0  0
   -0.1178    5.2969    5.5450 C   0  0  0  0  0  0  0  0  0  0  0  0
   -1.8705    4.1633    5.0574 H   0  0  0  0  0  0  0  0  0  0  0  0
    0.6035    4.9220    6.2788 H   0  0  0  0  0  0  0  0  0  0  0  0
    0.4221    5.8551    4.7728 H   0  0  0  0  0  0  0  0  0  0  0  0
   -0.8015    5.9840    6.0530 H   0  0  0  0  0  0  0  0  0  0  0  0
  1  2  2  0  0  0  0
  1  3  1  0  0  0  0
  1  7  1  0  0  0  0
  3  4  1  0  0  0  0
  3  5  1  0  0  0  0
  3  6  1  0  0  0  0
  7  8  1  0  0  0  0
  7 12  1  0  0  0  0
  8  9  1  0  0  0  0
  8 11  1  0  0  0  0
  8 13  1  0  0  0  0
  9 10  2  0  0  0  0
  9 17  1  0  0  0  0
 11 14  1  0  0  0  0
 11 15  1  0  0  0  0
 11 16  1  0  0  0  0
 17 18  1  0  0  0  0
 17 25  1  0  0  0  0
 18 19  1  0  0  0  0
 18 21  1  0  0  0  0
 18 26  1  0  0  0  0
 19 20  2  0  0  0  0
 19 36  1  0  0  0  0
 21 22  1  0  0  0  0
 21 23  1  0  0  0  0
 21 27  1  0  0  0  0
 22 24  1  0  0  0  0
 22 28  1  0  0  0  0
 22 29  1  0  0  0  0
 23 30  1  0  0  0  0
 23 31  1  0  0  0  0
 23 32  1  0  0  0  0
 24 33  1  0  0  0  0
 24 34  1  0  0  0  0
 24 35  1  0  0  0  0
 36 37  1  0  0  0  0
 36 41  1  0  0  0  0
 37 38  1  0  0  0  0
 37 40  1  0  0  0  0
 37 42  1  0  0  0  0
 38 39  2  0  0  0  0
 38 46  1  0  0  0  0
 40 43  1  0  0  0  0
 40 44  1  0  0  0  0
 40 45  1  0  0  0  0
 46 47  1  0  0  0  0
 46 48  1  0  0  0  0
 47 49  1  0  0  0  0
 47 50  1  0  0  0  0
 47 51  1  0  0  0  0
M  END
$$$$

  -OEChem-05262216503D

 51 50  0     1  0  0  0  0  0999 V2000
    0.4794   -6.1768    0.3041 C   0  0  0  0  0  0  0  0  0  0  0  0
   -0.5185   -6.4520   -0.3434 O   0  0  0  0  0  0  0  0  0  0  0  0
    1.6315   -7.1613    0.3800 C   0  0  0  0  0  0  0  0  0  0  0  0
    1.4007   -8.0565   -0.2044 H   0  0  0  0  0  0  0  0  0  0  0  0
    2.5395   -6.7042   -0.0209 H   0  0  0  0  0  0  0  0  0  0  0  0
    1.8059   -7.4532    1.4185 H   0  0  0  0  0  0  0  0  0  0  0  0
    0.5699   -4.9638    0.9539 N   0  0  0  0  0  0  0  0  0  0  0  0
   -0.3966   -3.8687    0.7997 C   0  0  2  0  0  0  0  0  0  0  0  0
    0.2977   -2.4922    0.8401 C   0  0  0  0  0  0  0  0  0  0  0  0
    1.4222   -2.3834    1.3185 O   0  0  0  0  0  0  0  0  0  0  0  0
   -1.4390   -3.9800    1.9158 C   0  0  0  0  0  0  0  0  0  0  0  0
    1.4672   -4.7243    1.3746 H   0  0  0  0  0  0  0  0  0  0  0  0
   -0.8993   -3.9503   -0.1700 H   0  0  0  0  0  0  0  0  0  0  0  0
   -0.9594   -3.9035    2.8969 H   0  0  0  0  0  0  0  0  0  0  0  0
   -2.1832   -3.1822    1.8283 H   0  0  0  0  0  0  0  0  0  0  0  0
   -1.9566   -4.9428    1.8541 H   0  0  0  0  0  0  0  0  0  0  0  0
   -0.3384   -1.3799    0.3237 N   0  0  0  0  0  0  0  0  0  0  0  0
    0.1366    0.0029    0.5007 C   0  0  2  0  0  0  0  0  0  0  0  0
   -0.7623    0.7056    1.5394 C   0  0  0  0  0  0  0  0  0  0  0  0
   -1.9801    0.5655    1.4885 O   0  0  0  0  0  0  0  0  0  0  0  0
    0.1391    0.7299   -0.8704 C   0  0  2  0  0  0  0  0  0  0  0  0
    1.1329    0.0384   -1.8379 C   0  0  0  0  0  0  0  0  0  0  0  0
    0.5098    2.2191   -0.7086 C   0  0  0  0  0  0  0  0  0  0  0  0
    1.0005    0.5239   -3.2846 C   0  0  0  0  0  0  0  0  0  0  0  0
   -1.3260   -1.4918    0.1027 H   0  0  0  0  0  0  0  0  0  0  0  0
    1.1603    0.0126    0.8896 H   0  0  0  0  0  0  0  0  0  0  0  0
   -0.8696    0.6693   -1.2936 H   0  0  0  0  0  0  0  0  0  0  0  0
    2.1593    0.1992   -1.4915 H   0  0  0  0  0  0  0  0  0  0  0  0
    0.9569   -1.0413   -1.8421 H   0  0  0  0  0  0  0  0  0  0  0  0
    1.5093    2.3218   -0.2740 H   0  0  0  0  0  0  0  0  0  0  0  0
    0.4965    2.7328   -1.6734 H   0  0  0  0  0  0  0  0  0  0  0  0
   -0.2056    2.7365   -0.0627 H   0  0  0  0  0  0  0  0  0  0  0  0
   -0.0350    0.4326   -3.6266 H   0  0  0  0  0  0  0  0  0  0  0  0
    1.6349   -0.0826   -3.9382 H   0  0  0  0  0  0  0  0  0  0  0  0
    1.3146    1.5663   -3.3830 H   0  0  0  0  0  0  0  0  0  0  0  0
   -0.2092    1.4758    2.5433 N   0  0  0  0  0  0  0  0  0  0  0  0
   -0.9827    2.3432    3.4407 C   0  0  2  0  0  0  0  0  0  0  0  0
   -0.2789    3.6987    3.6601 C   0  0  0  0  0  0  0  0  0  0  0  0
    0.8721    3.8656    3.2707 O   0  0  0  0  0  0  0  0  0  0  0  0
   -1.1728    1.6048    4.7679 C   0  0  0  0  0  0  0  0  0  0  0  0
    0.7886    1.6744    2.4726 H   0  0  0  0  0  0  0  0  0  0  0  0
   -1.9641    2.5572    3.0042 H   0  0  0  0  0  0  0  0  0  0  0  0
   -0.2039    1.4027    5.2357 H   0  0  0  0  0  0  0  0  0  0  0  0
   -1.7759    2.2020    5.4581 H   0  0  0  0  0  0  0  0  0  0  0  0
   -1.6839    0.6516    4.5987 H   0  0  0  0  0  0  0  0  0  0  0  0
   -0.9434    4.7414    4.2792 N   0  0  0  0  0  0  0  0  0  0  0  0
   -0.3464    6.0531    4.5006 C   0  0  0  0  0  0  0  0  0  0  0  0
   -1.8994    4.5779    4.5815 H   0  0  0  0  0  0  0  0  0  0  0  0
    0.5391    5.9683    5.1394 H   0  0  0  0  0  0  0  0  0  0  0  0
   -0.0520    6.5068    3.5482 H   0  0  0  0  0  0  0  0  0  0  0  0
   -1.0645    6.7174    4.9911 H   0  0  0  0  0  0  0  0  0  0  0  0
  1  2  2  0  0  0  0
  1  3  1  0  0  0  0
  1  7  1  0  0  0  0
  3  4  1  0  0  0  0
  3  5  1  0  0  0  0
  3  6  1  0  0  0  0
  7  8  1  0  0  0  0
  7 12  1  0  0  0  0
  8  9  1  0  0  0  0
  8 11  1  0  0  0  0
  8 13  1  0  0  0  0
  9 10  2  0  0  0  0
  9 17  1  0  0  0  0
 11 14  1  0  0  0  0
 11 15  1  0  0  0  0
 11 16  1  0  0  0  0
 17 18  1  0  0  0  0
 17 25  1  0  0  0  0
 18 19  1  0  0  0  0
 18 21  1  0  0  0  0
 18 26  1  0  0  0  0
 19 20  2  0  0  0  0
 19 36  1  0  0  0  0
 21 22  1  0  0  0  0
 21 23  1  0  0  0  0
 21 27  1  0  0  0  0
 22 24  1  0  0  0  0
 22 28  1  0  0  0  0
 22 29  1  0  0  0  0
 23 30  1  0  0  0  0
 23 31  1  0  0  0  0
 23 32  1  0  0  0  0
 24 33  1  0  0  0  0
 24 34  1  0  0  0  0
 24 35  1  0  0  0  0
 36 37  1  0  0  0  0
 36 41  1  0  0  0  0
 37 38  1  0  0  0  0
 37 40  1  0  0  0  0
 37 42  1  0  0  0  0
 38 39  2  0  0  0  0
 38 46  1  0  0  0  0
 40 43  1  0  0  0  0
 40 44  1  0  0  0  0
 40 45  1  0  0  0  0
 46 47  1  0  0  0  0
 46 48  1  0  0  0  0
 47 49  1  0  0  0  0
 47 50  1  0  0  0  0
 47 51  1  0  0  0  0
M  END
$$$$

  -OEChem-05262216503D

 51 50  0     1  0  0  0  0  0999 V2000
    0.4304   -6.1627    0.4345 C   0  0  0  0  0  0  0  0  0  0  0  0
   -0.5843   -6.4392   -0.1855 O   0  0  0  0  0  0  0  0  0  0  0  0
    1.5515   -7.1780    0.5491 C   0  0  0  0  0  0  0  0  0  0  0  0
    1.2691   -8.1093    0.0504 H   0  0  0  0  0  0  0  0  0  0  0  0
    2.4568   -6.7868    0.0791 H   0  0  0  0  0  0  0  0  0  0  0  0
    1.7572   -7.3904    1.6010 H   0  0  0  0  0  0  0  0  0  0  0  0
    0.5666   -4.9235    1.0228 N   0  0  0  0  0  0  0  0  0  0  0  0
   -0.3743   -3.8115    0.8371 C   0  0  2  0  0  0  0  0  0  0  0  0
    0.3548   -2.4535    0.7939 C   0  0  0  0  0  0  0  0  0  0  0  0
    1.5070   -2.3590    1.2052 O   0  0  0  0  0  0  0  0  0  0  0  0
   -1.3898   -3.8413    1.9833 C   0  0  0  0  0  0  0  0  0  0  0  0
    1.4796   -4.6879    1.4104 H   0  0  0  0  0  0  0  0  0  0  0  0
   -0.9026   -3.9253   -0.1156 H   0  0  0  0  0  0  0  0  0  0  0  0
   -0.8832   -3.7285    2.9473 H   0  0  0  0  0  0  0  0  0  0  0  0
   -2.1172   -3.0303    1.8761 H   0  0  0  0  0  0  0  0  0  0  0  0
   -1.9315   -4.7926    1.9826 H   0  0  0  0  0  0  0  0  0  0  0  0
   -0.2887   -1.3400    0.2894 N   0  0  0  0  0  0  0  0  0  0  0  0
    0.2006    0.0379    0.4674 C   0  0  2  0  0  0  0  0  0  0  0  0
   -0.6788    0.7407    1.5262 C   0  0  0  0  0  0  0  0  0  0  0  0
   -1.8644    0.4419    1.6366 O   0  0  0  0  0  0  0  0  0  0  0  0
    0.1793    0.7578   -0.9103 C   0  0  2  0  0  0  0  0  0  0  0  0
    1.1500    0.0539   -1.8938 C   0  0  0  0  0  0  0  0  0  0  0  0
    0.5551    2.2478   -0.7737 C   0  0  0  0  0  0  0  0  0  0  0  0
    0.9956    0.5274   -3.3428 C   0  0  0  0  0  0  0  0  0  0  0  0
   -1.2934   -1.4388    0.1547 H   0  0  0  0  0  0  0  0  0  0  0  0
    1.2301    0.0418    0.8406 H   0  0  0  0  0  0  0  0  0  0  0  0
   -0.8377    0.6962   -1.3136 H   0  0  0  0  0  0  0  0  0  0  0  0
    2.1837    0.2107   -1.5686 H   0  0  0  0  0  0  0  0  0  0  0  0
    0.9683   -1.0249   -1.8873 H   0  0  0  0  0  0  0  0  0  0  0  0
    1.5460    2.3559   -0.3212 H   0  0  0  0  0  0  0  0  0  0  0  0
    0.5643    2.7427   -1.7477 H   0  0  0  0  0  0  0  0  0  0  0  0
   -0.1725    2.7814   -0.1559 H   0  0  0  0  0  0  0  0  0  0  0  0
   -0.0485    0.4521   -3.6619 H   0  0  0  0  0  0  0  0  0  0  0  0
    1.6039   -0.0988   -4.0027 H   0  0  0  0  0  0  0  0  0  0  0  0
    1.3280    1.5622   -3.4608 H   0  0  0  0  0  0  0  0  0  0  0  0
   -0.1562    1.7330    2.3324 N   0  0  0  0  0  0  0  0  0  0  0  0
   -0.9655    2.6381    3.1573 C   0  0  2  0  0  0  0  0  0  0  0  0
   -0.4152    4.0788    3.1068 C   0  0  0  0  0  0  0  0  0  0  0  0
    0.6636    4.3066    2.5691 O   0  0  0  0  0  0  0  0  0  0  0  0
   -0.9723    2.1007    4.5902 C   0  0  0  0  0  0  0  0  0  0  0  0
    0.7871    2.0522    2.1116 H   0  0  0  0  0  0  0  0  0  0  0  0
   -1.9936    2.6728    2.7815 H   0  0  0  0  0  0  0  0  0  0  0  0
    0.0453    2.0709    4.9924 H   0  0  0  0  0  0  0  0  0  0  0  0
   -1.5858    2.7350    5.2369 H   0  0  0  0  0  0  0  0  0  0  0  0
   -1.3852    1.0870    4.6101 H   0  0  0  0  0  0  0  0  0  0  0  0
   -1.1405    5.1272    3.6416 N   0  0  0  0  0  0  0  0  0  0  0  0
   -0.6849    6.5117    3.6137 C   0  0  0  0  0  0  0  0  0  0  0  0
   -2.0373    4.9121    4.0679 H   0  0  0  0  0  0  0  0  0  0  0  0
    0.2751    6.6088    4.1317 H   0  0  0  0  0  0  0  0  0  0  0  0
   -0.5646    6.8560    2.5810 H   0  0  0  0  0  0  0  0  0  0  0  0
   -1.4130    7.1597    4.1112 H   0  0  0  0  0  0  0  0  0  0  0  0
  1  2  2  0  0  0  0
  1  3  1  0  0  0  0
  1  7  1  0  0  0  0
  3  4  1  0  0  0  0
  3  5  1  0  0  0  0
  3  6  1  0  0  0  0
  7  8  1  0  0  0  0
  7 12  1  0  0  0  0
  8  9  1  0  0  0  0
  8 11  1  0  0  0  0
  8 13  1  0  0  0  0
  9 10  2  0  0  0  0
  9 17  1  0  0  0  0
 11 14  1  0  0  0  0
 11 15  1  0  0  0  0
 11 16  1  0  0  0  0
 17 18  1  0  0  0  0
 17 25  1  0  0  0  0
 18 19  1  0  0  0  0
 18 21  1  0  0  0  0
 18 26  1  0  0  0  0
 19 20  2  0  0  0  0
 19 36  1  0  0  0  0
 21 22  1  0  0  0  0
 21 23  1  0  0  0  0
 21 27  1  0  0  0  0
 22 24  1  0  0  0  0
 22 28  1  0  0  0  0
 22 29  1  0  0  0  0
 23 30  1  0  0  0  0
 23 31  1  0  0  0  0
 23 32  1  0  0  0  0
 24 33  1  0  0  0  0
 24 34  1  0  0  0  0
 24 35  1  0  0  0  0
 36 37  1  0  0  0  0
 36 41  1  0  0  0  0
 37 38  1  0  0  0  0
 37 40  1  0  0  0  0
 37 42  1  0  0  0  0
 38 39  2  0  0  0  0
 38 46  1  0  0  0  0
 40 43  1  0  0  0  0
 40 44  1  0  0  0  0
 40 45  1  0  0  0  0
 46 47  1  0  0  0  0
 46 48  1  0  0  0  0
 47 49  1  0  0  0  0
 47 50  1  0  0  0  0
 47 51  1  0  0  0  0
M  END
$$$$

  -OEChem-05262216503D

 51 50  0     1  0  0  0  0  0999 V2000
    0.3544   -6.0779    0.4294 C   0  0  0  0  0  0  0  0  0  0  0  0
   -0.6676   -6.3133   -0.1957 O   0  0  0  0  0  0  0  0  0  0  0  0
    1.4668   -7.1079    0.4804 C   0  0  0  0  0  0  0  0  0  0  0  0
    1.1976   -7.9824   -0.1186 H   0  0  0  0  0  0  0  0  0  0  0  0
    2.3909   -6.6805    0.0837 H   0  0  0  0  0  0  0  0  0  0  0  0
    1.6337   -7.4246    1.5128 H   0  0  0  0  0  0  0  0  0  0  0  0
    0.5069   -4.8742    1.0841 N   0  0  0  0  0  0  0  0  0  0  0  0
   -0.4118   -3.7365    0.9450 C   0  0  2  0  0  0  0  0  0  0  0  0
    0.3517   -2.4015    0.8330 C   0  0  0  0  0  0  0  0  0  0  0  0
    1.5194   -2.3269    1.2030 O   0  0  0  0  0  0  0  0  0  0  0  0
   -1.3450   -3.7222    2.1584 C   0  0  0  0  0  0  0  0  0  0  0  0
    1.4299   -4.6684    1.4642 H   0  0  0  0  0  0  0  0  0  0  0  0
   -1.0103   -3.8446    0.0340 H   0  0  0  0  0  0  0  0  0  0  0  0
   -0.7699   -3.6055    3.0825 H   0  0  0  0  0  0  0  0  0  0  0  0
   -2.0587   -2.8954    2.0861 H   0  0  0  0  0  0  0  0  0  0  0  0
   -1.9074   -4.6598    2.2124 H   0  0  0  0  0  0  0  0  0  0  0  0
   -0.2788   -1.2897    0.3079 N   0  0  0  0  0  0  0  0  0  0  0  0
    0.2367    0.0831    0.4600 C   0  0  2  0  0  0  0  0  0  0  0  0
   -0.6240    0.8291    1.5102 C   0  0  0  0  0  0  0  0  0  0  0  0
   -1.7397    0.4097    1.8062 O   0  0  0  0  0  0  0  0  0  0  0  0
    0.2404    0.7451   -0.9518 C   0  0  2  0  0  0  0  0  0  0  0  0
    1.2106   -0.0205   -1.8914 C   0  0  0  0  0  0  0  0  0  0  0  0
    0.6218    2.2385   -0.9032 C   0  0  0  0  0  0  0  0  0  0  0  0
    1.0861    0.3844   -3.3641 C   0  0  0  0  0  0  0  0  0  0  0  0
   -1.2908   -1.3703    0.2270 H   0  0  0  0  0  0  0  0  0  0  0  0
    1.2648    0.0775    0.8369 H   0  0  0  0  0  0  0  0  0  0  0  0
   -0.7721    0.6713   -1.3640 H   0  0  0  0  0  0  0  0  0  0  0  0
    2.2423    0.1332   -1.5581 H   0  0  0  0  0  0  0  0  0  0  0  0
    1.0113   -1.0945   -1.8392 H   0  0  0  0  0  0  0  0  0  0  0  0
    1.5837    2.3763   -0.3995 H   0  0  0  0  0  0  0  0  0  0  0  0
    0.6951    2.6629   -1.9071 H   0  0  0  0  0  0  0  0  0  0  0  0
   -0.1420    2.8180   -0.3780 H   0  0  0  0  0  0  0  0  0  0  0  0
    0.0437    0.3237   -3.6911 H   0  0  0  0  0  0  0  0  0  0  0  0
    1.6824   -0.2918   -3.9844 H   0  0  0  0  0  0  0  0  0  0  0  0
    1.4515    1.4011   -3.5306 H   0  0  0  0  0  0  0  0  0  0  0  0
   -0.1900    2.0118    2.0767 N   0  0  0  0  0  0  0  0  0  0  0  0
   -1.0304    2.9181    2.8680 C   0  0  2  0  0  0  0  0  0  0  0  0
   -0.7086    4.3934    2.5503 C   0  0  0  0  0  0  0  0  0  0  0  0
    0.2884    4.6767    1.8941 O   0  0  0  0  0  0  0  0  0  0  0  0
   -0.7962    2.6122    4.3497 C   0  0  0  0  0  0  0  0  0  0  0  0
    0.6680    2.4130    1.6983 H   0  0  0  0  0  0  0  0  0  0  0  0
   -2.0871    2.7578    2.6296 H   0  0  0  0  0  0  0  0  0  0  0  0
    0.2537    2.7759    4.6138 H   0  0  0  0  0  0  0  0  0  0  0  0
   -1.4188    3.2550    4.9792 H   0  0  0  0  0  0  0  0  0  0  0  0
   -1.0503    1.5688    4.5635 H   0  0  0  0  0  0  0  0  0  0  0  0
   -1.5468    5.4048    2.9812 N   0  0  0  0  0  0  0  0  0  0  0  0
   -1.3064    6.8158    2.7035 C   0  0  0  0  0  0  0  0  0  0  0  0
   -2.3733    5.1403    3.5095 H   0  0  0  0  0  0  0  0  0  0  0  0
   -0.3688    7.1426    3.1653 H   0  0  0  0  0  0  0  0  0  0  0  0
   -1.2472    6.9901    1.6239 H   0  0  0  0  0  0  0  0  0  0  0  0
   -2.1210    7.4252    3.1062 H   0  0  0  0  0  0  0  0  0  0  0  0
  1  2  2  0  0  0  0
  1  3  1  0  0  0  0
  1  7  1  0  0  0  0
  3  4  1  0  0  0  0
  3  5  1  0  0  0  0
  3  6  1  0  0  0  0
  7  8  1  0  0  0  0
  7 12  1  0  0  0  0
  8  9  1  0  0  0  0
  8 11  1  0  0  0  0
  8 13  1  0  0  0  0
  9 10  2  0  0  0  0
  9 17  1  0  0  0  0
 11 14  1  0  0  0  0
 11 15  1  0  0  0  0
 11 16  1  0  0  0  0
 17 18  1  0  0  0  0
 17 25  1  0  0  0  0
 18 19  1  0  0  0  0
 18 21  1  0  0  0  0
 18 26  1  0  0  0  0
 19 20  2  0  0  0  0
 19 36  1  0  0  0  0
 21 22  1  0  0  0  0
 21 23  1  0  0  0  0
 21 27  1  0  0  0  0
 22 24  1  0  0  0  0
 22 28  1  0  0  0  0
 22 29  1  0  0  0  0
 23 30  1  0  0  0  0
 23 31  1  0  0  0  0
 23 32  1  0  0  0  0
 24 33  1  0  0  0  0
 24 34  1  0  0  0  0
 24 35  1  0  0  0  0
 36 37  1  0  0  0  0
 36 41  1  0  0  0  0
 37 38  1  0  0  0  0
 37 40  1  0  0  0  0
 37 42  1  0  0  0  0
 38 39  2  0  0  0  0
 38 46  1  0  0  0  0
 40 43  1  0  0  0  0
 40 44  1  0  0  0  0
 40 45  1  0  0  0  0
 46 47  1  0  0  0  0
 46 48  1  0  0  0  0
 47 49  1  0  0  0  0
 47 50  1  0  0  0  0
 47 51  1  0  0  0  0
M  END
$$$$

  -OEChem-05262216503D

 51 50  0     1  0  0  0  0  0999 V2000
    0.3253   -5.9691    0.6422 C   0  0  0  0  0  0  0  0  0  0  0  0
   -0.6812   -6.2206   -0.0018 O   0  0  0  0  0  0  0  0  0  0  0  0
    1.4546   -6.9803    0.7083 C   0  0  0  0  0  0  0  0  0  0  0  0
    1.2127   -7.8561    0.0995 H   0  0  0  0  0  0  0  0  0  0  0  0
    2.3783   -6.5338    0.3313 H   0  0  0  0  0  0  0  0  0  0  0  0
    1.6082   -7.3006    1.7416 H   0  0  0  0  0  0  0  0  0  0  0  0
    0.4522   -4.7629    1.2986 N   0  0  0  0  0  0  0  0  0  0  0  0
   -0.4479   -3.6183    1.0983 C   0  0  2  0  0  0  0  0  0  0  0  0
    0.3401   -2.3306    0.7827 C   0  0  0  0  0  0  0  0  0  0  0  0
    1.5339   -2.2568    1.0596 O   0  0  0  0  0  0  0  0  0  0  0  0
   -1.2792   -3.4375    2.3705 C   0  0  0  0  0  0  0  0  0  0  0  0
    1.3765   -4.5448    1.6686 H   0  0  0  0  0  0  0  0  0  0  0  0
   -1.1223   -3.8024    0.2551 H   0  0  0  0  0  0  0  0  0  0  0  0
   -0.6290   -3.2324    3.2273 H   0  0  0  0  0  0  0  0  0  0  0  0
   -1.9772   -2.6021    2.2576 H   0  0  0  0  0  0  0  0  0  0  0  0
   -1.8558   -4.3446    2.5771 H   0  0  0  0  0  0  0  0  0  0  0  0
   -0.2989   -1.2532    0.1976 N   0  0  0  0  0  0  0  0  0  0  0  0
    0.2607    0.1110    0.2532 C   0  0  2  0  0  0  0  0  0  0  0  0
   -0.2798    0.8257    1.5259 C   0  0  0  0  0  0  0  0  0  0  0  0
   -1.1398    0.2878    2.2190 O   0  0  0  0  0  0  0  0  0  0  0  0
   -0.0957    0.7898   -1.1094 C   0  0  2  0  0  0  0  0  0  0  0  0
    0.5952    0.0247   -2.2736 C   0  0  0  0  0  0  0  0  0  0  0  0
    0.3082    2.2782   -1.1608 C   0  0  0  0  0  0  0  0  0  0  0  0
    0.1024    0.4397   -3.6650 C   0  0  0  0  0  0  0  0  0  0  0  0
   -1.3137   -1.3159    0.2049 H   0  0  0  0  0  0  0  0  0  0  0  0
    1.3522    0.0850    0.3414 H   0  0  0  0  0  0  0  0  0  0  0  0
   -1.1807    0.7303   -1.2492 H   0  0  0  0  0  0  0  0  0  0  0  0
    1.6794    0.1676   -2.2153 H   0  0  0  0  0  0  0  0  0  0  0  0
    0.4069   -1.0485   -2.1809 H   0  0  0  0  0  0  0  0  0  0  0  0
    1.3456    2.4090   -0.8367 H   0  0  0  0  0  0  0  0  0  0  0  0
    0.2119    2.6882   -2.1679 H   0  0  0  0  0  0  0  0  0  0  0  0
   -0.3470    2.8792   -0.5253 H   0  0  0  0  0  0  0  0  0  0  0  0
   -0.9905    0.4080   -3.7102 H   0  0  0  0  0  0  0  0  0  0  0  0
    0.4984   -0.2494   -4.4171 H   0  0  0  0  0  0  0  0  0  0  0  0
    0.4386    1.4459   -3.9266 H   0  0  0  0  0  0  0  0  0  0  0  0
    0.0774    2.1212    1.8486 N   0  0  0  0  0  0  0  0  0  0  0  0
   -0.5603    2.9418    2.8862 C   0  0  2  0  0  0  0  0  0  0  0  0
   -0.5250    4.4396    2.5137 C   0  0  0  0  0  0  0  0  0  0  0  0
    0.1239    4.8158    1.5429 O   0  0  0  0  0  0  0  0  0  0  0  0
    0.1632    2.6923    4.2131 C   0  0  0  0  0  0  0  0  0  0  0  0
    0.6759    2.6156    1.1876 H   0  0  0  0  0  0  0  0  0  0  0  0
   -1.6127    2.6574    2.9897 H   0  0  0  0  0  0  0  0  0  0  0  0
    1.2108    3.0021    4.1425 H   0  0  0  0  0  0  0  0  0  0  0  0
   -0.3133    3.2526    5.0230 H   0  0  0  0  0  0  0  0  0  0  0  0
    0.1317    1.6279    4.4672 H   0  0  0  0  0  0  0  0  0  0  0  0
   -1.2411    5.3671    3.2478 N   0  0  0  0  0  0  0  0  0  0  0  0
   -1.2685    6.7903    2.9306 C   0  0  0  0  0  0  0  0  0  0  0  0
   -1.7737    5.0293    4.0442 H   0  0  0  0  0  0  0  0  0  0  0  0
   -0.2591    7.2125    2.9748 H   0  0  0  0  0  0  0  0  0  0  0  0
   -1.6736    6.9516    1.9260 H   0  0  0  0  0  0  0  0  0  0  0  0
   -1.8989    7.3265    3.6466 H   0  0  0  0  0  0  0  0  0  0  0  0
  1  2  2  0  0  0  0
  1  3  1  0  0  0  0
  1  7  1  0  0  0  0
  3  4  1  0  0  0  0
  3  5  1  0  0  0  0
  3  6  1  0  0  0  0
  7  8  1  0  0  0  0
  7 12  1  0  0  0  0
  8  9  1  0  0  0  0
  8 11  1  0  0  0  0
  8 13  1  0  0  0  0
  9 10  2  0  0  0  0
  9 17  1  0  0  0  0
 11 14  1  0  0  0  0
 11 15  1  0  0  0  0
 11 16  1  0  0  0  0
 17 18  1  0  0  0  0
 17 25  1  0  0  0  0
 18 19  1  0  0  0  0
 18 21  1  0  0  0  0
 18 26  1  0  0  0  0
 19 20  2  0  0  0  0
 19 36  1  0  0  0  0
 21 22  1  0  0  0  0
 21 23  1  0  0  0  0
 21 27  1  0  0  0  0
 22 24  1  0  0  0  0
 22 28  1  0  0  0  0
 22 29  1  0  0  0  0
 23 30  1  0  0  0  0
 23 31  1  0  0  0  0
 23 32  1  0  0  0  0
 24 33  1  0  0  0  0
 24 34  1  0  0  0  0
 24 35  1  0  0  0  0
 36 37  1  0  0  0  0
 36 41  1  0  0  0  0
 37 38  1  0  0  0  0
 37 40  1  0  0  0  0
 37 42  1  0  0  0  0
 38 39  2  0  0  0  0
 38 46  1  0  0  0  0
 40 43  1  0  0  0  0
 40 44  1  0  0  0  0
 40 45  1  0  0  0  0
 46 47  1  0  0  0  0
 46 48  1  0  0  0  0
 47 49  1  0  0  0  0
 47 50  1  0  0  0  0
 47 51  1  0  0  0  0
M  END
$$$$

  -OEChem-05262216503D

 51 50  0     1  0  0  0  0  0999 V2000
    0.2607   -5.8473    0.6426 C   0  0  0  0  0  0  0  0  0  0  0  0
   -0.7104   -6.0395   -0.0722 O   0  0  0  0  0  0  0  0  0  0  0  0
    1.3617   -6.8877    0.7181 C   0  0  0  0  0  0  0  0  0  0  0  0
    1.1428   -7.7183    0.0414 H   0  0  0  0  0  0  0  0  0  0  0  0
    2.3165   -6.4412    0.4301 H   0  0  0  0  0  0  0  0  0  0  0  0
    1.4399   -7.2738    1.7372 H   0  0  0  0  0  0  0  0  0  0  0  0
    0.3734   -4.6853    1.3768 N   0  0  0  0  0  0  0  0  0  0  0  0
   -0.4910   -3.5107    1.1934 C   0  0  2  0  0  0  0  0  0  0  0  0
    0.3235   -2.2596    0.8057 C   0  0  0  0  0  0  0  0  0  0  0  0
    1.5245   -2.2044    1.0540 O   0  0  0  0  0  0  0  0  0  0  0  0
   -1.2435   -3.2691    2.5037 C   0  0  0  0  0  0  0  0  0  0  0  0
    1.2874   -4.5053    1.7890 H   0  0  0  0  0  0  0  0  0  0  0  0
   -1.2195   -3.6873    0.3953 H   0  0  0  0  0  0  0  0  0  0  0  0
   -0.5407   -3.0630    3.3174 H   0  0  0  0  0  0  0  0  0  0  0  0
   -1.9189   -2.4135    2.4061 H   0  0  0  0  0  0  0  0  0  0  0  0
   -1.8367   -4.1500    2.7672 H   0  0  0  0  0  0  0  0  0  0  0  0
   -0.3047   -1.1925    0.1900 N   0  0  0  0  0  0  0  0  0  0  0  0
    0.2706    0.1670    0.2032 C   0  0  2  0  0  0  0  0  0  0  0  0
   -0.2638    0.9224    1.4606 C   0  0  0  0  0  0  0  0  0  0  0  0
   -0.9128    0.3189    2.3113 O   0  0  0  0  0  0  0  0  0  0  0  0
   -0.0549    0.7854   -1.1988 C   0  0  2  0  0  0  0  0  0  0  0  0
    0.6539   -0.0464   -2.3079 C   0  0  0  0  0  0  0  0  0  0  0  0
    0.3754    2.2628   -1.3245 C   0  0  0  0  0  0  0  0  0  0  0  0
    0.1989    0.2962   -3.7321 C   0  0  0  0  0  0  0  0  0  0  0  0
   -1.3191   -1.2482    0.1939 H   0  0  0  0  0  0  0  0  0  0  0  0
    1.3606    0.1314    0.3034 H   0  0  0  0  0  0  0  0  0  0  0  0
   -1.1374    0.7319   -1.3597 H   0  0  0  0  0  0  0  0  0  0  0  0
    1.7377    0.0893   -2.2313 H   0  0  0  0  0  0  0  0  0  0  0  0
    0.4536   -1.1120   -2.1658 H   0  0  0  0  0  0  0  0  0  0  0  0
    1.3773    2.4103   -0.9088 H   0  0  0  0  0  0  0  0  0  0  0  0
    0.3885    2.5972   -2.3630 H   0  0  0  0  0  0  0  0  0  0  0  0
   -0.3326    2.9158   -0.8090 H   0  0  0  0  0  0  0  0  0  0  0  0
   -0.8933    0.2829   -3.7989 H   0  0  0  0  0  0  0  0  0  0  0  0
    0.5957   -0.4441   -4.4336 H   0  0  0  0  0  0  0  0  0  0  0  0
    0.5611    1.2780   -4.0464 H   0  0  0  0  0  0  0  0  0  0  0  0
   -0.1631    2.2912    1.6203 N   0  0  0  0  0  0  0  0  0  0  0  0
   -0.8192    3.0774    2.6736 C   0  0  2  0  0  0  0  0  0  0  0  0
   -1.1542    4.5011    2.1823 C   0  0  0  0  0  0  0  0  0  0  0  0
   -0.6562    4.9281    1.1456 O   0  0  0  0  0  0  0  0  0  0  0  0
    0.1106    3.1289    3.8902 C   0  0  0  0  0  0  0  0  0  0  0  0
    0.2704    2.8197    0.8646 H   0  0  0  0  0  0  0  0  0  0  0  0
   -1.7634    2.6018    2.9596 H   0  0  0  0  0  0  0  0  0  0  0  0
    1.0558    3.6157    3.6292 H   0  0  0  0  0  0  0  0  0  0  0  0
   -0.3554    3.6866    4.7080 H   0  0  0  0  0  0  0  0  0  0  0  0
    0.3272    2.1162    4.2449 H   0  0  0  0  0  0  0  0  0  0  0  0
   -2.0329    5.2990    2.8910 N   0  0  0  0  0  0  0  0  0  0  0  0
   -2.4128    6.6418    2.4690 C   0  0  0  0  0  0  0  0  0  0  0  0
   -2.4422    4.9138    3.7373 H   0  0  0  0  0  0  0  0  0  0  0  0
   -1.5364    7.2981    2.4430 H   0  0  0  0  0  0  0  0  0  0  0  0
   -2.8644    6.6169    1.4715 H   0  0  0  0  0  0  0  0  0  0  0  0
   -3.1416    7.0654    3.1667 H   0  0  0  0  0  0  0  0  0  0  0  0
  1  2  2  0  0  0  0
  1  3  1  0  0  0  0
  1  7  1  0  0  0  0
  3  4  1  0  0  0  0
  3  5  1  0  0  0  0
  3  6  1  0  0  0  0
  7  8  1  0  0  0  0
  7 12  1  0  0  0  0
  8  9  1  0  0  0  0
  8 11  1  0  0  0  0
  8 13  1  0  0  0  0
  9 10  2  0  0  0  0
  9 17  1  0  0  0  0
 11 14  1  0  0  0  0
 11 15  1  0  0  0  0
 11 16  1  0  0  0  0
 17 18  1  0  0  0  0
 17 25  1  0  0  0  0
 18 19  1  0  0  0  0
 18 21  1  0  0  0  0
 18 26  1  0  0  0  0
 19 20  2  0  0  0  0
 19 36  1  0  0  0  0
 21 22  1  0  0  0  0
 21 23  1  0  0  0  0
 21 27  1  0  0  0  0
 22 24  1  0  0  0  0
 22 28  1  0  0  0  0
 22 29  1  0  0  0  0
 23 30  1  0  0  0  0
 23 31  1  0  0  0  0
 23 32  1  0  0  0  0
 24 33  1  0  0  0  0
 24 34  1  0  0  0  0
 24 35  1  0  0  0  0
 36 37  1  0  0  0  0
 36 41  1  0  0  0  0
 37 38  1  0  0  0  0
 37 40  1  0  0  0  0
 37 42  1  0  0  0  0
 38 39  2  0  0  0  0
 38 46  1  0  0  0  0
 40 43  1  0  0  0  0
 40 44  1  0  0  0  0
 40 45  1  0  0  0  0
 46 47  1  0  0  0  0
 46 48  1  0  0  0  0
 47 49  1  0  0  0  0
 47 50  1  0  0  0  0
 47 51  1  0  0  0  0
M  END
$$$$

  -OEChem-05262216503D

 51 50  0     1  0  0  0  0  0999 V2000
    0.4633   -5.8604    0.7321 C   0  0  0  0  0  0  0  0  0  0  0  0
   -0.7111   -6.1413    0.5489 O   0  0  0  0  0  0  0  0  0  0  0  0
    1.5369   -6.9133    0.5309 C   0  0  0  0  0  0  0  0  0  0  0  0
    1.0799   -7.8748    0.2807 H   0  0  0  0  0  0  0  0  0  0  0  0
    2.2018   -6.6163   -0.2838 H   0  0  0  0  0  0  0  0  0  0  0  0
    2.1225   -7.0295    1.4461 H   0  0  0  0  0  0  0  0  0  0  0  0
    0.8197   -4.5829    1.1069 N   0  0  0  0  0  0  0  0  0  0  0  0
   -0.1071   -3.4452    1.1577 C   0  0  2  0  0  0  0  0  0  0  0  0
    0.5592   -2.1447    0.6631 C   0  0  0  0  0  0  0  0  0  0  0  0
    1.7750   -2.0987    0.5045 O   0  0  0  0  0  0  0  0  0  0  0  0
   -0.5871   -3.2838    2.6026 C   0  0  0  0  0  0  0  0  0  0  0  0
    1.8140   -4.3573    1.1080 H   0  0  0  0  0  0  0  0  0  0  0  0
   -0.9693   -3.6359    0.5100 H   0  0  0  0  0  0  0  0  0  0  0  0
    0.2595   -3.0745    3.2651 H   0  0  0  0  0  0  0  0  0  0  0  0
   -1.3004   -2.4580    2.6828 H   0  0  0  0  0  0  0  0  0  0  0  0
   -1.0796   -4.2003    2.9426 H   0  0  0  0  0  0  0  0  0  0  0  0
   -0.2188   -1.0422    0.3511 N   0  0  0  0  0  0  0  0  0  0  0  0
    0.3379    0.3268    0.3351 C   0  0  2  0  0  0  0  0  0  0  0  0
    0.1381    0.8803    1.7855 C   0  0  0  0  0  0  0  0  0  0  0  0
    0.3081    0.1583    2.7572 O   0  0  0  0  0  0  0  0  0  0  0  0
   -0.2750    1.1013   -0.8731 C   0  0  2  0  0  0  0  0  0  0  0  0
    0.1471    0.3969   -2.1947 C   0  0  0  0  0  0  0  0  0  0  0  0
    0.2879    2.5418   -0.9908 C   0  0  0  0  0  0  0  0  0  0  0  0
   -0.6106    0.9087   -3.4254 C   0  0  0  0  0  0  0  0  0  0  0  0
   -1.1948   -1.1347    0.6130 H   0  0  0  0  0  0  0  0  0  0  0  0
    1.4215    0.3048    0.1750 H   0  0  0  0  0  0  0  0  0  0  0  0
   -1.3654    1.1222   -0.7807 H   0  0  0  0  0  0  0  0  0  0  0  0
    1.2251    0.5046   -2.3561 H   0  0  0  0  0  0  0  0  0  0  0  0
   -0.0564   -0.6753   -2.1242 H   0  0  0  0  0  0  0  0  0  0  0  0
    0.1443    3.1368   -0.0942 H   0  0  0  0  0  0  0  0  0  0  0  0
   -0.2033    3.0838   -1.8028 H   0  0  0  0  0  0  0  0  0  0  0  0
    1.3639    2.5160   -1.1924 H   0  0  0  0  0  0  0  0  0  0  0  0
   -1.6902    0.8805   -3.2493 H   0  0  0  0  0  0  0  0  0  0  0  0
   -0.3851    0.2740   -4.2879 H   0  0  0  0  0  0  0  0  0  0  0  0
   -0.3200    1.9318   -3.6775 H   0  0  0  0  0  0  0  0  0  0  0  0
   -0.0582    2.1823    2.1785 N   0  0  0  0  0  0  0  0  0  0  0  0
   -1.3783    2.8134    2.0049 C   0  0  2  0  0  0  0  0  0  0  0  0
   -1.3234    4.3461    2.1861 C   0  0  0  0  0  0  0  0  0  0  0  0
   -0.5070    4.8542    2.9429 O   0  0  0  0  0  0  0  0  0  0  0  0
   -2.3526    2.2168    3.0288 C   0  0  0  0  0  0  0  0  0  0  0  0
    0.3141    2.3198    3.1175 H   0  0  0  0  0  0  0  0  0  0  0  0
   -1.7634    2.6122    1.0026 H   0  0  0  0  0  0  0  0  0  0  0  0
   -1.9889    2.3916    4.0469 H   0  0  0  0  0  0  0  0  0  0  0  0
   -3.3406    2.6768    2.9301 H   0  0  0  0  0  0  0  0  0  0  0  0
   -2.4605    1.1380    2.8804 H   0  0  0  0  0  0  0  0  0  0  0  0
   -2.2246    5.1588    1.5221 N   0  0  0  0  0  0  0  0  0  0  0  0
   -2.2525    6.6087    1.6769 C   0  0  0  0  0  0  0  0  0  0  0  0
   -2.9083    4.7168    0.9156 H   0  0  0  0  0  0  0  0  0  0  0  0
   -2.4669    6.8790    2.7165 H   0  0  0  0  0  0  0  0  0  0  0  0
   -1.2885    7.0436    1.3921 H   0  0  0  0  0  0  0  0  0  0  0  0
   -3.0284    7.0436    1.0394 H   0  0  0  0  0  0  0  0  0  0  0  0
  1  2  2  0  0  0  0
  1  3  1  0  0  0  0
  1  7  1  0  0  0  0
  3  4  1  0  0  0  0
  3  5  1  0  0  0  0
  3  6  1  0  0  0  0
  7  8  1  0  0  0  0
  7 12  1  0  0  0  0
  8  9  1  0  0  0  0
  8 11  1  0  0  0  0
  8 13  1  0  0  0  0
  9 10  2  0  0  0  0
  9 17  1  0  0  0  0
 11 14  1  0  0  0  0
 11 15  1  0  0  0  0
 11 16  1  0  0  0  0
 17 18  1  0  0  0  0
 17 25  1  0  0  0  0
 18 19  1  0  0  0  0
 18 21  1  0  0  0  0
 18 26  1  0  0  0  0
 19 20  2  0  0  0  0
 19 36  1  0  0  0  0
 21 22  1  0  0  0  0
 21 23  1  0  0  0  0
 21 27  1  0  0  0  0
 22 24  1  0  0  0  0
 22 28  1  0  0  0  0
 22 29  1  0  0  0  0
 23 30  1  0  0  0  0
 23 31  1  0  0  0  0
 23 32  1  0  0  0  0
 24 33  1  0  0  0  0
 24 34  1  0  0  0  0
 24 35  1  0  0  0  0
 36 37  1  0  0  0  0
 36 41  1  0  0  0  0
 37 38  1  0  0  0  0
 37 40  1  0  0  0  0
 37 42  1  0  0  0  0
 38 39  2  0  0  0  0
 38 46  1  0  0  0  0
 40 43  1  0  0  0  0
 40 44  1  0  0  0  0
 40 45  1  0  0  0  0
 46 47  1  0  0  0  0
 46 48  1  0  0  0  0
 47 49  1  0  0  0  0
 47 50  1  0  0  0  0
 47 51  1  0  0  0  0
M  END
$$$$

  -OEChem-05262216503D

 51 50  0     1  0  0  0  0  0999 V2000
    0.3233   -5.7034    0.7177 C   0  0  0  0  0  0  0  0  0  0  0  0
   -0.5761   -5.9111   -0.0820 O   0  0  0  0  0  0  0  0  0  0  0  0
    1.4584   -6.7006    0.8543 C   0  0  0  0  0  0  0  0  0  0  0  0
    1.3169   -7.5319    0.1581 H   0  0  0  0  0  0  0  0  0  0  0  0
    2.4107   -6.2129    0.6315 H   0  0  0  0  0  0  0  0  0  0  0  0
    1.4880   -7.0947    1.8730 H   0  0  0  0  0  0  0  0  0  0  0  0
    0.3278   -4.5604    1.4899 N   0  0  0  0  0  0  0  0  0  0  0  0
   -0.5424   -3.4025    1.2384 C   0  0  2  0  0  0  0  0  0  0  0  0
    0.2703   -2.1601    0.8204 C   0  0  0  0  0  0  0  0  0  0  0  0
    1.4654   -2.0888    1.0908 O   0  0  0  0  0  0  0  0  0  0  0  0
   -1.3251   -3.1122    2.5208 C   0  0  0  0  0  0  0  0  0  0  0  0
    1.2024   -4.3591    1.9714 H   0  0  0  0  0  0  0  0  0  0  0  0
   -1.2532   -3.6189    0.4345 H   0  0  0  0  0  0  0  0  0  0  0  0
   -0.6415   -2.8598    3.3381 H   0  0  0  0  0  0  0  0  0  0  0  0
   -2.0080   -2.2702    2.3705 H   0  0  0  0  0  0  0  0  0  0  0  0
   -1.9132   -3.9877    2.8128 H   0  0  0  0  0  0  0  0  0  0  0  0
   -0.3468   -1.1274    0.1353 N   0  0  0  0  0  0  0  0  0  0  0  0
    0.2024    0.2432    0.1247 C   0  0  2  0  0  0  0  0  0  0  0  0
   -0.4203    1.0114    1.3313 C   0  0  0  0  0  0  0  0  0  0  0  0
   -0.5999    0.4332    2.3979 O   0  0  0  0  0  0  0  0  0  0  0  0
   -0.0090    0.8322   -1.3095 C   0  0  2  0  0  0  0  0  0  0  0  0
    0.7962   -0.0201   -2.3325 C   0  0  0  0  0  0  0  0  0  0  0  0
    0.4834    2.2984   -1.4075 C   0  0  0  0  0  0  0  0  0  0  0  0
    0.4617    0.2872   -3.7988 C   0  0  0  0  0  0  0  0  0  0  0  0
   -1.3548   -1.2173    0.0519 H   0  0  0  0  0  0  0  0  0  0  0  0
    1.2826    0.2281    0.3070 H   0  0  0  0  0  0  0  0  0  0  0  0
   -1.0727    0.7916   -1.5676 H   0  0  0  0  0  0  0  0  0  0  0  0
    1.8696    0.1216   -2.1673 H   0  0  0  0  0  0  0  0  0  0  0  0
    0.5850   -1.0824   -2.1800 H   0  0  0  0  0  0  0  0  0  0  0  0
    1.3306    2.4673   -0.7349 H   0  0  0  0  0  0  0  0  0  0  0  0
   -0.3171    2.9985   -1.1580 H   0  0  0  0  0  0  0  0  0  0  0  0
    0.8093    2.5602   -2.4152 H   0  0  0  0  0  0  0  0  0  0  0  0
   -0.6201    0.2520   -3.9592 H   0  0  0  0  0  0  0  0  0  0  0  0
    0.9292   -0.4613   -4.4456 H   0  0  0  0  0  0  0  0  0  0  0  0
    0.8312    1.2682   -4.1060 H   0  0  0  0  0  0  0  0  0  0  0  0
   -0.9191    2.2962    1.2409 N   0  0  0  0  0  0  0  0  0  0  0  0
   -1.6777    2.9944    2.2863 C   0  0  2  0  0  0  0  0  0  0  0  0
   -2.6099    4.0606    1.6726 C   0  0  0  0  0  0  0  0  0  0  0  0
   -2.5209    4.3409    0.4813 O   0  0  0  0  0  0  0  0  0  0  0  0
   -0.6873    3.6390    3.2616 C   0  0  0  0  0  0  0  0  0  0  0  0
   -0.9320    2.7258    0.3186 H   0  0  0  0  0  0  0  0  0  0  0  0
   -2.3071    2.2804    2.8279 H   0  0  0  0  0  0  0  0  0  0  0  0
   -0.0523    4.3617    2.7391 H   0  0  0  0  0  0  0  0  0  0  0  0
   -1.2194    4.1572    4.0649 H   0  0  0  0  0  0  0  0  0  0  0  0
   -0.0462    2.8747    3.7129 H   0  0  0  0  0  0  0  0  0  0  0  0
   -3.5623    4.6945    2.4489 N   0  0  0  0  0  0  0  0  0  0  0  0
   -4.4684    5.7134    1.9317 C   0  0  0  0  0  0  0  0  0  0  0  0
   -3.6148    4.4410    3.4314 H   0  0  0  0  0  0  0  0  0  0  0  0
   -3.9040    6.5763    1.5628 H   0  0  0  0  0  0  0  0  0  0  0  0
   -5.0719    5.3103    1.1115 H   0  0  0  0  0  0  0  0  0  0  0  0
   -5.1446    6.0547    2.7215 H   0  0  0  0  0  0  0  0  0  0  0  0
  1  2  2  0  0  0  0
  1  3  1  0  0  0  0
  1  7  1  0  0  0  0
  3  4  1  0  0  0  0
  3  5  1  0  0  0  0
  3  6  1  0  0  0  0
  7  8  1  0  0  0  0
  7 12  1  0  0  0  0
  8  9  1  0  0  0  0
  8 11  1  0  0  0  0
  8 13  1  0  0  0  0
  9 10  2  0  0  0  0
  9 17  1  0  0  0  0
 11 14  1  0  0  0  0
 11 15  1  0  0  0  0
 11 16  1  0  0  0  0
 17 18  1  0  0  0  0
 17 25  1  0  0  0  0
 18 19  1  0  0  0  0
 18 21  1  0  0  0  0
 18 26  1  0  0  0  0
 19 20  2  0  0  0  0
 19 36  1  0  0  0  0
 21 22  1  0  0  0  0
 21 23  1  0  0  0  0
 21 27  1  0  0  0  0
 22 24  1  0  0  0  0
 22 28  1  0  0  0  0
 22 29  1  0  0  0  0
 23 30  1  0  0  0  0
 23 31  1  0  0  0  0
 23 32  1  0  0  0  0
 24 33  1  0  0  0  0
 24 34  1  0  0  0  0
 24 35  1  0  0  0  0
 36 37  1  0  0  0  0
 36 41  1  0  0  0  0
 37 38  1  0  0  0  0
 37 40  1  0  0  0  0
 37 42  1  0  0  0  0
 38 39  2  0  0  0  0
 38 46  1  0  0  0  0
 40 43  1  0  0  0  0
 40 44  1  0  0  0  0
 40 45  1  0  0  0  0
 46 47  1  0  0  0  0
 46 48  1  0  0  0  0
 47 49  1  0  0  0  0
 47 50  1  0  0  0  0
 47 51  1  0  0  0  0
M  END
$$$$

  -OEChem-05262216503D

 51 50  0     1  0  0  0  0  0999 V2000
    0.3284   -5.6392    0.7254 C   0  0  0  0  0  0  0  0  0  0  0  0
   -0.5149   -5.8430   -0.1342 O   0  0  0  0  0  0  0  0  0  0  0  0
    1.4918   -6.5996    0.8872 C   0  0  0  0  0  0  0  0  0  0  0  0
    1.4207   -7.4065    0.1526 H   0  0  0  0  0  0  0  0  0  0  0  0
    2.4356   -6.0694    0.7370 H   0  0  0  0  0  0  0  0  0  0  0  0
    1.4810   -7.0334    1.8900 H   0  0  0  0  0  0  0  0  0  0  0  0
    0.2499   -4.5267    1.5369 N   0  0  0  0  0  0  0  0  0  0  0  0
   -0.6177   -3.3748    1.2515 C   0  0  2  0  0  0  0  0  0  0  0  0
    0.2073   -2.1330    0.8554 C   0  0  0  0  0  0  0  0  0  0  0  0
    1.3929   -2.0622    1.1632 O   0  0  0  0  0  0  0  0  0  0  0  0
   -1.4406   -3.0823    2.5077 C   0  0  0  0  0  0  0  0  0  0  0  0
    1.0911   -4.3194    2.0723 H   0  0  0  0  0  0  0  0  0  0  0  0
   -1.3032   -3.5982    0.4275 H   0  0  0  0  0  0  0  0  0  0  0  0
   -0.7826   -2.8272    3.3449 H   0  0  0  0  0  0  0  0  0  0  0  0
   -2.1201   -2.2421    2.3349 H   0  0  0  0  0  0  0  0  0  0  0  0
   -2.0354   -3.9586    2.7833 H   0  0  0  0  0  0  0  0  0  0  0  0
   -0.3843   -1.1043    0.1427 N   0  0  0  0  0  0  0  0  0  0  0  0
    0.1717    0.2628    0.1265 C   0  0  2  0  0  0  0  0  0  0  0  0
   -0.4913    1.0238    1.3114 C   0  0  0  0  0  0  0  0  0  0  0  0
   -0.4544    0.5548    2.4427 O   0  0  0  0  0  0  0  0  0  0  0  0
   -0.0063    0.8641   -1.3028 C   0  0  2  0  0  0  0  0  0  0  0  0
    0.8071    0.0092   -2.3151 C   0  0  0  0  0  0  0  0  0  0  0  0
    0.5494    2.3079   -1.3985 C   0  0  0  0  0  0  0  0  0  0  0  0
    0.4989    0.3382   -3.7799 C   0  0  0  0  0  0  0  0  0  0  0  0
   -1.3854   -1.1990    0.0025 H   0  0  0  0  0  0  0  0  0  0  0  0
    1.2469    0.2480    0.3372 H   0  0  0  0  0  0  0  0  0  0  0  0
   -1.0685    0.8576   -1.5711 H   0  0  0  0  0  0  0  0  0  0  0  0
    1.8803    0.1302   -2.1324 H   0  0  0  0  0  0  0  0  0  0  0  0
    0.5763   -1.0509   -2.1756 H   0  0  0  0  0  0  0  0  0  0  0  0
    1.6086    2.3258   -1.1220 H   0  0  0  0  0  0  0  0  0  0  0  0
    0.4524    2.6973   -2.4145 H   0  0  0  0  0  0  0  0  0  0  0  0
    0.0220    3.0106   -0.7553 H   0  0  0  0  0  0  0  0  0  0  0  0
   -0.5805    0.3140   -3.9583 H   0  0  0  0  0  0  0  0  0  0  0  0
    0.9726   -0.4026   -4.4313 H   0  0  0  0  0  0  0  0  0  0  0  0
    0.8822    1.3229   -4.0591 H   0  0  0  0  0  0  0  0  0  0  0  0
   -1.2550    2.1612    1.1354 N   0  0  0  0  0  0  0  0  0  0  0  0
   -2.0418    2.8325    2.1769 C   0  0  2  0  0  0  0  0  0  0  0  0
   -3.2194    3.6149    1.5587 C   0  0  0  0  0  0  0  0  0  0  0  0
   -3.2926    3.7519    0.3415 O   0  0  0  0  0  0  0  0  0  0  0  0
   -1.1172    3.7735    2.9566 C   0  0  0  0  0  0  0  0  0  0  0  0
   -1.4301    2.4600    0.1762 H   0  0  0  0  0  0  0  0  0  0  0  0
   -2.4632    2.0876    2.8602 H   0  0  0  0  0  0  0  0  0  0  0  0
   -0.6940    4.5318    2.2901 H   0  0  0  0  0  0  0  0  0  0  0  0
   -1.6661    4.2787    3.7568 H   0  0  0  0  0  0  0  0  0  0  0  0
   -0.2951    3.2092    3.4085 H   0  0  0  0  0  0  0  0  0  0  0  0
   -4.2083    4.1507    2.3626 N   0  0  0  0  0  0  0  0  0  0  0  0
   -5.3408    4.9078    1.8427 C   0  0  0  0  0  0  0  0  0  0  0  0
   -4.1192    4.0248    3.3668 H   0  0  0  0  0  0  0  0  0  0  0  0
   -4.9951    5.8187    1.3428 H   0  0  0  0  0  0  0  0  0  0  0  0
   -5.9092    4.3065    1.1251 H   0  0  0  0  0  0  0  0  0  0  0  0
   -6.0109    5.1937    2.6593 H   0  0  0  0  0  0  0  0  0  0  0  0
  1  2  2  0  0  0  0
  1  3  1  0  0  0  0
  1  7  1  0  0  0  0
  3  4  1  0  0  0  0
  3  5  1  0  0  0  0
  3  6  1  0  0  0  0
  7  8  1  0  0  0  0
  7 12  1  0  0  0  0
  8  9  1  0  0  0  0
  8 11  1  0  0  0  0
  8 13  1  0  0  0  0
  9 10  2  0  0  0  0
  9 17  1  0  0  0  0
 11 14  1  0  0  0  0
 11 15  1  0  0  0  0
 11 16  1  0  0  0  0
 17 18  1  0  0  0  0
 17 25  1  0  0  0  0
 18 19  1  0  0  0  0
 18 21  1  0  0  0  0
 18 26  1  0  0  0  0
 19 20  2  0  0  0  0
 19 36  1  0  0  0  0
 21 22  1  0  0  0  0
 21 23  1  0  0  0  0
 21 27  1  0  0  0  0
 22 24  1  0  0  0  0
 22 28  1  0  0  0  0
 22 29  1  0  0  0  0
 23 30  1  0  0  0  0
 23 31  1  0  0  0  0
 23 32  1  0  0  0  0
 24 33  1  0  0  0  0
 24 34  1  0  0  0  0
 24 35  1  0  0  0  0
 36 37  1  0  0  0  0
 36 41  1  0  0  0  0
 37 38  1  0  0  0  0
 37 40  1  0  0  0  0
 37 42  1  0  0  0  0
 38 39  2  0  0  0  0
 38 46  1  0  0  0  0
 40 43  1  0  0  0  0
 40 44  1  0  0  0  0
 40 45  1  0  0  0  0
 46 47  1  0  0  0  0
 46 48  1  0  0  0  0
 47 49  1  0  0  0  0
 47 50  1  0  0  0  0
 47 51  1  0  0  0  0
M  END
$$$$

  -OEChem-05262216503D

 51 50  0     1  0  0  0  0  0999 V2000
    0.3018   -5.6006    0.6440 C   0  0  0  0  0  0  0  0  0  0  0  0
   -0.5313   -5.7694   -0.2329 O   0  0  0  0  0  0  0  0  0  0  0  0
    1.4644   -6.5660    0.7803 C   0  0  0  0  0  0  0  0  0  0  0  0
    1.3905   -7.3551    0.0268 H   0  0  0  0  0  0  0  0  0  0  0  0
    2.4086   -6.0334    0.6409 H   0  0  0  0  0  0  0  0  0  0  0  0
    1.4558   -7.0241    1.7723 H   0  0  0  0  0  0  0  0  0  0  0  0
    0.2125   -4.5212    1.4981 N   0  0  0  0  0  0  0  0  0  0  0  0
   -0.6631   -3.3650    1.2585 C   0  0  2  0  0  0  0  0  0  0  0  0
    0.1570   -2.0945    0.9545 C   0  0  0  0  0  0  0  0  0  0  0  0
    1.3176   -2.0118    1.3412 O   0  0  0  0  0  0  0  0  0  0  0  0
   -1.5201   -3.1556    2.5085 C   0  0  0  0  0  0  0  0  0  0  0  0
    1.0469   -4.3327    2.0514 H   0  0  0  0  0  0  0  0  0  0  0  0
   -1.3254   -3.5477    0.4059 H   0  0  0  0  0  0  0  0  0  0  0  0
   -0.8866   -2.9483    3.3773 H   0  0  0  0  0  0  0  0  0  0  0  0
   -2.2026   -2.3117    2.3689 H   0  0  0  0  0  0  0  0  0  0  0  0
   -2.1140   -4.0516    2.7141 H   0  0  0  0  0  0  0  0  0  0  0  0
   -0.4012   -1.0648    0.2174 N   0  0  0  0  0  0  0  0  0  0  0  0
    0.1521    0.3026    0.2036 C   0  0  2  0  0  0  0  0  0  0  0  0
   -0.5332    1.0959    1.3476 C   0  0  0  0  0  0  0  0  0  0  0  0
   -0.3005    0.8251    2.5180 O   0  0  0  0  0  0  0  0  0  0  0  0
    0.0134    0.9004   -1.2274 C   0  0  2  0  0  0  0  0  0  0  0  0
    0.8517    0.0531   -2.2217 C   0  0  0  0  0  0  0  0  0  0  0  0
    0.5450    2.3523   -1.2868 C   0  0  0  0  0  0  0  0  0  0  0  0
    0.5735    0.3923   -3.6897 C   0  0  0  0  0  0  0  0  0  0  0  0
   -1.3804   -1.1794   -0.0258 H   0  0  0  0  0  0  0  0  0  0  0  0
    1.2213    0.2848    0.4433 H   0  0  0  0  0  0  0  0  0  0  0  0
   -1.0407    0.8836   -1.5250 H   0  0  0  0  0  0  0  0  0  0  0  0
    1.9196    0.1794   -2.0138 H   0  0  0  0  0  0  0  0  0  0  0  0
    0.6225   -1.0087   -2.0910 H   0  0  0  0  0  0  0  0  0  0  0  0
    1.6055    2.3800   -1.0162 H   0  0  0  0  0  0  0  0  0  0  0  0
    0.4336    2.7671   -2.2918 H   0  0  0  0  0  0  0  0  0  0  0  0
    0.0077    3.0204   -0.6125 H   0  0  0  0  0  0  0  0  0  0  0  0
   -0.5002    0.3460   -3.8968 H   0  0  0  0  0  0  0  0  0  0  0  0
    1.0813   -0.3286   -4.3380 H   0  0  0  0  0  0  0  0  0  0  0  0
    0.9404    1.3901   -3.9449 H   0  0  0  0  0  0  0  0  0  0  0  0
   -1.5132    2.0368    1.0910 N   0  0  0  0  0  0  0  0  0  0  0  0
   -2.3455    2.6935    2.1058 C   0  0  2  0  0  0  0  0  0  0  0  0
   -3.7384    3.0408    1.5406 C   0  0  0  0  0  0  0  0  0  0  0  0
   -3.9609    2.9228    0.3397 O   0  0  0  0  0  0  0  0  0  0  0  0
   -1.6201    3.9560    2.5815 C   0  0  0  0  0  0  0  0  0  0  0  0
   -1.8090    2.1469    0.1215 H   0  0  0  0  0  0  0  0  0  0  0  0
   -2.4961    2.0205    2.9565 H   0  0  0  0  0  0  0  0  0  0  0  0
   -1.4725    4.6498    1.7477 H   0  0  0  0  0  0  0  0  0  0  0  0
   -2.1984    4.4631    3.3596 H   0  0  0  0  0  0  0  0  0  0  0  0
   -0.6408    3.6961    2.9962 H   0  0  0  0  0  0  0  0  0  0  0  0
   -4.7510    3.4655    2.3803 N   0  0  0  0  0  0  0  0  0  0  0  0
   -6.0927    3.7946    1.9151 C   0  0  0  0  0  0  0  0  0  0  0  0
   -4.5429    3.5348    3.3722 H   0  0  0  0  0  0  0  0  0  0  0  0
   -6.0555    4.6001    1.1742 H   0  0  0  0  0  0  0  0  0  0  0  0
   -6.5660    2.9184    1.4599 H   0  0  0  0  0  0  0  0  0  0  0  0
   -6.7128    4.1262    2.7535 H   0  0  0  0  0  0  0  0  0  0  0  0
  1  2  2  0  0  0  0
  1  3  1  0  0  0  0
  1  7  1  0  0  0  0
  3  4  1  0  0  0  0
  3  5  1  0  0  0  0
  3  6  1  0  0  0  0
  7  8  1  0  0  0  0
  7 12  1  0  0  0  0
  8  9  1  0  0  0  0
  8 11  1  0  0  0  0
  8 13  1  0  0  0  0
  9 10  2  0  0  0  0
  9 17  1  0  0  0  0
 11 14  1  0  0  0  0
 11 15  1  0  0  0  0
 11 16  1  0  0  0  0
 17 18  1  0  0  0  0
 17 25  1  0  0  0  0
 18 19  1  0  0  0  0
 18 21  1  0  0  0  0
 18 26  1  0  0  0  0
 19 20  2  0  0  0  0
 19 36  1  0  0  0  0
 21 22  1  0  0  0  0
 21 23  1  0  0  0  0
 21 27  1  0  0  0  0
 22 24  1  0  0  0  0
 22 28  1  0  0  0  0
 22 29  1  0  0  0  0
 23 30  1  0  0  0  0
 23 31  1  0  0  0  0
 23 32  1  0  0  0  0
 24 33  1  0  0  0  0
 24 34  1  0  0  0  0
 24 35  1  0  0  0  0
 36 37  1  0  0  0  0
 36 41  1  0  0  0  0
 37 38  1  0  0  0  0
 37 40  1  0  0  0  0
 37 42  1  0  0  0  0
 38 39  2  0  0  0  0
 38 46  1  0  0  0  0
 40 43  1  0  0  0  0
 40 44  1  0  0  0  0
 40 45  1  0  0  0  0
 46 47  1  0  0  0  0
 46 48  1  0  0  0  0
 47 49  1  0  0  0  0
 47 50  1  0  0  0  0
 47 51  1  0  0  0  0
M  END
$$$$

  -OEChem-05262216503D

 51 50  0     1  0  0  0  0  0999 V2000
    0.1885   -5.4995    0.6150 C   0  0  0  0  0  0  0  0  0  0  0  0
   -0.5443   -5.5880   -0.3580 O   0  0  0  0  0  0  0  0  0  0  0  0
    1.2853   -6.5257    0.8309 C   0  0  0  0  0  0  0  0  0  0  0  0
    1.2447   -7.2918    0.0513 H   0  0  0  0  0  0  0  0  0  0  0  0
    2.2633   -6.0390    0.7962 H   0  0  0  0  0  0  0  0  0  0  0  0
    1.1595   -7.0070    1.8038 H   0  0  0  0  0  0  0  0  0  0  0  0
    0.0376   -4.4648    1.5151 N   0  0  0  0  0  0  0  0  0  0  0  0
   -0.7899   -3.2779    1.2551 C   0  0  2  0  0  0  0  0  0  0  0  0
    0.0760   -2.0283    0.9964 C   0  0  0  0  0  0  0  0  0  0  0  0
    1.2035   -1.9601    1.4714 O   0  0  0  0  0  0  0  0  0  0  0  0
   -1.6860   -3.0552    2.4753 C   0  0  0  0  0  0  0  0  0  0  0  0
    0.8109   -4.3337    2.1647 H   0  0  0  0  0  0  0  0  0  0  0  0
   -1.4272   -3.4329    0.3784 H   0  0  0  0  0  0  0  0  0  0  0  0
   -1.0788   -2.8795    3.3695 H   0  0  0  0  0  0  0  0  0  0  0  0
   -2.3346   -2.1872    2.3216 H   0  0  0  0  0  0  0  0  0  0  0  0
   -2.3166   -3.9331    2.6471 H   0  0  0  0  0  0  0  0  0  0  0  0
   -0.4194   -0.9855    0.2334 N   0  0  0  0  0  0  0  0  0  0  0  0
    0.1717    0.3654    0.2300 C   0  0  2  0  0  0  0  0  0  0  0  0
   -0.5203    1.2006    1.3338 C   0  0  0  0  0  0  0  0  0  0  0  0
   -0.1294    1.1587    2.4916 O   0  0  0  0  0  0  0  0  0  0  0  0
    0.0836    0.9736   -1.1984 C   0  0  2  0  0  0  0  0  0  0  0  0
    0.9169    0.1170   -2.1855 C   0  0  0  0  0  0  0  0  0  0  0  0
    0.6266    2.4199   -1.2142 C   0  0  0  0  0  0  0  0  0  0  0  0
    0.6742    0.4829   -3.6531 C   0  0  0  0  0  0  0  0  0  0  0  0
   -1.3791   -1.0852   -0.0847 H   0  0  0  0  0  0  0  0  0  0  0  0
    1.2335    0.3152    0.4976 H   0  0  0  0  0  0  0  0  0  0  0  0
   -0.9630    0.9794   -1.5210 H   0  0  0  0  0  0  0  0  0  0  0  0
    1.9831    0.2161   -1.9557 H   0  0  0  0  0  0  0  0  0  0  0  0
    0.6583   -0.9398   -2.0694 H   0  0  0  0  0  0  0  0  0  0  0  0
    1.6806    2.4345   -0.9183 H   0  0  0  0  0  0  0  0  0  0  0  0
    0.5402    2.8589   -2.2114 H   0  0  0  0  0  0  0  0  0  0  0  0
    0.0726    3.0691   -0.5322 H   0  0  0  0  0  0  0  0  0  0  0  0
   -0.3948    0.4513   -3.8847 H   0  0  0  0  0  0  0  0  0  0  0  0
    1.1891   -0.2319   -4.3020 H   0  0  0  0  0  0  0  0  0  0  0  0
    1.0564    1.4812   -3.8821 H   0  0  0  0  0  0  0  0  0  0  0  0
   -1.6569    1.9346    1.0469 N   0  0  0  0  0  0  0  0  0  0  0  0
   -2.5570    2.5094    2.0545 C   0  0  2  0  0  0  0  0  0  0  0  0
   -4.0341    2.2342    1.7018 C   0  0  0  0  0  0  0  0  0  0  0  0
   -4.3265    1.7776    0.6008 O   0  0  0  0  0  0  0  0  0  0  0  0
   -2.2812    4.0131    2.1281 C   0  0  0  0  0  0  0  0  0  0  0  0
   -2.0521    1.8072    0.1166 H   0  0  0  0  0  0  0  0  0  0  0  0
   -2.3689    2.0610    3.0359 H   0  0  0  0  0  0  0  0  0  0  0  0
   -2.4785    4.4865    1.1610 H   0  0  0  0  0  0  0  0  0  0  0  0
   -2.9166    4.4844    2.8838 H   0  0  0  0  0  0  0  0  0  0  0  0
   -1.2350    4.1917    2.3970 H   0  0  0  0  0  0  0  0  0  0  0  0
   -5.0363    2.4852    2.6208 N   0  0  0  0  0  0  0  0  0  0  0  0
   -6.4499    2.2525    2.3485 C   0  0  0  0  0  0  0  0  0  0  0  0
   -4.7639    2.8557    3.5270 H   0  0  0  0  0  0  0  0  0  0  0  0
   -6.7938    2.8967    1.5325 H   0  0  0  0  0  0  0  0  0  0  0  0
   -6.6209    1.2076    2.0685 H   0  0  0  0  0  0  0  0  0  0  0  0
   -7.0481    2.4725    3.2379 H   0  0  0  0  0  0  0  0  0  0  0  0
  1  2  2  0  0  0  0
  1  3  1  0  0  0  0
  1  7  1  0  0  0  0
  3  4  1  0  0  0  0
  3  5  1  0  0  0  0
  3  6  1  0  0  0  0
  7  8  1  0  0  0  0
  7 12  1  0  0  0  0
  8  9  1  0  0  0  0
  8 11  1  0  0  0  0
  8 13  1  0  0  0  0
  9 10  2  0  0  0  0
  9 17  1  0  0  0  0
 11 14  1  0  0  0  0
 11 15  1  0  0  0  0
 11 16  1  0  0  0  0
 17 18  1  0  0  0  0
 17 25  1  0  0  0  0
 18 19  1  0  0  0  0
 18 21  1  0  0  0  0
 18 26  1  0  0  0  0
 19 20  2  0  0  0  0
 19 36  1  0  0  0  0
 21 22  1  0  0  0  0
 21 23  1  0  0  0  0
 21 27  1  0  0  0  0
 22 24  1  0  0  0  0
 22 28  1  0  0  0  0
 22 29  1  0  0  0  0
 23 30  1  0  0  0  0
 23 31  1  0  0  0  0
 23 32  1  0  0  0  0
 24 33  1  0  0  0  0
 24 34  1  0  0  0  0
 24 35  1  0  0  0  0
 36 37  1  0  0  0  0
 36 41  1  0  0  0  0
 37 38  1  0  0  0  0
 37 40  1  0  0  0  0
 37 42  1  0  0  0  0
 38 39  2  0  0  0  0
 38 46  1  0  0  0  0
 40 43  1  0  0  0  0
 40 44  1  0  0  0  0
 40 45  1  0  0  0  0
 46 47  1  0  0  0  0
 46 48  1  0  0  0  0
 47 49  1  0  0  0  0
 47 50  1  0  0  0  0
 47 51  1  0  0  0  0
M  END
$$$$

  -OEChem-05262216503D

 51 50  0     1  0  0  0  0  0999 V2000
    0.5724   -5.3934    0.4694 C   0  0  0  0  0  0  0  0  0  0  0  0
    0.0877   -5.3825   -0.6517 O   0  0  0  0  0  0  0  0  0  0  0  0
    1.7433   -6.3062    0.7805 C   0  0  0  0  0  0  0  0  0  0  0  0
    1.9956   -6.9105   -0.0954 H   0  0  0  0  0  0  0  0  0  0  0  0
    2.6157   -5.7100    1.0600 H   0  0  0  0  0  0  0  0  0  0  0  0
    1.4866   -6.9738    1.6066 H   0  0  0  0  0  0  0  0  0  0  0  0
    0.0827   -4.5598    1.4535 N   0  0  0  0  0  0  0  0  0  0  0  0
   -0.8281   -3.4407    1.1753 C   0  0  2  0  0  0  0  0  0  0  0  0
   -0.0753   -2.0954    1.1334 C   0  0  0  0  0  0  0  0  0  0  0  0
    0.9258   -1.9366    1.8202 O   0  0  0  0  0  0  0  0  0  0  0  0
   -1.8946   -3.4190    2.2721 C   0  0  0  0  0  0  0  0  0  0  0  0
    0.6812   -4.4556    2.2703 H   0  0  0  0  0  0  0  0  0  0  0  0
   -1.3288   -3.5807    0.2119 H   0  0  0  0  0  0  0  0  0  0  0  0
   -1.4337   -3.2570    3.2521 H   0  0  0  0  0  0  0  0  0  0  0  0
   -2.6146   -2.6148    2.0900 H   0  0  0  0  0  0  0  0  0  0  0  0
   -2.4354   -4.3705    2.2930 H   0  0  0  0  0  0  0  0  0  0  0  0
   -0.5372   -1.0646    0.3355 N   0  0  0  0  0  0  0  0  0  0  0  0
    0.0299    0.2966    0.3241 C   0  0  2  0  0  0  0  0  0  0  0  0
   -0.7027    1.1683    1.3691 C   0  0  0  0  0  0  0  0  0  0  0  0
   -0.1572    1.5014    2.4115 O   0  0  0  0  0  0  0  0  0  0  0  0
   -0.0332    0.8729   -1.1174 C   0  0  2  0  0  0  0  0  0  0  0  0
    0.8391    0.0190   -2.0717 C   0  0  0  0  0  0  0  0  0  0  0  0
    0.4563    2.3362   -1.1401 C   0  0  0  0  0  0  0  0  0  0  0  0
    0.6188    0.3593   -3.5491 C   0  0  0  0  0  0  0  0  0  0  0  0
   -1.3710   -1.2505   -0.2141 H   0  0  0  0  0  0  0  0  0  0  0  0
    1.0847    0.2637    0.6224 H   0  0  0  0  0  0  0  0  0  0  0  0
   -1.0714    0.8446   -1.4646 H   0  0  0  0  0  0  0  0  0  0  0  0
    1.8974    0.1479   -1.8217 H   0  0  0  0  0  0  0  0  0  0  0  0
    0.6032   -1.0418   -1.9443 H   0  0  0  0  0  0  0  0  0  0  0  0
    1.4935    2.3975   -0.7949 H   0  0  0  0  0  0  0  0  0  0  0  0
    0.4011    2.7531   -2.1487 H   0  0  0  0  0  0  0  0  0  0  0  0
   -0.1584    2.9724   -0.4974 H   0  0  0  0  0  0  0  0  0  0  0  0
   -0.4444    0.3016   -3.8023 H   0  0  0  0  0  0  0  0  0  0  0  0
    1.1623   -0.3524   -4.1781 H   0  0  0  0  0  0  0  0  0  0  0  0
    0.9837    1.3628   -3.7835 H   0  0  0  0  0  0  0  0  0  0  0  0
   -1.9808    1.6284    1.1104 N   0  0  0  0  0  0  0  0  0  0  0  0
   -2.8436    2.2768    2.1046 C   0  0  2  0  0  0  0  0  0  0  0  0
   -4.2988    1.7785    1.9840 C   0  0  0  0  0  0  0  0  0  0  0  0
   -4.6315    1.0811    1.0302 O   0  0  0  0  0  0  0  0  0  0  0  0
   -2.7605    3.7906    1.8919 C   0  0  0  0  0  0  0  0  0  0  0  0
   -2.4542    1.2232    0.3049 H   0  0  0  0  0  0  0  0  0  0  0  0
   -2.5008    2.0363    3.1168 H   0  0  0  0  0  0  0  0  0  0  0  0
   -3.1182    4.0575    0.8923 H   0  0  0  0  0  0  0  0  0  0  0  0
   -3.3681    4.3184    2.6330 H   0  0  0  0  0  0  0  0  0  0  0  0
   -1.7240    4.1283    1.9933 H   0  0  0  0  0  0  0  0  0  0  0  0
   -5.2335    2.0971    2.9516 N   0  0  0  0  0  0  0  0  0  0  0  0
   -6.6225    1.6575    2.9000 C   0  0  0  0  0  0  0  0  0  0  0  0
   -4.9238    2.6604    3.7386 H   0  0  0  0  0  0  0  0  0  0  0  0
   -7.1156    2.0501    2.0045 H   0  0  0  0  0  0  0  0  0  0  0  0
   -6.6787    0.5640    2.8828 H   0  0  0  0  0  0  0  0  0  0  0  0
   -7.1662    2.0169    3.7790 H   0  0  0  0  0  0  0  0  0  0  0  0
  1  2  2  0  0  0  0
  1  3  1  0  0  0  0
  1  7  1  0  0  0  0
  3  4  1  0  0  0  0
  3  5  1  0  0  0  0
  3  6  1  0  0  0  0
  7  8  1  0  0  0  0
  7 12  1  0  0  0  0
  8  9  1  0  0  0  0
  8 11  1  0  0  0  0
  8 13  1  0  0  0  0
  9 10  2  0  0  0  0
  9 17  1  0  0  0  0
 11 14  1  0  0  0  0
 11 15  1  0  0  0  0
 11 16  1  0  0  0  0
 17 18  1  0  0  0  0
 17 25  1  0  0  0  0
 18 19  1  0  0  0  0
 18 21  1  0  0  0  0
 18 26  1  0  0  0  0
 19 20  2  0  0  0  0
 19 36  1  0  0  0  0
 21 22  1  0  0  0  0
 21 23  1  0  0  0  0
 21 27  1  0  0  0  0
 22 24  1  0  0  0  0
 22 28  1  0  0  0  0
 22 29  1  0  0  0  0
 23 30  1  0  0  0  0
 23 31  1  0  0  0  0
 23 32  1  0  0  0  0
 24 33  1  0  0  0  0
 24 34  1  0  0  0  0
 24 35  1  0  0  0  0
 36 37  1  0  0  0  0
 36 41  1  0  0  0  0
 37 38  1  0  0  0  0
 37 40  1  0  0  0  0
 37 42  1  0  0  0  0
 38 39  2  0  0  0  0
 38 46  1  0  0  0  0
 40 43  1  0  0  0  0
 40 44  1  0  0  0  0
 40 45  1  0  0  0  0
 46 47  1  0  0  0  0
 46 48  1  0  0  0  0
 47 49  1  0  0  0  0
 47 50  1  0  0  0  0
 47 51  1  0  0  0  0
M  END
$$$$

  -OEChem-05262216503D

 51 50  0     1  0  0  0  0  0999 V2000
   -0.7511   -3.9197   -0.4322 C   0  0  0  0  0  0  0  0  0  0  0  0
   -1.4836   -3.0363   -0.8545 O   0  0  0  0  0  0  0  0  0  0  0  0
   -0.0317   -4.8414   -1.3980 C   0  0  0  0  0  0  0  0  0  0  0  0
   -0.3977   -4.6814   -2.4162 H   0  0  0  0  0  0  0  0  0  0  0  0
    1.0425   -4.6423   -1.3739 H   0  0  0  0  0  0  0  0  0  0  0  0
   -0.2084   -5.8843   -1.1232 H   0  0  0  0  0  0  0  0  0  0  0  0
   -0.5317   -4.0335    0.9260 N   0  0  0  0  0  0  0  0  0  0  0  0
   -1.2227   -3.2340    1.9523 C   0  0  2  0  0  0  0  0  0  0  0  0
   -0.6817   -1.7866    2.0604 C   0  0  0  0  0  0  0  0  0  0  0  0
   -0.2369   -1.3357    3.1066 O   0  0  0  0  0  0  0  0  0  0  0  0
   -1.1215   -4.0032    3.2755 C   0  0  0  0  0  0  0  0  0  0  0  0
    0.1183   -4.7521    1.2328 H   0  0  0  0  0  0  0  0  0  0  0  0
   -2.2845   -3.1573    1.6939 H   0  0  0  0  0  0  0  0  0  0  0  0
   -0.0766   -4.0961    3.5890 H   0  0  0  0  0  0  0  0  0  0  0  0
   -1.6716   -3.4767    4.0623 H   0  0  0  0  0  0  0  0  0  0  0  0
   -1.5480   -5.0054    3.1701 H   0  0  0  0  0  0  0  0  0  0  0  0
   -0.7283   -0.9782    0.9432 N   0  0  0  0  0  0  0  0  0  0  0  0
   -0.2584    0.4140    0.8743 C   0  0  2  0  0  0  0  0  0  0  0  0
   -1.4218    1.3558    1.2440 C   0  0  0  0  0  0  0  0  0  0  0  0
   -1.3342    2.1289    2.1901 O   0  0  0  0  0  0  0  0  0  0  0  0
    0.3246    0.6904   -0.5371 C   0  0  2  0  0  0  0  0  0  0  0  0
    1.5592   -0.2114   -0.7894 C   0  0  0  0  0  0  0  0  0  0  0  0
    0.7148    2.1756   -0.6813 C   0  0  0  0  0  0  0  0  0  0  0  0
    2.0278   -0.1932   -2.2476 C   0  0  0  0  0  0  0  0  0  0  0  0
   -1.0597   -1.4345    0.0889 H   0  0  0  0  0  0  0  0  0  0  0  0
    0.5383    0.5765    1.6096 H   0  0  0  0  0  0  0  0  0  0  0  0
   -0.4414    0.4580   -1.2850 H   0  0  0  0  0  0  0  0  0  0  0  0
    2.3828    0.0982   -0.1371 H   0  0  0  0  0  0  0  0  0  0  0  0
    1.3193   -1.2493   -0.5402 H   0  0  0  0  0  0  0  0  0  0  0  0
    1.4642    2.4501    0.0681 H   0  0  0  0  0  0  0  0  0  0  0  0
    1.1248    2.3797   -1.6734 H   0  0  0  0  0  0  0  0  0  0  0  0
   -0.1553    2.8262   -0.5536 H   0  0  0  0  0  0  0  0  0  0  0  0
    1.1988   -0.4339   -2.9205 H   0  0  0  0  0  0  0  0  0  0  0  0
    2.8171   -0.9370   -2.3928 H   0  0  0  0  0  0  0  0  0  0  0  0
    2.4325    0.7849   -2.5212 H   0  0  0  0  0  0  0  0  0  0  0  0
   -2.5848    1.3488    0.4938 N   0  0  0  0  0  0  0  0  0  0  0  0
   -3.8053    2.0695    0.8861 C   0  0  2  0  0  0  0  0  0  0  0  0
   -4.5364    1.3776    2.0639 C   0  0  0  0  0  0  0  0  0  0  0  0
   -5.6606    0.9066    1.9374 O   0  0  0  0  0  0  0  0  0  0  0  0
   -4.6814    2.2029   -0.3659 C   0  0  0  0  0  0  0  0  0  0  0  0
   -2.6727    0.5956   -0.1826 H   0  0  0  0  0  0  0  0  0  0  0  0
   -3.5429    3.0796    1.2187 H   0  0  0  0  0  0  0  0  0  0  0  0
   -4.9794    1.2166   -0.7364 H   0  0  0  0  0  0  0  0  0  0  0  0
   -5.5866    2.7735   -0.1349 H   0  0  0  0  0  0  0  0  0  0  0  0
   -4.1374    2.7254   -1.1587 H   0  0  0  0  0  0  0  0  0  0  0  0
   -3.8905    1.2548    3.2783 N   0  0  0  0  0  0  0  0  0  0  0  0
   -4.4325    0.5391    4.4243 C   0  0  0  0  0  0  0  0  0  0  0  0
   -2.9230    1.5894    3.3104 H   0  0  0  0  0  0  0  0  0  0  0  0
   -5.3696    0.9991    4.7549 H   0  0  0  0  0  0  0  0  0  0  0  0
   -4.6234   -0.5077    4.1669 H   0  0  0  0  0  0  0  0  0  0  0  0
   -3.7209    0.5670    5.2553 H   0  0  0  0  0  0  0  0  0  0  0  0
  1  2  2  0  0  0  0
  1  3  1  0  0  0  0
  1  7  1  0  0  0  0
  3  4  1  0  0  0  0
  3  5  1  0  0  0  0
  3  6  1  0  0  0  0
  7  8  1  0  0  0  0
  7 12  1  0  0  0  0
  8  9  1  0  0  0  0
  8 11  1  0  0  0  0
  8 13  1  0  0  0  0
  9 10  2  0  0  0  0
  9 17  1  0  0  0  0
 11 14  1  0  0  0  0
 11 15  1  0  0  0  0
 11 16  1  0  0  0  0
 17 18  1  0  0  0  0
 17 25  1  0  0  0  0
 18 19  1  0  0  0  0
 18 21  1  0  0  0  0
 18 26  1  0  0  0  0
 19 20  2  0  0  0  0
 19 36  1  0  0  0  0
 21 22  1  0  0  0  0
 21 23  1  0  0  0  0
 21 27  1  0  0  0  0
 22 24  1  0  0  0  0
 22 28  1  0  0  0  0
 22 29  1  0  0  0  0
 23 30  1  0  0  0  0
 23 31  1  0  0  0  0
 23 32  1  0  0  0  0
 24 33  1  0  0  0  0
 24 34  1  0  0  0  0
 24 35  1  0  0  0  0
 36 37  1  0  0  0  0
 36 41  1  0  0  0  0
 37 38  1  0  0  0  0
 37 40  1  0  0  0  0
 37 42  1  0  0  0  0
 38 39  2  0  0  0  0
 38 46  1  0  0  0  0
 40 43  1  0  0  0  0
 40 44  1  0  0  0  0
 40 45  1  0  0  0  0
 46 47  1  0  0  0  0
 46 48  1  0  0  0  0
 47 49  1  0  0  0  0
 47 50  1  0  0  0  0
 47 51  1  0  0  0  0
M  END
$$$$

  -OEChem-05262216503D

 51 50  0     1  0  0  0  0  0999 V2000
   -0.7591   -3.9477   -0.4515 C   0  0  0  0  0  0  0  0  0  0  0  0
   -1.4256   -3.0533   -0.9522 O   0  0  0  0  0  0  0  0  0  0  0  0
    0.0510   -4.8798   -1.3320 C   0  0  0  0  0  0  0  0  0  0  0  0
   -0.1007   -4.6309   -2.3863 H   0  0  0  0  0  0  0  0  0  0  0  0
    1.1142   -4.7854   -1.0978 H   0  0  0  0  0  0  0  0  0  0  0  0
   -0.2609   -5.9142   -1.1675 H   0  0  0  0  0  0  0  0  0  0  0  0
   -0.6949   -4.0641    0.9227 N   0  0  0  0  0  0  0  0  0  0  0  0
   -1.4762   -3.2461    1.8657 C   0  0  2  0  0  0  0  0  0  0  0  0
   -0.9206   -1.8089    2.0223 C   0  0  0  0  0  0  0  0  0  0  0  0
   -0.5652   -1.3626    3.1047 O   0  0  0  0  0  0  0  0  0  0  0  0
   -1.5318   -4.0088    3.1955 C   0  0  0  0  0  0  0  0  0  0  0  0
   -0.0971   -4.7944    1.2998 H   0  0  0  0  0  0  0  0  0  0  0  0
   -2.5031   -3.1507    1.4955 H   0  0  0  0  0  0  0  0  0  0  0  0
   -0.5284   -4.1204    3.6190 H   0  0  0  0  0  0  0  0  0  0  0  0
   -2.1528   -3.4677    3.9168 H   0  0  0  0  0  0  0  0  0  0  0  0
   -1.9643   -5.0032    3.0489 H   0  0  0  0  0  0  0  0  0  0  0  0
   -0.8747   -0.9935    0.9095 N   0  0  0  0  0  0  0  0  0  0  0  0
   -0.3302    0.3737    0.8844 C   0  0  2  0  0  0  0  0  0  0  0  0
   -1.4663    1.3613    1.2131 C   0  0  0  0  0  0  0  0  0  0  0  0
   -1.3313    2.2028    2.0932 O   0  0  0  0  0  0  0  0  0  0  0  0
    0.3113    0.6404   -0.5027 C   0  0  2  0  0  0  0  0  0  0  0  0
    1.5038   -0.3207   -0.7359 C   0  0  0  0  0  0  0  0  0  0  0  0
    0.7823    2.1047   -0.6123 C   0  0  0  0  0  0  0  0  0  0  0  0
    2.0148   -0.3004   -2.1796 C   0  0  0  0  0  0  0  0  0  0  0  0
   -1.1013   -1.4545    0.0236 H   0  0  0  0  0  0  0  0  0  0  0  0
    0.4433    0.4884    1.6525 H   0  0  0  0  0  0  0  0  0  0  0  0
   -0.4441    0.4606   -1.2758 H   0  0  0  0  0  0  0  0  0  0  0  0
    2.3229   -0.0661   -0.0549 H   0  0  0  0  0  0  0  0  0  0  0  0
    1.2031   -1.3484   -0.5139 H   0  0  0  0  0  0  0  0  0  0  0  0
    1.5267    2.3262    0.1591 H   0  0  0  0  0  0  0  0  0  0  0  0
    1.2263    2.3029   -1.5909 H   0  0  0  0  0  0  0  0  0  0  0  0
   -0.0552    2.7988   -0.4940 H   0  0  0  0  0  0  0  0  0  0  0  0
    1.1943   -0.4871   -2.8795 H   0  0  0  0  0  0  0  0  0  0  0  0
    2.7700   -1.0803   -2.3168 H   0  0  0  0  0  0  0  0  0  0  0  0
    2.4755    0.6606   -2.4240 H   0  0  0  0  0  0  0  0  0  0  0  0
   -2.7021    1.2084    0.6095 N   0  0  0  0  0  0  0  0  0  0  0  0
   -3.9348    1.7264    1.2189 C   0  0  2  0  0  0  0  0  0  0  0  0
   -4.3392    0.8752    2.4477 C   0  0  0  0  0  0  0  0  0  0  0  0
   -5.3026    0.1181    2.4149 O   0  0  0  0  0  0  0  0  0  0  0  0
   -5.0134    1.7576    0.1300 C   0  0  0  0  0  0  0  0  0  0  0  0
   -2.7896    0.3776    0.0308 H   0  0  0  0  0  0  0  0  0  0  0  0
   -3.7789    2.7539    1.5649 H   0  0  0  0  0  0  0  0  0  0  0  0
   -5.2067    0.7500   -0.2522 H   0  0  0  0  0  0  0  0  0  0  0  0
   -5.9481    2.1592    0.5341 H   0  0  0  0  0  0  0  0  0  0  0  0
   -4.6950    2.3925   -0.7023 H   0  0  0  0  0  0  0  0  0  0  0  0
   -3.5254    0.8840    3.5636 N   0  0  0  0  0  0  0  0  0  0  0  0
   -3.6452   -0.0751    4.6523 C   0  0  0  0  0  0  0  0  0  0  0  0
   -2.6464    1.3992    3.4643 H   0  0  0  0  0  0  0  0  0  0  0  0
   -4.6436   -0.0279    5.0990 H   0  0  0  0  0  0  0  0  0  0  0  0
   -3.4681   -1.0913    4.2861 H   0  0  0  0  0  0  0  0  0  0  0  0
   -2.9085    0.1455    5.4307 H   0  0  0  0  0  0  0  0  0  0  0  0
  1  2  2  0  0  0  0
  1  3  1  0  0  0  0
  1  7  1  0  0  0  0
  3  4  1  0  0  0  0
  3  5  1  0  0  0  0
  3  6  1  0  0  0  0
  7  8  1  0  0  0  0
  7 12  1  0  0  0  0
  8  9  1  0  0  0  0
  8 11  1  0  0  0  0
  8 13  1  0  0  0  0
  9 10  2  0  0  0  0
  9 17  1  0  0  0  0
 11 14  1  0  0  0  0
 11 15  1  0  0  0  0
 11 16  1  0  0  0  0
 17 18  1  0  0  0  0
 17 25  1  0  0  0  0
 18 19  1  0  0  0  0
 18 21  1  0  0  0  0
 18 26  1  0  0  0  0
 19 20  2  0  0  0  0
 19 36  1  0  0  0  0
 21 22  1  0  0  0  0
 21 23  1  0  0  0  0
 21 27  1  0  0  0  0
 22 24  1  0  0  0  0
 22 28  1  0  0  0  0
 22 29  1  0  0  0  0
 23 30  1  0  0  0  0
 23 31  1  0  0  0  0
 23 32  1  0  0  0  0
 24 33  1  0  0  0  0
 24 34  1  0  0  0  0
 24 35  1  0  0  0  0
 36 37  1  0  0  0  0
 36 41  1  0  0  0  0
 37 38  1  0  0  0  0
 37 40  1  0  0  0  0
 37 42  1  0  0  0  0
 38 39  2  0  0  0  0
 38 46  1  0  0  0  0
 40 43  1  0  0  0  0
 40 44  1  0  0  0  0
 40 45  1  0  0  0  0
 46 47  1  0  0  0  0
 46 48  1  0  0  0  0
 47 49  1  0  0  0  0
 47 50  1  0  0  0  0
 47 51  1  0  0  0  0
M  END
$$$$

  -OEChem-05262216503D

 51 50  0     1  0  0  0  0  0999 V2000
   -0.5411   -4.0704   -0.3689 C   0  0  0  0  0  0  0  0  0  0  0  0
   -1.2558   -3.2169   -0.8749 O   0  0  0  0  0  0  0  0  0  0  0  0
    0.2439   -5.0241   -1.2490 C   0  0  0  0  0  0  0  0  0  0  0  0
   -0.0101   -4.8623   -2.3005 H   0  0  0  0  0  0  0  0  0  0  0  0
    1.3161   -4.8586   -1.1165 H   0  0  0  0  0  0  0  0  0  0  0  0
    0.0056   -6.0576   -0.9857 H   0  0  0  0  0  0  0  0  0  0  0  0
   -0.4025   -4.1247    1.0034 N   0  0  0  0  0  0  0  0  0  0  0  0
   -1.1192   -3.2477    1.9441 C   0  0  2  0  0  0  0  0  0  0  0  0
   -0.5362   -1.8152    1.9820 C   0  0  0  0  0  0  0  0  0  0  0  0
   -0.0071   -1.3500    2.9835 O   0  0  0  0  0  0  0  0  0  0  0  0
   -1.1083   -3.9280    3.3177 C   0  0  0  0  0  0  0  0  0  0  0  0
    0.2551   -4.8009    1.3806 H   0  0  0  0  0  0  0  0  0  0  0  0
   -2.1657   -3.1556    1.6320 H   0  0  0  0  0  0  0  0  0  0  0  0
   -0.0836   -4.0404    3.6858 H   0  0  0  0  0  0  0  0  0  0  0  0
   -1.6716   -3.3268    4.0389 H   0  0  0  0  0  0  0  0  0  0  0  0
   -1.5724   -4.9169    3.2576 H   0  0  0  0  0  0  0  0  0  0  0  0
   -0.6381   -1.0356    0.8473 N   0  0  0  0  0  0  0  0  0  0  0  0
   -0.1777    0.3595    0.7339 C   0  0  2  0  0  0  0  0  0  0  0  0
   -1.3339    1.3007    1.1376 C   0  0  0  0  0  0  0  0  0  0  0  0
   -1.1174    2.3443    1.7414 O   0  0  0  0  0  0  0  0  0  0  0  0
    0.3167    0.5950   -0.7191 C   0  0  2  0  0  0  0  0  0  0  0  0
    1.5334   -0.3157   -1.0240 C   0  0  0  0  0  0  0  0  0  0  0  0
    0.6953    2.0729   -0.9406 C   0  0  0  0  0  0  0  0  0  0  0  0
    1.9118   -0.3408   -2.5080 C   0  0  0  0  0  0  0  0  0  0  0  0
   -0.9822   -1.5195    0.0128 H   0  0  0  0  0  0  0  0  0  0  0  0
    0.6546    0.5455    1.4222 H   0  0  0  0  0  0  0  0  0  0  0  0
   -0.4976    0.3406   -1.4069 H   0  0  0  0  0  0  0  0  0  0  0  0
    2.3952    0.0119   -0.4332 H   0  0  0  0  0  0  0  0  0  0  0  0
    1.3118   -1.3456   -0.7307 H   0  0  0  0  0  0  0  0  0  0  0  0
    1.4835    2.3748   -0.2436 H   0  0  0  0  0  0  0  0  0  0  0  0
    1.0490    2.2408   -1.9606 H   0  0  0  0  0  0  0  0  0  0  0  0
   -0.1688    2.7265   -0.7905 H   0  0  0  0  0  0  0  0  0  0  0  0
    1.0435   -0.6034   -3.1202 H   0  0  0  0  0  0  0  0  0  0  0  0
    2.6930   -1.0879   -2.6778 H   0  0  0  0  0  0  0  0  0  0  0  0
    2.2958    0.6286   -2.8363 H   0  0  0  0  0  0  0  0  0  0  0  0
   -2.6372    0.8939    0.9172 N   0  0  0  0  0  0  0  0  0  0  0  0
   -3.7216    1.2618    1.8328 C   0  0  2  0  0  0  0  0  0  0  0  0
   -3.9754    0.1143    2.8337 C   0  0  0  0  0  0  0  0  0  0  0  0
   -3.8359   -1.0531    2.4765 O   0  0  0  0  0  0  0  0  0  0  0  0
   -4.9723    1.5438    0.9994 C   0  0  0  0  0  0  0  0  0  0  0  0
   -2.6905   -0.0617    0.5695 H   0  0  0  0  0  0  0  0  0  0  0  0
   -3.4703    2.1652    2.3983 H   0  0  0  0  0  0  0  0  0  0  0  0
   -5.2617    0.6553    0.4289 H   0  0  0  0  0  0  0  0  0  0  0  0
   -5.8064    1.8286    1.6477 H   0  0  0  0  0  0  0  0  0  0  0  0
   -4.7822    2.3623    0.2981 H   0  0  0  0  0  0  0  0  0  0  0  0
   -4.3624    0.3865    4.1323 N   0  0  0  0  0  0  0  0  0  0  0  0
   -4.4895   -0.6477    5.1515 C   0  0  0  0  0  0  0  0  0  0  0  0
   -4.3409    1.3592    4.4256 H   0  0  0  0  0  0  0  0  0  0  0  0
   -5.2120   -1.4086    4.8379 H   0  0  0  0  0  0  0  0  0  0  0  0
   -3.5228   -1.1308    5.3289 H   0  0  0  0  0  0  0  0  0  0  0  0
   -4.8373   -0.2108    6.0925 H   0  0  0  0  0  0  0  0  0  0  0  0
  1  2  2  0  0  0  0
  1  3  1  0  0  0  0
  1  7  1  0  0  0  0
  3  4  1  0  0  0  0
  3  5  1  0  0  0  0
  3  6  1  0  0  0  0
  7  8  1  0  0  0  0
  7 12  1  0  0  0  0
  8  9  1  0  0  0  0
  8 11  1  0  0  0  0
  8 13  1  0  0  0  0
  9 10  2  0  0  0  0
  9 17  1  0  0  0  0
 11 14  1  0  0  0  0
 11 15  1  0  0  0  0
 11 16  1  0  0  0  0
 17 18  1  0  0  0  0
 17 25  1  0  0  0  0
 18 19  1  0  0  0  0
 18 21  1  0  0  0  0
 18 26  1  0  0  0  0
 19 20  2  0  0  0  0
 19 36  1  0  0  0  0
 21 22  1  0  0  0  0
 21 23  1  0  0  0  0
 21 27  1  0  0  0  0
 22 24  1  0  0  0  0
 22 28  1  0  0  0  0
 22 29  1  0  0  0  0
 23 30  1  0  0  0  0
 23 31  1  0  0  0  0
 23 32  1  0  0  0  0
 24 33  1  0  0  0  0
 24 34  1  0  0  0  0
 24 35  1  0  0  0  0
 36 37  1  0  0  0  0
 36 41  1  0  0  0  0
 37 38  1  0  0  0  0
 37 40  1  0  0  0  0
 37 42  1  0  0  0  0
 38 39  2  0  0  0  0
 38 46  1  0  0  0  0
 40 43  1  0  0  0  0
 40 44  1  0  0  0  0
 40 45  1  0  0  0  0
 46 47  1  0  0  0  0
 46 48  1  0  0  0  0
 47 49  1  0  0  0  0
 47 50  1  0  0  0  0
 47 51  1  0  0  0  0
M  END
$$$$

  -OEChem-05262216503D

 51 50  0     1  0  0  0  0  0999 V2000
    1.0868   -5.1886    0.3489 C   0  0  0  0  0  0  0  0  0  0  0  0
    0.8660   -5.0235   -0.8411 O   0  0  0  0  0  0  0  0  0  0  0  0
    2.3054   -5.9756    0.7928 C   0  0  0  0  0  0  0  0  0  0  0  0
    2.8320   -6.3782   -0.0770 H   0  0  0  0  0  0  0  0  0  0  0  0
    2.9868   -5.3260    1.3475 H   0  0  0  0  0  0  0  0  0  0  0  0
    2.0010   -6.8059    1.4345 H   0  0  0  0  0  0  0  0  0  0  0  0
    0.2437   -4.6425    1.2947 N   0  0  0  0  0  0  0  0  0  0  0  0
   -0.7979   -3.6621    0.9597 C   0  0  2  0  0  0  0  0  0  0  0  0
   -0.2951   -2.2150    1.1327 C   0  0  0  0  0  0  0  0  0  0  0  0
    0.4742   -1.9346    2.0434 O   0  0  0  0  0  0  0  0  0  0  0  0
   -2.0018   -3.9191    1.8679 C   0  0  0  0  0  0  0  0  0  0  0  0
    0.6068   -4.6151    2.2447 H   0  0  0  0  0  0  0  0  0  0  0  0
   -1.1219   -3.7911   -0.0782 H   0  0  0  0  0  0  0  0  0  0  0  0
   -1.7348   -3.7584    2.9175 H   0  0  0  0  0  0  0  0  0  0  0  0
   -2.8225   -3.2416    1.6128 H   0  0  0  0  0  0  0  0  0  0  0  0
   -2.3549   -4.9481    1.7497 H   0  0  0  0  0  0  0  0  0  0  0  0
   -0.7594   -1.2088    0.3055 N   0  0  0  0  0  0  0  0  0  0  0  0
   -0.2571    0.1807    0.3514 C   0  0  2  0  0  0  0  0  0  0  0  0
   -1.0915    1.0228    1.3491 C   0  0  0  0  0  0  0  0  0  0  0  0
   -0.6638    2.0727    1.8129 O   0  0  0  0  0  0  0  0  0  0  0  0
   -0.2787    0.7320   -1.1051 C   0  0  2  0  0  0  0  0  0  0  0  0
    0.6868   -0.0886   -2.0015 C   0  0  0  0  0  0  0  0  0  0  0  0
    0.1051    2.2244   -1.1581 C   0  0  0  0  0  0  0  0  0  0  0  0
    0.5286    0.2111   -3.4960 C   0  0  0  0  0  0  0  0  0  0  0  0
   -1.2965   -1.4992   -0.5071 H   0  0  0  0  0  0  0  0  0  0  0  0
    0.7787    0.1993    0.7092 H   0  0  0  0  0  0  0  0  0  0  0  0
   -1.2968    0.6304   -1.4962 H   0  0  0  0  0  0  0  0  0  0  0  0
    1.7219    0.1051   -1.6999 H   0  0  0  0  0  0  0  0  0  0  0  0
    0.5071   -1.1594   -1.8693 H   0  0  0  0  0  0  0  0  0  0  0  0
    1.0845    2.3852   -0.6963 H   0  0  0  0  0  0  0  0  0  0  0  0
    0.1411    2.5900   -2.1866 H   0  0  0  0  0  0  0  0  0  0  0  0
   -0.6334    2.8365   -0.6333 H   0  0  0  0  0  0  0  0  0  0  0  0
   -0.5181    0.1128   -3.7998 H   0  0  0  0  0  0  0  0  0  0  0  0
    1.1254   -0.4961   -4.0799 H   0  0  0  0  0  0  0  0  0  0  0  0
    0.8735    1.2196   -3.7383 H   0  0  0  0  0  0  0  0  0  0  0  0
   -2.3075    0.5457    1.7991 N   0  0  0  0  0  0  0  0  0  0  0  0
   -3.0047    1.0471    2.9874 C   0  0  2  0  0  0  0  0  0  0  0  0
   -3.7179   -0.1036    3.7285 C   0  0  0  0  0  0  0  0  0  0  0  0
   -3.8521   -1.1971    3.1855 O   0  0  0  0  0  0  0  0  0  0  0  0
   -4.0055    2.1188    2.5475 C   0  0  0  0  0  0  0  0  0  0  0  0
   -2.5136   -0.4178    1.5400 H   0  0  0  0  0  0  0  0  0  0  0  0
   -2.2835    1.4884    3.6835 H   0  0  0  0  0  0  0  0  0  0  0  0
   -4.7417    1.6947    1.8573 H   0  0  0  0  0  0  0  0  0  0  0  0
   -4.5337    2.5303    3.4127 H   0  0  0  0  0  0  0  0  0  0  0  0
   -3.4837    2.9372    2.0413 H   0  0  0  0  0  0  0  0  0  0  0  0
   -4.2031    0.0792    5.0103 N   0  0  0  0  0  0  0  0  0  0  0  0
   -4.8573   -0.9757    5.7746 C   0  0  0  0  0  0  0  0  0  0  0  0
   -4.0455    0.9819    5.4496 H   0  0  0  0  0  0  0  0  0  0  0  0
   -5.7492   -1.3327    5.2487 H   0  0  0  0  0  0  0  0  0  0  0  0
   -4.1745   -1.8188    5.9246 H   0  0  0  0  0  0  0  0  0  0  0  0
   -5.1635   -0.5999    6.7556 H   0  0  0  0  0  0  0  0  0  0  0  0
  1  2  2  0  0  0  0
  1  3  1  0  0  0  0
  1  7  1  0  0  0  0
  3  4  1  0  0  0  0
  3  5  1  0  0  0  0
  3  6  1  0  0  0  0
  7  8  1  0  0  0  0
  7 12  1  0  0  0  0
  8  9  1  0  0  0  0
  8 11  1  0  0  0  0
  8 13  1  0  0  0  0
  9 10  2  0  0  0  0
  9 17  1  0  0  0  0
 11 14  1  0  0  0  0
 11 15  1  0  0  0  0
 11 16  1  0  0  0  0
 17 18  1  0  0  0  0
 17 25  1  0  0  0  0
 18 19  1  0  0  0  0
 18 21  1  0  0  0  0
 18 26  1  0  0  0  0
 19 20  2  0  0  0  0
 19 36  1  0  0  0  0
 21 22  1  0  0  0  0
 21 23  1  0  0  0  0
 21 27  1  0  0  0  0
 22 24  1  0  0  0  0
 22 28  1  0  0  0  0
 22 29  1  0  0  0  0
 23 30  1  0  0  0  0
 23 31  1  0  0  0  0
 23 32  1  0  0  0  0
 24 33  1  0  0  0  0
 24 34  1  0  0  0  0
 24 35  1  0  0  0  0
 36 37  1  0  0  0  0
 36 41  1  0  0  0  0
 37 38  1  0  0  0  0
 37 40  1  0  0  0  0
 37 42  1  0  0  0  0
 38 39  2  0  0  0  0
 38 46  1  0  0  0  0
 40 43  1  0  0  0  0
 40 44  1  0  0  0  0
 40 45  1  0  0  0  0
 46 47  1  0  0  0  0
 46 48  1  0  0  0  0
 47 49  1  0  0  0  0
 47 50  1  0  0  0  0
 47 51  1  0  0  0  0
M  END
$$$$

  -OEChem-05262216503D

 51 50  0     1  0  0  0  0  0999 V2000
    1.1673   -4.9685    0.2327 C   0  0  0  0  0  0  0  0  0  0  0  0
    1.0073   -4.5836   -0.9162 O   0  0  0  0  0  0  0  0  0  0  0  0
    2.4261   -5.7226    0.6170 C   0  0  0  0  0  0  0  0  0  0  0  0
    3.0258   -5.9327   -0.2730 H   0  0  0  0  0  0  0  0  0  0  0  0
    3.0217   -5.1237    1.3106 H   0  0  0  0  0  0  0  0  0  0  0  0
    2.1638   -6.6691    1.0957 H   0  0  0  0  0  0  0  0  0  0  0  0
    0.2178   -4.6854    1.1928 N   0  0  0  0  0  0  0  0  0  0  0  0
   -0.8653   -3.7253    0.9491 C   0  0  2  0  0  0  0  0  0  0  0  0
   -0.3890   -2.2734    1.1529 C   0  0  0  0  0  0  0  0  0  0  0  0
    0.3314   -1.9857    2.1005 O   0  0  0  0  0  0  0  0  0  0  0  0
   -2.0183   -4.0480    1.9018 C   0  0  0  0  0  0  0  0  0  0  0  0
    0.5156   -4.8083    2.1572 H   0  0  0  0  0  0  0  0  0  0  0  0
   -1.2326   -3.8306   -0.0774 H   0  0  0  0  0  0  0  0  0  0  0  0
   -1.7068   -3.9157    2.9433 H   0  0  0  0  0  0  0  0  0  0  0  0
   -2.8679   -3.3850    1.7105 H   0  0  0  0  0  0  0  0  0  0  0  0
   -2.3498   -5.0816    1.7636 H   0  0  0  0  0  0  0  0  0  0  0  0
   -0.8337   -1.2673    0.3154 N   0  0  0  0  0  0  0  0  0  0  0  0
   -0.3283    0.1208    0.3750 C   0  0  2  0  0  0  0  0  0  0  0  0
   -1.1878    0.9611    1.3579 C   0  0  0  0  0  0  0  0  0  0  0  0
   -0.8629    2.0926    1.6956 O   0  0  0  0  0  0  0  0  0  0  0  0
   -0.2992    0.6486   -1.0931 C   0  0  2  0  0  0  0  0  0  0  0  0
    0.6969   -0.1932   -1.9386 C   0  0  0  0  0  0  0  0  0  0  0  0
    0.0908    2.1387   -1.1716 C   0  0  0  0  0  0  0  0  0  0  0  0
    0.5974    0.0740   -3.4441 C   0  0  0  0  0  0  0  0  0  0  0  0
   -1.3184   -1.5625   -0.5278 H   0  0  0  0  0  0  0  0  0  0  0  0
    0.6966    0.1370    0.7628 H   0  0  0  0  0  0  0  0  0  0  0  0
   -1.3031    0.5406   -1.5178 H   0  0  0  0  0  0  0  0  0  0  0  0
    1.7208    0.0032   -1.6026 H   0  0  0  0  0  0  0  0  0  0  0  0
    0.5095   -1.2612   -1.7940 H   0  0  0  0  0  0  0  0  0  0  0  0
    1.0397    2.3147   -0.6551 H   0  0  0  0  0  0  0  0  0  0  0  0
    0.1926    2.4716   -2.2067 H   0  0  0  0  0  0  0  0  0  0  0  0
   -0.6788    2.7677   -0.7165 H   0  0  0  0  0  0  0  0  0  0  0  0
   -0.4401   -0.0110   -3.7816 H   0  0  0  0  0  0  0  0  0  0  0  0
    1.1987   -0.6600   -3.9891 H   0  0  0  0  0  0  0  0  0  0  0  0
    0.9723    1.0687   -3.6988 H   0  0  0  0  0  0  0  0  0  0  0  0
   -2.2477    0.3637    2.0136 N   0  0  0  0  0  0  0  0  0  0  0  0
   -2.8362    0.8516    3.2640 C   0  0  2  0  0  0  0  0  0  0  0  0
   -3.2828   -0.3300    4.1509 C   0  0  0  0  0  0  0  0  0  0  0  0
   -3.4246   -1.4490    3.6650 O   0  0  0  0  0  0  0  0  0  0  0  0
   -4.0234    1.7566    2.9260 C   0  0  0  0  0  0  0  0  0  0  0  0
   -2.3381   -0.6377    1.8489 H   0  0  0  0  0  0  0  0  0  0  0  0
   -2.0910    1.4235    3.8273 H   0  0  0  0  0  0  0  0  0  0  0  0
   -4.7845    1.1977    2.3722 H   0  0  0  0  0  0  0  0  0  0  0  0
   -4.4765    2.1533    3.8394 H   0  0  0  0  0  0  0  0  0  0  0  0
   -3.6926    2.5992    2.3104 H   0  0  0  0  0  0  0  0  0  0  0  0
   -3.5182   -0.1437    5.5004 N   0  0  0  0  0  0  0  0  0  0  0  0
   -3.8912   -1.2257    6.4032 C   0  0  0  0  0  0  0  0  0  0  0  0
   -3.3423    0.7802    5.8846 H   0  0  0  0  0  0  0  0  0  0  0  0
   -4.8463   -1.6664    6.0983 H   0  0  0  0  0  0  0  0  0  0  0  0
   -3.1250   -2.0083    6.4012 H   0  0  0  0  0  0  0  0  0  0  0  0
   -3.9954   -0.8474    7.4248 H   0  0  0  0  0  0  0  0  0  0  0  0
  1  2  2  0  0  0  0
  1  3  1  0  0  0  0
  1  7  1  0  0  0  0
  3  4  1  0  0  0  0
  3  5  1  0  0  0  0
  3  6  1  0  0  0  0
  7  8  1  0  0  0  0
  7 12  1  0  0  0  0
  8  9  1  0  0  0  0
  8 11  1  0  0  0  0
  8 13  1  0  0  0  0
  9 10  2  0  0  0  0
  9 17  1  0  0  0  0
 11 14  1  0  0  0  0
 11 15  1  0  0  0  0
 11 16  1  0  0  0  0
 17 18  1  0  0  0  0
 17 25  1  0  0  0  0
 18 19  1  0  0  0  0
 18 21  1  0  0  0  0
 18 26  1  0  0  0  0
 19 20  2  0  0  0  0
 19 36  1  0  0  0  0
 21 22  1  0  0  0  0
 21 23  1  0  0  0  0
 21 27  1  0  0  0  0
 22 24  1  0  0  0  0
 22 28  1  0  0  0  0
 22 29  1  0  0  0  0
 23 30  1  0  0  0  0
 23 31  1  0  0  0  0
 23 32  1  0  0  0  0
 24 33  1  0  0  0  0
 24 34  1  0  0  0  0
 24 35  1  0  0  0  0
 36 37  1  0  0  0  0
 36 41  1  0  0  0  0
 37 38  1  0  0  0  0
 37 40  1  0  0  0  0
 37 42  1  0  0  0  0
 38 39  2  0  0  0  0
 38 46  1  0  0  0  0
 40 43  1  0  0  0  0
 40 44  1  0  0  0  0
 40 45  1  0  0  0  0
 46 47  1  0  0  0  0
 46 48  1  0  0  0  0
 47 49  1  0  0  0  0
 47 50  1  0  0  0  0
 47 51  1  0  0  0  0
M  END
$$$$

  -OEChem-05262216503D

 51 50  0     1  0  0  0  0  0999 V2000
    1.1803   -5.0034    0.0647 C   0  0  0  0  0  0  0  0  0  0  0  0
    0.9383   -4.5826   -1.0568 O   0  0  0  0  0  0  0  0  0  0  0  0
    2.4635   -5.7663    0.3337 C   0  0  0  0  0  0  0  0  0  0  0  0
    3.0293   -5.8913   -0.5938 H   0  0  0  0  0  0  0  0  0  0  0  0
    3.0798   -5.2179    1.0506 H   0  0  0  0  0  0  0  0  0  0  0  0
    2.2327   -6.7534    0.7416 H   0  0  0  0  0  0  0  0  0  0  0  0
    0.3024   -4.7493    1.0982 N   0  0  0  0  0  0  0  0  0  0  0  0
   -0.7944   -3.7842    0.9601 C   0  0  2  0  0  0  0  0  0  0  0  0
   -0.2986   -2.3354    1.1370 C   0  0  0  0  0  0  0  0  0  0  0  0
    0.4556   -2.0483    2.0576 O   0  0  0  0  0  0  0  0  0  0  0  0
   -1.8607   -4.1127    2.0083 C   0  0  0  0  0  0  0  0  0  0  0  0
    0.6619   -4.9103    2.0356 H   0  0  0  0  0  0  0  0  0  0  0  0
   -1.2499   -3.8784   -0.0313 H   0  0  0  0  0  0  0  0  0  0  0  0
   -1.4531   -4.0085    3.0195 H   0  0  0  0  0  0  0  0  0  0  0  0
   -2.7135   -3.4333    1.9111 H   0  0  0  0  0  0  0  0  0  0  0  0
   -2.2196   -5.1384    1.8795 H   0  0  0  0  0  0  0  0  0  0  0  0
   -0.7911   -1.3201    0.3385 N   0  0  0  0  0  0  0  0  0  0  0  0
   -0.3192    0.0800    0.4108 C   0  0  2  0  0  0  0  0  0  0  0  0
   -1.1795    0.8653    1.4437 C   0  0  0  0  0  0  0  0  0  0  0  0
   -1.0785    2.0733    1.6138 O   0  0  0  0  0  0  0  0  0  0  0  0
   -0.3269    0.6251   -1.0545 C   0  0  2  0  0  0  0  0  0  0  0  0
    0.6778   -0.1870   -1.9204 C   0  0  0  0  0  0  0  0  0  0  0  0
    0.0391    2.1229   -1.1288 C   0  0  0  0  0  0  0  0  0  0  0  0
    0.5553    0.0856   -3.4242 C   0  0  0  0  0  0  0  0  0  0  0  0
   -1.3348   -1.6014   -0.4729 H   0  0  0  0  0  0  0  0  0  0  0  0
    0.7130    0.1159    0.7768 H   0  0  0  0  0  0  0  0  0  0  0  0
   -1.3338    0.5008   -1.4673 H   0  0  0  0  0  0  0  0  0  0  0  0
    1.7007    0.0287   -1.5946 H   0  0  0  0  0  0  0  0  0  0  0  0
    0.5167   -1.2597   -1.7819 H   0  0  0  0  0  0  0  0  0  0  0  0
    0.9524    2.3235   -0.5594 H   0  0  0  0  0  0  0  0  0  0  0  0
    0.1956    2.4515   -2.1579 H   0  0  0  0  0  0  0  0  0  0  0  0
   -0.7689    2.7410   -0.7292 H   0  0  0  0  0  0  0  0  0  0  0  0
   -0.4854   -0.0108   -3.7484 H   0  0  0  0  0  0  0  0  0  0  0  0
    1.1579   -0.6390   -3.9803 H   0  0  0  0  0  0  0  0  0  0  0  0
    0.9148    1.0852   -3.6813 H   0  0  0  0  0  0  0  0  0  0  0  0
   -1.9753    0.1621    2.3284 N   0  0  0  0  0  0  0  0  0  0  0  0
   -2.5736    0.7041    3.5510 C   0  0  2  0  0  0  0  0  0  0  0  0
   -2.7711   -0.4119    4.5979 C   0  0  0  0  0  0  0  0  0  0  0  0
   -2.8174   -1.5882    4.2489 O   0  0  0  0  0  0  0  0  0  0  0  0
   -3.9148    1.3565    3.2033 C   0  0  0  0  0  0  0  0  0  0  0  0
   -1.8571   -0.8503    2.3019 H   0  0  0  0  0  0  0  0  0  0  0  0
   -1.9049    1.4549    3.9847 H   0  0  0  0  0  0  0  0  0  0  0  0
   -4.5953    0.6199    2.7643 H   0  0  0  0  0  0  0  0  0  0  0  0
   -4.3824    1.7732    4.1004 H   0  0  0  0  0  0  0  0  0  0  0  0
   -3.7675    2.1676    2.4832 H   0  0  0  0  0  0  0  0  0  0  0  0
   -2.8860   -0.0987    5.9395 N   0  0  0  0  0  0  0  0  0  0  0  0
   -2.9958   -1.1062    6.9872 C   0  0  0  0  0  0  0  0  0  0  0  0
   -2.7966    0.8784    6.2028 H   0  0  0  0  0  0  0  0  0  0  0  0
   -3.8742   -1.7385    6.8203 H   0  0  0  0  0  0  0  0  0  0  0  0
   -2.1029   -1.7403    7.0033 H   0  0  0  0  0  0  0  0  0  0  0  0
   -3.0973   -0.6259    7.9652 H   0  0  0  0  0  0  0  0  0  0  0  0
  1  2  2  0  0  0  0
  1  3  1  0  0  0  0
  1  7  1  0  0  0  0
  3  4  1  0  0  0  0
  3  5  1  0  0  0  0
  3  6  1  0  0  0  0
  7  8  1  0  0  0  0
  7 12  1  0  0  0  0
  8  9  1  0  0  0  0
  8 11  1  0  0  0  0
  8 13  1  0  0  0  0
  9 10  2  0  0  0  0
  9 17  1  0  0  0  0
 11 14  1  0  0  0  0
 11 15  1  0  0  0  0
 11 16  1  0  0  0  0
 17 18  1  0  0  0  0
 17 25  1  0  0  0  0
 18 19  1  0  0  0  0
 18 21  1  0  0  0  0
 18 26  1  0  0  0  0
 19 20  2  0  0  0  0
 19 36  1  0  0  0  0
 21 22  1  0  0  0  0
 21 23  1  0  0  0  0
 21 27  1  0  0  0  0
 22 24  1  0  0  0  0
 22 28  1  0  0  0  0
 22 29  1  0  0  0  0
 23 30  1  0  0  0  0
 23 31  1  0  0  0  0
 23 32  1  0  0  0  0
 24 33  1  0  0  0  0
 24 34  1  0  0  0  0
 24 35  1  0  0  0  0
 36 37  1  0  0  0  0
 36 41  1  0  0  0  0
 37 38  1  0  0  0  0
 37 40  1  0  0  0  0
 37 42  1  0  0  0  0
 38 39  2  0  0  0  0
 38 46  1  0  0  0  0
 40 43  1  0  0  0  0
 40 44  1  0  0  0  0
 40 45  1  0  0  0  0
 46 47  1  0  0  0  0
 46 48  1  0  0  0  0
 47 49  1  0  0  0  0
 47 50  1  0  0  0  0
 47 51  1  0  0  0  0
M  END
$$$$

  -OEChem-05262216503D

 51 50  0     1  0  0  0  0  0999 V2000
    1.1343   -5.3169    0.2000 C   0  0  0  0  0  0  0  0  0  0  0  0
    0.8836   -5.1380   -0.9820 O   0  0  0  0  0  0  0  0  0  0  0  0
    2.3434   -6.1371    0.6077 C   0  0  0  0  0  0  0  0  0  0  0  0
    2.9020   -6.4531   -0.2778 H   0  0  0  0  0  0  0  0  0  0  0  0
    3.0015   -5.5405    1.2445 H   0  0  0  0  0  0  0  0  0  0  0  0
    2.0220   -7.0250    1.1575 H   0  0  0  0  0  0  0  0  0  0  0  0
    0.3338   -4.7547    1.1723 N   0  0  0  0  0  0  0  0  0  0  0  0
   -0.6757   -3.7315    0.8727 C   0  0  2  0  0  0  0  0  0  0  0  0
   -0.0987   -2.3058    0.9749 C   0  0  0  0  0  0  0  0  0  0  0  0
    0.7818   -2.0470    1.7860 O   0  0  0  0  0  0  0  0  0  0  0  0
   -1.8250   -3.9052    1.8686 C   0  0  0  0  0  0  0  0  0  0  0  0
    0.7218   -4.7508    2.1127 H   0  0  0  0  0  0  0  0  0  0  0  0
   -1.0705   -3.8711   -0.1393 H   0  0  0  0  0  0  0  0  0  0  0  0
   -1.4707   -3.7592    2.8946 H   0  0  0  0  0  0  0  0  0  0  0  0
   -2.6172   -3.1763    1.6714 H   0  0  0  0  0  0  0  0  0  0  0  0
   -2.2499   -4.9103    1.7863 H   0  0  0  0  0  0  0  0  0  0  0  0
   -0.6879   -1.2588    0.2922 N   0  0  0  0  0  0  0  0  0  0  0  0
   -0.2306    0.1456    0.3651 C   0  0  2  0  0  0  0  0  0  0  0  0
   -0.9899    0.8384    1.5374 C   0  0  0  0  0  0  0  0  0  0  0  0
   -1.3115    2.0184    1.5456 O   0  0  0  0  0  0  0  0  0  0  0  0
   -0.3877    0.7562   -1.0666 C   0  0  2  0  0  0  0  0  0  0  0  0
    0.5387   -0.0088   -2.0557 C   0  0  0  0  0  0  0  0  0  0  0  0
   -0.0125    2.2552   -1.1133 C   0  0  0  0  0  0  0  0  0  0  0  0
    0.2766    0.3194   -3.5306 C   0  0  0  0  0  0  0  0  0  0  0  0
   -1.4274   -1.4913   -0.3647 H   0  0  0  0  0  0  0  0  0  0  0  0
    0.8331    0.1862    0.6227 H   0  0  0  0  0  0  0  0  0  0  0  0
   -1.4298    0.6482   -1.3863 H   0  0  0  0  0  0  0  0  0  0  0  0
    1.5866    0.2022   -1.8176 H   0  0  0  0  0  0  0  0  0  0  0  0
    0.3960   -1.0874   -1.9468 H   0  0  0  0  0  0  0  0  0  0  0  0
    0.9400    2.4279   -0.6028 H   0  0  0  0  0  0  0  0  0  0  0  0
    0.0772    2.6178   -2.1385 H   0  0  0  0  0  0  0  0  0  0  0  0
   -0.7814    2.8713   -0.6427 H   0  0  0  0  0  0  0  0  0  0  0  0
   -0.7910    0.2400   -3.7577 H   0  0  0  0  0  0  0  0  0  0  0  0
    0.8174   -0.3881   -4.1668 H   0  0  0  0  0  0  0  0  0  0  0  0
    0.6190    1.3254   -3.7861 H   0  0  0  0  0  0  0  0  0  0  0  0
   -1.3781    0.0723    2.6214 N   0  0  0  0  0  0  0  0  0  0  0  0
   -2.1054    0.5472    3.8032 C   0  0  2  0  0  0  0  0  0  0  0  0
   -1.9525   -0.4380    4.9809 C   0  0  0  0  0  0  0  0  0  0  0  0
   -1.6585   -1.6108    4.7731 O   0  0  0  0  0  0  0  0  0  0  0  0
   -3.5885    0.7052    3.4480 C   0  0  0  0  0  0  0  0  0  0  0  0
   -0.9530   -0.8558    2.6820 H   0  0  0  0  0  0  0  0  0  0  0  0
   -1.6988    1.5148    4.1153 H   0  0  0  0  0  0  0  0  0  0  0  0
   -4.0033   -0.2503    3.1111 H   0  0  0  0  0  0  0  0  0  0  0  0
   -4.1574    1.0455    4.3183 H   0  0  0  0  0  0  0  0  0  0  0  0
   -3.7152    1.4408    2.6477 H   0  0  0  0  0  0  0  0  0  0  0  0
   -2.1598   -0.0143    6.2807 N   0  0  0  0  0  0  0  0  0  0  0  0
   -1.9887   -0.8822    7.4396 C   0  0  0  0  0  0  0  0  0  0  0  0
   -2.3676    0.9692    6.4276 H   0  0  0  0  0  0  0  0  0  0  0  0
   -2.6058   -1.7819    7.3416 H   0  0  0  0  0  0  0  0  0  0  0  0
   -0.9405   -1.1833    7.5388 H   0  0  0  0  0  0  0  0  0  0  0  0
   -2.2881   -0.3587    8.3527 H   0  0  0  0  0  0  0  0  0  0  0  0
  1  2  2  0  0  0  0
  1  3  1  0  0  0  0
  1  7  1  0  0  0  0
  3  4  1  0  0  0  0
  3  5  1  0  0  0  0
  3  6  1  0  0  0  0
  7  8  1  0  0  0  0
  7 12  1  0  0  0  0
  8  9  1  0  0  0  0
  8 11  1  0  0  0  0
  8 13  1  0  0  0  0
  9 10  2  0  0  0  0
  9 17  1  0  0  0  0
 11 14  1  0  0  0  0
 11 15  1  0  0  0  0
 11 16  1  0  0  0  0
 17 18  1  0  0  0  0
 17 25  1  0  0  0  0
 18 19  1  0  0  0  0
 18 21  1  0  0  0  0
 18 26  1  0  0  0  0
 19 20  2  0  0  0  0
 19 36  1  0  0  0  0
 21 22  1  0  0  0  0
 21 23  1  0  0  0  0
 21 27  1  0  0  0  0
 22 24  1  0  0  0  0
 22 28  1  0  0  0  0
 22 29  1  0  0  0  0
 23 30  1  0  0  0  0
 23 31  1  0  0  0  0
 23 32  1  0  0  0  0
 24 33  1  0  0  0  0
 24 34  1  0  0  0  0
 24 35  1  0  0  0  0
 36 37  1  0  0  0  0
 36 41  1  0  0  0  0
 37 38  1  0  0  0  0
 37 40  1  0  0  0  0
 37 42  1  0  0  0  0
 38 39  2  0  0  0  0
 38 46  1  0  0  0  0
 40 43  1  0  0  0  0
 40 44  1  0  0  0  0
 40 45  1  0  0  0  0
 46 47  1  0  0  0  0
 46 48  1  0  0  0  0
 47 49  1  0  0  0  0
 47 50  1  0  0  0  0
 47 51  1  0  0  0  0
M  END
$$$$

  -OEChem-05262216503D

 51 50  0     1  0  0  0  0  0999 V2000
    1.0205   -5.4310    0.3387 C   0  0  0  0  0  0  0  0  0  0  0  0
    0.6689   -5.3847   -0.8301 O   0  0  0  0  0  0  0  0  0  0  0  0
    2.2174   -6.2721    0.7405 C   0  0  0  0  0  0  0  0  0  0  0  0
    2.6496   -6.7575   -0.1388 H   0  0  0  0  0  0  0  0  0  0  0  0
    2.9786   -5.6390    1.2031 H   0  0  0  0  0  0  0  0  0  0  0  0
    1.9106   -7.0415    1.4532 H   0  0  0  0  0  0  0  0  0  0  0  0
    0.3464   -4.7034    1.2971 N   0  0  0  0  0  0  0  0  0  0  0  0
   -0.6363   -3.6632    0.9649 C   0  0  2  0  0  0  0  0  0  0  0  0
    0.0027   -2.2608    0.9258 C   0  0  0  0  0  0  0  0  0  0  0  0
    0.9781   -2.0042    1.6225 O   0  0  0  0  0  0  0  0  0  0  0  0
   -1.7364   -3.7110    2.0291 C   0  0  0  0  0  0  0  0  0  0  0  0
    0.8229   -4.6084    2.1914 H   0  0  0  0  0  0  0  0  0  0  0  0
   -1.0893   -3.8600   -0.0125 H   0  0  0  0  0  0  0  0  0  0  0  0
   -1.3220   -3.4959    3.0200 H   0  0  0  0  0  0  0  0  0  0  0  0
   -2.5135   -2.9722    1.8114 H   0  0  0  0  0  0  0  0  0  0  0  0
   -2.1993   -4.7025    2.0527 H   0  0  0  0  0  0  0  0  0  0  0  0
   -0.6276   -1.2159    0.2761 N   0  0  0  0  0  0  0  0  0  0  0  0
   -0.1588    0.1845    0.3118 C   0  0  2  0  0  0  0  0  0  0  0  0
   -0.8528    0.8497    1.5350 C   0  0  0  0  0  0  0  0  0  0  0  0
   -1.5507    1.8520    1.4575 O   0  0  0  0  0  0  0  0  0  0  0  0
   -0.4080    0.8299   -1.0869 C   0  0  2  0  0  0  0  0  0  0  0  0
    0.4314    0.0800   -2.1583 C   0  0  0  0  0  0  0  0  0  0  0  0
    0.0221    2.3161   -1.1188 C   0  0  0  0  0  0  0  0  0  0  0  0
    0.0606    0.4564   -3.5975 C   0  0  0  0  0  0  0  0  0  0  0  0
   -1.4799   -1.4275   -0.2351 H   0  0  0  0  0  0  0  0  0  0  0  0
    0.9196    0.2253    0.5009 H   0  0  0  0  0  0  0  0  0  0  0  0
   -1.4739    0.7589   -1.3287 H   0  0  0  0  0  0  0  0  0  0  0  0
    1.4980    0.2680   -1.9954 H   0  0  0  0  0  0  0  0  0  0  0  0
    0.2771   -0.9986   -2.0642 H   0  0  0  0  0  0  0  0  0  0  0  0
    1.0695    2.4178   -0.8180 H   0  0  0  0  0  0  0  0  0  0  0  0
   -0.0935    2.7395   -2.1188 H   0  0  0  0  0  0  0  0  0  0  0  0
   -0.5861    2.9333   -0.4566 H   0  0  0  0  0  0  0  0  0  0  0  0
   -1.0201    0.3744   -3.7489 H   0  0  0  0  0  0  0  0  0  0  0  0
    0.5593   -0.2210   -4.2976 H   0  0  0  0  0  0  0  0  0  0  0  0
    0.3746    1.4755   -3.8375 H   0  0  0  0  0  0  0  0  0  0  0  0
   -0.8774    0.1496    2.7280 N   0  0  0  0  0  0  0  0  0  0  0  0
   -1.6818    0.4772    3.9109 C   0  0  2  0  0  0  0  0  0  0  0  0
   -1.2020   -0.3052    5.1504 C   0  0  0  0  0  0  0  0  0  0  0  0
   -0.7101   -1.4212    5.0232 O   0  0  0  0  0  0  0  0  0  0  0  0
   -3.1521    0.1338    3.6373 C   0  0  0  0  0  0  0  0  0  0  0  0
   -0.2823   -0.6835    2.7750 H   0  0  0  0  0  0  0  0  0  0  0  0
   -1.5893    1.5471    4.1234 H   0  0  0  0  0  0  0  0  0  0  0  0
   -3.2576   -0.9309    3.4063 H   0  0  0  0  0  0  0  0  0  0  0  0
   -3.7674    0.3632    4.5124 H   0  0  0  0  0  0  0  0  0  0  0  0
   -3.5342    0.7126    2.7910 H   0  0  0  0  0  0  0  0  0  0  0  0
   -1.3659    0.2219    6.4184 N   0  0  0  0  0  0  0  0  0  0  0  0
   -0.9515   -0.4709    7.6324 C   0  0  0  0  0  0  0  0  0  0  0  0
   -1.7693    1.1512    6.4944 H   0  0  0  0  0  0  0  0  0  0  0  0
   -1.4780   -1.4265    7.7266 H   0  0  0  0  0  0  0  0  0  0  0  0
    0.1266   -0.6625    7.6159 H   0  0  0  0  0  0  0  0  0  0  0  0
   -1.1801    0.1376    8.5126 H   0  0  0  0  0  0  0  0  0  0  0  0
  1  2  2  0  0  0  0
  1  3  1  0  0  0  0
  1  7  1  0  0  0  0
  3  4  1  0  0  0  0
  3  5  1  0  0  0  0
  3  6  1  0  0  0  0
  7  8  1  0  0  0  0
  7 12  1  0  0  0  0
  8  9  1  0  0  0  0
  8 11  1  0  0  0  0
  8 13  1  0  0  0  0
  9 10  2  0  0  0  0
  9 17  1  0  0  0  0
 11 14  1  0  0  0  0
 11 15  1  0  0  0  0
 11 16  1  0  0  0  0
 17 18  1  0  0  0  0
 17 25  1  0  0  0  0
 18 19  1  0  0  0  0
 18 21  1  0  0  0  0
 18 26  1  0  0  0  0
 19 20  2  0  0  0  0
 19 36  1  0  0  0  0
 21 22  1  0  0  0  0
 21 23  1  0  0  0  0
 21 27  1  0  0  0  0
 22 24  1  0  0  0  0
 22 28  1  0  0  0  0
 22 29  1  0  0  0  0
 23 30  1  0  0  0  0
 23 31  1  0  0  0  0
 23 32  1  0  0  0  0
 24 33  1  0  0  0  0
 24 34  1  0  0  0  0
 24 35  1  0  0  0  0
 36 37  1  0  0  0  0
 36 41  1  0  0  0  0
 37 38  1  0  0  0  0
 37 40  1  0  0  0  0
 37 42  1  0  0  0  0
 38 39  2  0  0  0  0
 38 46  1  0  0  0  0
 40 43  1  0  0  0  0
 40 44  1  0  0  0  0
 40 45  1  0  0  0  0
 46 47  1  0  0  0  0
 46 48  1  0  0  0  0
 47 49  1  0  0  0  0
 47 50  1  0  0  0  0
 47 51  1  0  0  0  0
M  END
$$$$

  -OEChem-05262216503D

 51 50  0     1  0  0  0  0  0999 V2000
    0.9255   -5.6548    0.3856 C   0  0  0  0  0  0  0  0  0  0  0  0
    0.4069   -5.8273   -0.7063 O   0  0  0  0  0  0  0  0  0  0  0  0
    2.1462   -6.4638    0.7822 C   0  0  0  0  0  0  0  0  0  0  0  0
    2.3845   -7.1944    0.0041 H   0  0  0  0  0  0  0  0  0  0  0  0
    3.0044   -5.8010    0.9180 H   0  0  0  0  0  0  0  0  0  0  0  0
    1.9541   -6.9954    1.7174 H   0  0  0  0  0  0  0  0  0  0  0  0
    0.4197   -4.7147    1.2591 N   0  0  0  0  0  0  0  0  0  0  0  0
   -0.5735   -3.6994    0.8805 C   0  0  2  0  0  0  0  0  0  0  0  0
    0.0375   -2.2843    0.8739 C   0  0  0  0  0  0  0  0  0  0  0  0
    1.0341   -2.0371    1.5442 O   0  0  0  0  0  0  0  0  0  0  0  0
   -1.7213   -3.7743    1.8904 C   0  0  0  0  0  0  0  0  0  0  0  0
    1.0171   -4.4843    2.0515 H   0  0  0  0  0  0  0  0  0  0  0  0
   -0.9728   -3.8963   -0.1199 H   0  0  0  0  0  0  0  0  0  0  0  0
   -1.3580   -3.5578    2.9007 H   0  0  0  0  0  0  0  0  0  0  0  0
   -2.5023   -3.0500    1.6391 H   0  0  0  0  0  0  0  0  0  0  0  0
   -2.1647   -4.7752    1.8855 H   0  0  0  0  0  0  0  0  0  0  0  0
   -0.6083   -1.2363    0.2459 N   0  0  0  0  0  0  0  0  0  0  0  0
   -0.1459    0.1629    0.3020 C   0  0  2  0  0  0  0  0  0  0  0  0
   -0.8298    0.7997    1.5387 C   0  0  0  0  0  0  0  0  0  0  0  0
   -1.7351    1.6203    1.4472 O   0  0  0  0  0  0  0  0  0  0  0  0
   -0.4229    0.8534   -1.0655 C   0  0  2  0  0  0  0  0  0  0  0  0
    0.3923    0.1477   -2.1820 C   0  0  0  0  0  0  0  0  0  0  0  0
   -0.0042    2.3415   -1.0371 C   0  0  0  0  0  0  0  0  0  0  0  0
   -0.0153    0.5805   -3.5940 C   0  0  0  0  0  0  0  0  0  0  0  0
   -1.4812   -1.4389   -0.2337 H   0  0  0  0  0  0  0  0  0  0  0  0
    0.9352    0.2071    0.4740 H   0  0  0  0  0  0  0  0  0  0  0  0
   -1.4938    0.7864   -1.2865 H   0  0  0  0  0  0  0  0  0  0  0  0
    1.4619    0.3343   -2.0386 H   0  0  0  0  0  0  0  0  0  0  0  0
    0.2434   -0.9342   -2.1239 H   0  0  0  0  0  0  0  0  0  0  0  0
    1.0661    2.4346   -0.8275 H   0  0  0  0  0  0  0  0  0  0  0  0
   -0.2143    2.8244   -1.9945 H   0  0  0  0  0  0  0  0  0  0  0  0
   -0.5499    2.9046   -0.2777 H   0  0  0  0  0  0  0  0  0  0  0  0
   -1.0957    0.4723   -3.7312 H   0  0  0  0  0  0  0  0  0  0  0  0
    0.4921   -0.0465   -4.3337 H   0  0  0  0  0  0  0  0  0  0  0  0
    0.2630    1.6198   -3.7873 H   0  0  0  0  0  0  0  0  0  0  0  0
   -0.5774    0.2449    2.7797 N   0  0  0  0  0  0  0  0  0  0  0  0
   -1.2944    0.5662    4.0197 C   0  0  2  0  0  0  0  0  0  0  0  0
   -0.4958    0.1473    5.2710 C   0  0  0  0  0  0  0  0  0  0  0  0
    0.2930   -0.7886    5.2167 O   0  0  0  0  0  0  0  0  0  0  0  0
   -2.6491   -0.1521    4.0119 C   0  0  0  0  0  0  0  0  0  0  0  0
    0.1287   -0.4981    2.8156 H   0  0  0  0  0  0  0  0  0  0  0  0
   -1.4556    1.6478    4.0706 H   0  0  0  0  0  0  0  0  0  0  0  0
   -2.5053   -1.2351    3.9440 H   0  0  0  0  0  0  0  0  0  0  0  0
   -3.2053    0.0690    4.9277 H   0  0  0  0  0  0  0  0  0  0  0  0
   -3.2519    0.1733    3.1587 H   0  0  0  0  0  0  0  0  0  0  0  0
   -0.6851    0.8001    6.4756 N   0  0  0  0  0  0  0  0  0  0  0  0
    0.0361    0.4519    7.6942 C   0  0  0  0  0  0  0  0  0  0  0  0
   -1.3338    1.5815    6.4929 H   0  0  0  0  0  0  0  0  0  0  0  0
   -0.1744   -0.5838    7.9811 H   0  0  0  0  0  0  0  0  0  0  0  0
    1.1155    0.5639    7.5462 H   0  0  0  0  0  0  0  0  0  0  0  0
   -0.2700    1.1061    8.5162 H   0  0  0  0  0  0  0  0  0  0  0  0
  1  2  2  0  0  0  0
  1  3  1  0  0  0  0
  1  7  1  0  0  0  0
  3  4  1  0  0  0  0
  3  5  1  0  0  0  0
  3  6  1  0  0  0  0
  7  8  1  0  0  0  0
  7 12  1  0  0  0  0
  8  9  1  0  0  0  0
  8 11  1  0  0  0  0
  8 13  1  0  0  0  0
  9 10  2  0  0  0  0
  9 17  1  0  0  0  0
 11 14  1  0  0  0  0
 11 15  1  0  0  0  0
 11 16  1  0  0  0  0
 17 18  1  0  0  0  0
 17 25  1  0  0  0  0
 18 19  1  0  0  0  0
 18 21  1  0  0  0  0
 18 26  1  0  0  0  0
 19 20  2  0  0  0  0
 19 36  1  0  0  0  0
 21 22  1  0  0  0  0
 21 23  1  0  0  0  0
 21 27  1  0  0  0  0
 22 24  1  0  0  0  0
 22 28  1  0  0  0  0
 22 29  1  0  0  0  0
 23 30  1  0  0  0  0
 23 31  1  0  0  0  0
 23 32  1  0  0  0  0
 24 33  1  0  0  0  0
 24 34  1  0  0  0  0
 24 35  1  0  0  0  0
 36 37  1  0  0  0  0
 36 41  1  0  0  0  0
 37 38  1  0  0  0  0
 37 40  1  0  0  0  0
 37 42  1  0  0  0  0
 38 39  2  0  0  0  0
 38 46  1  0  0  0  0
 40 43  1  0  0  0  0
 40 44  1  0  0  0  0
 40 45  1  0  0  0  0
 46 47  1  0  0  0  0
 46 48  1  0  0  0  0
 47 49  1  0  0  0  0
 47 50  1  0  0  0  0
 47 51  1  0  0  0  0
M  END
$$$$

  -OEChem-05262216503D

 51 50  0     1  0  0  0  0  0999 V2000
    0.8315   -5.7516    0.2867 C   0  0  0  0  0  0  0  0  0  0  0  0
    0.2123   -5.9361   -0.7491 O   0  0  0  0  0  0  0  0  0  0  0  0
    2.0640   -6.5823    0.5907 C   0  0  0  0  0  0  0  0  0  0  0  0
    2.2325   -7.3139   -0.2045 H   0  0  0  0  0  0  0  0  0  0  0  0
    2.9411   -5.9346    0.6647 H   0  0  0  0  0  0  0  0  0  0  0  0
    1.9314   -7.1144    1.5357 H   0  0  0  0  0  0  0  0  0  0  0  0
    0.4302   -4.7778    1.1776 N   0  0  0  0  0  0  0  0  0  0  0  0
   -0.5701   -3.7459    0.8678 C   0  0  2  0  0  0  0  0  0  0  0  0
    0.0508   -2.3357    0.8873 C   0  0  0  0  0  0  0  0  0  0  0  0
    1.0625   -2.1136    1.5444 O   0  0  0  0  0  0  0  0  0  0  0  0
   -1.6877   -3.8479    1.9081 C   0  0  0  0  0  0  0  0  0  0  0  0
    1.0988   -4.5480    1.9111 H   0  0  0  0  0  0  0  0  0  0  0  0
   -0.9996   -3.9049   -0.1267 H   0  0  0  0  0  0  0  0  0  0  0  0
   -1.2933   -3.6706    2.9139 H   0  0  0  0  0  0  0  0  0  0  0  0
   -2.4691   -3.1087    1.7064 H   0  0  0  0  0  0  0  0  0  0  0  0
   -2.1390   -4.8446    1.8801 H   0  0  0  0  0  0  0  0  0  0  0  0
   -0.5818   -1.2774    0.2646 N   0  0  0  0  0  0  0  0  0  0  0  0
   -0.0913    0.1094    0.3171 C   0  0  2  0  0  0  0  0  0  0  0  0
   -0.7454    0.7642    1.5553 C   0  0  0  0  0  0  0  0  0  0  0  0
   -1.7767    1.4225    1.4751 O   0  0  0  0  0  0  0  0  0  0  0  0
   -0.3912    0.8154   -1.0348 C   0  0  2  0  0  0  0  0  0  0  0  0
    0.3757    0.1103   -2.1834 C   0  0  0  0  0  0  0  0  0  0  0  0
    0.0356    2.2988   -0.9867 C   0  0  0  0  0  0  0  0  0  0  0  0
   -0.0702    0.5718   -3.5741 C   0  0  0  0  0  0  0  0  0  0  0  0
   -1.4724   -1.4587   -0.1904 H   0  0  0  0  0  0  0  0  0  0  0  0
    0.9941    0.1339    0.4649 H   0  0  0  0  0  0  0  0  0  0  0  0
   -1.4684    0.7635   -1.2275 H   0  0  0  0  0  0  0  0  0  0  0  0
    1.4520    0.2775   -2.0707 H   0  0  0  0  0  0  0  0  0  0  0  0
    0.2088   -0.9697   -2.1333 H   0  0  0  0  0  0  0  0  0  0  0  0
    1.1146    2.3834   -0.8238 H   0  0  0  0  0  0  0  0  0  0  0  0
   -0.2165    2.8068   -1.9209 H   0  0  0  0  0  0  0  0  0  0  0  0
   -0.4750    2.8380   -0.1850 H   0  0  0  0  0  0  0  0  0  0  0  0
   -1.1552    0.4761   -3.6799 H   0  0  0  0  0  0  0  0  0  0  0  0
    0.4070   -0.0473   -4.3397 H   0  0  0  0  0  0  0  0  0  0  0  0
    0.2121    1.6122   -3.7565 H   0  0  0  0  0  0  0  0  0  0  0  0
   -0.2669    0.4288    2.8069 N   0  0  0  0  0  0  0  0  0  0  0  0
   -0.8961    0.8051    4.0785 C   0  0  2  0  0  0  0  0  0  0  0  0
    0.1076    0.8137    5.2501 C   0  0  0  0  0  0  0  0  0  0  0  0
    1.1551    0.1822    5.1800 O   0  0  0  0  0  0  0  0  0  0  0  0
   -2.0301   -0.1841    4.3687 C   0  0  0  0  0  0  0  0  0  0  0  0
    0.5256   -0.2190    2.8409 H   0  0  0  0  0  0  0  0  0  0  0  0
   -1.3091    1.8156    3.9925 H   0  0  0  0  0  0  0  0  0  0  0  0
   -1.6355   -1.2017    4.4524 H   0  0  0  0  0  0  0  0  0  0  0  0
   -2.5334    0.0731    5.3054 H   0  0  0  0  0  0  0  0  0  0  0  0
   -2.7714   -0.1629    3.5640 H   0  0  0  0  0  0  0  0  0  0  0  0
   -0.1805    1.5150    6.4069 N   0  0  0  0  0  0  0  0  0  0  0  0
    0.7068    1.5523    7.5633 C   0  0  0  0  0  0  0  0  0  0  0  0
   -1.0503    2.0385    6.4360 H   0  0  0  0  0  0  0  0  0  0  0  0
    0.8679    0.5425    7.9554 H   0  0  0  0  0  0  0  0  0  0  0  0
    1.6759    1.9831    7.2902 H   0  0  0  0  0  0  0  0  0  0  0  0
    0.2678    2.1649    8.3567 H   0  0  0  0  0  0  0  0  0  0  0  0
  1  2  2  0  0  0  0
  1  3  1  0  0  0  0
  1  7  1  0  0  0  0
  3  4  1  0  0  0  0
  3  5  1  0  0  0  0
  3  6  1  0  0  0  0
  7  8  1  0  0  0  0
  7 12  1  0  0  0  0
  8  9  1  0  0  0  0
  8 11  1  0  0  0  0
  8 13  1  0  0  0  0
  9 10  2  0  0  0  0
  9 17  1  0  0  0  0
 11 14  1  0  0  0  0
 11 15  1  0  0  0  0
 11 16  1  0  0  0  0
 17 18  1  0  0  0  0
 17 25  1  0  0  0  0
 18 19  1  0  0  0  0
 18 21  1  0  0  0  0
 18 26  1  0  0  0  0
 19 20  2  0  0  0  0
 19 36  1  0  0  0  0
 21 22  1  0  0  0  0
 21 23  1  0  0  0  0
 21 27  1  0  0  0  0
 22 24  1  0  0  0  0
 22 28  1  0  0  0  0
 22 29  1  0  0  0  0
 23 30  1  0  0  0  0
 23 31  1  0  0  0  0
 23 32  1  0  0  0  0
 24 33  1  0  0  0  0
 24 34  1  0  0  0  0
 24 35  1  0  0  0  0
 36 37  1  0  0  0  0
 36 41  1  0  0  0  0
 37 38  1  0  0  0  0
 37 40  1  0  0  0  0
 37 42  1  0  0  0  0
 38 39  2  0  0  0  0
 38 46  1  0  0  0  0
 40 43  1  0  0  0  0
 40 44  1  0  0  0  0
 40 45  1  0  0  0  0
 46 47  1  0  0  0  0
 46 48  1  0  0  0  0
 47 49  1  0  0  0  0
 47 50  1  0  0  0  0
 47 51  1  0  0  0  0
M  END
$$$$

  -OEChem-05262216503D

 51 50  0     1  0  0  0  0  0999 V2000
    0.7601   -5.8064    0.2371 C   0  0  0  0  0  0  0  0  0  0  0  0
    0.1314   -5.9552   -0.7988 O   0  0  0  0  0  0  0  0  0  0  0  0
    1.9882   -6.6549    0.5082 C   0  0  0  0  0  0  0  0  0  0  0  0
    2.1756   -7.3287   -0.3325 H   0  0  0  0  0  0  0  0  0  0  0  0
    2.8617   -6.0123    0.6451 H   0  0  0  0  0  0  0  0  0  0  0  0
    1.8381   -7.2516    1.4113 H   0  0  0  0  0  0  0  0  0  0  0  0
    0.3757   -4.8567    1.1606 N   0  0  0  0  0  0  0  0  0  0  0  0
   -0.6007   -3.7941    0.8799 C   0  0  2  0  0  0  0  0  0  0  0  0
    0.0687   -2.4056    0.8617 C   0  0  0  0  0  0  0  0  0  0  0  0
    1.1130   -2.2153    1.4774 O   0  0  0  0  0  0  0  0  0  0  0  0
   -1.6788   -3.8499    1.9652 C   0  0  0  0  0  0  0  0  0  0  0  0
    1.0575   -4.6549    1.8897 H   0  0  0  0  0  0  0  0  0  0  0  0
   -1.0758   -3.9468   -0.0948 H   0  0  0  0  0  0  0  0  0  0  0  0
   -1.2389   -3.6785    2.9533 H   0  0  0  0  0  0  0  0  0  0  0  0
   -2.4424   -3.0859    1.7882 H   0  0  0  0  0  0  0  0  0  0  0  0
   -2.1646   -4.8307    1.9642 H   0  0  0  0  0  0  0  0  0  0  0  0
   -0.5519   -1.3333    0.2503 N   0  0  0  0  0  0  0  0  0  0  0  0
   -0.0452    0.0453    0.3245 C   0  0  2  0  0  0  0  0  0  0  0  0
   -0.6899    0.6985    1.5655 C   0  0  0  0  0  0  0  0  0  0  0  0
   -1.8162    1.1815    1.5209 O   0  0  0  0  0  0  0  0  0  0  0  0
   -0.3459    0.7848   -1.0074 C   0  0  2  0  0  0  0  0  0  0  0  0
    0.4022    0.0993   -2.1786 C   0  0  0  0  0  0  0  0  0  0  0  0
    0.0830    2.2647   -0.9165 C   0  0  0  0  0  0  0  0  0  0  0  0
   -0.0514    0.6013   -3.5525 C   0  0  0  0  0  0  0  0  0  0  0  0
   -1.4779   -1.4844   -0.1411 H   0  0  0  0  0  0  0  0  0  0  0  0
    1.0412    0.0534    0.4650 H   0  0  0  0  0  0  0  0  0  0  0  0
   -1.4245    0.7436   -1.1945 H   0  0  0  0  0  0  0  0  0  0  0  0
    1.4812    0.2526   -2.0714 H   0  0  0  0  0  0  0  0  0  0  0  0
    0.2238   -0.9796   -2.1532 H   0  0  0  0  0  0  0  0  0  0  0  0
    1.1607    2.3429   -0.7418 H   0  0  0  0  0  0  0  0  0  0  0  0
   -0.1595    2.7993   -1.8383 H   0  0  0  0  0  0  0  0  0  0  0  0
   -0.4367    2.7790   -0.1035 H   0  0  0  0  0  0  0  0  0  0  0  0
   -1.1373    0.5114   -3.6538 H   0  0  0  0  0  0  0  0  0  0  0  0
    0.4190    0.0038   -4.3393 H   0  0  0  0  0  0  0  0  0  0  0  0
    0.2324    1.6457   -3.7063 H   0  0  0  0  0  0  0  0  0  0  0  0
   -0.0452    0.6055    2.7824 N   0  0  0  0  0  0  0  0  0  0  0  0
   -0.5941    1.0599    4.0648 C   0  0  2  0  0  0  0  0  0  0  0  0
    0.5146    1.4585    5.0612 C   0  0  0  0  0  0  0  0  0  0  0  0
    1.6616    1.0541    4.9113 O   0  0  0  0  0  0  0  0  0  0  0  0
   -1.4503   -0.0706    4.6449 C   0  0  0  0  0  0  0  0  0  0  0  0
    0.8486    0.1103    2.8008 H   0  0  0  0  0  0  0  0  0  0  0  0
   -1.2212    1.9428    3.9017 H   0  0  0  0  0  0  0  0  0  0  0  0
   -0.8408   -0.9657    4.8070 H   0  0  0  0  0  0  0  0  0  0  0  0
   -1.8888    0.2311    5.6007 H   0  0  0  0  0  0  0  0  0  0  0  0
   -2.2638   -0.3229    3.9575 H   0  0  0  0  0  0  0  0  0  0  0  0
    0.2223    2.2712    6.1412 N   0  0  0  0  0  0  0  0  0  0  0  0
    1.2190    2.6931    7.1183 C   0  0  0  0  0  0  0  0  0  0  0  0
   -0.7325    2.6041    6.2355 H   0  0  0  0  0  0  0  0  0  0  0  0
    1.6290    1.8256    7.6460 H   0  0  0  0  0  0  0  0  0  0  0  0
    2.0392    3.2254    6.6250 H   0  0  0  0  0  0  0  0  0  0  0  0
    0.7665    3.3643    7.8546 H   0  0  0  0  0  0  0  0  0  0  0  0
  1  2  2  0  0  0  0
  1  3  1  0  0  0  0
  1  7  1  0  0  0  0
  3  4  1  0  0  0  0
  3  5  1  0  0  0  0
  3  6  1  0  0  0  0
  7  8  1  0  0  0  0
  7 12  1  0  0  0  0
  8  9  1  0  0  0  0
  8 11  1  0  0  0  0
  8 13  1  0  0  0  0
  9 10  2  0  0  0  0
  9 17  1  0  0  0  0
 11 14  1  0  0  0  0
 11 15  1  0  0  0  0
 11 16  1  0  0  0  0
 17 18  1  0  0  0  0
 17 25  1  0  0  0  0
 18 19  1  0  0  0  0
 18 21  1  0  0  0  0
 18 26  1  0  0  0  0
 19 20  2  0  0  0  0
 19 36  1  0  0  0  0
 21 22  1  0  0  0  0
 21 23  1  0  0  0  0
 21 27  1  0  0  0  0
 22 24  1  0  0  0  0
 22 28  1  0  0  0  0
 22 29  1  0  0  0  0
 23 30  1  0  0  0  0
 23 31  1  0  0  0  0
 23 32  1  0  0  0  0
 24 33  1  0  0  0  0
 24 34  1  0  0  0  0
 24 35  1  0  0  0  0
 36 37  1  0  0  0  0
 36 41  1  0  0  0  0
 37 38  1  0  0  0  0
 37 40  1  0  0  0  0
 37 42  1  0  0  0  0
 38 39  2  0  0  0  0
 38 46  1  0  0  0  0
 40 43  1  0  0  0  0
 40 44  1  0  0  0  0
 40 45  1  0  0  0  0
 46 47  1  0  0  0  0
 46 48  1  0  0  0  0
 47 49  1  0  0  0  0
 47 50  1  0  0  0  0
 47 51  1  0  0  0  0
M  END
$$$$

  -OEChem-05262216503D

 51 50  0     1  0  0  0  0  0999 V2000
    0.6527   -5.9454    0.2219 C   0  0  0  0  0  0  0  0  0  0  0  0
   -0.1091   -6.1368   -0.7128 O   0  0  0  0  0  0  0  0  0  0  0  0
    1.8619   -6.8421    0.4108 C   0  0  0  0  0  0  0  0  0  0  0  0
    1.9019   -7.5938   -0.3826 H   0  0  0  0  0  0  0  0  0  0  0  0
    2.7778   -6.2471    0.3774 H   0  0  0  0  0  0  0  0  0  0  0  0
    1.8018   -7.3506    1.3761 H   0  0  0  0  0  0  0  0  0  0  0  0
    0.4303   -4.9093    1.1046 N   0  0  0  0  0  0  0  0  0  0  0  0
   -0.5459   -3.8341    0.8783 C   0  0  2  0  0  0  0  0  0  0  0  0
    0.1342   -2.4509    0.8563 C   0  0  0  0  0  0  0  0  0  0  0  0
    1.2124   -2.2836    1.4176 O   0  0  0  0  0  0  0  0  0  0  0  0
   -1.5866   -3.8972    1.9985 C   0  0  0  0  0  0  0  0  0  0  0  0
    1.1986   -4.6907    1.7367 H   0  0  0  0  0  0  0  0  0  0  0  0
   -1.0529   -3.9669   -0.0833 H   0  0  0  0  0  0  0  0  0  0  0  0
   -1.1130   -3.7366    2.9725 H   0  0  0  0  0  0  0  0  0  0  0  0
   -2.3524   -3.1289    1.8535 H   0  0  0  0  0  0  0  0  0  0  0  0
   -2.0754   -4.8765    2.0050 H   0  0  0  0  0  0  0  0  0  0  0  0
   -0.4915   -1.3733    0.2604 N   0  0  0  0  0  0  0  0  0  0  0  0
    0.0099    0.0059    0.3491 C   0  0  2  0  0  0  0  0  0  0  0  0
   -0.6215    0.6635    1.5938 C   0  0  0  0  0  0  0  0  0  0  0  0
   -1.8121    0.9574    1.6083 O   0  0  0  0  0  0  0  0  0  0  0  0
   -0.3098    0.7580   -0.9708 C   0  0  2  0  0  0  0  0  0  0  0  0
    0.4286    0.0916   -2.1591 C   0  0  0  0  0  0  0  0  0  0  0  0
    0.0999    2.2415   -0.8653 C   0  0  0  0  0  0  0  0  0  0  0  0
   -0.0432    0.6064   -3.5227 C   0  0  0  0  0  0  0  0  0  0  0  0
   -1.4472   -1.5097   -0.0587 H   0  0  0  0  0  0  0  0  0  0  0  0
    1.0975    0.0127    0.4788 H   0  0  0  0  0  0  0  0  0  0  0  0
   -1.3901    0.7073   -1.1472 H   0  0  0  0  0  0  0  0  0  0  0  0
    1.5079    0.2508   -2.0624 H   0  0  0  0  0  0  0  0  0  0  0  0
    0.2573   -0.9888   -2.1439 H   0  0  0  0  0  0  0  0  0  0  0  0
    1.1755    2.3322   -0.6832 H   0  0  0  0  0  0  0  0  0  0  0  0
   -0.1433    2.7806   -1.7845 H   0  0  0  0  0  0  0  0  0  0  0  0
   -0.4329    2.7408   -0.0509 H   0  0  0  0  0  0  0  0  0  0  0  0
   -1.1317    0.5287   -3.6062 H   0  0  0  0  0  0  0  0  0  0  0  0
    0.4074    0.0084   -4.3209 H   0  0  0  0  0  0  0  0  0  0  0  0
    0.2494    1.6487   -3.6755 H   0  0  0  0  0  0  0  0  0  0  0  0
    0.1342    0.8572    2.7326 N   0  0  0  0  0  0  0  0  0  0  0  0
   -0.3574    1.4656    3.9744 C   0  0  2  0  0  0  0  0  0  0  0  0
    0.7691    2.1767    4.7533 C   0  0  0  0  0  0  0  0  0  0  0  0
    1.9444    1.9680    4.4739 O   0  0  0  0  0  0  0  0  0  0  0  0
   -0.9910    0.3650    4.8316 C   0  0  0  0  0  0  0  0  0  0  0  0
    1.1158    0.5787    2.7033 H   0  0  0  0  0  0  0  0  0  0  0  0
   -1.1149    2.2196    3.7357 H   0  0  0  0  0  0  0  0  0  0  0  0
   -0.2465   -0.3963    5.0861 H   0  0  0  0  0  0  0  0  0  0  0  0
   -1.3943    0.7831    5.7586 H   0  0  0  0  0  0  0  0  0  0  0  0
   -1.8096   -0.1164    4.2874 H   0  0  0  0  0  0  0  0  0  0  0  0
    0.4641    3.0617    5.7714 N   0  0  0  0  0  0  0  0  0  0  0  0
    1.4765    3.7648    6.5497 C   0  0  0  0  0  0  0  0  0  0  0  0
   -0.5171    3.2196    5.9814 H   0  0  0  0  0  0  0  0  0  0  0  0
    2.0859    3.0529    7.1162 H   0  0  0  0  0  0  0  0  0  0  0  0
    2.1326    4.3446    5.8918 H   0  0  0  0  0  0  0  0  0  0  0  0
    1.0015    4.4530    7.2556 H   0  0  0  0  0  0  0  0  0  0  0  0
  1  2  2  0  0  0  0
  1  3  1  0  0  0  0
  1  7  1  0  0  0  0
  3  4  1  0  0  0  0
  3  5  1  0  0  0  0
  3  6  1  0  0  0  0
  7  8  1  0  0  0  0
  7 12  1  0  0  0  0
  8  9  1  0  0  0  0
  8 11  1  0  0  0  0
  8 13  1  0  0  0  0
  9 10  2  0  0  0  0
  9 17  1  0  0  0  0
 11 14  1  0  0  0  0
 11 15  1  0  0  0  0
 11 16  1  0  0  0  0
 17 18  1  0  0  0  0
 17 25  1  0  0  0  0
 18 19  1  0  0  0  0
 18 21  1  0  0  0  0
 18 26  1  0  0  0  0
 19 20  2  0  0  0  0
 19 36  1  0  0  0  0
 21 22  1  0  0  0  0
 21 23  1  0  0  0  0
 21 27  1  0  0  0  0
 22 24  1  0  0  0  0
 22 28  1  0  0  0  0
 22 29  1  0  0  0  0
 23 30  1  0  0  0  0
 23 31  1  0  0  0  0
 23 32  1  0  0  0  0
 24 33  1  0  0  0  0
 24 34  1  0  0  0  0
 24 35  1  0  0  0  0
 36 37  1  0  0  0  0
 36 41  1  0  0  0  0
 37 38  1  0  0  0  0
 37 40  1  0  0  0  0
 37 42  1  0  0  0  0
 38 39  2  0  0  0  0
 38 46  1  0  0  0  0
 40 43  1  0  0  0  0
 40 44  1  0  0  0  0
 40 45  1  0  0  0  0
 46 47  1  0  0  0  0
 46 48  1  0  0  0  0
 47 49  1  0  0  0  0
 47 50  1  0  0  0  0
 47 51  1  0  0  0  0
M  END
$$$$

  -OEChem-05262216503D

 51 50  0     1  0  0  0  0  0999 V2000
    0.4921   -6.1269    0.3441 C   0  0  0  0  0  0  0  0  0  0  0  0
   -0.4590   -6.4099   -0.3670 O   0  0  0  0  0  0  0  0  0  0  0  0
    1.6657   -7.0811    0.4589 C   0  0  0  0  0  0  0  0  0  0  0  0
    1.5041   -7.9565   -0.1764 H   0  0  0  0  0  0  0  0  0  0  0  0
    2.5851   -6.5820    0.1432 H   0  0  0  0  0  0  0  0  0  0  0  0
    1.7762   -7.4126    1.4940 H   0  0  0  0  0  0  0  0  0  0  0  0
    0.5107   -4.9339    1.0350 N   0  0  0  0  0  0  0  0  0  0  0  0
   -0.4629   -3.8515    0.8404 C   0  0  2  0  0  0  0  0  0  0  0  0
    0.2253   -2.4720    0.8213 C   0  0  0  0  0  0  0  0  0  0  0  0
    1.3404   -2.3306    1.3131 O   0  0  0  0  0  0  0  0  0  0  0  0
   -1.4940   -3.9230    1.9696 C   0  0  0  0  0  0  0  0  0  0  0  0
    1.3836   -4.6818    1.4970 H   0  0  0  0  0  0  0  0  0  0  0  0
   -0.9747   -3.9720   -0.1206 H   0  0  0  0  0  0  0  0  0  0  0  0
   -1.0074   -3.7969    2.9421 H   0  0  0  0  0  0  0  0  0  0  0  0
   -2.2477   -3.1379    1.8536 H   0  0  0  0  0  0  0  0  0  0  0  0
   -2.0013   -4.8930    1.9559 H   0  0  0  0  0  0  0  0  0  0  0  0
   -0.4119   -1.3844    0.2565 N   0  0  0  0  0  0  0  0  0  0  0  0
    0.0858   -0.0048    0.3665 C   0  0  2  0  0  0  0  0  0  0  0  0
   -0.5234    0.6396    1.6292 C   0  0  0  0  0  0  0  0  0  0  0  0
   -1.7416    0.7119    1.7540 O   0  0  0  0  0  0  0  0  0  0  0  0
   -0.2610    0.7767   -0.9277 C   0  0  2  0  0  0  0  0  0  0  0  0
    0.4572    0.1406   -2.1438 C   0  0  0  0  0  0  0  0  0  0  0  0
    0.1470    2.2585   -0.7932 C   0  0  0  0  0  0  0  0  0  0  0  0
   -0.0411    0.6846   -3.4857 C   0  0  0  0  0  0  0  0  0  0  0  0
   -1.3957   -1.5040    0.0282 H   0  0  0  0  0  0  0  0  0  0  0  0
    1.1756   -0.0005    0.4761 H   0  0  0  0  0  0  0  0  0  0  0  0
   -1.3446    0.7267   -1.0843 H   0  0  0  0  0  0  0  0  0  0  0  0
    1.5372    0.3020   -2.0626 H   0  0  0  0  0  0  0  0  0  0  0  0
    0.2903   -0.9406   -2.1495 H   0  0  0  0  0  0  0  0  0  0  0  0
    1.2247    2.3464   -0.6224 H   0  0  0  0  0  0  0  0  0  0  0  0
   -0.1077    2.8183   -1.6965 H   0  0  0  0  0  0  0  0  0  0  0  0
   -0.3766    2.7383    0.0389 H   0  0  0  0  0  0  0  0  0  0  0  0
   -1.1294    0.5940   -3.5559 H   0  0  0  0  0  0  0  0  0  0  0  0
    0.4065    0.1143   -4.3050 H   0  0  0  0  0  0  0  0  0  0  0  0
    0.2350    1.7343   -3.6148 H   0  0  0  0  0  0  0  0  0  0  0  0
    0.2884    1.1064    2.6437 N   0  0  0  0  0  0  0  0  0  0  0  0
   -0.1893    1.8214    3.8330 C   0  0  2  0  0  0  0  0  0  0  0  0
    0.8276    2.8767    4.3164 C   0  0  0  0  0  0  0  0  0  0  0  0
    1.9615    2.9041    3.8507 O   0  0  0  0  0  0  0  0  0  0  0  0
   -0.4642    0.7886    4.9299 C   0  0  0  0  0  0  0  0  0  0  0  0
    1.2967    1.0805    2.4920 H   0  0  0  0  0  0  0  0  0  0  0  0
   -1.1173    2.3527    3.5965 H   0  0  0  0  0  0  0  0  0  0  0  0
    0.4542    0.2501    5.1858 H   0  0  0  0  0  0  0  0  0  0  0  0
   -0.8469    1.2760    5.8316 H   0  0  0  0  0  0  0  0  0  0  0  0
   -1.2094    0.0631    4.5882 H   0  0  0  0  0  0  0  0  0  0  0  0
    0.4638    3.8120    5.2676 N   0  0  0  0  0  0  0  0  0  0  0  0
    1.3683    4.8405    5.7667 C   0  0  0  0  0  0  0  0  0  0  0  0
   -0.4829    3.7681    5.6333 H   0  0  0  0  0  0  0  0  0  0  0  0
    2.2394    4.3845    6.2488 H   0  0  0  0  0  0  0  0  0  0  0  0
    1.7131    5.4794    4.9468 H   0  0  0  0  0  0  0  0  0  0  0  0
    0.8567    5.4693    6.5014 H   0  0  0  0  0  0  0  0  0  0  0  0
  1  2  2  0  0  0  0
  1  3  1  0  0  0  0
  1  7  1  0  0  0  0
  3  4  1  0  0  0  0
  3  5  1  0  0  0  0
  3  6  1  0  0  0  0
  7  8  1  0  0  0  0
  7 12  1  0  0  0  0
  8  9  1  0  0  0  0
  8 11  1  0  0  0  0
  8 13  1  0  0  0  0
  9 10  2  0  0  0  0
  9 17  1  0  0  0  0
 11 14  1  0  0  0  0
 11 15  1  0  0  0  0
 11 16  1  0  0  0  0
 17 18  1  0  0  0  0
 17 25  1  0  0  0  0
 18 19  1  0  0  0  0
 18 21  1  0  0  0  0
 18 26  1  0  0  0  0
 19 20  2  0  0  0  0
 19 36  1  0  0  0  0
 21 22  1  0  0  0  0
 21 23  1  0  0  0  0
 21 27  1  0  0  0  0
 22 24  1  0  0  0  0
 22 28  1  0  0  0  0
 22 29  1  0  0  0  0
 23 30  1  0  0  0  0
 23 31  1  0  0  0  0
 23 32  1  0  0  0  0
 24 33  1  0  0  0  0
 24 34  1  0  0  0  0
 24 35  1  0  0  0  0
 36 37  1  0  0  0  0
 36 41  1  0  0  0  0
 37 38  1  0  0  0  0
 37 40  1  0  0  0  0
 37 42  1  0  0  0  0
 38 39  2  0  0  0  0
 38 46  1  0  0  0  0
 40 43  1  0  0  0  0
 40 44  1  0  0  0  0
 40 45  1  0  0  0  0
 46 47  1  0  0  0  0
 46 48  1  0  0  0  0
 47 49  1  0  0  0  0
 47 50  1  0  0  0  0
 47 51  1  0  0  0  0
M  END
$$$$

  -OEChem-05262216503D

 51 50  0     1  0  0  0  0  0999 V2000
    0.3739   -6.1889    0.4400 C   0  0  0  0  0  0  0  0  0  0  0  0
   -0.6541   -6.4669   -0.1571 O   0  0  0  0  0  0  0  0  0  0  0  0
    1.5082   -7.1941    0.5094 C   0  0  0  0  0  0  0  0  0  0  0  0
    1.2345   -8.1091   -0.0231 H   0  0  0  0  0  0  0  0  0  0  0  0
    2.4062   -6.7745    0.0497 H   0  0  0  0  0  0  0  0  0  0  0  0
    1.7228   -7.4436    1.5512 H   0  0  0  0  0  0  0  0  0  0  0  0
    0.5154   -4.9545    1.0381 N   0  0  0  0  0  0  0  0  0  0  0  0
   -0.4300   -3.8424    0.8721 C   0  0  2  0  0  0  0  0  0  0  0  0
    0.2996   -2.4872    0.7800 C   0  0  0  0  0  0  0  0  0  0  0  0
    1.4495   -2.3759    1.1935 O   0  0  0  0  0  0  0  0  0  0  0  0
   -1.3991   -3.8499    2.0575 C   0  0  0  0  0  0  0  0  0  0  0  0
    1.4355   -4.7190    1.4085 H   0  0  0  0  0  0  0  0  0  0  0  0
   -0.9968   -3.9691   -0.0568 H   0  0  0  0  0  0  0  0  0  0  0  0
   -0.8548   -3.7257    2.9993 H   0  0  0  0  0  0  0  0  0  0  0  0
   -2.1251   -3.0360    1.9657 H   0  0  0  0  0  0  0  0  0  0  0  0
   -1.9453   -4.7979    2.0922 H   0  0  0  0  0  0  0  0  0  0  0  0
   -0.3424   -1.3897    0.2397 N   0  0  0  0  0  0  0  0  0  0  0  0
    0.1649   -0.0145    0.3726 C   0  0  2  0  0  0  0  0  0  0  0  0
   -0.4257    0.6156    1.6526 C   0  0  0  0  0  0  0  0  0  0  0  0
   -1.6206    0.4902    1.9024 O   0  0  0  0  0  0  0  0  0  0  0  0
   -0.1899    0.7935   -0.9044 C   0  0  2  0  0  0  0  0  0  0  0  0
    0.5133    0.1788   -2.1408 C   0  0  0  0  0  0  0  0  0  0  0  0
    0.2163    2.2738   -0.7503 C   0  0  0  0  0  0  0  0  0  0  0  0
    0.0059    0.7506   -3.4681 C   0  0  0  0  0  0  0  0  0  0  0  0
   -1.3457   -1.4896    0.1043 H   0  0  0  0  0  0  0  0  0  0  0  0
    1.2555   -0.0209    0.4742 H   0  0  0  0  0  0  0  0  0  0  0  0
   -1.2745    0.7455   -1.0517 H   0  0  0  0  0  0  0  0  0  0  0  0
    1.5946    0.3357   -2.0674 H   0  0  0  0  0  0  0  0  0  0  0  0
    0.3421   -0.9015   -2.1670 H   0  0  0  0  0  0  0  0  0  0  0  0
    1.2947    2.3614   -0.5836 H   0  0  0  0  0  0  0  0  0  0  0  0
   -0.0441    2.8467   -1.6436 H   0  0  0  0  0  0  0  0  0  0  0  0
   -0.3051    2.7410    0.0901 H   0  0  0  0  0  0  0  0  0  0  0  0
   -1.0821    0.6560   -3.5357 H   0  0  0  0  0  0  0  0  0  0  0  0
    0.4527    0.2002   -4.3014 H   0  0  0  0  0  0  0  0  0  0  0  0
    0.2765    1.8044   -3.5764 H   0  0  0  0  0  0  0  0  0  0  0  0
    0.3758    1.3316    2.5200 N   0  0  0  0  0  0  0  0  0  0  0  0
   -0.1256    2.1365    3.6407 C   0  0  2  0  0  0  0  0  0  0  0  0
    0.6869    3.4381    3.8111 C   0  0  0  0  0  0  0  0  0  0  0  0
    1.7223    3.6063    3.1755 O   0  0  0  0  0  0  0  0  0  0  0  0
   -0.0594    1.2804    4.9084 C   0  0  0  0  0  0  0  0  0  0  0  0
    1.3359    1.5100    2.2255 H   0  0  0  0  0  0  0  0  0  0  0  0
   -1.1653    2.4269    3.4554 H   0  0  0  0  0  0  0  0  0  0  0  0
    0.9740    0.9847    5.1160 H   0  0  0  0  0  0  0  0  0  0  0  0
   -0.4439    1.8351    5.7694 H   0  0  0  0  0  0  0  0  0  0  0  0
   -0.6624    0.3751    4.7846 H   0  0  0  0  0  0  0  0  0  0  0  0
    0.2483    4.4339    4.6649 N   0  0  0  0  0  0  0  0  0  0  0  0
    0.9599    5.6910    4.8626 C   0  0  0  0  0  0  0  0  0  0  0  0
   -0.6214    4.2768    5.1658 H   0  0  0  0  0  0  0  0  0  0  0  0
    1.9814    5.5029    5.2101 H   0  0  0  0  0  0  0  0  0  0  0  0
    1.0040    6.2577    3.9265 H   0  0  0  0  0  0  0  0  0  0  0  0
    0.4483    6.3017    5.6129 H   0  0  0  0  0  0  0  0  0  0  0  0
  1  2  2  0  0  0  0
  1  3  1  0  0  0  0
  1  7  1  0  0  0  0
  3  4  1  0  0  0  0
  3  5  1  0  0  0  0
  3  6  1  0  0  0  0
  7  8  1  0  0  0  0
  7 12  1  0  0  0  0
  8  9  1  0  0  0  0
  8 11  1  0  0  0  0
  8 13  1  0  0  0  0
  9 10  2  0  0  0  0
  9 17  1  0  0  0  0
 11 14  1  0  0  0  0
 11 15  1  0  0  0  0
 11 16  1  0  0  0  0
 17 18  1  0  0  0  0
 17 25  1  0  0  0  0
 18 19  1  0  0  0  0
 18 21  1  0  0  0  0
 18 26  1  0  0  0  0
 19 20  2  0  0  0  0
 19 36  1  0  0  0  0
 21 22  1  0  0  0  0
 21 23  1  0  0  0  0
 21 27  1  0  0  0  0
 22 24  1  0  0  0  0
 22 28  1  0  0  0  0
 22 29  1  0  0  0  0
 23 30  1  0  0  0  0
 23 31  1  0  0  0  0
 23 32  1  0  0  0  0
 24 33  1  0  0  0  0
 24 34  1  0  0  0  0
 24 35  1  0  0  0  0
 36 37  1  0  0  0  0
 36 41  1  0  0  0  0
 37 38  1  0  0  0  0
 37 40  1  0  0  0  0
 37 42  1  0  0  0  0
 38 39  2  0  0  0  0
 38 46  1  0  0  0  0
 40 43  1  0  0  0  0
 40 44  1  0  0  0  0
 40 45  1  0  0  0  0
 46 47  1  0  0  0  0
 46 48  1  0  0  0  0
 47 49  1  0  0  0  0
 47 50  1  0  0  0  0
 47 51  1  0  0  0  0
M  END
$$$$

  -OEChem-05262216503D

 51 50  0     1  0  0  0  0  0999 V2000
    0.3390   -6.1468    0.4754 C   0  0  0  0  0  0  0  0  0  0  0  0
   -0.6884   -6.4000   -0.1335 O   0  0  0  0  0  0  0  0  0  0  0  0
    1.4552   -7.1728    0.5375 C   0  0  0  0  0  0  0  0  0  0  0  0
    1.1749   -8.0691   -0.0230 H   0  0  0  0  0  0  0  0  0  0  0  0
    2.3691   -6.7590    0.1045 H   0  0  0  0  0  0  0  0  0  0  0  0
    1.6466   -7.4525    1.5761 H   0  0  0  0  0  0  0  0  0  0  0  0
    0.4934   -4.9267    1.0991 N   0  0  0  0  0  0  0  0  0  0  0  0
   -0.4322   -3.7962    0.9461 C   0  0  2  0  0  0  0  0  0  0  0  0
    0.3230   -2.4613    0.7904 C   0  0  0  0  0  0  0  0  0  0  0  0
    1.4878   -2.3657    1.1643 O   0  0  0  0  0  0  0  0  0  0  0  0
   -1.3432   -3.7517    2.1753 C   0  0  0  0  0  0  0  0  0  0  0  0
    1.4170   -4.7103    1.4715 H   0  0  0  0  0  0  0  0  0  0  0  0
   -1.0456   -3.9291    0.0487 H   0  0  0  0  0  0  0  0  0  0  0  0
   -0.7509   -3.6146    3.0856 H   0  0  0  0  0  0  0  0  0  0  0  0
   -2.0551   -2.9241    2.0970 H   0  0  0  0  0  0  0  0  0  0  0  0
   -1.9068   -4.6859    2.2625 H   0  0  0  0  0  0  0  0  0  0  0  0
   -0.3150   -1.3630    0.2465 N   0  0  0  0  0  0  0  0  0  0  0  0
    0.2133    0.0066    0.3675 C   0  0  2  0  0  0  0  0  0  0  0  0
   -0.3535    0.6604    1.6493 C   0  0  0  0  0  0  0  0  0  0  0  0
   -1.4805    0.3736    2.0422 O   0  0  0  0  0  0  0  0  0  0  0  0
   -0.1456    0.7935   -0.9241 C   0  0  2  0  0  0  0  0  0  0  0  0
    0.5451    0.1447   -2.1516 C   0  0  0  0  0  0  0  0  0  0  0  0
    0.2646    2.2767   -0.8129 C   0  0  0  0  0  0  0  0  0  0  0  0
    0.0381    0.6876   -3.4918 C   0  0  0  0  0  0  0  0  0  0  0  0
   -1.3256   -1.4466    0.1652 H   0  0  0  0  0  0  0  0  0  0  0  0
    1.3044   -0.0121    0.4606 H   0  0  0  0  0  0  0  0  0  0  0  0
   -1.2312    0.7475   -1.0638 H   0  0  0  0  0  0  0  0  0  0  0  0
    1.6278    0.2943   -2.0859 H   0  0  0  0  0  0  0  0  0  0  0  0
    0.3662   -0.9345   -2.1530 H   0  0  0  0  0  0  0  0  0  0  0  0
    1.3367    2.3663   -0.6106 H   0  0  0  0  0  0  0  0  0  0  0  0
    0.0405    2.8182   -1.7349 H   0  0  0  0  0  0  0  0  0  0  0  0
   -0.2862    2.7774   -0.0117 H   0  0  0  0  0  0  0  0  0  0  0  0
   -1.0520    0.6105   -3.5493 H   0  0  0  0  0  0  0  0  0  0  0  0
    0.4685    0.1059   -4.3128 H   0  0  0  0  0  0  0  0  0  0  0  0
    0.3263    1.7325   -3.6333 H   0  0  0  0  0  0  0  0  0  0  0  0
    0.3753    1.6133    2.3347 N   0  0  0  0  0  0  0  0  0  0  0  0
   -0.1633    2.4651    3.4022 C   0  0  2  0  0  0  0  0  0  0  0  0
    0.3984    3.9006    3.3132 C   0  0  0  0  0  0  0  0  0  0  0  0
    1.2928    4.1630    2.5157 O   0  0  0  0  0  0  0  0  0  0  0  0
    0.1881    1.8190    4.7448 C   0  0  0  0  0  0  0  0  0  0  0  0
    1.2424    1.9290    1.9006 H   0  0  0  0  0  0  0  0  0  0  0  0
   -1.2523    2.5384    3.3114 H   0  0  0  0  0  0  0  0  0  0  0  0
    1.2742    1.7475    4.8614 H   0  0  0  0  0  0  0  0  0  0  0  0
   -0.2148    2.4077    5.5742 H   0  0  0  0  0  0  0  0  0  0  0  0
   -0.2352    0.8108    4.8005 H   0  0  0  0  0  0  0  0  0  0  0  0
   -0.1107    4.9069    4.1137 N   0  0  0  0  0  0  0  0  0  0  0  0
    0.3661    6.2843    4.0711 C   0  0  0  0  0  0  0  0  0  0  0  0
   -0.8567    4.6642    4.7591 H   0  0  0  0  0  0  0  0  0  0  0  0
    1.4313    6.3305    4.3211 H   0  0  0  0  0  0  0  0  0  0  0  0
    0.2195    6.7101    3.0730 H   0  0  0  0  0  0  0  0  0  0  0  0
   -0.1838    6.8974    4.7917 H   0  0  0  0  0  0  0  0  0  0  0  0
  1  2  2  0  0  0  0
  1  3  1  0  0  0  0
  1  7  1  0  0  0  0
  3  4  1  0  0  0  0
  3  5  1  0  0  0  0
  3  6  1  0  0  0  0
  7  8  1  0  0  0  0
  7 12  1  0  0  0  0
  8  9  1  0  0  0  0
  8 11  1  0  0  0  0
  8 13  1  0  0  0  0
  9 10  2  0  0  0  0
  9 17  1  0  0  0  0
 11 14  1  0  0  0  0
 11 15  1  0  0  0  0
 11 16  1  0  0  0  0
 17 18  1  0  0  0  0
 17 25  1  0  0  0  0
 18 19  1  0  0  0  0
 18 21  1  0  0  0  0
 18 26  1  0  0  0  0
 19 20  2  0  0  0  0
 19 36  1  0  0  0  0
 21 22  1  0  0  0  0
 21 23  1  0  0  0  0
 21 27  1  0  0  0  0
 22 24  1  0  0  0  0
 22 28  1  0  0  0  0
 22 29  1  0  0  0  0
 23 30  1  0  0  0  0
 23 31  1  0  0  0  0
 23 32  1  0  0  0  0
 24 33  1  0  0  0  0
 24 34  1  0  0  0  0
 24 35  1  0  0  0  0
 36 37  1  0  0  0  0
 36 41  1  0  0  0  0
 37 38  1  0  0  0  0
 37 40  1  0  0  0  0
 37 42  1  0  0  0  0
 38 39  2  0  0  0  0
 38 46  1  0  0  0  0
 40 43  1  0  0  0  0
 40 44  1  0  0  0  0
 40 45  1  0  0  0  0
 46 47  1  0  0  0  0
 46 48  1  0  0  0  0
 47 49  1  0  0  0  0
 47 50  1  0  0  0  0
 47 51  1  0  0  0  0
M  END
$$$$

  -OEChem-05262216503D

 51 50  0     1  0  0  0  0  0999 V2000
    0.3435   -6.0686    0.5709 C   0  0  0  0  0  0  0  0  0  0  0  0
   -0.6708   -6.3298   -0.0565 O   0  0  0  0  0  0  0  0  0  0  0  0
    1.4743   -7.0780    0.6369 C   0  0  0  0  0  0  0  0  0  0  0  0
    1.2215   -7.9660    0.0506 H   0  0  0  0  0  0  0  0  0  0  0  0
    2.3899   -6.6390    0.2331 H   0  0  0  0  0  0  0  0  0  0  0  0
    1.6481   -7.3776    1.6732 H   0  0  0  0  0  0  0  0  0  0  0  0
    0.4764   -4.8520    1.2059 N   0  0  0  0  0  0  0  0  0  0  0  0
   -0.4381   -3.7181    1.0156 C   0  0  2  0  0  0  0  0  0  0  0  0
    0.3341   -2.4040    0.7826 C   0  0  0  0  0  0  0  0  0  0  0  0
    1.5161   -2.3201    1.1030 O   0  0  0  0  0  0  0  0  0  0  0  0
   -1.3232   -3.6047    2.2593 C   0  0  0  0  0  0  0  0  0  0  0  0
    1.4002   -4.6269    1.5727 H   0  0  0  0  0  0  0  0  0  0  0  0
   -1.0722   -3.8825    0.1380 H   0  0  0  0  0  0  0  0  0  0  0  0
   -0.7117   -3.4283    3.1501 H   0  0  0  0  0  0  0  0  0  0  0  0
   -2.0302   -2.7754    2.1548 H   0  0  0  0  0  0  0  0  0  0  0  0
   -1.8925   -4.5286    2.4032 H   0  0  0  0  0  0  0  0  0  0  0  0
   -0.3065   -1.3119    0.2284 N   0  0  0  0  0  0  0  0  0  0  0  0
    0.2407    0.0537    0.3234 C   0  0  2  0  0  0  0  0  0  0  0  0
   -0.3026    0.7320    1.6073 C   0  0  0  0  0  0  0  0  0  0  0  0
   -1.3198    0.3084    2.1496 O   0  0  0  0  0  0  0  0  0  0  0  0
   -0.1276    0.7972   -0.9965 C   0  0  2  0  0  0  0  0  0  0  0  0
    0.5529    0.0968   -2.2038 C   0  0  0  0  0  0  0  0  0  0  0  0
    0.2686    2.2877   -0.9634 C   0  0  0  0  0  0  0  0  0  0  0  0
    0.0430    0.5857   -3.5636 C   0  0  0  0  0  0  0  0  0  0  0  0
   -1.3208   -1.3830    0.2021 H   0  0  0  0  0  0  0  0  0  0  0  0
    1.3326    0.0295    0.4052 H   0  0  0  0  0  0  0  0  0  0  0  0
   -1.2141    0.7415   -1.1269 H   0  0  0  0  0  0  0  0  0  0  0  0
    1.6369    0.2420   -2.1498 H   0  0  0  0  0  0  0  0  0  0  0  0
    0.3684   -0.9806   -2.1638 H   0  0  0  0  0  0  0  0  0  0  0  0
    1.3319    2.4007   -0.7295 H   0  0  0  0  0  0  0  0  0  0  0  0
    0.0740    2.7717   -1.9231 H   0  0  0  0  0  0  0  0  0  0  0  0
   -0.3188    2.8313   -0.2187 H   0  0  0  0  0  0  0  0  0  0  0  0
   -1.0497    0.5411   -3.6027 H   0  0  0  0  0  0  0  0  0  0  0  0
    0.4429   -0.0516   -4.3583 H   0  0  0  0  0  0  0  0  0  0  0  0
    0.3634    1.6113   -3.7640 H   0  0  0  0  0  0  0  0  0  0  0  0
    0.2789    1.8819    2.1054 N   0  0  0  0  0  0  0  0  0  0  0  0
   -0.3067    2.7356    3.1458 C   0  0  2  0  0  0  0  0  0  0  0  0
    0.0250    4.2218    2.8934 C   0  0  0  0  0  0  0  0  0  0  0  0
    0.8258    4.5324    2.0172 O   0  0  0  0  0  0  0  0  0  0  0  0
    0.2302    2.2771    4.5051 C   0  0  0  0  0  0  0  0  0  0  0  0
    1.0237    2.3000    1.5479 H   0  0  0  0  0  0  0  0  0  0  0  0
   -1.3976    2.6399    3.1373 H   0  0  0  0  0  0  0  0  0  0  0  0
    1.3190    2.3853    4.5430 H   0  0  0  0  0  0  0  0  0  0  0  0
   -0.2083    2.8703    5.3130 H   0  0  0  0  0  0  0  0  0  0  0  0
   -0.0209    1.2252    4.6759 H   0  0  0  0  0  0  0  0  0  0  0  0
   -0.5933    5.2170    3.6275 N   0  0  0  0  0  0  0  0  0  0  0  0
   -0.3407    6.6379    3.4197 C   0  0  0  0  0  0  0  0  0  0  0  0
   -1.2685    4.9339    4.3318 H   0  0  0  0  0  0  0  0  0  0  0  0
    0.7190    6.8660    3.5759 H   0  0  0  0  0  0  0  0  0  0  0  0
   -0.6178    6.9310    2.4017 H   0  0  0  0  0  0  0  0  0  0  0  0
   -0.9293    7.2342    4.1235 H   0  0  0  0  0  0  0  0  0  0  0  0
  1  2  2  0  0  0  0
  1  3  1  0  0  0  0
  1  7  1  0  0  0  0
  3  4  1  0  0  0  0
  3  5  1  0  0  0  0
  3  6  1  0  0  0  0
  7  8  1  0  0  0  0
  7 12  1  0  0  0  0
  8  9  1  0  0  0  0
  8 11  1  0  0  0  0
  8 13  1  0  0  0  0
  9 10  2  0  0  0  0
  9 17  1  0  0  0  0
 11 14  1  0  0  0  0
 11 15  1  0  0  0  0
 11 16  1  0  0  0  0
 17 18  1  0  0  0  0
 17 25  1  0  0  0  0
 18 19  1  0  0  0  0
 18 21  1  0  0  0  0
 18 26  1  0  0  0  0
 19 20  2  0  0  0  0
 19 36  1  0  0  0  0
 21 22  1  0  0  0  0
 21 23  1  0  0  0  0
 21 27  1  0  0  0  0
 22 24  1  0  0  0  0
 22 28  1  0  0  0  0
 22 29  1  0  0  0  0
 23 30  1  0  0  0  0
 23 31  1  0  0  0  0
 23 32  1  0  0  0  0
 24 33  1  0  0  0  0
 24 34  1  0  0  0  0
 24 35  1  0  0  0  0
 36 37  1  0  0  0  0
 36 41  1  0  0  0  0
 37 38  1  0  0  0  0
 37 40  1  0  0  0  0
 37 42  1  0  0  0  0
 38 39  2  0  0  0  0
 38 46  1  0  0  0  0
 40 43  1  0  0  0  0
 40 44  1  0  0  0  0
 40 45  1  0  0  0  0
 46 47  1  0  0  0  0
 46 48  1  0  0  0  0
 47 49  1  0  0  0  0
 47 50  1  0  0  0  0
 47 51  1  0  0  0  0
M  END
$$$$

  -OEChem-05262216503D

 51 50  0     1  0  0  0  0  0999 V2000
    0.3265   -5.9649    0.7197 C   0  0  0  0  0  0  0  0  0  0  0  0
   -0.6888   -6.2252    0.0932 O   0  0  0  0  0  0  0  0  0  0  0  0
    1.4496   -6.9819    0.7969 C   0  0  0  0  0  0  0  0  0  0  0  0
    1.1836   -7.8813    0.2343 H   0  0  0  0  0  0  0  0  0  0  0  0
    2.3647   -6.5600    0.3741 H   0  0  0  0  0  0  0  0  0  0  0  0
    1.6308   -7.2582    1.8385 H   0  0  0  0  0  0  0  0  0  0  0  0
    0.4656   -4.7482    1.3537 N   0  0  0  0  0  0  0  0  0  0  0  0
   -0.4395   -3.6070    1.1576 C   0  0  2  0  0  0  0  0  0  0  0  0
    0.3306   -2.3336    0.7530 C   0  0  0  0  0  0  0  0  0  0  0  0
    1.5385   -2.2500    0.9575 O   0  0  0  0  0  0  0  0  0  0  0  0
   -1.1976   -3.3747    2.4662 C   0  0  0  0  0  0  0  0  0  0  0  0
    1.3965   -4.5252    1.7024 H   0  0  0  0  0  0  0  0  0  0  0  0
   -1.1598   -3.8190    0.3606 H   0  0  0  0  0  0  0  0  0  0  0  0
   -0.4999   -3.1352    3.2753 H   0  0  0  0  0  0  0  0  0  0  0  0
   -1.9017   -2.5437    2.3601 H   0  0  0  0  0  0  0  0  0  0  0  0
   -1.7601   -4.2719    2.7426 H   0  0  0  0  0  0  0  0  0  0  0  0
   -0.3356   -1.2764    0.1594 N   0  0  0  0  0  0  0  0  0  0  0  0
    0.2312    0.0857    0.1673 C   0  0  2  0  0  0  0  0  0  0  0  0
    0.0709    0.7176    1.5827 C   0  0  0  0  0  0  0  0  0  0  0  0
   -0.6097    0.1598    2.4397 O   0  0  0  0  0  0  0  0  0  0  0  0
   -0.4679    0.8522   -1.0035 C   0  0  2  0  0  0  0  0  0  0  0  0
   -0.1111    0.1773   -2.3584 C   0  0  0  0  0  0  0  0  0  0  0  0
   -0.0903    2.3471   -1.0599 C   0  0  0  0  0  0  0  0  0  0  0  0
   -0.9492    0.6785   -3.5402 C   0  0  0  0  0  0  0  0  0  0  0  0
   -1.3482   -1.3429    0.2005 H   0  0  0  0  0  0  0  0  0  0  0  0
    1.3052    0.0496   -0.0443 H   0  0  0  0  0  0  0  0  0  0  0  0
   -1.5517    0.7866   -0.8565 H   0  0  0  0  0  0  0  0  0  0  0  0
    0.9506    0.3329   -2.5768 H   0  0  0  0  0  0  0  0  0  0  0  0
   -0.2716   -0.9026   -2.2955 H   0  0  0  0  0  0  0  0  0  0  0  0
    0.9961    2.4739   -1.0199 H   0  0  0  0  0  0  0  0  0  0  0  0
   -0.4556    2.8207   -1.9732 H   0  0  0  0  0  0  0  0  0  0  0  0
   -0.5480    2.8932   -0.2315 H   0  0  0  0  0  0  0  0  0  0  0  0
   -2.0153    0.6458   -3.2953 H   0  0  0  0  0  0  0  0  0  0  0  0
   -0.7761    0.0396   -4.4116 H   0  0  0  0  0  0  0  0  0  0  0  0
   -0.6803    1.7008   -3.8181 H   0  0  0  0  0  0  0  0  0  0  0  0
    0.5244    1.9915    1.8683 N   0  0  0  0  0  0  0  0  0  0  0  0
    0.2043    2.7554    3.0805 C   0  0  2  0  0  0  0  0  0  0  0  0
    0.1847    4.2715    2.7929 C   0  0  0  0  0  0  0  0  0  0  0  0
    0.5971    4.6999    1.7197 O   0  0  0  0  0  0  0  0  0  0  0  0
    1.2434    2.4180    4.1543 C   0  0  0  0  0  0  0  0  0  0  0  0
    0.9572    2.5129    1.1066 H   0  0  0  0  0  0  0  0  0  0  0  0
   -0.7921    2.4793    3.4413 H   0  0  0  0  0  0  0  0  0  0  0  0
    2.2472    2.6946    3.8161 H   0  0  0  0  0  0  0  0  0  0  0  0
    1.0275    2.9554    5.0823 H   0  0  0  0  0  0  0  0  0  0  0  0
    1.2317    1.3443    4.3678 H   0  0  0  0  0  0  0  0  0  0  0  0
   -0.3169    5.1589    3.7271 N   0  0  0  0  0  0  0  0  0  0  0  0
   -0.3696    6.6001    3.5121 C   0  0  0  0  0  0  0  0  0  0  0  0
   -0.6577    4.7780    4.6052 H   0  0  0  0  0  0  0  0  0  0  0  0
    0.6383    7.0022    3.3646 H   0  0  0  0  0  0  0  0  0  0  0  0
   -0.9750    6.8349    2.6301 H   0  0  0  0  0  0  0  0  0  0  0  0
   -0.8158    7.0965    4.3792 H   0  0  0  0  0  0  0  0  0  0  0  0
  1  2  2  0  0  0  0
  1  3  1  0  0  0  0
  1  7  1  0  0  0  0
  3  4  1  0  0  0  0
  3  5  1  0  0  0  0
  3  6  1  0  0  0  0
  7  8  1  0  0  0  0
  7 12  1  0  0  0  0
  8  9  1  0  0  0  0
  8 11  1  0  0  0  0
  8 13  1  0  0  0  0
  9 10  2  0  0  0  0
  9 17  1  0  0  0  0
 11 14  1  0  0  0  0
 11 15  1  0  0  0  0
 11 16  1  0  0  0  0
 17 18  1  0  0  0  0
 17 25  1  0  0  0  0
 18 19  1  0  0  0  0
 18 21  1  0  0  0  0
 18 26  1  0  0  0  0
 19 20  2  0  0  0  0
 19 36  1  0  0  0  0
 21 22  1  0  0  0  0
 21 23  1  0  0  0  0
 21 27  1  0  0  0  0
 22 24  1  0  0  0  0
 22 28  1  0  0  0  0
 22 29  1  0  0  0  0
 23 30  1  0  0  0  0
 23 31  1  0  0  0  0
 23 32  1  0  0  0  0
 24 33  1  0  0  0  0
 24 34  1  0  0  0  0
 24 35  1  0  0  0  0
 36 37  1  0  0  0  0
 36 41  1  0  0  0  0
 37 38  1  0  0  0  0
 37 40  1  0  0  0  0
 37 42  1  0  0  0  0
 38 39  2  0  0  0  0
 38 46  1  0  0  0  0
 40 43  1  0  0  0  0
 40 44  1  0  0  0  0
 40 45  1  0  0  0  0
 46 47  1  0  0  0  0
 46 48  1  0  0  0  0
 47 49  1  0  0  0  0
 47 50  1  0  0  0  0
 47 51  1  0  0  0  0
M  END
$$$$

  -OEChem-05262216503D

 51 50  0     1  0  0  0  0  0999 V2000
    0.3711   -5.8237    0.7739 C   0  0  0  0  0  0  0  0  0  0  0  0
   -0.5777   -6.0791    0.0488 O   0  0  0  0  0  0  0  0  0  0  0  0
    1.5307   -6.7970    0.8745 C   0  0  0  0  0  0  0  0  0  0  0  0
    1.3583   -7.6586    0.2235 H   0  0  0  0  0  0  0  0  0  0  0  0
    2.4574   -6.3048    0.5691 H   0  0  0  0  0  0  0  0  0  0  0  0
    1.6349   -7.1478    1.9042 H   0  0  0  0  0  0  0  0  0  0  0  0
    0.4094   -4.6486    1.4944 N   0  0  0  0  0  0  0  0  0  0  0  0
   -0.4908   -3.5118    1.2537 C   0  0  2  0  0  0  0  0  0  0  0  0
    0.2840   -2.2752    0.7531 C   0  0  0  0  0  0  0  0  0  0  0  0
    1.4994   -2.2020    0.9127 O   0  0  0  0  0  0  0  0  0  0  0  0
   -1.2080   -3.1963    2.5685 C   0  0  0  0  0  0  0  0  0  0  0  0
    1.3112   -4.4161    1.9065 H   0  0  0  0  0  0  0  0  0  0  0  0
   -1.2396   -3.7615    0.4952 H   0  0  0  0  0  0  0  0  0  0  0  0
   -0.4862   -2.9033    3.3379 H   0  0  0  0  0  0  0  0  0  0  0  0
   -1.9176   -2.3747    2.4316 H   0  0  0  0  0  0  0  0  0  0  0  0
   -1.7587   -4.0738    2.9210 H   0  0  0  0  0  0  0  0  0  0  0  0
   -0.3834   -1.2367    0.1266 N   0  0  0  0  0  0  0  0  0  0  0  0
    0.1878    0.1251    0.0954 C   0  0  2  0  0  0  0  0  0  0  0  0
    0.0232    0.7953    1.4989 C   0  0  0  0  0  0  0  0  0  0  0  0
   -0.4369    0.1575    2.4423 O   0  0  0  0  0  0  0  0  0  0  0  0
   -0.4840    0.8426   -1.1260 C   0  0  2  0  0  0  0  0  0  0  0  0
   -0.0924    0.1056   -2.4406 C   0  0  0  0  0  0  0  0  0  0  0  0
   -0.0944    2.3319   -1.2502 C   0  0  0  0  0  0  0  0  0  0  0  0
   -0.8973    0.5490   -3.6690 C   0  0  0  0  0  0  0  0  0  0  0  0
   -1.3954   -1.2999    0.1777 H   0  0  0  0  0  0  0  0  0  0  0  0
    1.2647    0.0787   -0.0998 H   0  0  0  0  0  0  0  0  0  0  0  0
   -1.5714    0.7874   -1.0055 H   0  0  0  0  0  0  0  0  0  0  0  0
    0.9753    0.2474   -2.6367 H   0  0  0  0  0  0  0  0  0  0  0  0
   -0.2579   -0.9698   -2.3326 H   0  0  0  0  0  0  0  0  0  0  0  0
    0.9810    2.4652   -1.0948 H   0  0  0  0  0  0  0  0  0  0  0  0
   -0.3463    2.7402   -2.2302 H   0  0  0  0  0  0  0  0  0  0  0  0
   -0.6451    2.9354   -0.5246 H   0  0  0  0  0  0  0  0  0  0  0  0
   -1.9692    0.5358   -3.4489 H   0  0  0  0  0  0  0  0  0  0  0  0
   -0.7080   -0.1372   -4.5004 H   0  0  0  0  0  0  0  0  0  0  0  0
   -0.6151    1.5526   -3.9969 H   0  0  0  0  0  0  0  0  0  0  0  0
    0.1855    2.1515    1.7083 N   0  0  0  0  0  0  0  0  0  0  0  0
   -0.1587    2.8751    2.9396 C   0  0  2  0  0  0  0  0  0  0  0  0
   -0.4885    4.3543    2.6478 C   0  0  0  0  0  0  0  0  0  0  0  0
   -0.2327    4.8370    1.5492 O   0  0  0  0  0  0  0  0  0  0  0  0
    1.0184    2.7681    3.9149 C   0  0  0  0  0  0  0  0  0  0  0  0
    0.4513    2.7208    0.9063 H   0  0  0  0  0  0  0  0  0  0  0  0
   -1.0481    2.4265    3.3945 H   0  0  0  0  0  0  0  0  0  0  0  0
    1.9177    3.2151    3.4793 H   0  0  0  0  0  0  0  0  0  0  0  0
    0.7904    3.2847    4.8520 H   0  0  0  0  0  0  0  0  0  0  0  0
    1.2278    1.7183    4.1440 H   0  0  0  0  0  0  0  0  0  0  0  0
   -1.0895    5.1435    3.6114 N   0  0  0  0  0  0  0  0  0  0  0  0
   -1.4354    6.5439    3.3987 C   0  0  0  0  0  0  0  0  0  0  0  0
   -1.2983    4.7150    4.5087 H   0  0  0  0  0  0  0  0  0  0  0  0
   -0.5339    7.1377    3.2154 H   0  0  0  0  0  0  0  0  0  0  0  0
   -2.1064    6.6470    2.5394 H   0  0  0  0  0  0  0  0  0  0  0  0
   -1.9417    6.9469    4.2810 H   0  0  0  0  0  0  0  0  0  0  0  0
  1  2  2  0  0  0  0
  1  3  1  0  0  0  0
  1  7  1  0  0  0  0
  3  4  1  0  0  0  0
  3  5  1  0  0  0  0
  3  6  1  0  0  0  0
  7  8  1  0  0  0  0
  7 12  1  0  0  0  0
  8  9  1  0  0  0  0
  8 11  1  0  0  0  0
  8 13  1  0  0  0  0
  9 10  2  0  0  0  0
  9 17  1  0  0  0  0
 11 14  1  0  0  0  0
 11 15  1  0  0  0  0
 11 16  1  0  0  0  0
 17 18  1  0  0  0  0
 17 25  1  0  0  0  0
 18 19  1  0  0  0  0
 18 21  1  0  0  0  0
 18 26  1  0  0  0  0
 19 20  2  0  0  0  0
 19 36  1  0  0  0  0
 21 22  1  0  0  0  0
 21 23  1  0  0  0  0
 21 27  1  0  0  0  0
 22 24  1  0  0  0  0
 22 28  1  0  0  0  0
 22 29  1  0  0  0  0
 23 30  1  0  0  0  0
 23 31  1  0  0  0  0
 23 32  1  0  0  0  0
 24 33  1  0  0  0  0
 24 34  1  0  0  0  0
 24 35  1  0  0  0  0
 36 37  1  0  0  0  0
 36 41  1  0  0  0  0
 37 38  1  0  0  0  0
 37 40  1  0  0  0  0
 37 42  1  0  0  0  0
 38 39  2  0  0  0  0
 38 46  1  0  0  0  0
 40 43  1  0  0  0  0
 40 44  1  0  0  0  0
 40 45  1  0  0  0  0
 46 47  1  0  0  0  0
 46 48  1  0  0  0  0
 47 49  1  0  0  0  0
 47 50  1  0  0  0  0
 47 51  1  0  0  0  0
M  END
$$$$

  -OEChem-05262216503D

 51 50  0     1  0  0  0  0  0999 V2000
    0.5425   -5.9372    0.8186 C   0  0  0  0  0  0  0  0  0  0  0  0
   -0.6323   -6.2681    0.7700 O   0  0  0  0  0  0  0  0  0  0  0  0
    1.6352   -6.9792    0.6710 C   0  0  0  0  0  0  0  0  0  0  0  0
    1.1959   -7.9772    0.5901 H   0  0  0  0  0  0  0  0  0  0  0  0
    2.2231   -6.7786   -0.2279 H   0  0  0  0  0  0  0  0  0  0  0  0
    2.2944   -6.9539    1.5421 H   0  0  0  0  0  0  0  0  0  0  0  0
    0.8799   -4.6136    0.9996 N   0  0  0  0  0  0  0  0  0  0  0  0
   -0.0808   -3.5042    1.0233 C   0  0  2  0  0  0  0  0  0  0  0  0
    0.5491   -2.1981    0.4953 C   0  0  0  0  0  0  0  0  0  0  0  0
    1.7478   -2.1500    0.2368 O   0  0  0  0  0  0  0  0  0  0  0  0
   -0.5708   -3.3170    2.4633 C   0  0  0  0  0  0  0  0  0  0  0  0
    1.8639   -4.3609    0.9097 H   0  0  0  0  0  0  0  0  0  0  0  0
   -0.9330   -3.7415    0.3778 H   0  0  0  0  0  0  0  0  0  0  0  0
    0.2666   -3.0596    3.1205 H   0  0  0  0  0  0  0  0  0  0  0  0
   -1.3125   -2.5149    2.5181 H   0  0  0  0  0  0  0  0  0  0  0  0
   -1.0326   -4.2387    2.8309 H   0  0  0  0  0  0  0  0  0  0  0  0
   -0.2434   -1.0893    0.2434 N   0  0  0  0  0  0  0  0  0  0  0  0
    0.3098    0.2818    0.2845 C   0  0  2  0  0  0  0  0  0  0  0  0
    0.5014    0.6606    1.7986 C   0  0  0  0  0  0  0  0  0  0  0  0
    0.8503   -0.1653    2.6285 O   0  0  0  0  0  0  0  0  0  0  0  0
   -0.5825    1.1879   -0.6189 C   0  0  2  0  0  0  0  0  0  0  0  0
   -0.5191    0.6892   -2.0893 C   0  0  0  0  0  0  0  0  0  0  0  0
   -0.0951    2.6633   -0.6654 C   0  0  0  0  0  0  0  0  0  0  0  0
   -1.5739    1.3628   -2.9747 C   0  0  0  0  0  0  0  0  0  0  0  0
   -1.2093   -1.1974    0.5343 H   0  0  0  0  0  0  0  0  0  0  0  0
    1.3145    0.2942   -0.1531 H   0  0  0  0  0  0  0  0  0  0  0  0
   -1.6122    1.1455   -0.2505 H   0  0  0  0  0  0  0  0  0  0  0  0
    0.4805    0.8505   -2.5074 H   0  0  0  0  0  0  0  0  0  0  0  0
   -0.7081   -0.3877   -2.1292 H   0  0  0  0  0  0  0  0  0  0  0  0
    0.5742    2.9156    0.1553 H   0  0  0  0  0  0  0  0  0  0  0  0
   -0.9537    3.3407   -0.6348 H   0  0  0  0  0  0  0  0  0  0  0  0
    0.4682    2.8779   -1.5790 H   0  0  0  0  0  0  0  0  0  0  0  0
   -2.5758    1.1972   -2.5671 H   0  0  0  0  0  0  0  0  0  0  0  0
   -1.5366    0.9403   -3.9832 H   0  0  0  0  0  0  0  0  0  0  0  0
   -1.4004    2.4401   -3.0506 H   0  0  0  0  0  0  0  0  0  0  0  0
    0.4353    1.8992    2.3922 N   0  0  0  0  0  0  0  0  0  0  0  0
   -0.8325    2.6389    2.5009 C   0  0  2  0  0  0  0  0  0  0  0  0
   -0.6508    4.1738    2.4795 C   0  0  0  0  0  0  0  0  0  0  0  0
    0.4172    4.6869    2.7836 O   0  0  0  0  0  0  0  0  0  0  0  0
   -1.5066    2.2124    3.8089 C   0  0  0  0  0  0  0  0  0  0  0  0
    0.9769    1.8978    3.2544 H   0  0  0  0  0  0  0  0  0  0  0  0
   -1.4960    2.3772    1.6750 H   0  0  0  0  0  0  0  0  0  0  0  0
   -0.8800    2.4796    4.6664 H   0  0  0  0  0  0  0  0  0  0  0  0
   -2.4766    2.7066    3.9212 H   0  0  0  0  0  0  0  0  0  0  0  0
   -1.6676    1.1295    3.8218 H   0  0  0  0  0  0  0  0  0  0  0  0
   -1.7077    4.9912    2.1204 N   0  0  0  0  0  0  0  0  0  0  0  0
   -1.6141    6.4465    2.0871 C   0  0  0  0  0  0  0  0  0  0  0  0
   -2.5977    4.5525    1.9062 H   0  0  0  0  0  0  0  0  0  0  0  0
   -1.3864    6.8393    3.0837 H   0  0  0  0  0  0  0  0  0  0  0  0
   -0.8268    6.7646    1.3952 H   0  0  0  0  0  0  0  0  0  0  0  0
   -2.5619    6.8794    1.7526 H   0  0  0  0  0  0  0  0  0  0  0  0
  1  2  2  0  0  0  0
  1  3  1  0  0  0  0
  1  7  1  0  0  0  0
  3  4  1  0  0  0  0
  3  5  1  0  0  0  0
  3  6  1  0  0  0  0
  7  8  1  0  0  0  0
  7 12  1  0  0  0  0
  8  9  1  0  0  0  0
  8 11  1  0  0  0  0
  8 13  1  0  0  0  0
  9 10  2  0  0  0  0
  9 17  1  0  0  0  0
 11 14  1  0  0  0  0
 11 15  1  0  0  0  0
 11 16  1  0  0  0  0
 17 18  1  0  0  0  0
 17 25  1  0  0  0  0
 18 19  1  0  0  0  0
 18 21  1  0  0  0  0
 18 26  1  0  0  0  0
 19 20  2  0  0  0  0
 19 36  1  0  0  0  0
 21 22  1  0  0  0  0
 21 23  1  0  0  0  0
 21 27  1  0  0  0  0
 22 24  1  0  0  0  0
 22 28  1  0  0  0  0
 22 29  1  0  0  0  0
 23 30  1  0  0  0  0
 23 31  1  0  0  0  0
 23 32  1  0  0  0  0
 24 33  1  0  0  0  0
 24 34  1  0  0  0  0
 24 35  1  0  0  0  0
 36 37  1  0  0  0  0
 36 41  1  0  0  0  0
 37 38  1  0  0  0  0
 37 40  1  0  0  0  0
 37 42  1  0  0  0  0
 38 39  2  0  0  0  0
 38 46  1  0  0  0  0
 40 43  1  0  0  0  0
 40 44  1  0  0  0  0
 40 45  1  0  0  0  0
 46 47  1  0  0  0  0
 46 48  1  0  0  0  0
 47 49  1  0  0  0  0
 47 50  1  0  0  0  0
 47 51  1  0  0  0  0
M  END
$$$$

  -OEChem-05262216503D

 51 50  0     1  0  0  0  0  0999 V2000
    0.3422   -5.7140    0.8797 C   0  0  0  0  0  0  0  0  0  0  0  0
   -0.6216   -5.9864    0.1808 O   0  0  0  0  0  0  0  0  0  0  0  0
    1.4996   -6.6887    0.9869 C   0  0  0  0  0  0  0  0  0  0  0  0
    1.3239   -7.5555    0.3441 H   0  0  0  0  0  0  0  0  0  0  0  0
    2.4273   -6.2021    0.6755 H   0  0  0  0  0  0  0  0  0  0  0  0
    1.6046   -7.0301    2.0194 H   0  0  0  0  0  0  0  0  0  0  0  0
    0.3984   -4.5189    1.5652 N   0  0  0  0  0  0  0  0  0  0  0  0
   -0.4995   -3.3848    1.3069 C   0  0  2  0  0  0  0  0  0  0  0  0
    0.2768   -2.1618    0.7775 C   0  0  0  0  0  0  0  0  0  0  0  0
    1.4948   -2.0974    0.9164 O   0  0  0  0  0  0  0  0  0  0  0  0
   -1.2046   -3.0359    2.6187 C   0  0  0  0  0  0  0  0  0  0  0  0
    1.3092   -4.2771    1.9520 H   0  0  0  0  0  0  0  0  0  0  0  0
   -1.2544   -3.6481    0.5591 H   0  0  0  0  0  0  0  0  0  0  0  0
   -0.4738   -2.7397    3.3785 H   0  0  0  0  0  0  0  0  0  0  0  0
   -1.9026   -2.2064    2.4708 H   0  0  0  0  0  0  0  0  0  0  0  0
   -1.7652   -3.8997    2.9889 H   0  0  0  0  0  0  0  0  0  0  0  0
   -0.3852   -1.1510    0.1009 N   0  0  0  0  0  0  0  0  0  0  0  0
    0.1478    0.2257    0.0514 C   0  0  2  0  0  0  0  0  0  0  0  0
   -0.0949    0.9237    1.4304 C   0  0  0  0  0  0  0  0  0  0  0  0
   -0.0039    0.2937    2.4781 O   0  0  0  0  0  0  0  0  0  0  0  0
   -0.4329    0.9062   -1.2331 C   0  0  2  0  0  0  0  0  0  0  0  0
    0.0752    0.1394   -2.4887 C   0  0  0  0  0  0  0  0  0  0  0  0
    0.0138    2.3855   -1.3558 C   0  0  0  0  0  0  0  0  0  0  0  0
   -0.6336    0.5389   -3.7907 C   0  0  0  0  0  0  0  0  0  0  0  0
   -1.3956   -1.2474    0.0867 H   0  0  0  0  0  0  0  0  0  0  0  0
    1.2360    0.1933   -0.0720 H   0  0  0  0  0  0  0  0  0  0  0  0
   -1.5271    0.8630   -1.2041 H   0  0  0  0  0  0  0  0  0  0  0  0
    1.1534    0.2944   -2.6015 H   0  0  0  0  0  0  0  0  0  0  0  0
   -0.0826   -0.9358   -2.3630 H   0  0  0  0  0  0  0  0  0  0  0  0
    0.9810    2.5404   -0.8668 H   0  0  0  0  0  0  0  0  0  0  0  0
   -0.7264    3.0526   -0.9068 H   0  0  0  0  0  0  0  0  0  0  0  0
    0.1217    2.7045   -2.3933 H   0  0  0  0  0  0  0  0  0  0  0  0
   -1.7192    0.4815   -3.6662 H   0  0  0  0  0  0  0  0  0  0  0  0
   -0.3431   -0.1479   -4.5915 H   0  0  0  0  0  0  0  0  0  0  0  0
   -0.3701    1.5499   -4.1095 H   0  0  0  0  0  0  0  0  0  0  0  0
   -0.5787    2.2126    1.5461 N   0  0  0  0  0  0  0  0  0  0  0  0
   -1.0081    2.8619    2.7913 C   0  0  2  0  0  0  0  0  0  0  0  0
   -2.0607    3.9544    2.5077 C   0  0  0  0  0  0  0  0  0  0  0  0
   -2.2932    4.2965    1.3523 O   0  0  0  0  0  0  0  0  0  0  0  0
    0.2233    3.4620    3.4780 C   0  0  0  0  0  0  0  0  0  0  0  0
   -0.8237    2.6953    0.6847 H   0  0  0  0  0  0  0  0  0  0  0  0
   -1.4719    2.1241    3.4544 H   0  0  0  0  0  0  0  0  0  0  0  0
    0.7027    4.1995    2.8266 H   0  0  0  0  0  0  0  0  0  0  0  0
   -0.0572    3.9532    4.4141 H   0  0  0  0  0  0  0  0  0  0  0  0
    0.9501    2.6765    3.7077 H   0  0  0  0  0  0  0  0  0  0  0  0
   -2.7651    4.5421    3.5423 N   0  0  0  0  0  0  0  0  0  0  0  0
   -3.7738    5.5749    3.3373 C   0  0  0  0  0  0  0  0  0  0  0  0
   -2.5547    4.2391    4.4890 H   0  0  0  0  0  0  0  0  0  0  0  0
   -3.3264    6.4599    2.8727 H   0  0  0  0  0  0  0  0  0  0  0  0
   -4.5760    5.2044    2.6903 H   0  0  0  0  0  0  0  0  0  0  0  0
   -4.2125    5.8719    4.2947 H   0  0  0  0  0  0  0  0  0  0  0  0
  1  2  2  0  0  0  0
  1  3  1  0  0  0  0
  1  7  1  0  0  0  0
  3  4  1  0  0  0  0
  3  5  1  0  0  0  0
  3  6  1  0  0  0  0
  7  8  1  0  0  0  0
  7 12  1  0  0  0  0
  8  9  1  0  0  0  0
  8 11  1  0  0  0  0
  8 13  1  0  0  0  0
  9 10  2  0  0  0  0
  9 17  1  0  0  0  0
 11 14  1  0  0  0  0
 11 15  1  0  0  0  0
 11 16  1  0  0  0  0
 17 18  1  0  0  0  0
 17 25  1  0  0  0  0
 18 19  1  0  0  0  0
 18 21  1  0  0  0  0
 18 26  1  0  0  0  0
 19 20  2  0  0  0  0
 19 36  1  0  0  0  0
 21 22  1  0  0  0  0
 21 23  1  0  0  0  0
 21 27  1  0  0  0  0
 22 24  1  0  0  0  0
 22 28  1  0  0  0  0
 22 29  1  0  0  0  0
 23 30  1  0  0  0  0
 23 31  1  0  0  0  0
 23 32  1  0  0  0  0
 24 33  1  0  0  0  0
 24 34  1  0  0  0  0
 24 35  1  0  0  0  0
 36 37  1  0  0  0  0
 36 41  1  0  0  0  0
 37 38  1  0  0  0  0
 37 40  1  0  0  0  0
 37 42  1  0  0  0  0
 38 39  2  0  0  0  0
 38 46  1  0  0  0  0
 40 43  1  0  0  0  0
 40 44  1  0  0  0  0
 40 45  1  0  0  0  0
 46 47  1  0  0  0  0
 46 48  1  0  0  0  0
 47 49  1  0  0  0  0
 47 50  1  0  0  0  0
 47 51  1  0  0  0  0
M  END
$$$$

  -OEChem-05262216503D

 51 50  0     1  0  0  0  0  0999 V2000
    0.2227   -5.6655    0.9801 C   0  0  0  0  0  0  0  0  0  0  0  0
   -0.7887   -5.9258    0.3468 O   0  0  0  0  0  0  0  0  0  0  0  0
    1.3450   -6.6832    1.0646 C   0  0  0  0  0  0  0  0  0  0  0  0
    1.0773   -7.5879    0.5116 H   0  0  0  0  0  0  0  0  0  0  0  0
    2.2595   -6.2668    0.6352 H   0  0  0  0  0  0  0  0  0  0  0  0
    1.5286   -6.9492    2.1083 H   0  0  0  0  0  0  0  0  0  0  0  0
    0.3615   -4.4470    1.6110 N   0  0  0  0  0  0  0  0  0  0  0  0
   -0.5111   -3.2911    1.3600 C   0  0  2  0  0  0  0  0  0  0  0  0
    0.2797   -2.1045    0.7731 C   0  0  0  0  0  0  0  0  0  0  0  0
    1.4991   -2.0558    0.8994 O   0  0  0  0  0  0  0  0  0  0  0  0
   -1.1536   -2.8871    2.6887 C   0  0  0  0  0  0  0  0  0  0  0  0
    1.2988   -4.2265    1.9442 H   0  0  0  0  0  0  0  0  0  0  0  0
   -1.3019   -3.5477    0.6478 H   0  0  0  0  0  0  0  0  0  0  0  0
   -0.3850   -2.5928    3.4112 H   0  0  0  0  0  0  0  0  0  0  0  0
   -1.8330   -2.0415    2.5449 H   0  0  0  0  0  0  0  0  0  0  0  0
   -1.7236   -3.7237    3.1044 H   0  0  0  0  0  0  0  0  0  0  0  0
   -0.3723   -1.1060    0.0686 N   0  0  0  0  0  0  0  0  0  0  0  0
    0.1511    0.2742    0.0200 C   0  0  2  0  0  0  0  0  0  0  0  0
   -0.1483    0.9540    1.3927 C   0  0  0  0  0  0  0  0  0  0  0  0
    0.1912    0.4266    2.4445 O   0  0  0  0  0  0  0  0  0  0  0  0
   -0.3900    0.9723   -1.2686 C   0  0  2  0  0  0  0  0  0  0  0  0
    0.1487    0.2139   -2.5150 C   0  0  0  0  0  0  0  0  0  0  0  0
    0.1047    2.4359   -1.3910 C   0  0  0  0  0  0  0  0  0  0  0  0
   -0.5202    0.6337   -3.8294 C   0  0  0  0  0  0  0  0  0  0  0  0
   -1.3816   -1.2092    0.0305 H   0  0  0  0  0  0  0  0  0  0  0  0
    1.2436    0.2498   -0.0671 H   0  0  0  0  0  0  0  0  0  0  0  0
   -1.4853    0.9524   -1.2617 H   0  0  0  0  0  0  0  0  0  0  0  0
    1.2322    0.3508   -2.5975 H   0  0  0  0  0  0  0  0  0  0  0  0
   -0.0310   -0.8592   -2.4016 H   0  0  0  0  0  0  0  0  0  0  0  0
    1.1957    2.4760   -1.3097 H   0  0  0  0  0  0  0  0  0  0  0  0
   -0.1840    2.8703   -2.3501 H   0  0  0  0  0  0  0  0  0  0  0  0
   -0.3182    3.0900   -0.6300 H   0  0  0  0  0  0  0  0  0  0  0  0
   -1.6098    0.6189   -3.7284 H   0  0  0  0  0  0  0  0  0  0  0  0
   -0.2381   -0.0626   -4.6251 H   0  0  0  0  0  0  0  0  0  0  0  0
   -0.2068    1.6346   -4.1369 H   0  0  0  0  0  0  0  0  0  0  0  0
   -0.9263    2.0904    1.5026 N   0  0  0  0  0  0  0  0  0  0  0  0
   -1.4144    2.6754    2.7576 C   0  0  2  0  0  0  0  0  0  0  0  0
   -2.7308    3.4469    2.5279 C   0  0  0  0  0  0  0  0  0  0  0  0
   -3.1442    3.6291    1.3868 O   0  0  0  0  0  0  0  0  0  0  0  0
   -0.3318    3.6043    3.3169 C   0  0  0  0  0  0  0  0  0  0  0  0
   -1.3606    2.4377    0.6481 H   0  0  0  0  0  0  0  0  0  0  0  0
   -1.6216    1.8809    3.4824 H   0  0  0  0  0  0  0  0  0  0  0  0
   -0.1184    4.4124    2.6099 H   0  0  0  0  0  0  0  0  0  0  0  0
   -0.6533    4.0452    4.2650 H   0  0  0  0  0  0  0  0  0  0  0  0
    0.5920    3.0450    3.4957 H   0  0  0  0  0  0  0  0  0  0  0  0
   -3.4653    3.9217    3.5985 N   0  0  0  0  0  0  0  0  0  0  0  0
   -4.7106    4.6645    3.4468 C   0  0  0  0  0  0  0  0  0  0  0  0
   -3.0982    3.7594    4.5319 H   0  0  0  0  0  0  0  0  0  0  0  0
   -4.5360    5.5956    2.8970 H   0  0  0  0  0  0  0  0  0  0  0  0
   -5.4503    4.0670    2.9031 H   0  0  0  0  0  0  0  0  0  0  0  0
   -5.1239    4.9151    4.4286 H   0  0  0  0  0  0  0  0  0  0  0  0
  1  2  2  0  0  0  0
  1  3  1  0  0  0  0
  1  7  1  0  0  0  0
  3  4  1  0  0  0  0
  3  5  1  0  0  0  0
  3  6  1  0  0  0  0
  7  8  1  0  0  0  0
  7 12  1  0  0  0  0
  8  9  1  0  0  0  0
  8 11  1  0  0  0  0
  8 13  1  0  0  0  0
  9 10  2  0  0  0  0
  9 17  1  0  0  0  0
 11 14  1  0  0  0  0
 11 15  1  0  0  0  0
 11 16  1  0  0  0  0
 17 18  1  0  0  0  0
 17 25  1  0  0  0  0
 18 19  1  0  0  0  0
 18 21  1  0  0  0  0
 18 26  1  0  0  0  0
 19 20  2  0  0  0  0
 19 36  1  0  0  0  0
 21 22  1  0  0  0  0
 21 23  1  0  0  0  0
 21 27  1  0  0  0  0
 22 24  1  0  0  0  0
 22 28  1  0  0  0  0
 22 29  1  0  0  0  0
 23 30  1  0  0  0  0
 23 31  1  0  0  0  0
 23 32  1  0  0  0  0
 24 33  1  0  0  0  0
 24 34  1  0  0  0  0
 24 35  1  0  0  0  0
 36 37  1  0  0  0  0
 36 41  1  0  0  0  0
 37 38  1  0  0  0  0
 37 40  1  0  0  0  0
 37 42  1  0  0  0  0
 38 39  2  0  0  0  0
 38 46  1  0  0  0  0
 40 43  1  0  0  0  0
 40 44  1  0  0  0  0
 40 45  1  0  0  0  0
 46 47  1  0  0  0  0
 46 48  1  0  0  0  0
 47 49  1  0  0  0  0
 47 50  1  0  0  0  0
 47 51  1  0  0  0  0
M  END
$$$$

  -OEChem-05262216503D

 51 50  0     1  0  0  0  0  0999 V2000
    0.2357   -5.6374    0.8901 C   0  0  0  0  0  0  0  0  0  0  0  0
   -0.7207   -5.8699    0.1671 O   0  0  0  0  0  0  0  0  0  0  0  0
    1.3616   -6.6482    1.0042 C   0  0  0  0  0  0  0  0  0  0  0  0
    1.1367   -7.5336    0.4028 H   0  0  0  0  0  0  0  0  0  0  0  0
    2.2955   -6.2070    0.6470 H   0  0  0  0  0  0  0  0  0  0  0  0
    1.4855   -6.9524    2.0464 H   0  0  0  0  0  0  0  0  0  0  0  0
    0.3080   -4.4548    1.5962 N   0  0  0  0  0  0  0  0  0  0  0  0
   -0.5684   -3.2999    1.3523 C   0  0  2  0  0  0  0  0  0  0  0  0
    0.2370   -2.0687    0.8894 C   0  0  0  0  0  0  0  0  0  0  0  0
    1.4356   -1.9952    1.1350 O   0  0  0  0  0  0  0  0  0  0  0  0
   -1.3094   -2.9891    2.6545 C   0  0  0  0  0  0  0  0  0  0  0  0
    1.2139   -4.2422    2.0119 H   0  0  0  0  0  0  0  0  0  0  0  0
   -1.3032   -3.5274    0.5733 H   0  0  0  0  0  0  0  0  0  0  0  0
   -0.5990   -2.7360    3.4485 H   0  0  0  0  0  0  0  0  0  0  0  0
   -1.9899   -2.1438    2.5163 H   0  0  0  0  0  0  0  0  0  0  0  0
   -1.8954   -3.8569    2.9730 H   0  0  0  0  0  0  0  0  0  0  0  0
   -0.3727   -1.0710    0.1475 N   0  0  0  0  0  0  0  0  0  0  0  0
    0.1486    0.3088    0.0988 C   0  0  2  0  0  0  0  0  0  0  0  0
   -0.2062    1.0121    1.4399 C   0  0  0  0  0  0  0  0  0  0  0  0
    0.3416    0.6956    2.4865 O   0  0  0  0  0  0  0  0  0  0  0  0
   -0.3563    1.0087   -1.1990 C   0  0  2  0  0  0  0  0  0  0  0  0
    0.2033    0.2615   -2.4397 C   0  0  0  0  0  0  0  0  0  0  0  0
    0.1365    2.4739   -1.2837 C   0  0  0  0  0  0  0  0  0  0  0  0
   -0.4446    0.7035   -3.7565 C   0  0  0  0  0  0  0  0  0  0  0  0
   -1.3694   -1.1942   -0.0021 H   0  0  0  0  0  0  0  0  0  0  0  0
    1.2434    0.2855    0.0482 H   0  0  0  0  0  0  0  0  0  0  0  0
   -1.4512    0.9897   -1.2171 H   0  0  0  0  0  0  0  0  0  0  0  0
    1.2881    0.3983   -2.5021 H   0  0  0  0  0  0  0  0  0  0  0  0
    0.0201   -0.8125   -2.3389 H   0  0  0  0  0  0  0  0  0  0  0  0
    1.2306    2.5068   -1.3084 H   0  0  0  0  0  0  0  0  0  0  0  0
   -0.2449    2.9603   -2.1852 H   0  0  0  0  0  0  0  0  0  0  0  0
   -0.1980    3.0780   -0.4397 H   0  0  0  0  0  0  0  0  0  0  0  0
   -1.5352    0.6474   -3.6857 H   0  0  0  0  0  0  0  0  0  0  0  0
   -0.1163    0.0475   -4.5685 H   0  0  0  0  0  0  0  0  0  0  0  0
   -0.1598    1.7261   -4.0171 H   0  0  0  0  0  0  0  0  0  0  0  0
   -1.2218    1.9478    1.5157 N   0  0  0  0  0  0  0  0  0  0  0  0
   -1.7461    2.5346    2.7550 C   0  0  2  0  0  0  0  0  0  0  0  0
   -3.2418    2.8878    2.6128 C   0  0  0  0  0  0  0  0  0  0  0  0
   -3.7835    2.8315    1.5132 O   0  0  0  0  0  0  0  0  0  0  0  0
   -0.9217    3.7836    3.0836 C   0  0  0  0  0  0  0  0  0  0  0  0
   -1.7732    2.1037    0.6727 H   0  0  0  0  0  0  0  0  0  0  0  0
   -1.6558    1.8142    3.5751 H   0  0  0  0  0  0  0  0  0  0  0  0
   -1.0124    4.5237    2.2823 H   0  0  0  0  0  0  0  0  0  0  0  0
   -1.2648    4.2371    4.0181 H   0  0  0  0  0  0  0  0  0  0  0  0
    0.1351    3.5214    3.1971 H   0  0  0  0  0  0  0  0  0  0  0  0
   -3.9870    3.2563    3.7176 N   0  0  0  0  0  0  0  0  0  0  0  0
   -5.4006    3.6076    3.6495 C   0  0  0  0  0  0  0  0  0  0  0  0
   -3.5148    3.2848    4.6167 H   0  0  0  0  0  0  0  0  0  0  0  0
   -5.5499    4.4713    2.9928 H   0  0  0  0  0  0  0  0  0  0  0  0
   -5.9870    2.7666    3.2643 H   0  0  0  0  0  0  0  0  0  0  0  0
   -5.7756    3.8625    4.6454 H   0  0  0  0  0  0  0  0  0  0  0  0
  1  2  2  0  0  0  0
  1  3  1  0  0  0  0
  1  7  1  0  0  0  0
  3  4  1  0  0  0  0
  3  5  1  0  0  0  0
  3  6  1  0  0  0  0
  7  8  1  0  0  0  0
  7 12  1  0  0  0  0
  8  9  1  0  0  0  0
  8 11  1  0  0  0  0
  8 13  1  0  0  0  0
  9 10  2  0  0  0  0
  9 17  1  0  0  0  0
 11 14  1  0  0  0  0
 11 15  1  0  0  0  0
 11 16  1  0  0  0  0
 17 18  1  0  0  0  0
 17 25  1  0  0  0  0
 18 19  1  0  0  0  0
 18 21  1  0  0  0  0
 18 26  1  0  0  0  0
 19 20  2  0  0  0  0
 19 36  1  0  0  0  0
 21 22  1  0  0  0  0
 21 23  1  0  0  0  0
 21 27  1  0  0  0  0
 22 24  1  0  0  0  0
 22 28  1  0  0  0  0
 22 29  1  0  0  0  0
 23 30  1  0  0  0  0
 23 31  1  0  0  0  0
 23 32  1  0  0  0  0
 24 33  1  0  0  0  0
 24 34  1  0  0  0  0
 24 35  1  0  0  0  0
 36 37  1  0  0  0  0
 36 41  1  0  0  0  0
 37 38  1  0  0  0  0
 37 40  1  0  0  0  0
 37 42  1  0  0  0  0
 38 39  2  0  0  0  0
 38 46  1  0  0  0  0
 40 43  1  0  0  0  0
 40 44  1  0  0  0  0
 40 45  1  0  0  0  0
 46 47  1  0  0  0  0
 46 48  1  0  0  0  0
 47 49  1  0  0  0  0
 47 50  1  0  0  0  0
 47 51  1  0  0  0  0
M  END
$$$$

  -OEChem-05262216503D

 51 50  0     1  0  0  0  0  0999 V2000
    0.1521   -5.5219    0.8730 C   0  0  0  0  0  0  0  0  0  0  0  0
   -0.6671   -5.6890   -0.0171 O   0  0  0  0  0  0  0  0  0  0  0  0
    1.2383   -6.5557    1.1045 C   0  0  0  0  0  0  0  0  0  0  0  0
    1.1491   -7.3662    0.3756 H   0  0  0  0  0  0  0  0  0  0  0  0
    2.2230   -6.0940    0.9976 H   0  0  0  0  0  0  0  0  0  0  0  0
    1.1465   -6.9739    2.1099 H   0  0  0  0  0  0  0  0  0  0  0  0
    0.1029   -4.3958    1.6683 N   0  0  0  0  0  0  0  0  0  0  0  0
   -0.7238   -3.2193    1.3641 C   0  0  2  0  0  0  0  0  0  0  0  0
    0.1395   -2.0013    0.9789 C   0  0  0  0  0  0  0  0  0  0  0  0
    1.2969   -1.9236    1.3712 O   0  0  0  0  0  0  0  0  0  0  0  0
   -1.5581   -2.8988    2.6064 C   0  0  0  0  0  0  0  0  0  0  0  0
    0.9303   -4.2219    2.2363 H   0  0  0  0  0  0  0  0  0  0  0  0
   -1.4025   -3.4258    0.5302 H   0  0  0  0  0  0  0  0  0  0  0  0
   -0.9066   -2.6686    3.4560 H   0  0  0  0  0  0  0  0  0  0  0  0
   -2.2052   -2.0354    2.4223 H   0  0  0  0  0  0  0  0  0  0  0  0
   -2.1876   -3.7544    2.8704 H   0  0  0  0  0  0  0  0  0  0  0  0
   -0.3936   -0.9941    0.1945 N   0  0  0  0  0  0  0  0  0  0  0  0
    0.1698    0.3672    0.1375 C   0  0  2  0  0  0  0  0  0  0  0  0
   -0.2098    1.1246    1.4353 C   0  0  0  0  0  0  0  0  0  0  0  0
    0.5010    1.0840    2.4288 O   0  0  0  0  0  0  0  0  0  0  0  0
   -0.2784    1.0610   -1.1803 C   0  0  2  0  0  0  0  0  0  0  0  0
    0.2872    0.2875   -2.3993 C   0  0  0  0  0  0  0  0  0  0  0  0
    0.2314    2.5185   -1.2368 C   0  0  0  0  0  0  0  0  0  0  0  0
   -0.3194    0.7386   -3.7316 C   0  0  0  0  0  0  0  0  0  0  0  0
   -1.3694   -1.1097   -0.0628 H   0  0  0  0  0  0  0  0  0  0  0  0
    1.2647    0.3091    0.1212 H   0  0  0  0  0  0  0  0  0  0  0  0
   -1.3726    1.0626   -1.2296 H   0  0  0  0  0  0  0  0  0  0  0  0
    1.3760    0.3996   -2.4382 H   0  0  0  0  0  0  0  0  0  0  0  0
    0.0759   -0.7807   -2.2931 H   0  0  0  0  0  0  0  0  0  0  0  0
    1.3259    2.5412   -1.2163 H   0  0  0  0  0  0  0  0  0  0  0  0
   -0.1087    3.0160   -2.1488 H   0  0  0  0  0  0  0  0  0  0  0  0
   -0.1367    3.1110   -0.3959 H   0  0  0  0  0  0  0  0  0  0  0  0
   -1.4119    0.6949   -3.6889 H   0  0  0  0  0  0  0  0  0  0  0  0
    0.0213    0.0789   -4.5356 H   0  0  0  0  0  0  0  0  0  0  0  0
   -0.0154    1.7585   -3.9816 H   0  0  0  0  0  0  0  0  0  0  0  0
   -1.3826    1.8547    1.4983 N   0  0  0  0  0  0  0  0  0  0  0  0
   -1.9687    2.3822    2.7364 C   0  0  2  0  0  0  0  0  0  0  0  0
   -3.4824    2.0901    2.7992 C   0  0  0  0  0  0  0  0  0  0  0  0
   -4.0674    1.6643    1.8077 O   0  0  0  0  0  0  0  0  0  0  0  0
   -1.6969    3.8875    2.7803 C   0  0  0  0  0  0  0  0  0  0  0  0
   -2.0248    1.7409    0.7159 H   0  0  0  0  0  0  0  0  0  0  0  0
   -1.5098    1.9081    3.6110 H   0  0  0  0  0  0  0  0  0  0  0  0
   -2.1655    4.3863    1.9258 H   0  0  0  0  0  0  0  0  0  0  0  0
   -2.0945    4.3242    3.7012 H   0  0  0  0  0  0  0  0  0  0  0  0
   -0.6190    4.0760    2.7465 H   0  0  0  0  0  0  0  0  0  0  0  0
   -4.1886    2.2920    3.9702 N   0  0  0  0  0  0  0  0  0  0  0  0
   -5.6196    2.0436    4.0965 C   0  0  0  0  0  0  0  0  0  0  0  0
   -3.6753    2.6385    4.7759 H   0  0  0  0  0  0  0  0  0  0  0  0
   -6.1836    2.7065    3.4319 H   0  0  0  0  0  0  0  0  0  0  0  0
   -5.8540    1.0051    3.8398 H   0  0  0  0  0  0  0  0  0  0  0  0
   -5.9446    2.2259    5.1252 H   0  0  0  0  0  0  0  0  0  0  0  0
  1  2  2  0  0  0  0
  1  3  1  0  0  0  0
  1  7  1  0  0  0  0
  3  4  1  0  0  0  0
  3  5  1  0  0  0  0
  3  6  1  0  0  0  0
  7  8  1  0  0  0  0
  7 12  1  0  0  0  0
  8  9  1  0  0  0  0
  8 11  1  0  0  0  0
  8 13  1  0  0  0  0
  9 10  2  0  0  0  0
  9 17  1  0  0  0  0
 11 14  1  0  0  0  0
 11 15  1  0  0  0  0
 11 16  1  0  0  0  0
 17 18  1  0  0  0  0
 17 25  1  0  0  0  0
 18 19  1  0  0  0  0
 18 21  1  0  0  0  0
 18 26  1  0  0  0  0
 19 20  2  0  0  0  0
 19 36  1  0  0  0  0
 21 22  1  0  0  0  0
 21 23  1  0  0  0  0
 21 27  1  0  0  0  0
 22 24  1  0  0  0  0
 22 28  1  0  0  0  0
 22 29  1  0  0  0  0
 23 30  1  0  0  0  0
 23 31  1  0  0  0  0
 23 32  1  0  0  0  0
 24 33  1  0  0  0  0
 24 34  1  0  0  0  0
 24 35  1  0  0  0  0
 36 37  1  0  0  0  0
 36 41  1  0  0  0  0
 37 38  1  0  0  0  0
 37 40  1  0  0  0  0
 37 42  1  0  0  0  0
 38 39  2  0  0  0  0
 38 46  1  0  0  0  0
 40 43  1  0  0  0  0
 40 44  1  0  0  0  0
 40 45  1  0  0  0  0
 46 47  1  0  0  0  0
 46 48  1  0  0  0  0
 47 49  1  0  0  0  0
 47 50  1  0  0  0  0
 47 51  1  0  0  0  0
M  END
$$$$

  -OEChem-05262216503D

 51 50  0     1  0  0  0  0  0999 V2000
    0.6155   -5.4428    0.6114 C   0  0  0  0  0  0  0  0  0  0  0  0
    0.0966   -5.4933   -0.4932 O   0  0  0  0  0  0  0  0  0  0  0  0
    1.7931   -6.3423    0.9368 C   0  0  0  0  0  0  0  0  0  0  0  0
    2.0432   -6.9635    0.0724 H   0  0  0  0  0  0  0  0  0  0  0  0
    2.6645   -5.7367    1.1982 H   0  0  0  0  0  0  0  0  0  0  0  0
    1.5437   -6.9932    1.7781 H   0  0  0  0  0  0  0  0  0  0  0  0
    0.1519   -4.5566    1.5620 N   0  0  0  0  0  0  0  0  0  0  0  0
   -0.7682   -3.4536    1.2501 C   0  0  2  0  0  0  0  0  0  0  0  0
   -0.0249   -2.1066    1.1462 C   0  0  0  0  0  0  0  0  0  0  0  0
    0.9895   -1.9168    1.8037 O   0  0  0  0  0  0  0  0  0  0  0  0
   -1.8231   -3.3930    2.3567 C   0  0  0  0  0  0  0  0  0  0  0  0
    0.7688   -4.4117    2.3588 H   0  0  0  0  0  0  0  0  0  0  0  0
   -1.2785   -3.6333    0.2983 H   0  0  0  0  0  0  0  0  0  0  0  0
   -1.3520   -3.1984    3.3257 H   0  0  0  0  0  0  0  0  0  0  0  0
   -2.5443   -2.5946    2.1552 H   0  0  0  0  0  0  0  0  0  0  0  0
   -2.3649   -4.3422    2.4155 H   0  0  0  0  0  0  0  0  0  0  0  0
   -0.5192   -1.1008    0.3366 N   0  0  0  0  0  0  0  0  0  0  0  0
    0.0252    0.2678    0.2831 C   0  0  2  0  0  0  0  0  0  0  0  0
   -0.4023    1.0582    1.5421 C   0  0  0  0  0  0  0  0  0  0  0  0
    0.4158    1.4084    2.3812 O   0  0  0  0  0  0  0  0  0  0  0  0
   -0.4026    0.9454   -1.0488 C   0  0  2  0  0  0  0  0  0  0  0  0
    0.1990    0.1796   -2.2547 C   0  0  0  0  0  0  0  0  0  0  0  0
    0.0632    2.4167   -1.0860 C   0  0  0  0  0  0  0  0  0  0  0  0
   -0.3895    0.6204   -3.5987 C   0  0  0  0  0  0  0  0  0  0  0  0
   -1.3534   -1.3141   -0.2021 H   0  0  0  0  0  0  0  0  0  0  0  0
    1.1205    0.2194    0.2979 H   0  0  0  0  0  0  0  0  0  0  0  0
   -1.4952    0.9222   -1.1224 H   0  0  0  0  0  0  0  0  0  0  0  0
    1.2861    0.3123   -2.2727 H   0  0  0  0  0  0  0  0  0  0  0  0
    0.0055   -0.8922   -2.1511 H   0  0  0  0  0  0  0  0  0  0  0  0
    1.1535    2.4746   -1.0062 H   0  0  0  0  0  0  0  0  0  0  0  0
   -0.2435    2.9032   -2.0153 H   0  0  0  0  0  0  0  0  0  0  0  0
   -0.3727    2.9931   -0.2654 H   0  0  0  0  0  0  0  0  0  0  0  0
   -1.4818    0.5547   -3.5793 H   0  0  0  0  0  0  0  0  0  0  0  0
   -0.0184   -0.0303   -4.3964 H   0  0  0  0  0  0  0  0  0  0  0  0
   -0.1016    1.6469   -3.8404 H   0  0  0  0  0  0  0  0  0  0  0  0
   -1.7021    1.5151    1.6573 N   0  0  0  0  0  0  0  0  0  0  0  0
   -2.2516    2.1483    2.8612 C   0  0  2  0  0  0  0  0  0  0  0  0
   -3.7079    1.7013    3.1078 C   0  0  0  0  0  0  0  0  0  0  0  0
   -4.3024    1.0472    2.2559 O   0  0  0  0  0  0  0  0  0  0  0  0
   -2.1631    3.6664    2.6834 C   0  0  0  0  0  0  0  0  0  0  0  0
   -2.3817    1.1147    1.0131 H   0  0  0  0  0  0  0  0  0  0  0  0
   -1.6682    1.8533    3.7401 H   0  0  0  0  0  0  0  0  0  0  0  0
   -2.7421    3.9839    1.8104 H   0  0  0  0  0  0  0  0  0  0  0  0
   -2.5510    4.1821    3.5668 H   0  0  0  0  0  0  0  0  0  0  0  0
   -1.1206    3.9684    2.5388 H   0  0  0  0  0  0  0  0  0  0  0  0
   -4.3493    2.0164    4.2915 N   0  0  0  0  0  0  0  0  0  0  0  0
   -5.7244    1.6316    4.5857 C   0  0  0  0  0  0  0  0  0  0  0  0
   -3.8271    2.5468    4.9833 H   0  0  0  0  0  0  0  0  0  0  0  0
   -6.4128    2.0959    3.8718 H   0  0  0  0  0  0  0  0  0  0  0  0
   -5.8398    0.5439    4.5309 H   0  0  0  0  0  0  0  0  0  0  0  0
   -6.0008    1.9566    5.5933 H   0  0  0  0  0  0  0  0  0  0  0  0
  1  2  2  0  0  0  0
  1  3  1  0  0  0  0
  1  7  1  0  0  0  0
  3  4  1  0  0  0  0
  3  5  1  0  0  0  0
  3  6  1  0  0  0  0
  7  8  1  0  0  0  0
  7 12  1  0  0  0  0
  8  9  1  0  0  0  0
  8 11  1  0  0  0  0
  8 13  1  0  0  0  0
  9 10  2  0  0  0  0
  9 17  1  0  0  0  0
 11 14  1  0  0  0  0
 11 15  1  0  0  0  0
 11 16  1  0  0  0  0
 17 18  1  0  0  0  0
 17 25  1  0  0  0  0
 18 19  1  0  0  0  0
 18 21  1  0  0  0  0
 18 26  1  0  0  0  0
 19 20  2  0  0  0  0
 19 36  1  0  0  0  0
 21 22  1  0  0  0  0
 21 23  1  0  0  0  0
 21 27  1  0  0  0  0
 22 24  1  0  0  0  0
 22 28  1  0  0  0  0
 22 29  1  0  0  0  0
 23 30  1  0  0  0  0
 23 31  1  0  0  0  0
 23 32  1  0  0  0  0
 24 33  1  0  0  0  0
 24 34  1  0  0  0  0
 24 35  1  0  0  0  0
 36 37  1  0  0  0  0
 36 41  1  0  0  0  0
 37 38  1  0  0  0  0
 37 40  1  0  0  0  0
 37 42  1  0  0  0  0
 38 39  2  0  0  0  0
 38 46  1  0  0  0  0
 40 43  1  0  0  0  0
 40 44  1  0  0  0  0
 40 45  1  0  0  0  0
 46 47  1  0  0  0  0
 46 48  1  0  0  0  0
 47 49  1  0  0  0  0
 47 50  1  0  0  0  0
 47 51  1  0  0  0  0
M  END
$$$$

  -OEChem-05262216503D

 51 50  0     1  0  0  0  0  0999 V2000
   -0.7526   -3.9679   -0.1340 C   0  0  0  0  0  0  0  0  0  0  0  0
   -1.4686   -3.1183   -0.6444 O   0  0  0  0  0  0  0  0  0  0  0  0
    0.0609   -4.9046   -1.0063 C   0  0  0  0  0  0  0  0  0  0  0  0
   -0.1543   -4.7190   -2.0624 H   0  0  0  0  0  0  0  0  0  0  0  0
    1.1281   -4.7455   -0.8327 H   0  0  0  0  0  0  0  0  0  0  0  0
   -0.1884   -5.9428   -0.7743 H   0  0  0  0  0  0  0  0  0  0  0  0
   -0.6243   -4.0138    1.2395 N   0  0  0  0  0  0  0  0  0  0  0  0
   -1.3497   -3.1341    2.1713 C   0  0  2  0  0  0  0  0  0  0  0  0
   -0.7624   -1.7019    2.2167 C   0  0  0  0  0  0  0  0  0  0  0  0
   -0.3110   -1.2186    3.2455 O   0  0  0  0  0  0  0  0  0  0  0  0
   -1.3498   -3.8198    3.5433 C   0  0  0  0  0  0  0  0  0  0  0  0
    0.0365   -4.6837    1.6237 H   0  0  0  0  0  0  0  0  0  0  0  0
   -2.3920   -3.0417    1.8465 H   0  0  0  0  0  0  0  0  0  0  0  0
   -0.3276   -3.9279    3.9204 H   0  0  0  0  0  0  0  0  0  0  0  0
   -1.9225   -3.2266    4.2635 H   0  0  0  0  0  0  0  0  0  0  0  0
   -1.8066   -4.8118    3.4756 H   0  0  0  0  0  0  0  0  0  0  0  0
   -0.7598   -0.9474    1.0599 N   0  0  0  0  0  0  0  0  0  0  0  0
   -0.1530    0.3862    0.9201 C   0  0  2  0  0  0  0  0  0  0  0  0
   -1.0486    1.4302    1.6164 C   0  0  0  0  0  0  0  0  0  0  0  0
   -0.6319    2.0907    2.5596 O   0  0  0  0  0  0  0  0  0  0  0  0
    0.0789    0.6906   -0.5836 C   0  0  2  0  0  0  0  0  0  0  0  0
    1.0849   -0.3222   -1.1860 C   0  0  0  0  0  0  0  0  0  0  0  0
    0.6019    2.1293   -0.7720 C   0  0  0  0  0  0  0  0  0  0  0  0
    1.1595   -0.2546   -2.7144 C   0  0  0  0  0  0  0  0  0  0  0  0
   -1.0713   -1.4403    0.2179 H   0  0  0  0  0  0  0  0  0  0  0  0
    0.8176    0.3997    1.4289 H   0  0  0  0  0  0  0  0  0  0  0  0
   -0.8765    0.5954   -1.1109 H   0  0  0  0  0  0  0  0  0  0  0  0
    2.0808   -0.1500   -0.7640 H   0  0  0  0  0  0  0  0  0  0  0  0
    0.7921   -1.3419   -0.9212 H   0  0  0  0  0  0  0  0  0  0  0  0
    1.5499    2.2651   -0.2416 H   0  0  0  0  0  0  0  0  0  0  0  0
    0.7597    2.3551   -1.8295 H   0  0  0  0  0  0  0  0  0  0  0  0
   -0.1147    2.8627   -0.3912 H   0  0  0  0  0  0  0  0  0  0  0  0
    0.1619   -0.3624   -3.1514 H   0  0  0  0  0  0  0  0  0  0  0  0
    1.7900   -1.0655   -3.0914 H   0  0  0  0  0  0  0  0  0  0  0  0
    1.5915    0.6923   -3.0492 H   0  0  0  0  0  0  0  0  0  0  0  0
   -2.3558    1.6061    1.1998 N   0  0  0  0  0  0  0  0  0  0  0  0
   -3.3632    2.2748    2.0367 C   0  0  2  0  0  0  0  0  0  0  0  0
   -3.8012    1.3733    3.2187 C   0  0  0  0  0  0  0  0  0  0  0  0
   -4.9473    0.9488    3.3113 O   0  0  0  0  0  0  0  0  0  0  0  0
   -4.5282    2.6749    1.1237 C   0  0  0  0  0  0  0  0  0  0  0  0
   -2.6881    0.9214    0.5270 H   0  0  0  0  0  0  0  0  0  0  0  0
   -2.9430    3.1918    2.4637 H   0  0  0  0  0  0  0  0  0  0  0  0
   -4.9885    1.7888    0.6750 H   0  0  0  0  0  0  0  0  0  0  0  0
   -5.2923    3.2087    1.6975 H   0  0  0  0  0  0  0  0  0  0  0  0
   -4.1762    3.3314    0.3223 H   0  0  0  0  0  0  0  0  0  0  0  0
   -2.8585    0.9655    4.1426 N   0  0  0  0  0  0  0  0  0  0  0  0
   -3.1046   -0.0458    5.1597 C   0  0  0  0  0  0  0  0  0  0  0  0
   -1.8906    1.2398    3.9491 H   0  0  0  0  0  0  0  0  0  0  0  0
   -3.9422    0.2477    5.8008 H   0  0  0  0  0  0  0  0  0  0  0  0
   -3.3358   -1.0080    4.6923 H   0  0  0  0  0  0  0  0  0  0  0  0
   -2.2167   -0.1694    5.7870 H   0  0  0  0  0  0  0  0  0  0  0  0
  1  2  2  0  0  0  0
  1  3  1  0  0  0  0
  1  7  1  0  0  0  0
  3  4  1  0  0  0  0
  3  5  1  0  0  0  0
  3  6  1  0  0  0  0
  7  8  1  0  0  0  0
  7 12  1  0  0  0  0
  8  9  1  0  0  0  0
  8 11  1  0  0  0  0
  8 13  1  0  0  0  0
  9 10  2  0  0  0  0
  9 17  1  0  0  0  0
 11 14  1  0  0  0  0
 11 15  1  0  0  0  0
 11 16  1  0  0  0  0
 17 18  1  0  0  0  0
 17 25  1  0  0  0  0
 18 19  1  0  0  0  0
 18 21  1  0  0  0  0
 18 26  1  0  0  0  0
 19 20  2  0  0  0  0
 19 36  1  0  0  0  0
 21 22  1  0  0  0  0
 21 23  1  0  0  0  0
 21 27  1  0  0  0  0
 22 24  1  0  0  0  0
 22 28  1  0  0  0  0
 22 29  1  0  0  0  0
 23 30  1  0  0  0  0
 23 31  1  0  0  0  0
 23 32  1  0  0  0  0
 24 33  1  0  0  0  0
 24 34  1  0  0  0  0
 24 35  1  0  0  0  0
 36 37  1  0  0  0  0
 36 41  1  0  0  0  0
 37 38  1  0  0  0  0
 37 40  1  0  0  0  0
 37 42  1  0  0  0  0
 38 39  2  0  0  0  0
 38 46  1  0  0  0  0
 40 43  1  0  0  0  0
 40 44  1  0  0  0  0
 40 45  1  0  0  0  0
 46 47  1  0  0  0  0
 46 48  1  0  0  0  0
 47 49  1  0  0  0  0
 47 50  1  0  0  0  0
 47 51  1  0  0  0  0
M  END
$$$$

  -OEChem-05262216503D

 51 50  0     1  0  0  0  0  0999 V2000
   -0.7597   -4.0462   -0.3066 C   0  0  0  0  0  0  0  0  0  0  0  0
   -1.4250   -3.1405   -0.7884 O   0  0  0  0  0  0  0  0  0  0  0  0
   -0.0040   -5.0017   -1.2099 C   0  0  0  0  0  0  0  0  0  0  0  0
   -0.1759   -4.7449   -2.2591 H   0  0  0  0  0  0  0  0  0  0  0  0
    1.0678   -4.9424   -1.0053 H   0  0  0  0  0  0  0  0  0  0  0  0
   -0.3450   -6.0257   -1.0388 H   0  0  0  0  0  0  0  0  0  0  0  0
   -0.6527   -4.1579    1.0653 N   0  0  0  0  0  0  0  0  0  0  0  0
   -1.3744   -3.3083    2.0276 C   0  0  2  0  0  0  0  0  0  0  0  0
   -0.7694   -1.8879    2.1519 C   0  0  0  0  0  0  0  0  0  0  0  0
   -0.3548   -1.4484    3.2155 O   0  0  0  0  0  0  0  0  0  0  0  0
   -1.4078   -4.0558    3.3668 C   0  0  0  0  0  0  0  0  0  0  0  0
   -0.0533   -4.8947    1.4272 H   0  0  0  0  0  0  0  0  0  0  0  0
   -2.4101   -3.1845    1.6928 H   0  0  0  0  0  0  0  0  0  0  0  0
   -0.3946   -4.1923    3.7581 H   0  0  0  0  0  0  0  0  0  0  0  0
   -1.9884   -3.4890    4.1020 H   0  0  0  0  0  0  0  0  0  0  0  0
   -1.8740   -5.0384    3.2461 H   0  0  0  0  0  0  0  0  0  0  0  0
   -0.7312   -1.0768    1.0347 N   0  0  0  0  0  0  0  0  0  0  0  0
   -0.1838    0.2897    1.0055 C   0  0  2  0  0  0  0  0  0  0  0  0
   -1.1732    1.2543    1.6909 C   0  0  0  0  0  0  0  0  0  0  0  0
   -0.7933    2.0530    2.5389 O   0  0  0  0  0  0  0  0  0  0  0  0
    0.1168    0.6832   -0.4650 C   0  0  2  0  0  0  0  0  0  0  0  0
    1.2038   -0.2502   -1.0562 C   0  0  0  0  0  0  0  0  0  0  0  0
    0.5748    2.1534   -0.5559 C   0  0  0  0  0  0  0  0  0  0  0  0
    1.3632   -0.1012   -2.5722 C   0  0  0  0  0  0  0  0  0  0  0  0
   -1.0137   -1.5209    0.1559 H   0  0  0  0  0  0  0  0  0  0  0  0
    0.7530    0.3223    1.5737 H   0  0  0  0  0  0  0  0  0  0  0  0
   -0.8027    0.5702   -1.0497 H   0  0  0  0  0  0  0  0  0  0  0  0
    2.1639   -0.0548   -0.5672 H   0  0  0  0  0  0  0  0  0  0  0  0
    0.9461   -1.2951   -0.8604 H   0  0  0  0  0  0  0  0  0  0  0  0
    1.4778    2.3113    0.0425 H   0  0  0  0  0  0  0  0  0  0  0  0
    0.7890    2.4366   -1.5894 H   0  0  0  0  0  0  0  0  0  0  0  0
   -0.2029    2.8321   -0.1932 H   0  0  0  0  0  0  0  0  0  0  0  0
    0.3988   -0.2291   -3.0733 H   0  0  0  0  0  0  0  0  0  0  0  0
    2.0514   -0.8638   -2.9489 H   0  0  0  0  0  0  0  0  0  0  0  0
    1.7703    0.8789   -2.8343 H   0  0  0  0  0  0  0  0  0  0  0  0
   -2.5230    1.1687    1.4008 N   0  0  0  0  0  0  0  0  0  0  0  0
   -3.5554    1.7398    2.2763 C   0  0  2  0  0  0  0  0  0  0  0  0
   -3.7313    0.8850    3.5547 C   0  0  0  0  0  0  0  0  0  0  0  0
   -4.7333    0.2024    3.7361 O   0  0  0  0  0  0  0  0  0  0  0  0
   -4.8444    1.8644    1.4554 C   0  0  0  0  0  0  0  0  0  0  0  0
   -2.7855    0.3701    0.8300 H   0  0  0  0  0  0  0  0  0  0  0  0
   -3.2624    2.7468    2.5925 H   0  0  0  0  0  0  0  0  0  0  0  0
   -5.1782    0.8817    1.1072 H   0  0  0  0  0  0  0  0  0  0  0  0
   -5.6400    2.3038    2.0654 H   0  0  0  0  0  0  0  0  0  0  0  0
   -4.6806    2.5071    0.5852 H   0  0  0  0  0  0  0  0  0  0  0  0
   -2.6915    0.8169    4.4605 N   0  0  0  0  0  0  0  0  0  0  0  0
   -2.6361   -0.1531    5.5444 C   0  0  0  0  0  0  0  0  0  0  0  0
   -1.8169    1.2547    4.1585 H   0  0  0  0  0  0  0  0  0  0  0  0
   -3.5114   -0.0542    6.1948 H   0  0  0  0  0  0  0  0  0  0  0  0
   -2.6046   -1.1713    5.1438 H   0  0  0  0  0  0  0  0  0  0  0  0
   -1.7377    0.0099    6.1475 H   0  0  0  0  0  0  0  0  0  0  0  0
  1  2  2  0  0  0  0
  1  3  1  0  0  0  0
  1  7  1  0  0  0  0
  3  4  1  0  0  0  0
  3  5  1  0  0  0  0
  3  6  1  0  0  0  0
  7  8  1  0  0  0  0
  7 12  1  0  0  0  0
  8  9  1  0  0  0  0
  8 11  1  0  0  0  0
  8 13  1  0  0  0  0
  9 10  2  0  0  0  0
  9 17  1  0  0  0  0
 11 14  1  0  0  0  0
 11 15  1  0  0  0  0
 11 16  1  0  0  0  0
 17 18  1  0  0  0  0
 17 25  1  0  0  0  0
 18 19  1  0  0  0  0
 18 21  1  0  0  0  0
 18 26  1  0  0  0  0
 19 20  2  0  0  0  0
 19 36  1  0  0  0  0
 21 22  1  0  0  0  0
 21 23  1  0  0  0  0
 21 27  1  0  0  0  0
 22 24  1  0  0  0  0
 22 28  1  0  0  0  0
 22 29  1  0  0  0  0
 23 30  1  0  0  0  0
 23 31  1  0  0  0  0
 23 32  1  0  0  0  0
 24 33  1  0  0  0  0
 24 34  1  0  0  0  0
 24 35  1  0  0  0  0
 36 37  1  0  0  0  0
 36 41  1  0  0  0  0
 37 38  1  0  0  0  0
 37 40  1  0  0  0  0
 37 42  1  0  0  0  0
 38 39  2  0  0  0  0
 38 46  1  0  0  0  0
 40 43  1  0  0  0  0
 40 44  1  0  0  0  0
 40 45  1  0  0  0  0
 46 47  1  0  0  0  0
 46 48  1  0  0  0  0
 47 49  1  0  0  0  0
 47 50  1  0  0  0  0
 47 51  1  0  0  0  0
M  END
$$$$

  -OEChem-05262216503D

 51 50  0     1  0  0  0  0  0999 V2000
   -1.0608   -4.0524   -0.3792 C   0  0  0  0  0  0  0  0  0  0  0  0
   -1.7185   -3.0802   -0.7225 O   0  0  0  0  0  0  0  0  0  0  0  0
   -0.5355   -5.0266   -1.4159 C   0  0  0  0  0  0  0  0  0  0  0  0
   -0.8763   -4.7358   -2.4138 H   0  0  0  0  0  0  0  0  0  0  0  0
    0.5571   -5.0312   -1.4051 H   0  0  0  0  0  0  0  0  0  0  0  0
   -0.8995   -6.0344   -1.2004 H   0  0  0  0  0  0  0  0  0  0  0  0
   -0.7485   -4.2249    0.9541 N   0  0  0  0  0  0  0  0  0  0  0  0
   -1.2743   -3.3872    2.0450 C   0  0  2  0  0  0  0  0  0  0  0  0
   -0.5813   -2.0053    2.1432 C   0  0  0  0  0  0  0  0  0  0  0  0
   -0.1175   -1.5874    3.1953 O   0  0  0  0  0  0  0  0  0  0  0  0
   -1.1617   -4.1983    3.3420 C   0  0  0  0  0  0  0  0  0  0  0  0
   -0.1746   -5.0278    1.1972 H   0  0  0  0  0  0  0  0  0  0  0  0
   -2.3385   -3.1946    1.8695 H   0  0  0  0  0  0  0  0  0  0  0  0
   -0.1125   -4.3914    3.5869 H   0  0  0  0  0  0  0  0  0  0  0  0
   -1.6149   -3.6475    4.1728 H   0  0  0  0  0  0  0  0  0  0  0  0
   -1.6824   -5.1555    3.2422 H   0  0  0  0  0  0  0  0  0  0  0  0
   -0.5590   -1.1789    1.0355 N   0  0  0  0  0  0  0  0  0  0  0  0
   -0.1279    0.2301    1.0610 C   0  0  2  0  0  0  0  0  0  0  0  0
   -1.2296    1.0971    1.7106 C   0  0  0  0  0  0  0  0  0  0  0  0
   -0.9383    2.0141    2.4694 O   0  0  0  0  0  0  0  0  0  0  0  0
    0.2051    0.6744   -0.3889 C   0  0  2  0  0  0  0  0  0  0  0  0
    1.3921   -0.1538   -0.9438 C   0  0  0  0  0  0  0  0  0  0  0  0
    0.5412    2.1789   -0.4433 C   0  0  0  0  0  0  0  0  0  0  0  0
    1.6063    0.0365   -2.4486 C   0  0  0  0  0  0  0  0  0  0  0  0
   -0.9598   -1.5683    0.1773 H   0  0  0  0  0  0  0  0  0  0  0  0
    0.7755    0.3309    1.6736 H   0  0  0  0  0  0  0  0  0  0  0  0
   -0.6754    0.4952   -1.0158 H   0  0  0  0  0  0  0  0  0  0  0  0
    2.3098    0.1128   -0.4088 H   0  0  0  0  0  0  0  0  0  0  0  0
    1.2150   -1.2200   -0.7750 H   0  0  0  0  0  0  0  0  0  0  0  0
    1.3953    2.4046    0.2032 H   0  0  0  0  0  0  0  0  0  0  0  0
    0.7835    2.4923   -1.4616 H   0  0  0  0  0  0  0  0  0  0  0  0
   -0.3095    2.7847   -0.1176 H   0  0  0  0  0  0  0  0  0  0  0  0
    0.6786   -0.1579   -2.9956 H   0  0  0  0  0  0  0  0  0  0  0  0
    2.3703   -0.6606   -2.8060 H   0  0  0  0  0  0  0  0  0  0  0  0
    1.9445    1.0511   -2.6751 H   0  0  0  0  0  0  0  0  0  0  0  0
   -2.5566    0.7205    1.5951 N   0  0  0  0  0  0  0  0  0  0  0  0
   -3.5947    1.1532    2.5398 C   0  0  2  0  0  0  0  0  0  0  0  0
   -3.4917    0.3616    3.8650 C   0  0  0  0  0  0  0  0  0  0  0  0
   -4.3237   -0.4850    4.1728 O   0  0  0  0  0  0  0  0  0  0  0  0
   -4.9528    0.9925    1.8463 C   0  0  0  0  0  0  0  0  0  0  0  0
   -2.7104   -0.1551    1.1031 H   0  0  0  0  0  0  0  0  0  0  0  0
   -3.4663    2.2141    2.7791 H   0  0  0  0  0  0  0  0  0  0  0  0
   -5.1266   -0.0533    1.5728 H   0  0  0  0  0  0  0  0  0  0  0  0
   -5.7591    1.3144    2.5131 H   0  0  0  0  0  0  0  0  0  0  0  0
   -4.9907    1.6027    0.9387 H   0  0  0  0  0  0  0  0  0  0  0  0
   -2.3798    0.5433    4.6628 N   0  0  0  0  0  0  0  0  0  0  0  0
   -2.0447   -0.3348    5.7748 C   0  0  0  0  0  0  0  0  0  0  0  0
   -1.6364    1.1167    4.2564 H   0  0  0  0  0  0  0  0  0  0  0  0
   -2.8310   -0.3075    6.5362 H   0  0  0  0  0  0  0  0  0  0  0  0
   -1.9257   -1.3655    5.4257 H   0  0  0  0  0  0  0  0  0  0  0  0
   -1.1051   -0.0151    6.2355 H   0  0  0  0  0  0  0  0  0  0  0  0
  1  2  2  0  0  0  0
  1  3  1  0  0  0  0
  1  7  1  0  0  0  0
  3  4  1  0  0  0  0
  3  5  1  0  0  0  0
  3  6  1  0  0  0  0
  7  8  1  0  0  0  0
  7 12  1  0  0  0  0
  8  9  1  0  0  0  0
  8 11  1  0  0  0  0
  8 13  1  0  0  0  0
  9 10  2  0  0  0  0
  9 17  1  0  0  0  0
 11 14  1  0  0  0  0
 11 15  1  0  0  0  0
 11 16  1  0  0  0  0
 17 18  1  0  0  0  0
 17 25  1  0  0  0  0
 18 19  1  0  0  0  0
 18 21  1  0  0  0  0
 18 26  1  0  0  0  0
 19 20  2  0  0  0  0
 19 36  1  0  0  0  0
 21 22  1  0  0  0  0
 21 23  1  0  0  0  0
 21 27  1  0  0  0  0
 22 24  1  0  0  0  0
 22 28  1  0  0  0  0
 22 29  1  0  0  0  0
 23 30  1  0  0  0  0
 23 31  1  0  0  0  0
 23 32  1  0  0  0  0
 24 33  1  0  0  0  0
 24 34  1  0  0  0  0
 24 35  1  0  0  0  0
 36 37  1  0  0  0  0
 36 41  1  0  0  0  0
 37 38  1  0  0  0  0
 37 40  1  0  0  0  0
 37 42  1  0  0  0  0
 38 39  2  0  0  0  0
 38 46  1  0  0  0  0
 40 43  1  0  0  0  0
 40 44  1  0  0  0  0
 40 45  1  0  0  0  0
 46 47  1  0  0  0  0
 46 48  1  0  0  0  0
 47 49  1  0  0  0  0
 47 50  1  0  0  0  0
 47 51  1  0  0  0  0
M  END
$$$$

  -OEChem-05262216503D

 51 50  0     1  0  0  0  0  0999 V2000
    0.9911   -5.0381    0.3348 C   0  0  0  0  0  0  0  0  0  0  0  0
    0.7620   -4.7381   -0.8275 O   0  0  0  0  0  0  0  0  0  0  0  0
    2.2393   -5.8241    0.6886 C   0  0  0  0  0  0  0  0  0  0  0  0
    2.7841   -6.0954   -0.2198 H   0  0  0  0  0  0  0  0  0  0  0  0
    2.8920   -5.2206    1.3242 H   0  0  0  0  0  0  0  0  0  0  0  0
    1.9662   -6.7380    1.2215 H   0  0  0  0  0  0  0  0  0  0  0  0
    0.1304   -4.6353    1.3348 N   0  0  0  0  0  0  0  0  0  0  0  0
   -0.9337   -3.6514    1.1010 C   0  0  2  0  0  0  0  0  0  0  0  0
   -0.4120   -2.2083    1.2533 C   0  0  0  0  0  0  0  0  0  0  0  0
    0.3489   -1.9202    2.1688 O   0  0  0  0  0  0  0  0  0  0  0  0
   -2.0630   -3.9264    2.0955 C   0  0  0  0  0  0  0  0  0  0  0  0
    0.4922   -4.7036    2.2827 H   0  0  0  0  0  0  0  0  0  0  0  0
   -1.3375   -3.7687    0.0900 H   0  0  0  0  0  0  0  0  0  0  0  0
   -1.7157   -3.7828    3.1239 H   0  0  0  0  0  0  0  0  0  0  0  0
   -2.9014   -3.2462    1.9173 H   0  0  0  0  0  0  0  0  0  0  0  0
   -2.4235   -4.9539    1.9881 H   0  0  0  0  0  0  0  0  0  0  0  0
   -0.8213   -1.2166    0.3795 N   0  0  0  0  0  0  0  0  0  0  0  0
   -0.2709    0.1550    0.3932 C   0  0  2  0  0  0  0  0  0  0  0  0
   -0.8310    0.9689    1.5888 C   0  0  0  0  0  0  0  0  0  0  0  0
   -0.2565    1.9696    2.0009 O   0  0  0  0  0  0  0  0  0  0  0  0
   -0.5753    0.7914   -0.9962 C   0  0  2  0  0  0  0  0  0  0  0  0
    0.1529    0.0009   -2.1165 C   0  0  0  0  0  0  0  0  0  0  0  0
   -0.1533    2.2737   -1.0535 C   0  0  0  0  0  0  0  0  0  0  0  0
   -0.3003    0.3892   -3.5279 C   0  0  0  0  0  0  0  0  0  0  0  0
   -1.3313   -1.5205   -0.4453 H   0  0  0  0  0  0  0  0  0  0  0  0
    0.8162    0.1125    0.5238 H   0  0  0  0  0  0  0  0  0  0  0  0
   -1.6560    0.7396   -1.1694 H   0  0  0  0  0  0  0  0  0  0  0  0
    1.2342    0.1522   -2.0288 H   0  0  0  0  0  0  0  0  0  0  0  0
   -0.0325   -1.0710   -2.0053 H   0  0  0  0  0  0  0  0  0  0  0  0
    0.9055    2.3811   -0.7976 H   0  0  0  0  0  0  0  0  0  0  0  0
   -0.3142    2.6959   -2.0478 H   0  0  0  0  0  0  0  0  0  0  0  0
   -0.7441    2.8751   -0.3572 H   0  0  0  0  0  0  0  0  0  0  0  0
   -1.3902    0.3342   -3.6099 H   0  0  0  0  0  0  0  0  0  0  0  0
    0.1364   -0.2991   -4.2578 H   0  0  0  0  0  0  0  0  0  0  0  0
    0.0231    1.4008   -3.7868 H   0  0  0  0  0  0  0  0  0  0  0  0
   -1.9397    0.5090    2.2734 N   0  0  0  0  0  0  0  0  0  0  0  0
   -2.2827    0.9083    3.6412 C   0  0  2  0  0  0  0  0  0  0  0  0
   -2.7948   -0.3029    4.4486 C   0  0  0  0  0  0  0  0  0  0  0  0
   -3.1925   -1.3092    3.8679 O   0  0  0  0  0  0  0  0  0  0  0  0
   -3.3449    2.0078    3.5740 C   0  0  0  0  0  0  0  0  0  0  0  0
   -2.2485   -0.4225    2.0006 H   0  0  0  0  0  0  0  0  0  0  0  0
   -1.3941    1.2920    4.1539 H   0  0  0  0  0  0  0  0  0  0  0  0
   -4.2444    1.6402    3.0701 H   0  0  0  0  0  0  0  0  0  0  0  0
   -3.6188    2.3397    4.5799 H   0  0  0  0  0  0  0  0  0  0  0  0
   -2.9612    2.8694    3.0184 H   0  0  0  0  0  0  0  0  0  0  0  0
   -2.8089   -0.2694    5.8307 N   0  0  0  0  0  0  0  0  0  0  0  0
   -3.2210   -1.3998    6.6541 C   0  0  0  0  0  0  0  0  0  0  0  0
   -2.4175    0.5519    6.2829 H   0  0  0  0  0  0  0  0  0  0  0  0
   -4.2442   -1.7028    6.4077 H   0  0  0  0  0  0  0  0  0  0  0  0
   -2.5532   -2.2531    6.4950 H   0  0  0  0  0  0  0  0  0  0  0  0
   -3.1891   -1.1274    7.7134 H   0  0  0  0  0  0  0  0  0  0  0  0
  1  2  2  0  0  0  0
  1  3  1  0  0  0  0
  1  7  1  0  0  0  0
  3  4  1  0  0  0  0
  3  5  1  0  0  0  0
  3  6  1  0  0  0  0
  7  8  1  0  0  0  0
  7 12  1  0  0  0  0
  8  9  1  0  0  0  0
  8 11  1  0  0  0  0
  8 13  1  0  0  0  0
  9 10  2  0  0  0  0
  9 17  1  0  0  0  0
 11 14  1  0  0  0  0
 11 15  1  0  0  0  0
 11 16  1  0  0  0  0
 17 18  1  0  0  0  0
 17 25  1  0  0  0  0
 18 19  1  0  0  0  0
 18 21  1  0  0  0  0
 18 26  1  0  0  0  0
 19 20  2  0  0  0  0
 19 36  1  0  0  0  0
 21 22  1  0  0  0  0
 21 23  1  0  0  0  0
 21 27  1  0  0  0  0
 22 24  1  0  0  0  0
 22 28  1  0  0  0  0
 22 29  1  0  0  0  0
 23 30  1  0  0  0  0
 23 31  1  0  0  0  0
 23 32  1  0  0  0  0
 24 33  1  0  0  0  0
 24 34  1  0  0  0  0
 24 35  1  0  0  0  0
 36 37  1  0  0  0  0
 36 41  1  0  0  0  0
 37 38  1  0  0  0  0
 37 40  1  0  0  0  0
 37 42  1  0  0  0  0
 38 39  2  0  0  0  0
 38 46  1  0  0  0  0
 40 43  1  0  0  0  0
 40 44  1  0  0  0  0
 40 45  1  0  0  0  0
 46 47  1  0  0  0  0
 46 48  1  0  0  0  0
 47 49  1  0  0  0  0
 47 50  1  0  0  0  0
 47 51  1  0  0  0  0
M  END
$$$$

  -OEChem-05262216503D

 51 50  0     1  0  0  0  0  0999 V2000
   -0.1698   -4.3443   -0.5749 C   0  0  0  0  0  0  0  0  0  0  0  0
   -1.0465   -3.5580   -0.9028 O   0  0  0  0  0  0  0  0  0  0  0  0
    0.5722   -5.1433   -1.6296 C   0  0  0  0  0  0  0  0  0  0  0  0
    0.1363   -4.9612   -2.6162 H   0  0  0  0  0  0  0  0  0  0  0  0
    1.6244   -4.8485   -1.6500 H   0  0  0  0  0  0  0  0  0  0  0  0
    0.5040   -6.2113   -1.4079 H   0  0  0  0  0  0  0  0  0  0  0  0
    0.1857   -4.4540    0.7543 N   0  0  0  0  0  0  0  0  0  0  0  0
   -0.4549   -3.7018    1.8450 C   0  0  2  0  0  0  0  0  0  0  0  0
   -0.0145   -2.2192    1.8795 C   0  0  0  0  0  0  0  0  0  0  0  0
    0.6257   -1.7501    2.8110 O   0  0  0  0  0  0  0  0  0  0  0  0
   -0.1551   -4.4351    3.1574 C   0  0  0  0  0  0  0  0  0  0  0  0
    0.9694   -5.0599    0.9803 H   0  0  0  0  0  0  0  0  0  0  0  0
   -1.5414   -3.7105    1.7045 H   0  0  0  0  0  0  0  0  0  0  0  0
    0.9212   -4.4482    3.3562 H   0  0  0  0  0  0  0  0  0  0  0  0
   -0.6548   -3.9316    3.9919 H   0  0  0  0  0  0  0  0  0  0  0  0
   -0.5173   -5.4663    3.1115 H   0  0  0  0  0  0  0  0  0  0  0  0
   -0.3734   -1.3836    0.8388 N   0  0  0  0  0  0  0  0  0  0  0  0
   -0.0384    0.0533    0.7627 C   0  0  2  0  0  0  0  0  0  0  0  0
   -0.9320    0.8831    1.7269 C   0  0  0  0  0  0  0  0  0  0  0  0
   -0.6949    2.0612    1.9674 O   0  0  0  0  0  0  0  0  0  0  0  0
   -0.1544    0.4565   -0.7400 C   0  0  2  0  0  0  0  0  0  0  0  0
    0.8869   -0.3290   -1.5842 C   0  0  0  0  0  0  0  0  0  0  0  0
    0.0530    1.9700   -0.9512 C   0  0  0  0  0  0  0  0  0  0  0  0
    0.6703   -0.1998   -3.0958 C   0  0  0  0  0  0  0  0  0  0  0  0
   -0.8304   -1.8333    0.0396 H   0  0  0  0  0  0  0  0  0  0  0  0
    0.9968    0.2083    1.0854 H   0  0  0  0  0  0  0  0  0  0  0  0
   -1.1607    0.1994   -1.0889 H   0  0  0  0  0  0  0  0  0  0  0  0
    1.8965    0.0113   -1.3312 H   0  0  0  0  0  0  0  0  0  0  0  0
    0.8357   -1.3953   -1.3480 H   0  0  0  0  0  0  0  0  0  0  0  0
    0.9964    2.2937   -0.5003 H   0  0  0  0  0  0  0  0  0  0  0  0
    0.0693    2.2286   -2.0118 H   0  0  0  0  0  0  0  0  0  0  0  0
   -0.7644    2.5410   -0.5031 H   0  0  0  0  0  0  0  0  0  0  0  0
   -0.3666   -0.4343   -3.3559 H   0  0  0  0  0  0  0  0  0  0  0  0
    1.3248   -0.8997   -3.6238 H   0  0  0  0  0  0  0  0  0  0  0  0
    0.9045    0.8079   -3.4483 H   0  0  0  0  0  0  0  0  0  0  0  0
   -1.8827    0.2422    2.4983 N   0  0  0  0  0  0  0  0  0  0  0  0
   -2.4154    0.7499    3.7640 C   0  0  2  0  0  0  0  0  0  0  0  0
   -2.7099   -0.4175    4.7311 C   0  0  0  0  0  0  0  0  0  0  0  0
   -2.7755   -1.5709    4.3121 O   0  0  0  0  0  0  0  0  0  0  0  0
   -3.6862    1.5531    3.4753 C   0  0  0  0  0  0  0  0  0  0  0  0
   -1.8934   -0.7714    2.3982 H   0  0  0  0  0  0  0  0  0  0  0  0
   -1.6743    1.3986    4.2430 H   0  0  0  0  0  0  0  0  0  0  0  0
   -4.4427    0.9155    3.0070 H   0  0  0  0  0  0  0  0  0  0  0  0
   -4.0996    1.9646    4.4007 H   0  0  0  0  0  0  0  0  0  0  0  0
   -3.4622    2.3836    2.7983 H   0  0  0  0  0  0  0  0  0  0  0  0
   -2.9062   -0.1754    6.0782 N   0  0  0  0  0  0  0  0  0  0  0  0
   -3.1470   -1.2313    7.0535 C   0  0  0  0  0  0  0  0  0  0  0  0
   -2.7985    0.7811    6.4029 H   0  0  0  0  0  0  0  0  0  0  0  0
   -4.0557   -1.7871    6.8000 H   0  0  0  0  0  0  0  0  0  0  0  0
   -2.3029   -1.9284    7.0793 H   0  0  0  0  0  0  0  0  0  0  0  0
   -3.2726   -0.8023    8.0521 H   0  0  0  0  0  0  0  0  0  0  0  0
  1  2  2  0  0  0  0
  1  3  1  0  0  0  0
  1  7  1  0  0  0  0
  3  4  1  0  0  0  0
  3  5  1  0  0  0  0
  3  6  1  0  0  0  0
  7  8  1  0  0  0  0
  7 12  1  0  0  0  0
  8  9  1  0  0  0  0
  8 11  1  0  0  0  0
  8 13  1  0  0  0  0
  9 10  2  0  0  0  0
  9 17  1  0  0  0  0
 11 14  1  0  0  0  0
 11 15  1  0  0  0  0
 11 16  1  0  0  0  0
 17 18  1  0  0  0  0
 17 25  1  0  0  0  0
 18 19  1  0  0  0  0
 18 21  1  0  0  0  0
 18 26  1  0  0  0  0
 19 20  2  0  0  0  0
 19 36  1  0  0  0  0
 21 22  1  0  0  0  0
 21 23  1  0  0  0  0
 21 27  1  0  0  0  0
 22 24  1  0  0  0  0
 22 28  1  0  0  0  0
 22 29  1  0  0  0  0
 23 30  1  0  0  0  0
 23 31  1  0  0  0  0
 23 32  1  0  0  0  0
 24 33  1  0  0  0  0
 24 34  1  0  0  0  0
 24 35  1  0  0  0  0
 36 37  1  0  0  0  0
 36 41  1  0  0  0  0
 37 38  1  0  0  0  0
 37 40  1  0  0  0  0
 37 42  1  0  0  0  0
 38 39  2  0  0  0  0
 38 46  1  0  0  0  0
 40 43  1  0  0  0  0
 40 44  1  0  0  0  0
 40 45  1  0  0  0  0
 46 47  1  0  0  0  0
 46 48  1  0  0  0  0
 47 49  1  0  0  0  0
 47 50  1  0  0  0  0
 47 51  1  0  0  0  0
M  END
$$$$

  -OEChem-05262216503D

 51 50  0     1  0  0  0  0  0999 V2000
    1.0958   -5.3610    0.1991 C   0  0  0  0  0  0  0  0  0  0  0  0
    0.8540   -5.1786   -0.9842 O   0  0  0  0  0  0  0  0  0  0  0  0
    2.2947   -6.1943    0.6105 C   0  0  0  0  0  0  0  0  0  0  0  0
    2.8218   -6.5598   -0.2753 H   0  0  0  0  0  0  0  0  0  0  0  0
    2.9831   -5.5881    1.2045 H   0  0  0  0  0  0  0  0  0  0  0  0
    1.9681   -7.0513    1.2045 H   0  0  0  0  0  0  0  0  0  0  0  0
    0.2930   -4.7929    1.1665 N   0  0  0  0  0  0  0  0  0  0  0  0
   -0.7121   -3.7658    0.8618 C   0  0  2  0  0  0  0  0  0  0  0  0
   -0.1396   -2.3402    0.9962 C   0  0  0  0  0  0  0  0  0  0  0  0
    0.7325   -2.0951    1.8196 O   0  0  0  0  0  0  0  0  0  0  0  0
   -1.8836   -3.9601    1.8278 C   0  0  0  0  0  0  0  0  0  0  0  0
    0.6719   -4.7952    2.1108 H   0  0  0  0  0  0  0  0  0  0  0  0
   -1.0850   -3.8890   -0.1603 H   0  0  0  0  0  0  0  0  0  0  0  0
   -1.5481   -3.8566    2.8650 H   0  0  0  0  0  0  0  0  0  0  0  0
   -2.6637   -3.2154    1.6412 H   0  0  0  0  0  0  0  0  0  0  0  0
   -2.3192   -4.9562    1.7016 H   0  0  0  0  0  0  0  0  0  0  0  0
   -0.6892   -1.2860    0.2896 N   0  0  0  0  0  0  0  0  0  0  0  0
   -0.2523    0.1243    0.4029 C   0  0  2  0  0  0  0  0  0  0  0  0
   -0.7629    0.7638    1.7328 C   0  0  0  0  0  0  0  0  0  0  0  0
   -0.7033    1.9659    1.9559 O   0  0  0  0  0  0  0  0  0  0  0  0
   -0.6916    0.8254   -0.9274 C   0  0  2  0  0  0  0  0  0  0  0  0
    0.0476    0.1750   -2.1320 C   0  0  0  0  0  0  0  0  0  0  0  0
   -0.4060    2.3430   -0.9290 C   0  0  0  0  0  0  0  0  0  0  0  0
   -0.5028    0.6003   -3.4991 C   0  0  0  0  0  0  0  0  0  0  0  0
   -1.4133   -1.5112   -0.3867 H   0  0  0  0  0  0  0  0  0  0  0  0
    0.8415    0.1612    0.4554 H   0  0  0  0  0  0  0  0  0  0  0  0
   -1.7704    0.6847   -1.0548 H   0  0  0  0  0  0  0  0  0  0  0  0
    1.1147    0.4164   -2.0814 H   0  0  0  0  0  0  0  0  0  0  0  0
   -0.0380   -0.9140   -2.0846 H   0  0  0  0  0  0  0  0  0  0  0  0
    0.6133    2.5424   -0.5835 H   0  0  0  0  0  0  0  0  0  0  0  0
   -0.5231    2.7798   -1.9221 H   0  0  0  0  0  0  0  0  0  0  0  0
   -1.1097    2.8697   -0.2795 H   0  0  0  0  0  0  0  0  0  0  0  0
   -1.5920    0.4970   -3.5245 H   0  0  0  0  0  0  0  0  0  0  0  0
   -0.0779   -0.0355   -4.2821 H   0  0  0  0  0  0  0  0  0  0  0  0
   -0.2402    1.6353   -3.7329 H   0  0  0  0  0  0  0  0  0  0  0  0
   -1.2432   -0.0380    2.7519 N   0  0  0  0  0  0  0  0  0  0  0  0
   -1.6216    0.4237    4.0915 C   0  0  2  0  0  0  0  0  0  0  0  0
   -1.5434   -0.7234    5.1207 C   0  0  0  0  0  0  0  0  0  0  0  0
   -1.5878   -1.8932    4.7531 O   0  0  0  0  0  0  0  0  0  0  0  0
   -3.0470    0.9832    4.0354 C   0  0  0  0  0  0  0  0  0  0  0  0
   -1.0069   -1.0276    2.6687 H   0  0  0  0  0  0  0  0  0  0  0  0
   -0.9320    1.2105    4.4152 H   0  0  0  0  0  0  0  0  0  0  0  0
   -3.7486    0.2071    3.7131 H   0  0  0  0  0  0  0  0  0  0  0  0
   -3.3558    1.3462    5.0202 H   0  0  0  0  0  0  0  0  0  0  0  0
   -3.1023    1.8171    3.3286 H   0  0  0  0  0  0  0  0  0  0  0  0
   -1.4342   -0.4430    6.4701 N   0  0  0  0  0  0  0  0  0  0  0  0
   -1.3030   -1.4734    7.4930 C   0  0  0  0  0  0  0  0  0  0  0  0
   -1.3563    0.5329    6.7412 H   0  0  0  0  0  0  0  0  0  0  0  0
   -2.1363   -2.1819    7.4350 H   0  0  0  0  0  0  0  0  0  0  0  0
   -0.3642   -2.0226    7.3650 H   0  0  0  0  0  0  0  0  0  0  0  0
   -1.3067   -1.0196    8.4887 H   0  0  0  0  0  0  0  0  0  0  0  0
  1  2  2  0  0  0  0
  1  3  1  0  0  0  0
  1  7  1  0  0  0  0
  3  4  1  0  0  0  0
  3  5  1  0  0  0  0
  3  6  1  0  0  0  0
  7  8  1  0  0  0  0
  7 12  1  0  0  0  0
  8  9  1  0  0  0  0
  8 11  1  0  0  0  0
  8 13  1  0  0  0  0
  9 10  2  0  0  0  0
  9 17  1  0  0  0  0
 11 14  1  0  0  0  0
 11 15  1  0  0  0  0
 11 16  1  0  0  0  0
 17 18  1  0  0  0  0
 17 25  1  0  0  0  0
 18 19  1  0  0  0  0
 18 21  1  0  0  0  0
 18 26  1  0  0  0  0
 19 20  2  0  0  0  0
 19 36  1  0  0  0  0
 21 22  1  0  0  0  0
 21 23  1  0  0  0  0
 21 27  1  0  0  0  0
 22 24  1  0  0  0  0
 22 28  1  0  0  0  0
 22 29  1  0  0  0  0
 23 30  1  0  0  0  0
 23 31  1  0  0  0  0
 23 32  1  0  0  0  0
 24 33  1  0  0  0  0
 24 34  1  0  0  0  0
 24 35  1  0  0  0  0
 36 37  1  0  0  0  0
 36 41  1  0  0  0  0
 37 38  1  0  0  0  0
 37 40  1  0  0  0  0
 37 42  1  0  0  0  0
 38 39  2  0  0  0  0
 38 46  1  0  0  0  0
 40 43  1  0  0  0  0
 40 44  1  0  0  0  0
 40 45  1  0  0  0  0
 46 47  1  0  0  0  0
 46 48  1  0  0  0  0
 47 49  1  0  0  0  0
 47 50  1  0  0  0  0
 47 51  1  0  0  0  0
M  END
$$$$

  -OEChem-05262216503D

 51 50  0     1  0  0  0  0  0999 V2000
    0.9968   -5.5193    0.3238 C   0  0  0  0  0  0  0  0  0  0  0  0
    0.6492   -5.5259   -0.8471 O   0  0  0  0  0  0  0  0  0  0  0  0
    2.1950   -6.3386    0.7656 C   0  0  0  0  0  0  0  0  0  0  0  0
    2.6316   -6.8614   -0.0900 H   0  0  0  0  0  0  0  0  0  0  0  0
    2.9537   -5.6846    1.2025 H   0  0  0  0  0  0  0  0  0  0  0  0
    1.8880   -7.0764    1.5108 H   0  0  0  0  0  0  0  0  0  0  0  0
    0.3190   -4.7527    1.2485 N   0  0  0  0  0  0  0  0  0  0  0  0
   -0.6512   -3.7158    0.8730 C   0  0  2  0  0  0  0  0  0  0  0  0
   -0.0157   -2.3109    0.8688 C   0  0  0  0  0  0  0  0  0  0  0  0
    0.9776   -2.0740    1.5460 O   0  0  0  0  0  0  0  0  0  0  0  0
   -1.8007   -3.7755    1.8828 C   0  0  0  0  0  0  0  0  0  0  0  0
    0.7907   -4.6269    2.1420 H   0  0  0  0  0  0  0  0  0  0  0  0
   -1.0556   -3.9086   -0.1261 H   0  0  0  0  0  0  0  0  0  0  0  0
   -1.4332   -3.5792    2.8955 H   0  0  0  0  0  0  0  0  0  0  0  0
   -2.5648   -3.0300    1.6421 H   0  0  0  0  0  0  0  0  0  0  0  0
   -2.2667   -4.7658    1.8684 H   0  0  0  0  0  0  0  0  0  0  0  0
   -0.6386   -1.2534    0.2315 N   0  0  0  0  0  0  0  0  0  0  0  0
   -0.2245    0.1635    0.3456 C   0  0  2  0  0  0  0  0  0  0  0  0
   -0.6617    0.7318    1.7361 C   0  0  0  0  0  0  0  0  0  0  0  0
   -1.0146    1.8894    1.9128 O   0  0  0  0  0  0  0  0  0  0  0  0
   -0.7443    0.8907   -0.9407 C   0  0  2  0  0  0  0  0  0  0  0  0
   -0.0556    0.2745   -2.1937 C   0  0  0  0  0  0  0  0  0  0  0  0
   -0.4449    2.4082   -0.9262 C   0  0  0  0  0  0  0  0  0  0  0  0
   -0.6762    0.7166   -3.5250 C   0  0  0  0  0  0  0  0  0  0  0  0
   -1.4967   -1.4609   -0.2712 H   0  0  0  0  0  0  0  0  0  0  0  0
    0.8693    0.2221    0.3325 H   0  0  0  0  0  0  0  0  0  0  0  0
   -1.8278    0.7504   -1.0152 H   0  0  0  0  0  0  0  0  0  0  0  0
    1.0099    0.5279   -2.1899 H   0  0  0  0  0  0  0  0  0  0  0  0
   -0.1265   -0.8163   -2.1639 H   0  0  0  0  0  0  0  0  0  0  0  0
    0.5851    2.5933   -0.6054 H   0  0  0  0  0  0  0  0  0  0  0  0
   -0.5818    2.8607   -1.9093 H   0  0  0  0  0  0  0  0  0  0  0  0
   -1.1251    2.9370   -0.2552 H   0  0  0  0  0  0  0  0  0  0  0  0
   -1.7630    0.5900   -3.5022 H   0  0  0  0  0  0  0  0  0  0  0  0
   -0.2753    0.1052   -4.3393 H   0  0  0  0  0  0  0  0  0  0  0  0
   -0.4462    1.7607   -3.7503 H   0  0  0  0  0  0  0  0  0  0  0  0
   -0.7417   -0.1110    2.8303 N   0  0  0  0  0  0  0  0  0  0  0  0
   -1.1729    0.2612    4.1826 C   0  0  2  0  0  0  0  0  0  0  0  0
   -0.7083   -0.7760    5.2266 C   0  0  0  0  0  0  0  0  0  0  0  0
   -0.4670   -1.9307    4.8905 O   0  0  0  0  0  0  0  0  0  0  0  0
   -2.7026    0.3652    4.2101 C   0  0  0  0  0  0  0  0  0  0  0  0
   -0.2532   -1.0059    2.7316 H   0  0  0  0  0  0  0  0  0  0  0  0
   -0.7344    1.2287    4.4482 H   0  0  0  0  0  0  0  0  0  0  0  0
   -3.1546   -0.5927    3.9335 H   0  0  0  0  0  0  0  0  0  0  0  0
   -3.0502    0.6387    5.2107 H   0  0  0  0  0  0  0  0  0  0  0  0
   -3.0486    1.1288    3.5071 H   0  0  0  0  0  0  0  0  0  0  0  0
   -0.5892   -0.4226    6.5582 N   0  0  0  0  0  0  0  0  0  0  0  0
   -0.1465   -1.3477    7.5946 C   0  0  0  0  0  0  0  0  0  0  0  0
   -0.7730    0.5452    6.8065 H   0  0  0  0  0  0  0  0  0  0  0  0
   -0.8037   -2.2228    7.6348 H   0  0  0  0  0  0  0  0  0  0  0  0
    0.8764   -1.6841    7.3959 H   0  0  0  0  0  0  0  0  0  0  0  0
   -0.1656   -0.8578    8.5727 H   0  0  0  0  0  0  0  0  0  0  0  0
  1  2  2  0  0  0  0
  1  3  1  0  0  0  0
  1  7  1  0  0  0  0
  3  4  1  0  0  0  0
  3  5  1  0  0  0  0
  3  6  1  0  0  0  0
  7  8  1  0  0  0  0
  7 12  1  0  0  0  0
  8  9  1  0  0  0  0
  8 11  1  0  0  0  0
  8 13  1  0  0  0  0
  9 10  2  0  0  0  0
  9 17  1  0  0  0  0
 11 14  1  0  0  0  0
 11 15  1  0  0  0  0
 11 16  1  0  0  0  0
 17 18  1  0  0  0  0
 17 25  1  0  0  0  0
 18 19  1  0  0  0  0
 18 21  1  0  0  0  0
 18 26  1  0  0  0  0
 19 20  2  0  0  0  0
 19 36  1  0  0  0  0
 21 22  1  0  0  0  0
 21 23  1  0  0  0  0
 21 27  1  0  0  0  0
 22 24  1  0  0  0  0
 22 28  1  0  0  0  0
 22 29  1  0  0  0  0
 23 30  1  0  0  0  0
 23 31  1  0  0  0  0
 23 32  1  0  0  0  0
 24 33  1  0  0  0  0
 24 34  1  0  0  0  0
 24 35  1  0  0  0  0
 36 37  1  0  0  0  0
 36 41  1  0  0  0  0
 37 38  1  0  0  0  0
 37 40  1  0  0  0  0
 37 42  1  0  0  0  0
 38 39  2  0  0  0  0
 38 46  1  0  0  0  0
 40 43  1  0  0  0  0
 40 44  1  0  0  0  0
 40 45  1  0  0  0  0
 46 47  1  0  0  0  0
 46 48  1  0  0  0  0
 47 49  1  0  0  0  0
 47 50  1  0  0  0  0
 47 51  1  0  0  0  0
M  END
$$$$

  -OEChem-05262216503D

 51 50  0     1  0  0  0  0  0999 V2000
    0.9342   -5.6215    0.6250 C   0  0  0  0  0  0  0  0  0  0  0  0
    0.4729   -5.8452   -0.4835 O   0  0  0  0  0  0  0  0  0  0  0  0
    2.1329   -6.4073    1.1223 C   0  0  0  0  0  0  0  0  0  0  0  0
    2.4265   -7.1575    0.3827 H   0  0  0  0  0  0  0  0  0  0  0  0
    2.9753   -5.7325    1.2937 H   0  0  0  0  0  0  0  0  0  0  0  0
    1.8844   -6.9136    2.0582 H   0  0  0  0  0  0  0  0  0  0  0  0
    0.3799   -4.6478    1.4290 N   0  0  0  0  0  0  0  0  0  0  0  0
   -0.5799   -3.6455    0.9447 C   0  0  2  0  0  0  0  0  0  0  0  0
    0.0786   -2.2620    0.7605 C   0  0  0  0  0  0  0  0  0  0  0  0
    1.1710   -2.0208    1.2631 O   0  0  0  0  0  0  0  0  0  0  0  0
   -1.7074   -3.5660    1.9772 C   0  0  0  0  0  0  0  0  0  0  0  0
    0.9354   -4.3825    2.2409 H   0  0  0  0  0  0  0  0  0  0  0  0
   -1.0064   -3.9456   -0.0182 H   0  0  0  0  0  0  0  0  0  0  0  0
   -1.3122   -3.2580    2.9509 H   0  0  0  0  0  0  0  0  0  0  0  0
   -2.4677   -2.8434    1.6658 H   0  0  0  0  0  0  0  0  0  0  0  0
   -2.1864   -4.5438    2.0892 H   0  0  0  0  0  0  0  0  0  0  0  0
   -0.6087   -1.2185    0.1648 N   0  0  0  0  0  0  0  0  0  0  0  0
   -0.1999    0.2012    0.2561 C   0  0  2  0  0  0  0  0  0  0  0  0
   -0.5569    0.7305    1.6809 C   0  0  0  0  0  0  0  0  0  0  0  0
   -1.2591    1.7136    1.8729 O   0  0  0  0  0  0  0  0  0  0  0  0
   -0.8039    0.9616   -0.9682 C   0  0  2  0  0  0  0  0  0  0  0  0
   -0.2081    0.3752   -2.2799 C   0  0  0  0  0  0  0  0  0  0  0  0
   -0.4631    2.4716   -0.9402 C   0  0  0  0  0  0  0  0  0  0  0  0
   -0.9198    0.8552   -3.5507 C   0  0  0  0  0  0  0  0  0  0  0  0
   -1.5546   -1.4181   -0.1479 H   0  0  0  0  0  0  0  0  0  0  0  0
    0.8899    0.2741    0.1713 H   0  0  0  0  0  0  0  0  0  0  0  0
   -1.8923    0.8406   -0.9653 H   0  0  0  0  0  0  0  0  0  0  0  0
    0.8572    0.6210   -2.3465 H   0  0  0  0  0  0  0  0  0  0  0  0
   -0.2862   -0.7155   -2.2693 H   0  0  0  0  0  0  0  0  0  0  0  0
    0.6146    2.6181   -0.8172 H   0  0  0  0  0  0  0  0  0  0  0  0
   -0.7752    2.9681   -1.8611 H   0  0  0  0  0  0  0  0  0  0  0  0
   -0.9777    2.9916   -0.1310 H   0  0  0  0  0  0  0  0  0  0  0  0
   -2.0006    0.7090   -3.4621 H   0  0  0  0  0  0  0  0  0  0  0  0
   -0.5633    0.2813   -4.4115 H   0  0  0  0  0  0  0  0  0  0  0  0
   -0.7209    1.9113   -3.7494 H   0  0  0  0  0  0  0  0  0  0  0  0
   -0.2553   -0.0435    2.7871 N   0  0  0  0  0  0  0  0  0  0  0  0
   -0.7036    0.1842    4.1667 C   0  0  2  0  0  0  0  0  0  0  0  0
    0.0599   -0.7207    5.1559 C   0  0  0  0  0  0  0  0  0  0  0  0
    0.4595   -1.8252    4.8025 O   0  0  0  0  0  0  0  0  0  0  0  0
   -2.2059   -0.1095    4.2844 C   0  0  0  0  0  0  0  0  0  0  0  0
    0.3573   -0.8493    2.6184 H   0  0  0  0  0  0  0  0  0  0  0  0
   -0.5121    1.2278    4.4367 H   0  0  0  0  0  0  0  0  0  0  0  0
   -2.4173   -1.1415    3.9885 H   0  0  0  0  0  0  0  0  0  0  0  0
   -2.5418    0.0324    5.3158 H   0  0  0  0  0  0  0  0  0  0  0  0
   -2.7855    0.5608    3.6433 H   0  0  0  0  0  0  0  0  0  0  0  0
    0.2596   -0.3159    6.4630 N   0  0  0  0  0  0  0  0  0  0  0  0
    0.9623   -1.1240    7.4521 C   0  0  0  0  0  0  0  0  0  0  0  0
   -0.0717    0.6074    6.7265 H   0  0  0  0  0  0  0  0  0  0  0  0
    0.4461   -2.0777    7.6050 H   0  0  0  0  0  0  0  0  0  0  0  0
    1.9872   -1.3266    7.1236 H   0  0  0  0  0  0  0  0  0  0  0  0
    1.0045   -0.5967    8.4100 H   0  0  0  0  0  0  0  0  0  0  0  0
  1  2  2  0  0  0  0
  1  3  1  0  0  0  0
  1  7  1  0  0  0  0
  3  4  1  0  0  0  0
  3  5  1  0  0  0  0
  3  6  1  0  0  0  0
  7  8  1  0  0  0  0
  7 12  1  0  0  0  0
  8  9  1  0  0  0  0
  8 11  1  0  0  0  0
  8 13  1  0  0  0  0
  9 10  2  0  0  0  0
  9 17  1  0  0  0  0
 11 14  1  0  0  0  0
 11 15  1  0  0  0  0
 11 16  1  0  0  0  0
 17 18  1  0  0  0  0
 17 25  1  0  0  0  0
 18 19  1  0  0  0  0
 18 21  1  0  0  0  0
 18 26  1  0  0  0  0
 19 20  2  0  0  0  0
 19 36  1  0  0  0  0
 21 22  1  0  0  0  0
 21 23  1  0  0  0  0
 21 27  1  0  0  0  0
 22 24  1  0  0  0  0
 22 28  1  0  0  0  0
 22 29  1  0  0  0  0
 23 30  1  0  0  0  0
 23 31  1  0  0  0  0
 23 32  1  0  0  0  0
 24 33  1  0  0  0  0
 24 34  1  0  0  0  0
 24 35  1  0  0  0  0
 36 37  1  0  0  0  0
 36 41  1  0  0  0  0
 37 38  1  0  0  0  0
 37 40  1  0  0  0  0
 37 42  1  0  0  0  0
 38 39  2  0  0  0  0
 38 46  1  0  0  0  0
 40 43  1  0  0  0  0
 40 44  1  0  0  0  0
 40 45  1  0  0  0  0
 46 47  1  0  0  0  0
 46 48  1  0  0  0  0
 47 49  1  0  0  0  0
 47 50  1  0  0  0  0
 47 51  1  0  0  0  0
M  END
$$$$

  -OEChem-05262216503D

 51 50  0     1  0  0  0  0  0999 V2000
    0.5742   -6.0268    0.5556 C   0  0  0  0  0  0  0  0  0  0  0  0
   -0.2804   -6.4116   -0.2272 O   0  0  0  0  0  0  0  0  0  0  0  0
    1.7376   -6.9306    0.9177 C   0  0  0  0  0  0  0  0  0  0  0  0
    1.6360   -7.8959    0.4137 H   0  0  0  0  0  0  0  0  0  0  0  0
    2.6791   -6.4695    0.6092 H   0  0  0  0  0  0  0  0  0  0  0  0
    1.7581   -7.0974    1.9973 H   0  0  0  0  0  0  0  0  0  0  0  0
    0.4897   -4.7642    1.1031 N   0  0  0  0  0  0  0  0  0  0  0  0
   -0.4879   -3.7485    0.6909 C   0  0  2  0  0  0  0  0  0  0  0  0
    0.1185   -2.3309    0.7230 C   0  0  0  0  0  0  0  0  0  0  0  0
    1.1963   -2.1280    1.2723 O   0  0  0  0  0  0  0  0  0  0  0  0
   -1.6977   -3.8389    1.6263 C   0  0  0  0  0  0  0  0  0  0  0  0
    1.2889   -4.4381    1.6467 H   0  0  0  0  0  0  0  0  0  0  0  0
   -0.8123   -3.9393   -0.3378 H   0  0  0  0  0  0  0  0  0  0  0  0
   -1.3973   -3.6427    2.6605 H   0  0  0  0  0  0  0  0  0  0  0  0
   -2.4625   -3.1103    1.3410 H   0  0  0  0  0  0  0  0  0  0  0  0
   -2.1402   -4.8391    1.5758 H   0  0  0  0  0  0  0  0  0  0  0  0
   -0.5562   -1.2610    0.1647 N   0  0  0  0  0  0  0  0  0  0  0  0
   -0.1521    0.1498    0.3219 C   0  0  2  0  0  0  0  0  0  0  0  0
   -0.5285    0.6185    1.7561 C   0  0  0  0  0  0  0  0  0  0  0  0
   -1.4693    1.3756    1.9633 O   0  0  0  0  0  0  0  0  0  0  0  0
   -0.7480    0.9851   -0.8516 C   0  0  2  0  0  0  0  0  0  0  0  0
   -0.1595    0.4835   -2.1979 C   0  0  0  0  0  0  0  0  0  0  0  0
   -0.3967    2.4858   -0.7151 C   0  0  0  0  0  0  0  0  0  0  0  0
   -0.8763    1.0551   -3.4259 C   0  0  0  0  0  0  0  0  0  0  0  0
   -1.4873   -1.4472   -0.1972 H   0  0  0  0  0  0  0  0  0  0  0  0
    0.9383    0.2267    0.2491 H   0  0  0  0  0  0  0  0  0  0  0  0
   -1.8378    0.8712   -0.8526 H   0  0  0  0  0  0  0  0  0  0  0  0
    0.9068    0.7272   -2.2521 H   0  0  0  0  0  0  0  0  0  0  0  0
   -0.2449   -0.6051   -2.2571 H   0  0  0  0  0  0  0  0  0  0  0  0
    0.6888    2.6251   -0.6989 H   0  0  0  0  0  0  0  0  0  0  0  0
   -0.8076    3.0615   -1.5479 H   0  0  0  0  0  0  0  0  0  0  0  0
   -0.8102    2.9227    0.1958 H   0  0  0  0  0  0  0  0  0  0  0  0
   -1.9555    0.8921   -3.3504 H   0  0  0  0  0  0  0  0  0  0  0  0
   -0.5142    0.5570   -4.3301 H   0  0  0  0  0  0  0  0  0  0  0  0
   -0.6878    2.1263   -3.5352 H   0  0  0  0  0  0  0  0  0  0  0  0
    0.0184   -0.0231    2.8513 N   0  0  0  0  0  0  0  0  0  0  0  0
   -0.3509    0.2189    4.2516 C   0  0  2  0  0  0  0  0  0  0  0  0
    0.8323    0.0029    5.2173 C   0  0  0  0  0  0  0  0  0  0  0  0
    1.7362   -0.7729    4.9316 O   0  0  0  0  0  0  0  0  0  0  0  0
   -1.5036   -0.7225    4.6103 C   0  0  0  0  0  0  0  0  0  0  0  0
    0.7513   -0.7158    2.6605 H   0  0  0  0  0  0  0  0  0  0  0  0
   -0.6820    1.2561    4.3678 H   0  0  0  0  0  0  0  0  0  0  0  0
   -1.1886   -1.7660    4.5096 H   0  0  0  0  0  0  0  0  0  0  0  0
   -1.8292   -0.5542    5.6411 H   0  0  0  0  0  0  0  0  0  0  0  0
   -2.3562   -0.5489    3.9463 H   0  0  0  0  0  0  0  0  0  0  0  0
    0.8724    0.6658    6.4307 N   0  0  0  0  0  0  0  0  0  0  0  0
    1.9624    0.5150    7.3873 C   0  0  0  0  0  0  0  0  0  0  0  0
    0.1215    1.3178    6.6374 H   0  0  0  0  0  0  0  0  0  0  0  0
    2.0271   -0.5222    7.7326 H   0  0  0  0  0  0  0  0  0  0  0  0
    2.9172    0.7937    6.9289 H   0  0  0  0  0  0  0  0  0  0  0  0
    1.7962    1.1592    8.2561 H   0  0  0  0  0  0  0  0  0  0  0  0
  1  2  2  0  0  0  0
  1  3  1  0  0  0  0
  1  7  1  0  0  0  0
  3  4  1  0  0  0  0
  3  5  1  0  0  0  0
  3  6  1  0  0  0  0
  7  8  1  0  0  0  0
  7 12  1  0  0  0  0
  8  9  1  0  0  0  0
  8 11  1  0  0  0  0
  8 13  1  0  0  0  0
  9 10  2  0  0  0  0
  9 17  1  0  0  0  0
 11 14  1  0  0  0  0
 11 15  1  0  0  0  0
 11 16  1  0  0  0  0
 17 18  1  0  0  0  0
 17 25  1  0  0  0  0
 18 19  1  0  0  0  0
 18 21  1  0  0  0  0
 18 26  1  0  0  0  0
 19 20  2  0  0  0  0
 19 36  1  0  0  0  0
 21 22  1  0  0  0  0
 21 23  1  0  0  0  0
 21 27  1  0  0  0  0
 22 24  1  0  0  0  0
 22 28  1  0  0  0  0
 22 29  1  0  0  0  0
 23 30  1  0  0  0  0
 23 31  1  0  0  0  0
 23 32  1  0  0  0  0
 24 33  1  0  0  0  0
 24 34  1  0  0  0  0
 24 35  1  0  0  0  0
 36 37  1  0  0  0  0
 36 41  1  0  0  0  0
 37 38  1  0  0  0  0
 37 40  1  0  0  0  0
 37 42  1  0  0  0  0
 38 39  2  0  0  0  0
 38 46  1  0  0  0  0
 40 43  1  0  0  0  0
 40 44  1  0  0  0  0
 40 45  1  0  0  0  0
 46 47  1  0  0  0  0
 46 48  1  0  0  0  0
 47 49  1  0  0  0  0
 47 50  1  0  0  0  0
 47 51  1  0  0  0  0
M  END
$$$$

  -OEChem-05262216503D

 51 50  0     1  0  0  0  0  0999 V2000
    0.6095   -5.9962    0.5766 C   0  0  0  0  0  0  0  0  0  0  0  0
   -0.3002   -6.3846   -0.1393 O   0  0  0  0  0  0  0  0  0  0  0  0
    1.8071   -6.8898    0.8392 C   0  0  0  0  0  0  0  0  0  0  0  0
    1.7348   -7.8019    0.2402 H   0  0  0  0  0  0  0  0  0  0  0  0
    2.7293   -6.3672    0.5733 H   0  0  0  0  0  0  0  0  0  0  0  0
    1.8429   -7.1631    1.8967 H   0  0  0  0  0  0  0  0  0  0  0  0
    0.5551   -4.7398    1.1418 N   0  0  0  0  0  0  0  0  0  0  0  0
   -0.4550   -3.7267    0.8084 C   0  0  2  0  0  0  0  0  0  0  0  0
    0.1616   -2.3155    0.7415 C   0  0  0  0  0  0  0  0  0  0  0  0
    1.2637   -2.0965    1.2349 O   0  0  0  0  0  0  0  0  0  0  0  0
   -1.5563   -3.7815    1.8710 C   0  0  0  0  0  0  0  0  0  0  0  0
    1.3944   -4.4092    1.6176 H   0  0  0  0  0  0  0  0  0  0  0  0
   -0.8901   -3.9377   -0.1744 H   0  0  0  0  0  0  0  0  0  0  0  0
   -1.1423   -3.5753    2.8632 H   0  0  0  0  0  0  0  0  0  0  0  0
   -2.3354   -3.0433    1.6588 H   0  0  0  0  0  0  0  0  0  0  0  0
   -2.0172   -4.7743    1.8851 H   0  0  0  0  0  0  0  0  0  0  0  0
   -0.5316   -1.2682    0.1632 N   0  0  0  0  0  0  0  0  0  0  0  0
   -0.1063    0.1389    0.2668 C   0  0  2  0  0  0  0  0  0  0  0  0
   -0.4384    0.6390    1.6953 C   0  0  0  0  0  0  0  0  0  0  0  0
   -1.4771    1.2423    1.9408 O   0  0  0  0  0  0  0  0  0  0  0  0
   -0.7500    0.9608   -0.8857 C   0  0  2  0  0  0  0  0  0  0  0  0
   -0.2432    0.4353   -2.2541 C   0  0  0  0  0  0  0  0  0  0  0  0
   -0.3874    2.4581   -0.7675 C   0  0  0  0  0  0  0  0  0  0  0  0
   -1.0238    1.0048   -3.4428 C   0  0  0  0  0  0  0  0  0  0  0  0
   -1.4906   -1.4532   -0.1186 H   0  0  0  0  0  0  0  0  0  0  0  0
    0.9809    0.2075    0.1475 H   0  0  0  0  0  0  0  0  0  0  0  0
   -1.8391    0.8537   -0.8297 H   0  0  0  0  0  0  0  0  0  0  0  0
    0.8203    0.6683   -2.3715 H   0  0  0  0  0  0  0  0  0  0  0  0
   -0.3424   -0.6533   -2.2948 H   0  0  0  0  0  0  0  0  0  0  0  0
    0.6970    2.5961   -0.8231 H   0  0  0  0  0  0  0  0  0  0  0  0
   -0.8527    3.0375   -1.5686 H   0  0  0  0  0  0  0  0  0  0  0  0
   -0.7391    2.8850    0.1747 H   0  0  0  0  0  0  0  0  0  0  0  0
   -2.0982    0.8472   -3.3063 H   0  0  0  0  0  0  0  0  0  0  0  0
   -0.7150    0.5014   -4.3641 H   0  0  0  0  0  0  0  0  0  0  0  0
   -0.8366    2.0751   -3.5651 H   0  0  0  0  0  0  0  0  0  0  0  0
    0.3515    0.2329    2.7524 N   0  0  0  0  0  0  0  0  0  0  0  0
    0.0650    0.4852    4.1693 C   0  0  2  0  0  0  0  0  0  0  0  0
    1.3413    0.4662    5.0365 C   0  0  0  0  0  0  0  0  0  0  0  0
    2.3526   -0.1069    4.6496 O   0  0  0  0  0  0  0  0  0  0  0  0
   -0.9222   -0.5795    4.6602 C   0  0  0  0  0  0  0  0  0  0  0  0
    1.1242   -0.4032    2.5293 H   0  0  0  0  0  0  0  0  0  0  0  0
   -0.3882    1.4763    4.2748 H   0  0  0  0  0  0  0  0  0  0  0  0
   -0.4857   -1.5783    4.5602 H   0  0  0  0  0  0  0  0  0  0  0  0
   -1.1751   -0.4128    5.7114 H   0  0  0  0  0  0  0  0  0  0  0  0
   -1.8462   -0.5430    4.0746 H   0  0  0  0  0  0  0  0  0  0  0  0
    1.3511    1.0841    6.2738 N   0  0  0  0  0  0  0  0  0  0  0  0
    2.5219    1.1154    7.1423 C   0  0  0  0  0  0  0  0  0  0  0  0
    0.5085    1.5712    6.5639 H   0  0  0  0  0  0  0  0  0  0  0  0
    2.8470    0.0983    7.3864 H   0  0  0  0  0  0  0  0  0  0  0  0
    3.3482    1.6409    6.6519 H   0  0  0  0  0  0  0  0  0  0  0  0
    2.2866    1.6348    8.0763 H   0  0  0  0  0  0  0  0  0  0  0  0
  1  2  2  0  0  0  0
  1  3  1  0  0  0  0
  1  7  1  0  0  0  0
  3  4  1  0  0  0  0
  3  5  1  0  0  0  0
  3  6  1  0  0  0  0
  7  8  1  0  0  0  0
  7 12  1  0  0  0  0
  8  9  1  0  0  0  0
  8 11  1  0  0  0  0
  8 13  1  0  0  0  0
  9 10  2  0  0  0  0
  9 17  1  0  0  0  0
 11 14  1  0  0  0  0
 11 15  1  0  0  0  0
 11 16  1  0  0  0  0
 17 18  1  0  0  0  0
 17 25  1  0  0  0  0
 18 19  1  0  0  0  0
 18 21  1  0  0  0  0
 18 26  1  0  0  0  0
 19 20  2  0  0  0  0
 19 36  1  0  0  0  0
 21 22  1  0  0  0  0
 21 23  1  0  0  0  0
 21 27  1  0  0  0  0
 22 24  1  0  0  0  0
 22 28  1  0  0  0  0
 22 29  1  0  0  0  0
 23 30  1  0  0  0  0
 23 31  1  0  0  0  0
 23 32  1  0  0  0  0
 24 33  1  0  0  0  0
 24 34  1  0  0  0  0
 24 35  1  0  0  0  0
 36 37  1  0  0  0  0
 36 41  1  0  0  0  0
 37 38  1  0  0  0  0
 37 40  1  0  0  0  0
 37 42  1  0  0  0  0
 38 39  2  0  0  0  0
 38 46  1  0  0  0  0
 40 43  1  0  0  0  0
 40 44  1  0  0  0  0
 40 45  1  0  0  0  0
 46 47  1  0  0  0  0
 46 48  1  0  0  0  0
 47 49  1  0  0  0  0
 47 50  1  0  0  0  0
 47 51  1  0  0  0  0
M  END
$$$$

  -OEChem-05262216503D

 51 50  0     1  0  0  0  0  0999 V2000
    0.5245   -6.0330    0.5301 C   0  0  0  0  0  0  0  0  0  0  0  0
   -0.4489   -6.3887   -0.1153 O   0  0  0  0  0  0  0  0  0  0  0  0
    1.7167   -6.9589    0.6826 C   0  0  0  0  0  0  0  0  0  0  0  0
    1.5201   -7.9124    0.1844 H   0  0  0  0  0  0  0  0  0  0  0  0
    2.6030   -6.5035    0.2338 H   0  0  0  0  0  0  0  0  0  0  0  0
    1.9093   -7.1481    1.7414 H   0  0  0  0  0  0  0  0  0  0  0  0
    0.5492   -4.7828    1.1114 N   0  0  0  0  0  0  0  0  0  0  0  0
   -0.4598   -3.7416    0.8771 C   0  0  2  0  0  0  0  0  0  0  0  0
    0.1849   -2.3473    0.7552 C   0  0  0  0  0  0  0  0  0  0  0  0
    1.3008   -2.1384    1.2222 O   0  0  0  0  0  0  0  0  0  0  0  0
   -1.4530   -3.7670    2.0416 C   0  0  0  0  0  0  0  0  0  0  0  0
    1.4293   -4.4818    1.5285 H   0  0  0  0  0  0  0  0  0  0  0  0
   -0.9937   -3.9377   -0.0591 H   0  0  0  0  0  0  0  0  0  0  0  0
   -0.9404   -3.5593    2.9865 H   0  0  0  0  0  0  0  0  0  0  0  0
   -2.2354   -3.0155    1.8978 H   0  0  0  0  0  0  0  0  0  0  0  0
   -1.9274   -4.7510    2.1105 H   0  0  0  0  0  0  0  0  0  0  0  0
   -0.5007   -1.3029    0.1628 N   0  0  0  0  0  0  0  0  0  0  0  0
   -0.0415    0.0928    0.2443 C   0  0  2  0  0  0  0  0  0  0  0  0
   -0.3491    0.6145    1.6672 C   0  0  0  0  0  0  0  0  0  0  0  0
   -1.4550    1.0608    1.9532 O   0  0  0  0  0  0  0  0  0  0  0  0
   -0.6965    0.9254   -0.8923 C   0  0  2  0  0  0  0  0  0  0  0  0
   -0.2438    0.3867   -2.2730 C   0  0  0  0  0  0  0  0  0  0  0  0
   -0.3064    2.4144   -0.7717 C   0  0  0  0  0  0  0  0  0  0  0  0
   -1.0463    0.9745   -3.4377 C   0  0  0  0  0  0  0  0  0  0  0  0
   -1.4774   -1.4670   -0.0666 H   0  0  0  0  0  0  0  0  0  0  0  0
    1.0438    0.1394    0.1019 H   0  0  0  0  0  0  0  0  0  0  0  0
   -1.7857    0.8398   -0.8084 H   0  0  0  0  0  0  0  0  0  0  0  0
    0.8213    0.5937   -2.4223 H   0  0  0  0  0  0  0  0  0  0  0  0
   -0.3712   -0.6992   -2.3075 H   0  0  0  0  0  0  0  0  0  0  0  0
    0.7788    2.5349   -0.8501 H   0  0  0  0  0  0  0  0  0  0  0  0
   -0.7793    3.0085   -1.5577 H   0  0  0  0  0  0  0  0  0  0  0  0
   -0.6320    2.8342    0.1840 H   0  0  0  0  0  0  0  0  0  0  0  0
   -2.1195    0.8416   -3.2694 H   0  0  0  0  0  0  0  0  0  0  0  0
   -0.7771    0.4646   -4.3677 H   0  0  0  0  0  0  0  0  0  0  0  0
   -0.8380    2.0402   -3.5645 H   0  0  0  0  0  0  0  0  0  0  0  0
    0.5935    0.4676    2.6646 N   0  0  0  0  0  0  0  0  0  0  0  0
    0.3762    0.7910    4.0795 C   0  0  2  0  0  0  0  0  0  0  0  0
    1.6954    1.1049    4.8151 C   0  0  0  0  0  0  0  0  0  0  0  0
    2.7666    0.7055    4.3744 O   0  0  0  0  0  0  0  0  0  0  0  0
   -0.3285   -0.3966    4.7434 C   0  0  0  0  0  0  0  0  0  0  0  0
    1.4366   -0.0606    2.4261 H   0  0  0  0  0  0  0  0  0  0  0  0
   -0.2606    1.6786    4.1552 H   0  0  0  0  0  0  0  0  0  0  0  0
    0.2911   -1.2964    4.6703 H   0  0  0  0  0  0  0  0  0  0  0  0
   -0.5188   -0.1883    5.8005 H   0  0  0  0  0  0  0  0  0  0  0  0
   -1.2875   -0.5930    4.2537 H   0  0  0  0  0  0  0  0  0  0  0  0
    1.6795    1.8303    5.9925 N   0  0  0  0  0  0  0  0  0  0  0  0
    2.8832    2.1538    6.7485 C   0  0  0  0  0  0  0  0  0  0  0  0
    0.7803    2.1580    6.3325 H   0  0  0  0  0  0  0  0  0  0  0  0
    3.3699    1.2389    7.1025 H   0  0  0  0  0  0  0  0  0  0  0  0
    3.5906    2.7103    6.1246 H   0  0  0  0  0  0  0  0  0  0  0  0
    2.6309    2.7697    7.6170 H   0  0  0  0  0  0  0  0  0  0  0  0
  1  2  2  0  0  0  0
  1  3  1  0  0  0  0
  1  7  1  0  0  0  0
  3  4  1  0  0  0  0
  3  5  1  0  0  0  0
  3  6  1  0  0  0  0
  7  8  1  0  0  0  0
  7 12  1  0  0  0  0
  8  9  1  0  0  0  0
  8 11  1  0  0  0  0
  8 13  1  0  0  0  0
  9 10  2  0  0  0  0
  9 17  1  0  0  0  0
 11 14  1  0  0  0  0
 11 15  1  0  0  0  0
 11 16  1  0  0  0  0
 17 18  1  0  0  0  0
 17 25  1  0  0  0  0
 18 19  1  0  0  0  0
 18 21  1  0  0  0  0
 18 26  1  0  0  0  0
 19 20  2  0  0  0  0
 19 36  1  0  0  0  0
 21 22  1  0  0  0  0
 21 23  1  0  0  0  0
 21 27  1  0  0  0  0
 22 24  1  0  0  0  0
 22 28  1  0  0  0  0
 22 29  1  0  0  0  0
 23 30  1  0  0  0  0
 23 31  1  0  0  0  0
 23 32  1  0  0  0  0
 24 33  1  0  0  0  0
 24 34  1  0  0  0  0
 24 35  1  0  0  0  0
 36 37  1  0  0  0  0
 36 41  1  0  0  0  0
 37 38  1  0  0  0  0
 37 40  1  0  0  0  0
 37 42  1  0  0  0  0
 38 39  2  0  0  0  0
 38 46  1  0  0  0  0
 40 43  1  0  0  0  0
 40 44  1  0  0  0  0
 40 45  1  0  0  0  0
 46 47  1  0  0  0  0
 46 48  1  0  0  0  0
 47 49  1  0  0  0  0
 47 50  1  0  0  0  0
 47 51  1  0  0  0  0
M  END
$$$$

  -OEChem-05262216503D

 51 50  0     1  0  0  0  0  0999 V2000
    0.5545   -5.8916    0.3890 C   0  0  0  0  0  0  0  0  0  0  0  0
   -0.2035   -6.0706   -0.5512 O   0  0  0  0  0  0  0  0  0  0  0  0
    1.7557   -6.7990    0.5774 C   0  0  0  0  0  0  0  0  0  0  0  0
    1.8095   -7.5277   -0.2363 H   0  0  0  0  0  0  0  0  0  0  0  0
    2.6741   -6.2064    0.5800 H   0  0  0  0  0  0  0  0  0  0  0  0
    1.6732   -7.3353    1.5258 H   0  0  0  0  0  0  0  0  0  0  0  0
    0.3404   -4.8568    1.2758 N   0  0  0  0  0  0  0  0  0  0  0  0
   -0.6052   -3.7581    1.0313 C   0  0  2  0  0  0  0  0  0  0  0  0
    0.1278   -2.4235    0.7917 C   0  0  0  0  0  0  0  0  0  0  0  0
    1.2614   -2.2536    1.2313 O   0  0  0  0  0  0  0  0  0  0  0  0
   -1.5199   -3.6450    2.2532 C   0  0  0  0  0  0  0  0  0  0  0  0
    1.1202   -4.6449    1.8952 H   0  0  0  0  0  0  0  0  0  0  0  0
   -1.2218   -3.9627    0.1499 H   0  0  0  0  0  0  0  0  0  0  0  0
   -0.9352   -3.4203    3.1512 H   0  0  0  0  0  0  0  0  0  0  0  0
   -2.2553   -2.8468    2.1103 H   0  0  0  0  0  0  0  0  0  0  0  0
   -2.0568   -4.5856    2.4115 H   0  0  0  0  0  0  0  0  0  0  0  0
   -0.5189   -1.3686    0.1753 N   0  0  0  0  0  0  0  0  0  0  0  0
    0.0083    0.0035    0.2185 C   0  0  2  0  0  0  0  0  0  0  0  0
   -0.2596    0.5741    1.6290 C   0  0  0  0  0  0  0  0  0  0  0  0
   -1.3998    0.8601    1.9797 O   0  0  0  0  0  0  0  0  0  0  0  0
   -0.6339    0.8503   -0.9133 C   0  0  2  0  0  0  0  0  0  0  0  0
   -0.2487    0.2750   -2.2992 C   0  0  0  0  0  0  0  0  0  0  0  0
   -0.1784    2.3211   -0.8135 C   0  0  0  0  0  0  0  0  0  0  0  0
   -1.0557    0.8907   -3.4464 C   0  0  0  0  0  0  0  0  0  0  0  0
   -1.5126   -1.4855   -0.0045 H   0  0  0  0  0  0  0  0  0  0  0  0
    1.0914   -0.0061    0.0540 H   0  0  0  0  0  0  0  0  0  0  0  0
   -1.7232    0.8146   -0.8008 H   0  0  0  0  0  0  0  0  0  0  0  0
    0.8198    0.4295   -2.4820 H   0  0  0  0  0  0  0  0  0  0  0  0
   -0.4290   -0.8040   -2.3169 H   0  0  0  0  0  0  0  0  0  0  0  0
    0.9085    2.3948   -0.9201 H   0  0  0  0  0  0  0  0  0  0  0  0
   -0.6459    2.9300   -1.5913 H   0  0  0  0  0  0  0  0  0  0  0  0
   -0.4628    2.7581    0.1479 H   0  0  0  0  0  0  0  0  0  0  0  0
   -2.1290    0.8044   -3.2502 H   0  0  0  0  0  0  0  0  0  0  0  0
   -0.8323    0.3658   -4.3801 H   0  0  0  0  0  0  0  0  0  0  0  0
   -0.8058    1.9460   -3.5842 H   0  0  0  0  0  0  0  0  0  0  0  0
    0.7746    0.6922    2.5350 N   0  0  0  0  0  0  0  0  0  0  0  0
    0.6219    1.1121    3.9325 C   0  0  2  0  0  0  0  0  0  0  0  0
    1.9129    1.7453    4.4925 C   0  0  0  0  0  0  0  0  0  0  0  0
    2.9909    1.5555    3.9407 O   0  0  0  0  0  0  0  0  0  0  0  0
    0.2268   -0.1159    4.7600 C   0  0  0  0  0  0  0  0  0  0  0  0
    1.6871    0.3339    2.2506 H   0  0  0  0  0  0  0  0  0  0  0  0
   -0.1687    1.8666    4.0025 H   0  0  0  0  0  0  0  0  0  0  0  0
    1.0001   -0.8877    4.6892 H   0  0  0  0  0  0  0  0  0  0  0  0
    0.0979    0.1541    5.8123 H   0  0  0  0  0  0  0  0  0  0  0  0
   -0.7161   -0.5346    4.3942 H   0  0  0  0  0  0  0  0  0  0  0  0
    1.8650    2.5342    5.6273 N   0  0  0  0  0  0  0  0  0  0  0  0
    3.0391    3.1745    6.2076 C   0  0  0  0  0  0  0  0  0  0  0  0
    0.9574    2.6871    6.0566 H   0  0  0  0  0  0  0  0  0  0  0  0
    3.7640    2.4218    6.5353 H   0  0  0  0  0  0  0  0  0  0  0  0
    3.5193    3.8312    5.4742 H   0  0  0  0  0  0  0  0  0  0  0  0
    2.7515    3.7775    7.0743 H   0  0  0  0  0  0  0  0  0  0  0  0
  1  2  2  0  0  0  0
  1  3  1  0  0  0  0
  1  7  1  0  0  0  0
  3  4  1  0  0  0  0
  3  5  1  0  0  0  0
  3  6  1  0  0  0  0
  7  8  1  0  0  0  0
  7 12  1  0  0  0  0
  8  9  1  0  0  0  0
  8 11  1  0  0  0  0
  8 13  1  0  0  0  0
  9 10  2  0  0  0  0
  9 17  1  0  0  0  0
 11 14  1  0  0  0  0
 11 15  1  0  0  0  0
 11 16  1  0  0  0  0
 17 18  1  0  0  0  0
 17 25  1  0  0  0  0
 18 19  1  0  0  0  0
 18 21  1  0  0  0  0
 18 26  1  0  0  0  0
 19 20  2  0  0  0  0
 19 36  1  0  0  0  0
 21 22  1  0  0  0  0
 21 23  1  0  0  0  0
 21 27  1  0  0  0  0
 22 24  1  0  0  0  0
 22 28  1  0  0  0  0
 22 29  1  0  0  0  0
 23 30  1  0  0  0  0
 23 31  1  0  0  0  0
 23 32  1  0  0  0  0
 24 33  1  0  0  0  0
 24 34  1  0  0  0  0
 24 35  1  0  0  0  0
 36 37  1  0  0  0  0
 36 41  1  0  0  0  0
 37 38  1  0  0  0  0
 37 40  1  0  0  0  0
 37 42  1  0  0  0  0
 38 39  2  0  0  0  0
 38 46  1  0  0  0  0
 40 43  1  0  0  0  0
 40 44  1  0  0  0  0
 40 45  1  0  0  0  0
 46 47  1  0  0  0  0
 46 48  1  0  0  0  0
 47 49  1  0  0  0  0
 47 50  1  0  0  0  0
 47 51  1  0  0  0  0
M  END
$$$$

  -OEChem-05262216503D

 51 50  0     1  0  0  0  0  0999 V2000
    0.3803   -6.0608    0.4723 C   0  0  0  0  0  0  0  0  0  0  0  0
   -0.5970   -6.3235   -0.2107 O   0  0  0  0  0  0  0  0  0  0  0  0
    1.5464   -7.0293    0.5315 C   0  0  0  0  0  0  0  0  0  0  0  0
    1.3465   -7.8990   -0.1008 H   0  0  0  0  0  0  0  0  0  0  0  0
    2.4569   -6.5392    0.1777 H   0  0  0  0  0  0  0  0  0  0  0  0
    1.6981   -7.3678    1.5594 H   0  0  0  0  0  0  0  0  0  0  0  0
    0.4375   -4.8805    1.1834 N   0  0  0  0  0  0  0  0  0  0  0  0
   -0.5140   -3.7730    1.0187 C   0  0  2  0  0  0  0  0  0  0  0  0
    0.2140   -2.4357    0.7818 C   0  0  0  0  0  0  0  0  0  0  0  0
    1.3696   -2.2836    1.1665 O   0  0  0  0  0  0  0  0  0  0  0  0
   -1.3758   -3.6916    2.2808 C   0  0  0  0  0  0  0  0  0  0  0  0
    1.3387   -4.6429    1.5953 H   0  0  0  0  0  0  0  0  0  0  0  0
   -1.1635   -3.9491    0.1548 H   0  0  0  0  0  0  0  0  0  0  0  0
   -0.7522   -3.5006    3.1601 H   0  0  0  0  0  0  0  0  0  0  0  0
   -2.1088   -2.8832    2.1936 H   0  0  0  0  0  0  0  0  0  0  0  0
   -1.9142   -4.6327    2.4314 H   0  0  0  0  0  0  0  0  0  0  0  0
   -0.4425   -1.3822    0.1751 N   0  0  0  0  0  0  0  0  0  0  0  0
    0.0724   -0.0056    0.2269 C   0  0  2  0  0  0  0  0  0  0  0  0
   -0.1893    0.5714    1.6359 C   0  0  0  0  0  0  0  0  0  0  0  0
   -1.3343    0.6326    2.0720 O   0  0  0  0  0  0  0  0  0  0  0  0
   -0.5803    0.8383   -0.8999 C   0  0  2  0  0  0  0  0  0  0  0  0
   -0.1888    0.2714   -2.2879 C   0  0  0  0  0  0  0  0  0  0  0  0
   -0.1491    2.3153   -0.7935 C   0  0  0  0  0  0  0  0  0  0  0  0
   -1.0008    0.8793   -3.4360 C   0  0  0  0  0  0  0  0  0  0  0  0
   -1.4462   -1.4936    0.0581 H   0  0  0  0  0  0  0  0  0  0  0  0
    1.1547   -0.0089    0.0587 H   0  0  0  0  0  0  0  0  0  0  0  0
   -1.6689    0.7858   -0.7862 H   0  0  0  0  0  0  0  0  0  0  0  0
    0.8785    0.4369   -2.4685 H   0  0  0  0  0  0  0  0  0  0  0  0
   -0.3578   -0.8092   -2.3083 H   0  0  0  0  0  0  0  0  0  0  0  0
    0.9377    2.4063   -0.8877 H   0  0  0  0  0  0  0  0  0  0  0  0
   -0.6173    2.9172   -1.5763 H   0  0  0  0  0  0  0  0  0  0  0  0
   -0.4523    2.7461    0.1652 H   0  0  0  0  0  0  0  0  0  0  0  0
   -2.0733    0.7796   -3.2420 H   0  0  0  0  0  0  0  0  0  0  0  0
   -0.7694    0.3582   -4.3702 H   0  0  0  0  0  0  0  0  0  0  0  0
   -0.7636    1.9377   -3.5730 H   0  0  0  0  0  0  0  0  0  0  0  0
    0.8586    0.9930    2.4296 N   0  0  0  0  0  0  0  0  0  0  0  0
    0.7208    1.5492    3.7805 C   0  0  2  0  0  0  0  0  0  0  0  0
    1.8741    2.5153    4.1245 C   0  0  0  0  0  0  0  0  0  0  0  0
    2.8747    2.5638    3.4176 O   0  0  0  0  0  0  0  0  0  0  0  0
    0.6799    0.3843    4.7750 C   0  0  0  0  0  0  0  0  0  0  0  0
    1.8015    0.9244    2.0474 H   0  0  0  0  0  0  0  0  0  0  0  0
   -0.2127    2.1176    3.8494 H   0  0  0  0  0  0  0  0  0  0  0  0
    1.6075   -0.1950    4.7223 H   0  0  0  0  0  0  0  0  0  0  0  0
    0.5560    0.7540    5.7971 H   0  0  0  0  0  0  0  0  0  0  0  0
   -0.1585   -0.2813    4.5461 H   0  0  0  0  0  0  0  0  0  0  0  0
    1.7880    3.3417    5.2300 N   0  0  0  0  0  0  0  0  0  0  0  0
    2.8398    4.2753    5.6148 C   0  0  0  0  0  0  0  0  0  0  0  0
    0.9497    3.2804    5.8004 H   0  0  0  0  0  0  0  0  0  0  0  0
    3.7696    3.7376    5.8284 H   0  0  0  0  0  0  0  0  0  0  0  0
    3.0261    4.9963    4.8116 H   0  0  0  0  0  0  0  0  0  0  0  0
    2.5460    4.8277    6.5125 H   0  0  0  0  0  0  0  0  0  0  0  0
  1  2  2  0  0  0  0
  1  3  1  0  0  0  0
  1  7  1  0  0  0  0
  3  4  1  0  0  0  0
  3  5  1  0  0  0  0
  3  6  1  0  0  0  0
  7  8  1  0  0  0  0
  7 12  1  0  0  0  0
  8  9  1  0  0  0  0
  8 11  1  0  0  0  0
  8 13  1  0  0  0  0
  9 10  2  0  0  0  0
  9 17  1  0  0  0  0
 11 14  1  0  0  0  0
 11 15  1  0  0  0  0
 11 16  1  0  0  0  0
 17 18  1  0  0  0  0
 17 25  1  0  0  0  0
 18 19  1  0  0  0  0
 18 21  1  0  0  0  0
 18 26  1  0  0  0  0
 19 20  2  0  0  0  0
 19 36  1  0  0  0  0
 21 22  1  0  0  0  0
 21 23  1  0  0  0  0
 21 27  1  0  0  0  0
 22 24  1  0  0  0  0
 22 28  1  0  0  0  0
 22 29  1  0  0  0  0
 23 30  1  0  0  0  0
 23 31  1  0  0  0  0
 23 32  1  0  0  0  0
 24 33  1  0  0  0  0
 24 34  1  0  0  0  0
 24 35  1  0  0  0  0
 36 37  1  0  0  0  0
 36 41  1  0  0  0  0
 37 38  1  0  0  0  0
 37 40  1  0  0  0  0
 37 42  1  0  0  0  0
 38 39  2  0  0  0  0
 38 46  1  0  0  0  0
 40 43  1  0  0  0  0
 40 44  1  0  0  0  0
 40 45  1  0  0  0  0
 46 47  1  0  0  0  0
 46 48  1  0  0  0  0
 47 49  1  0  0  0  0
 47 50  1  0  0  0  0
 47 51  1  0  0  0  0
M  END
$$$$

  -OEChem-05262216503D

 51 50  0     1  0  0  0  0  0999 V2000
    0.3427   -6.1065    0.5389 C   0  0  0  0  0  0  0  0  0  0  0  0
   -0.6635   -6.3775   -0.0973 O   0  0  0  0  0  0  0  0  0  0  0  0
    1.4930   -7.0942    0.5943 C   0  0  0  0  0  0  0  0  0  0  0  0
    1.2548   -7.9830    0.0035 H   0  0  0  0  0  0  0  0  0  0  0  0
    2.3992   -6.6365    0.1901 H   0  0  0  0  0  0  0  0  0  0  0  0
    1.6753   -7.3966    1.6282 H   0  0  0  0  0  0  0  0  0  0  0  0
    0.4452   -4.8996    1.1983 N   0  0  0  0  0  0  0  0  0  0  0  0
   -0.4955   -3.7838    1.0266 C   0  0  2  0  0  0  0  0  0  0  0  0
    0.2474   -2.4589    0.7620 C   0  0  0  0  0  0  0  0  0  0  0  0
    1.4211   -2.3316    1.0981 O   0  0  0  0  0  0  0  0  0  0  0  0
   -1.3449   -3.6747    2.2956 C   0  0  0  0  0  0  0  0  0  0  0  0
    1.3635   -4.6600    1.5699 H   0  0  0  0  0  0  0  0  0  0  0  0
   -1.1538   -3.9654    0.1702 H   0  0  0  0  0  0  0  0  0  0  0  0
   -0.7108   -3.4764    3.1660 H   0  0  0  0  0  0  0  0  0  0  0  0
   -2.0710   -2.8609    2.2031 H   0  0  0  0  0  0  0  0  0  0  0  0
   -1.8912   -4.6078    2.4666 H   0  0  0  0  0  0  0  0  0  0  0  0
   -0.4081   -1.3955    0.1708 N   0  0  0  0  0  0  0  0  0  0  0  0
    0.1231   -0.0241    0.2324 C   0  0  2  0  0  0  0  0  0  0  0  0
   -0.1137    0.5514    1.6475 C   0  0  0  0  0  0  0  0  0  0  0  0
   -1.2065    0.4197    2.1902 O   0  0  0  0  0  0  0  0  0  0  0  0
   -0.5345    0.8358   -0.8800 C   0  0  2  0  0  0  0  0  0  0  0  0
   -0.1614    0.2750   -2.2757 C   0  0  0  0  0  0  0  0  0  0  0  0
   -0.0959    2.3111   -0.7683 C   0  0  0  0  0  0  0  0  0  0  0  0
   -0.9780    0.8965   -3.4127 C   0  0  0  0  0  0  0  0  0  0  0  0
   -1.4186   -1.4883    0.1086 H   0  0  0  0  0  0  0  0  0  0  0  0
    1.2037   -0.0402    0.0523 H   0  0  0  0  0  0  0  0  0  0  0  0
   -1.6222    0.7889   -0.7562 H   0  0  0  0  0  0  0  0  0  0  0  0
    0.9054    0.4341   -2.4650 H   0  0  0  0  0  0  0  0  0  0  0  0
   -0.3388   -0.8043   -2.3020 H   0  0  0  0  0  0  0  0  0  0  0  0
    0.9920    2.3970   -0.8540 H   0  0  0  0  0  0  0  0  0  0  0  0
   -0.5540    2.9178   -1.5534 H   0  0  0  0  0  0  0  0  0  0  0  0
   -0.4048    2.7420    0.1888 H   0  0  0  0  0  0  0  0  0  0  0  0
   -2.0494    0.8078   -3.2081 H   0  0  0  0  0  0  0  0  0  0  0  0
   -0.7614    0.3756   -4.3504 H   0  0  0  0  0  0  0  0  0  0  0  0
   -0.7300    1.9526   -3.5484 H   0  0  0  0  0  0  0  0  0  0  0  0
    0.8887    1.2340    2.3080 N   0  0  0  0  0  0  0  0  0  0  0  0
    0.7320    1.9138    3.5992 C   0  0  2  0  0  0  0  0  0  0  0  0
    1.6654    3.1383    3.7096 C   0  0  0  0  0  0  0  0  0  0  0  0
    2.5255    3.3376    2.8581 O   0  0  0  0  0  0  0  0  0  0  0  0
    1.0242    0.9021    4.7120 C   0  0  0  0  0  0  0  0  0  0  0  0
    1.7609    1.3956    1.8050 H   0  0  0  0  0  0  0  0  0  0  0  0
   -0.2957    2.2786    3.7017 H   0  0  0  0  0  0  0  0  0  0  0  0
    2.0511    0.5314    4.6303 H   0  0  0  0  0  0  0  0  0  0  0  0
    0.8955    1.3618    5.6963 H   0  0  0  0  0  0  0  0  0  0  0  0
    0.3406    0.0502    4.6381 H   0  0  0  0  0  0  0  0  0  0  0  0
    1.5294    4.0341    4.7544 N   0  0  0  0  0  0  0  0  0  0  0  0
    2.3730    5.2132    4.9123 C   0  0  0  0  0  0  0  0  0  0  0  0
    0.8086    3.8468    5.4453 H   0  0  0  0  0  0  0  0  0  0  0  0
    3.4184    4.9197    5.0546 H   0  0  0  0  0  0  0  0  0  0  0  0
    2.3050    5.8552    4.0277 H   0  0  0  0  0  0  0  0  0  0  0  0
    2.0546    5.7937    5.7835 H   0  0  0  0  0  0  0  0  0  0  0  0
  1  2  2  0  0  0  0
  1  3  1  0  0  0  0
  1  7  1  0  0  0  0
  3  4  1  0  0  0  0
  3  5  1  0  0  0  0
  3  6  1  0  0  0  0
  7  8  1  0  0  0  0
  7 12  1  0  0  0  0
  8  9  1  0  0  0  0
  8 11  1  0  0  0  0
  8 13  1  0  0  0  0
  9 10  2  0  0  0  0
  9 17  1  0  0  0  0
 11 14  1  0  0  0  0
 11 15  1  0  0  0  0
 11 16  1  0  0  0  0
 17 18  1  0  0  0  0
 17 25  1  0  0  0  0
 18 19  1  0  0  0  0
 18 21  1  0  0  0  0
 18 26  1  0  0  0  0
 19 20  2  0  0  0  0
 19 36  1  0  0  0  0
 21 22  1  0  0  0  0
 21 23  1  0  0  0  0
 21 27  1  0  0  0  0
 22 24  1  0  0  0  0
 22 28  1  0  0  0  0
 22 29  1  0  0  0  0
 23 30  1  0  0  0  0
 23 31  1  0  0  0  0
 23 32  1  0  0  0  0
 24 33  1  0  0  0  0
 24 34  1  0  0  0  0
 24 35  1  0  0  0  0
 36 37  1  0  0  0  0
 36 41  1  0  0  0  0
 37 38  1  0  0  0  0
 37 40  1  0  0  0  0
 37 42  1  0  0  0  0
 38 39  2  0  0  0  0
 38 46  1  0  0  0  0
 40 43  1  0  0  0  0
 40 44  1  0  0  0  0
 40 45  1  0  0  0  0
 46 47  1  0  0  0  0
 46 48  1  0  0  0  0
 47 49  1  0  0  0  0
 47 50  1  0  0  0  0
 47 51  1  0  0  0  0
M  END
$$$$

  -OEChem-05262216503D

 51 50  0     1  0  0  0  0  0999 V2000
    0.2113   -6.1596    0.6113 C   0  0  0  0  0  0  0  0  0  0  0  0
   -0.8775   -6.4120    0.1199 O   0  0  0  0  0  0  0  0  0  0  0  0
    1.3081   -7.2072    0.6029 C   0  0  0  0  0  0  0  0  0  0  0  0
    0.9466   -8.1273    0.1354 H   0  0  0  0  0  0  0  0  0  0  0  0
    2.1685   -6.8401    0.0383 H   0  0  0  0  0  0  0  0  0  0  0  0
    1.6199   -7.4309    1.6258 H   0  0  0  0  0  0  0  0  0  0  0  0
    0.4556   -4.9175    1.1575 N   0  0  0  0  0  0  0  0  0  0  0  0
   -0.4510   -3.7682    1.0360 C   0  0  2  0  0  0  0  0  0  0  0  0
    0.3215   -2.4699    0.7287 C   0  0  0  0  0  0  0  0  0  0  0  0
    1.5158   -2.3831    0.9988 O   0  0  0  0  0  0  0  0  0  0  0  0
   -1.2259   -3.6286    2.3487 C   0  0  0  0  0  0  0  0  0  0  0  0
    1.4161   -4.7110    1.4286 H   0  0  0  0  0  0  0  0  0  0  0  0
   -1.1591   -3.9296    0.2160 H   0  0  0  0  0  0  0  0  0  0  0  0
   -0.5387   -3.4476    3.1816 H   0  0  0  0  0  0  0  0  0  0  0  0
   -1.9300   -2.7925    2.2931 H   0  0  0  0  0  0  0  0  0  0  0  0
   -1.7908   -4.5436    2.5531 H   0  0  0  0  0  0  0  0  0  0  0  0
   -0.3301   -1.3870    0.1688 N   0  0  0  0  0  0  0  0  0  0  0  0
    0.2263   -0.0261    0.2531 C   0  0  2  0  0  0  0  0  0  0  0  0
    0.0242    0.5304    1.6835 C   0  0  0  0  0  0  0  0  0  0  0  0
   -0.9775    0.2307    2.3269 O   0  0  0  0  0  0  0  0  0  0  0  0
   -0.4423    0.8536   -0.8402 C   0  0  2  0  0  0  0  0  0  0  0  0
   -0.0952    0.3048   -2.2485 C   0  0  0  0  0  0  0  0  0  0  0  0
   -0.0049    2.3285   -0.7273 C   0  0  0  0  0  0  0  0  0  0  0  0
   -0.9208    0.9425   -3.3705 C   0  0  0  0  0  0  0  0  0  0  0  0
   -1.3440   -1.4566    0.1628 H   0  0  0  0  0  0  0  0  0  0  0  0
    1.3033   -0.0528    0.0562 H   0  0  0  0  0  0  0  0  0  0  0  0
   -1.5279    0.8088   -0.6995 H   0  0  0  0  0  0  0  0  0  0  0  0
    0.9703    0.4552   -2.4517 H   0  0  0  0  0  0  0  0  0  0  0  0
   -0.2834   -0.7721   -2.2845 H   0  0  0  0  0  0  0  0  0  0  0  0
    1.0844    2.4142   -0.7947 H   0  0  0  0  0  0  0  0  0  0  0  0
   -0.4492    2.9332   -1.5216 H   0  0  0  0  0  0  0  0  0  0  0  0
   -0.3332    2.7634    0.2212 H   0  0  0  0  0  0  0  0  0  0  0  0
   -1.9900    0.8779   -3.1456 H   0  0  0  0  0  0  0  0  0  0  0  0
   -0.7333    0.4164   -4.3117 H   0  0  0  0  0  0  0  0  0  0  0  0
   -0.6518    1.9923   -3.5133 H   0  0  0  0  0  0  0  0  0  0  0  0
    0.9206    1.4357    2.2182 N   0  0  0  0  0  0  0  0  0  0  0  0
    0.6895    2.2179    3.4389 C   0  0  2  0  0  0  0  0  0  0  0  0
    1.2181    3.6605    3.2891 C   0  0  0  0  0  0  0  0  0  0  0  0
    1.8775    3.9761    2.3038 O   0  0  0  0  0  0  0  0  0  0  0  0
    1.3796    1.4980    4.6006 C   0  0  0  0  0  0  0  0  0  0  0  0
    1.6559    1.7741    1.5984 H   0  0  0  0  0  0  0  0  0  0  0  0
   -0.3839    2.2866    3.6447 H   0  0  0  0  0  0  0  0  0  0  0  0
    2.4585    1.4368    4.4249 H   0  0  0  0  0  0  0  0  0  0  0  0
    1.2081    2.0291    5.5416 H   0  0  0  0  0  0  0  0  0  0  0  0
    0.9851    0.4818    4.7025 H   0  0  0  0  0  0  0  0  0  0  0  0
    0.9415    4.6141    4.2515 N   0  0  0  0  0  0  0  0  0  0  0  0
    1.4186    5.9900    4.1761 C   0  0  0  0  0  0  0  0  0  0  0  0
    0.3942    4.3256    5.0573 H   0  0  0  0  0  0  0  0  0  0  0  0
    2.5134    6.0155    4.1636 H   0  0  0  0  0  0  0  0  0  0  0  0
    1.0447    6.4775    3.2696 H   0  0  0  0  0  0  0  0  0  0  0  0
    1.0699    6.5599    5.0427 H   0  0  0  0  0  0  0  0  0  0  0  0
  1  2  2  0  0  0  0
  1  3  1  0  0  0  0
  1  7  1  0  0  0  0
  3  4  1  0  0  0  0
  3  5  1  0  0  0  0
  3  6  1  0  0  0  0
  7  8  1  0  0  0  0
  7 12  1  0  0  0  0
  8  9  1  0  0  0  0
  8 11  1  0  0  0  0
  8 13  1  0  0  0  0
  9 10  2  0  0  0  0
  9 17  1  0  0  0  0
 11 14  1  0  0  0  0
 11 15  1  0  0  0  0
 11 16  1  0  0  0  0
 17 18  1  0  0  0  0
 17 25  1  0  0  0  0
 18 19  1  0  0  0  0
 18 21  1  0  0  0  0
 18 26  1  0  0  0  0
 19 20  2  0  0  0  0
 19 36  1  0  0  0  0
 21 22  1  0  0  0  0
 21 23  1  0  0  0  0
 21 27  1  0  0  0  0
 22 24  1  0  0  0  0
 22 28  1  0  0  0  0
 22 29  1  0  0  0  0
 23 30  1  0  0  0  0
 23 31  1  0  0  0  0
 23 32  1  0  0  0  0
 24 33  1  0  0  0  0
 24 34  1  0  0  0  0
 24 35  1  0  0  0  0
 36 37  1  0  0  0  0
 36 41  1  0  0  0  0
 37 38  1  0  0  0  0
 37 40  1  0  0  0  0
 37 42  1  0  0  0  0
 38 39  2  0  0  0  0
 38 46  1  0  0  0  0
 40 43  1  0  0  0  0
 40 44  1  0  0  0  0
 40 45  1  0  0  0  0
 46 47  1  0  0  0  0
 46 48  1  0  0  0  0
 47 49  1  0  0  0  0
 47 50  1  0  0  0  0
 47 51  1  0  0  0  0
M  END
$$$$

  -OEChem-05262216503D

 51 50  0     1  0  0  0  0  0999 V2000
    0.2524   -6.0729    0.6552 C   0  0  0  0  0  0  0  0  0  0  0  0
   -0.8029   -6.3192    0.0926 O   0  0  0  0  0  0  0  0  0  0  0  0
    1.3514   -7.1183    0.6934 C   0  0  0  0  0  0  0  0  0  0  0  0
    1.0233   -8.0291    0.1845 H   0  0  0  0  0  0  0  0  0  0  0  0
    2.2457   -6.7394    0.1929 H   0  0  0  0  0  0  0  0  0  0  0  0
    1.5977   -7.3627    1.7295 H   0  0  0  0  0  0  0  0  0  0  0  0
    0.4557   -4.8453    1.2496 N   0  0  0  0  0  0  0  0  0  0  0  0
   -0.4440   -3.6935    1.0985 C   0  0  2  0  0  0  0  0  0  0  0  0
    0.3331   -2.4109    0.7393 C   0  0  0  0  0  0  0  0  0  0  0  0
    1.5362   -2.3321    0.9712 O   0  0  0  0  0  0  0  0  0  0  0  0
   -1.1997   -3.5061    2.4164 C   0  0  0  0  0  0  0  0  0  0  0  0
    1.4044   -4.6381    1.5584 H   0  0  0  0  0  0  0  0  0  0  0  0
   -1.1654   -3.8746    0.2948 H   0  0  0  0  0  0  0  0  0  0  0  0
   -0.5002   -3.3026    3.2337 H   0  0  0  0  0  0  0  0  0  0  0  0
   -1.8986   -2.6670    2.3436 H   0  0  0  0  0  0  0  0  0  0  0  0
   -1.7675   -4.4098    2.6588 H   0  0  0  0  0  0  0  0  0  0  0  0
   -0.3221   -1.3347    0.1696 N   0  0  0  0  0  0  0  0  0  0  0  0
    0.2506    0.0228    0.2190 C   0  0  2  0  0  0  0  0  0  0  0  0
    0.0817    0.6128    1.6453 C   0  0  0  0  0  0  0  0  0  0  0  0
   -0.7806    0.1720    2.4008 O   0  0  0  0  0  0  0  0  0  0  0  0
   -0.4378    0.8584   -0.9036 C   0  0  2  0  0  0  0  0  0  0  0  0
   -0.1045    0.2533   -2.2942 C   0  0  0  0  0  0  0  0  0  0  0  0
   -0.0252    2.3445   -0.8686 C   0  0  0  0  0  0  0  0  0  0  0  0
   -0.9447    0.8387   -3.4345 C   0  0  0  0  0  0  0  0  0  0  0  0
   -1.3360   -1.3942    0.2018 H   0  0  0  0  0  0  0  0  0  0  0  0
    1.3247   -0.0151    0.0075 H   0  0  0  0  0  0  0  0  0  0  0  0
   -1.5214    0.8069   -0.7508 H   0  0  0  0  0  0  0  0  0  0  0  0
    0.9580    0.4016   -2.5144 H   0  0  0  0  0  0  0  0  0  0  0  0
   -0.2857   -0.8252   -2.2870 H   0  0  0  0  0  0  0  0  0  0  0  0
    1.0642    2.4443   -0.9025 H   0  0  0  0  0  0  0  0  0  0  0  0
   -0.4475    2.8949   -1.7124 H   0  0  0  0  0  0  0  0  0  0  0  0
   -0.3989    2.8314    0.0361 H   0  0  0  0  0  0  0  0  0  0  0  0
   -2.0099    0.8015   -3.1855 H   0  0  0  0  0  0  0  0  0  0  0  0
   -0.7828    0.2578   -4.3480 H   0  0  0  0  0  0  0  0  0  0  0  0
   -0.6659    1.8747   -3.6434 H   0  0  0  0  0  0  0  0  0  0  0  0
    0.7954    1.7271    2.0454 N   0  0  0  0  0  0  0  0  0  0  0  0
    0.5162    2.5150    3.2527 C   0  0  2  0  0  0  0  0  0  0  0  0
    0.7523    4.0199    3.0043 C   0  0  0  0  0  0  0  0  0  0  0  0
    1.3057    4.3934    1.9751 O   0  0  0  0  0  0  0  0  0  0  0  0
    1.4173    1.9997    4.3782 C   0  0  0  0  0  0  0  0  0  0  0  0
    1.3878    2.1713    1.3445 H   0  0  0  0  0  0  0  0  0  0  0  0
   -0.5323    2.3945    3.5452 H   0  0  0  0  0  0  0  0  0  0  0  0
    2.4717    2.1265    4.1128 H   0  0  0  0  0  0  0  0  0  0  0  0
    1.2231    2.5440    5.3069 H   0  0  0  0  0  0  0  0  0  0  0  0
    1.2289    0.9360    4.5559 H   0  0  0  0  0  0  0  0  0  0  0  0
    0.3328    4.9607    3.9267 N   0  0  0  0  0  0  0  0  0  0  0  0
    0.5399    6.3938    3.7570 C   0  0  0  0  0  0  0  0  0  0  0  0
   -0.1214    4.6247    4.7710 H   0  0  0  0  0  0  0  0  0  0  0  0
    1.6101    6.6240    3.7285 H   0  0  0  0  0  0  0  0  0  0  0  0
    0.0799    6.7413    2.8260 H   0  0  0  0  0  0  0  0  0  0  0  0
    0.0891    6.9430    4.5890 H   0  0  0  0  0  0  0  0  0  0  0  0
  1  2  2  0  0  0  0
  1  3  1  0  0  0  0
  1  7  1  0  0  0  0
  3  4  1  0  0  0  0
  3  5  1  0  0  0  0
  3  6  1  0  0  0  0
  7  8  1  0  0  0  0
  7 12  1  0  0  0  0
  8  9  1  0  0  0  0
  8 11  1  0  0  0  0
  8 13  1  0  0  0  0
  9 10  2  0  0  0  0
  9 17  1  0  0  0  0
 11 14  1  0  0  0  0
 11 15  1  0  0  0  0
 11 16  1  0  0  0  0
 17 18  1  0  0  0  0
 17 25  1  0  0  0  0
 18 19  1  0  0  0  0
 18 21  1  0  0  0  0
 18 26  1  0  0  0  0
 19 20  2  0  0  0  0
 19 36  1  0  0  0  0
 21 22  1  0  0  0  0
 21 23  1  0  0  0  0
 21 27  1  0  0  0  0
 22 24  1  0  0  0  0
 22 28  1  0  0  0  0
 22 29  1  0  0  0  0
 23 30  1  0  0  0  0
 23 31  1  0  0  0  0
 23 32  1  0  0  0  0
 24 33  1  0  0  0  0
 24 34  1  0  0  0  0
 24 35  1  0  0  0  0
 36 37  1  0  0  0  0
 36 41  1  0  0  0  0
 37 38  1  0  0  0  0
 37 40  1  0  0  0  0
 37 42  1  0  0  0  0
 38 39  2  0  0  0  0
 38 46  1  0  0  0  0
 40 43  1  0  0  0  0
 40 44  1  0  0  0  0
 40 45  1  0  0  0  0
 46 47  1  0  0  0  0
 46 48  1  0  0  0  0
 47 49  1  0  0  0  0
 47 50  1  0  0  0  0
 47 51  1  0  0  0  0
M  END
$$$$

  -OEChem-05262216503D

 51 50  0     1  0  0  0  0  0999 V2000
    0.3299   -5.9641    0.8319 C   0  0  0  0  0  0  0  0  0  0  0  0
   -0.7125   -6.2544    0.2656 O   0  0  0  0  0  0  0  0  0  0  0  0
    1.4701   -6.9642    0.8799 C   0  0  0  0  0  0  0  0  0  0  0  0
    1.2007   -7.8700    0.3295 H   0  0  0  0  0  0  0  0  0  0  0  0
    2.3663   -6.5315    0.4283 H   0  0  0  0  0  0  0  0  0  0  0  0
    1.6870   -7.2327    1.9165 H   0  0  0  0  0  0  0  0  0  0  0  0
    0.4857   -4.7277    1.4223 N   0  0  0  0  0  0  0  0  0  0  0  0
   -0.4296   -3.5965    1.2151 C   0  0  2  0  0  0  0  0  0  0  0  0
    0.3185   -2.3527    0.6932 C   0  0  0  0  0  0  0  0  0  0  0  0
    1.5423   -2.2839    0.7734 O   0  0  0  0  0  0  0  0  0  0  0  0
   -1.1115   -3.2877    2.5503 C   0  0  0  0  0  0  0  0  0  0  0  0
    1.4334   -4.4849    1.7069 H   0  0  0  0  0  0  0  0  0  0  0  0
   -1.1959   -3.8513    0.4758 H   0  0  0  0  0  0  0  0  0  0  0  0
   -0.3695   -2.9916    3.2993 H   0  0  0  0  0  0  0  0  0  0  0  0
   -1.8302   -2.4702    2.4360 H   0  0  0  0  0  0  0  0  0  0  0  0
   -1.6463   -4.1699    2.9158 H   0  0  0  0  0  0  0  0  0  0  0  0
   -0.3751   -1.3117    0.1005 N   0  0  0  0  0  0  0  0  0  0  0  0
    0.1828    0.0553    0.0825 C   0  0  2  0  0  0  0  0  0  0  0  0
    0.4092    0.5912    1.5318 C   0  0  0  0  0  0  0  0  0  0  0  0
   -0.0783    0.0085    2.4970 O   0  0  0  0  0  0  0  0  0  0  0  0
   -0.7836    0.9005   -0.8133 C   0  0  2  0  0  0  0  0  0  0  0  0
   -0.7747    0.3426   -2.2654 C   0  0  0  0  0  0  0  0  0  0  0  0
   -0.4334    2.4030   -0.8417 C   0  0  0  0  0  0  0  0  0  0  0  0
   -1.8782    0.9209   -3.1591 C   0  0  0  0  0  0  0  0  0  0  0  0
   -1.3837   -1.3824    0.1901 H   0  0  0  0  0  0  0  0  0  0  0  0
    1.1667    0.0366   -0.3981 H   0  0  0  0  0  0  0  0  0  0  0  0
   -1.7971    0.8039   -0.4084 H   0  0  0  0  0  0  0  0  0  0  0  0
    0.1999    0.5376   -2.7250 H   0  0  0  0  0  0  0  0  0  0  0  0
   -0.9143   -0.7421   -2.2554 H   0  0  0  0  0  0  0  0  0  0  0  0
    0.6276    2.5493   -1.0673 H   0  0  0  0  0  0  0  0  0  0  0  0
   -1.0186    2.9394   -1.5910 H   0  0  0  0  0  0  0  0  0  0  0  0
   -0.6673    2.8731    0.1168 H   0  0  0  0  0  0  0  0  0  0  0  0
   -2.8521    0.8402   -2.6668 H   0  0  0  0  0  0  0  0  0  0  0  0
   -1.9201    0.3633   -4.0997 H   0  0  0  0  0  0  0  0  0  0  0  0
   -1.6899    1.9696   -3.4024 H   0  0  0  0  0  0  0  0  0  0  0  0
    0.9319    1.8491    1.7676 N   0  0  0  0  0  0  0  0  0  0  0  0
    0.9409    2.5410    3.0624 C   0  0  2  0  0  0  0  0  0  0  0  0
    0.9240    4.0726    2.8752 C   0  0  0  0  0  0  0  0  0  0  0  0
    1.0950    4.5584    1.7614 O   0  0  0  0  0  0  0  0  0  0  0  0
    2.1881    2.1034    3.8370 C   0  0  0  0  0  0  0  0  0  0  0  0
    1.1904    2.4072    0.9547 H   0  0  0  0  0  0  0  0  0  0  0  0
    0.0461    2.2711    3.6332 H   0  0  0  0  0  0  0  0  0  0  0  0
    3.0951    2.3821    3.2907 H   0  0  0  0  0  0  0  0  0  0  0  0
    2.2150    2.5763    4.8231 H   0  0  0  0  0  0  0  0  0  0  0  0
    2.1861    1.0174    3.9766 H   0  0  0  0  0  0  0  0  0  0  0  0
    0.7007    4.9107    3.9519 N   0  0  0  0  0  0  0  0  0  0  0  0
    0.6832    6.3641    3.8425 C   0  0  0  0  0  0  0  0  0  0  0  0
    0.5605    4.4824    4.8625 H   0  0  0  0  0  0  0  0  0  0  0  0
    1.6446    6.7306    3.4678 H   0  0  0  0  0  0  0  0  0  0  0  0
   -0.1081    6.6877    3.1582 H   0  0  0  0  0  0  0  0  0  0  0  0
    0.4993    6.8155    4.8222 H   0  0  0  0  0  0  0  0  0  0  0  0
  1  2  2  0  0  0  0
  1  3  1  0  0  0  0
  1  7  1  0  0  0  0
  3  4  1  0  0  0  0
  3  5  1  0  0  0  0
  3  6  1  0  0  0  0
  7  8  1  0  0  0  0
  7 12  1  0  0  0  0
  8  9  1  0  0  0  0
  8 11  1  0  0  0  0
  8 13  1  0  0  0  0
  9 10  2  0  0  0  0
  9 17  1  0  0  0  0
 11 14  1  0  0  0  0
 11 15  1  0  0  0  0
 11 16  1  0  0  0  0
 17 18  1  0  0  0  0
 17 25  1  0  0  0  0
 18 19  1  0  0  0  0
 18 21  1  0  0  0  0
 18 26  1  0  0  0  0
 19 20  2  0  0  0  0
 19 36  1  0  0  0  0
 21 22  1  0  0  0  0
 21 23  1  0  0  0  0
 21 27  1  0  0  0  0
 22 24  1  0  0  0  0
 22 28  1  0  0  0  0
 22 29  1  0  0  0  0
 23 30  1  0  0  0  0
 23 31  1  0  0  0  0
 23 32  1  0  0  0  0
 24 33  1  0  0  0  0
 24 34  1  0  0  0  0
 24 35  1  0  0  0  0
 36 37  1  0  0  0  0
 36 41  1  0  0  0  0
 37 38  1  0  0  0  0
 37 40  1  0  0  0  0
 37 42  1  0  0  0  0
 38 39  2  0  0  0  0
 38 46  1  0  0  0  0
 40 43  1  0  0  0  0
 40 44  1  0  0  0  0
 40 45  1  0  0  0  0
 46 47  1  0  0  0  0
 46 48  1  0  0  0  0
 47 49  1  0  0  0  0
 47 50  1  0  0  0  0
 47 51  1  0  0  0  0
M  END
$$$$

  -OEChem-05262216503D

 51 50  0     1  0  0  0  0  0999 V2000
    0.2983   -5.8845    0.9264 C   0  0  0  0  0  0  0  0  0  0  0  0
   -0.7740   -6.1764    0.4198 O   0  0  0  0  0  0  0  0  0  0  0  0
    1.4318   -6.8930    0.9345 C   0  0  0  0  0  0  0  0  0  0  0  0
    1.1234   -7.8120    0.4283 H   0  0  0  0  0  0  0  0  0  0  0  0
    2.3007   -6.4807    0.4157 H   0  0  0  0  0  0  0  0  0  0  0  0
    1.7103   -7.1330    1.9635 H   0  0  0  0  0  0  0  0  0  0  0  0
    0.4956   -4.6377    1.4816 N   0  0  0  0  0  0  0  0  0  0  0  0
   -0.4148   -3.4995    1.2931 C   0  0  2  0  0  0  0  0  0  0  0  0
    0.3232   -2.2820    0.6985 C   0  0  0  0  0  0  0  0  0  0  0  0
    1.5505   -2.2312    0.7146 O   0  0  0  0  0  0  0  0  0  0  0  0
   -1.0157   -3.1462    2.6555 C   0  0  0  0  0  0  0  0  0  0  0  0
    1.4589   -4.3989    1.7132 H   0  0  0  0  0  0  0  0  0  0  0  0
   -1.2247   -3.7614    0.6047 H   0  0  0  0  0  0  0  0  0  0  0  0
   -0.2277   -2.8493    3.3555 H   0  0  0  0  0  0  0  0  0  0  0  0
   -1.7219   -2.3158    2.5601 H   0  0  0  0  0  0  0  0  0  0  0  0
   -1.5475   -4.0078    3.0711 H   0  0  0  0  0  0  0  0  0  0  0  0
   -0.3803   -1.2538    0.0931 N   0  0  0  0  0  0  0  0  0  0  0  0
    0.1676    0.1189    0.0407 C   0  0  2  0  0  0  0  0  0  0  0  0
    0.4075    0.6975    1.4788 C   0  0  0  0  0  0  0  0  0  0  0  0
    0.1633    0.0248    2.4765 O   0  0  0  0  0  0  0  0  0  0  0  0
   -0.7950    0.9163   -0.9082 C   0  0  2  0  0  0  0  0  0  0  0  0
   -0.7454    0.2979   -2.3371 C   0  0  0  0  0  0  0  0  0  0  0  0
   -0.4635    2.4216   -1.0057 C   0  0  0  0  0  0  0  0  0  0  0  0
   -1.8367    0.8185   -3.2813 C   0  0  0  0  0  0  0  0  0  0  0  0
   -1.3873   -1.3273    0.1984 H   0  0  0  0  0  0  0  0  0  0  0  0
    1.1539    0.0901   -0.4354 H   0  0  0  0  0  0  0  0  0  0  0  0
   -1.8156    0.8234   -0.5214 H   0  0  0  0  0  0  0  0  0  0  0  0
    0.2368    0.4864   -2.7833 H   0  0  0  0  0  0  0  0  0  0  0  0
   -0.8710   -0.7871   -2.2843 H   0  0  0  0  0  0  0  0  0  0  0  0
    0.6144    2.5743   -1.1219 H   0  0  0  0  0  0  0  0  0  0  0  0
   -0.9642    2.8981   -1.8502 H   0  0  0  0  0  0  0  0  0  0  0  0
   -0.8136    2.9501   -0.1155 H   0  0  0  0  0  0  0  0  0  0  0  0
   -2.8171    0.7696   -2.7978 H   0  0  0  0  0  0  0  0  0  0  0  0
   -1.8667    0.2021   -4.1849 H   0  0  0  0  0  0  0  0  0  0  0  0
   -1.6453    1.8490   -3.5906 H   0  0  0  0  0  0  0  0  0  0  0  0
    0.6292    2.0417    1.7152 N   0  0  0  0  0  0  0  0  0  0  0  0
    0.6185    2.6968    3.0306 C   0  0  2  0  0  0  0  0  0  0  0  0
    0.2096    4.1802    2.9156 C   0  0  0  0  0  0  0  0  0  0  0  0
    0.1675    4.7243    1.8168 O   0  0  0  0  0  0  0  0  0  0  0  0
    2.0144    2.5664    3.6482 C   0  0  0  0  0  0  0  0  0  0  0  0
    0.6840    2.6560    0.9044 H   0  0  0  0  0  0  0  0  0  0  0  0
   -0.1130    2.2088    3.6832 H   0  0  0  0  0  0  0  0  0  0  0  0
    2.7614    3.0497    3.0102 H   0  0  0  0  0  0  0  0  0  0  0  0
    2.0440    3.0338    4.6368 H   0  0  0  0  0  0  0  0  0  0  0  0
    2.2822    1.5108    3.7593 H   0  0  0  0  0  0  0  0  0  0  0  0
   -0.1360    4.9028    4.0428 N   0  0  0  0  0  0  0  0  0  0  0  0
   -0.5617    6.2968    4.0010 C   0  0  0  0  0  0  0  0  0  0  0  0
   -0.1113    4.4216    4.9374 H   0  0  0  0  0  0  0  0  0  0  0  0
    0.2322    6.9282    3.5882 H   0  0  0  0  0  0  0  0  0  0  0  0
   -1.4576    6.4055    3.3805 H   0  0  0  0  0  0  0  0  0  0  0  0
   -0.7956    6.6514    5.0094 H   0  0  0  0  0  0  0  0  0  0  0  0
  1  2  2  0  0  0  0
  1  3  1  0  0  0  0
  1  7  1  0  0  0  0
  3  4  1  0  0  0  0
  3  5  1  0  0  0  0
  3  6  1  0  0  0  0
  7  8  1  0  0  0  0
  7 12  1  0  0  0  0
  8  9  1  0  0  0  0
  8 11  1  0  0  0  0
  8 13  1  0  0  0  0
  9 10  2  0  0  0  0
  9 17  1  0  0  0  0
 11 14  1  0  0  0  0
 11 15  1  0  0  0  0
 11 16  1  0  0  0  0
 17 18  1  0  0  0  0
 17 25  1  0  0  0  0
 18 19  1  0  0  0  0
 18 21  1  0  0  0  0
 18 26  1  0  0  0  0
 19 20  2  0  0  0  0
 19 36  1  0  0  0  0
 21 22  1  0  0  0  0
 21 23  1  0  0  0  0
 21 27  1  0  0  0  0
 22 24  1  0  0  0  0
 22 28  1  0  0  0  0
 22 29  1  0  0  0  0
 23 30  1  0  0  0  0
 23 31  1  0  0  0  0
 23 32  1  0  0  0  0
 24 33  1  0  0  0  0
 24 34  1  0  0  0  0
 24 35  1  0  0  0  0
 36 37  1  0  0  0  0
 36 41  1  0  0  0  0
 37 38  1  0  0  0  0
 37 40  1  0  0  0  0
 37 42  1  0  0  0  0
 38 39  2  0  0  0  0
 38 46  1  0  0  0  0
 40 43  1  0  0  0  0
 40 44  1  0  0  0  0
 40 45  1  0  0  0  0
 46 47  1  0  0  0  0
 46 48  1  0  0  0  0
 47 49  1  0  0  0  0
 47 50  1  0  0  0  0
 47 51  1  0  0  0  0
M  END
$$$$

  -OEChem-05262216503D

 51 50  0     1  0  0  0  0  0999 V2000
    0.4028   -5.8759    1.0526 C   0  0  0  0  0  0  0  0  0  0  0  0
   -0.7820   -6.1514    1.1646 O   0  0  0  0  0  0  0  0  0  0  0  0
    1.4253   -6.9784    0.8492 C   0  0  0  0  0  0  0  0  0  0  0  0
    0.9413   -7.9576    0.9031 H   0  0  0  0  0  0  0  0  0  0  0  0
    1.8978   -6.8722   -0.1304 H   0  0  0  0  0  0  0  0  0  0  0  0
    2.1934   -6.9231    1.6245 H   0  0  0  0  0  0  0  0  0  0  0  0
    0.8123   -4.5609    1.0997 N   0  0  0  0  0  0  0  0  0  0  0  0
   -0.0960   -3.4085    1.1359 C   0  0  2  0  0  0  0  0  0  0  0  0
    0.5117   -2.1834    0.4214 C   0  0  0  0  0  0  0  0  0  0  0  0
    1.6638   -2.2169    0.0014 O   0  0  0  0  0  0  0  0  0  0  0  0
   -0.3965   -3.0756    2.6009 C   0  0  0  0  0  0  0  0  0  0  0  0
    1.7875   -4.3628    0.8758 H   0  0  0  0  0  0  0  0  0  0  0  0
   -1.0293   -3.6582    0.6204 H   0  0  0  0  0  0  0  0  0  0  0  0
    0.5257   -2.8082    3.1277 H   0  0  0  0  0  0  0  0  0  0  0  0
   -1.0916   -2.2342    2.6715 H   0  0  0  0  0  0  0  0  0  0  0  0
   -0.8469   -3.9382    3.1020 H   0  0  0  0  0  0  0  0  0  0  0  0
   -0.2678   -1.0735    0.1379 N   0  0  0  0  0  0  0  0  0  0  0  0
    0.2945    0.2949    0.0717 C   0  0  2  0  0  0  0  0  0  0  0  0
    0.9281    0.6930    1.4550 C   0  0  0  0  0  0  0  0  0  0  0  0
    1.4825   -0.1113    2.1878 O   0  0  0  0  0  0  0  0  0  0  0  0
   -0.7784    1.2250   -0.5879 C   0  0  2  0  0  0  0  0  0  0  0  0
   -1.0407    0.7299   -2.0418 C   0  0  0  0  0  0  0  0  0  0  0  0
   -0.2879    2.6874   -0.7285 C   0  0  0  0  0  0  0  0  0  0  0  0
   -2.2569    1.3799   -2.7148 C   0  0  0  0  0  0  0  0  0  0  0  0
   -1.2172   -1.1444    0.4876 H   0  0  0  0  0  0  0  0  0  0  0  0
    1.1464    0.2789   -0.6174 H   0  0  0  0  0  0  0  0  0  0  0  0
   -1.7038    1.1959   -0.0034 H   0  0  0  0  0  0  0  0  0  0  0  0
   -0.1516    0.8948   -2.6599 H   0  0  0  0  0  0  0  0  0  0  0  0
   -1.2293   -0.3471   -2.0381 H   0  0  0  0  0  0  0  0  0  0  0  0
    0.7012    2.7146   -1.1973 H   0  0  0  0  0  0  0  0  0  0  0  0
   -0.2264    3.2001    0.2261 H   0  0  0  0  0  0  0  0  0  0  0  0
   -0.9712    3.2830   -1.3365 H   0  0  0  0  0  0  0  0  0  0  0  0
   -3.1305    1.3315   -2.0578 H   0  0  0  0  0  0  0  0  0  0  0  0
   -2.4925    0.8478   -3.6416 H   0  0  0  0  0  0  0  0  0  0  0  0
   -2.0655    2.4243   -2.9738 H   0  0  0  0  0  0  0  0  0  0  0  0
    1.0214    1.9540    1.9928 N   0  0  0  0  0  0  0  0  0  0  0  0
   -0.1338    2.5052    2.7253 C   0  0  2  0  0  0  0  0  0  0  0  0
   -0.0649    4.0410    2.8843 C   0  0  0  0  0  0  0  0  0  0  0  0
    1.0122    4.6209    2.9103 O   0  0  0  0  0  0  0  0  0  0  0  0
   -0.2030    1.8611    4.1166 C   0  0  0  0  0  0  0  0  0  0  0  0
    1.8779    2.0239    2.5397 H   0  0  0  0  0  0  0  0  0  0  0  0
   -1.0561    2.2697    2.1867 H   0  0  0  0  0  0  0  0  0  0  0  0
    0.7229    2.0494    4.6705 H   0  0  0  0  0  0  0  0  0  0  0  0
   -1.0390    2.2736    4.6898 H   0  0  0  0  0  0  0  0  0  0  0  0
   -0.3447    0.7790    4.0374 H   0  0  0  0  0  0  0  0  0  0  0  0
   -1.2281    4.7783    3.0170 N   0  0  0  0  0  0  0  0  0  0  0  0
   -1.2387    6.2265    3.1877 C   0  0  0  0  0  0  0  0  0  0  0  0
   -2.1114    4.2779    3.0191 H   0  0  0  0  0  0  0  0  0  0  0  0
   -0.7111    6.5075    4.1053 H   0  0  0  0  0  0  0  0  0  0  0  0
   -0.7523    6.7168    2.3377 H   0  0  0  0  0  0  0  0  0  0  0  0
   -2.2676    6.5928    3.2542 H   0  0  0  0  0  0  0  0  0  0  0  0
  1  2  2  0  0  0  0
  1  3  1  0  0  0  0
  1  7  1  0  0  0  0
  3  4  1  0  0  0  0
  3  5  1  0  0  0  0
  3  6  1  0  0  0  0
  7  8  1  0  0  0  0
  7 12  1  0  0  0  0
  8  9  1  0  0  0  0
  8 11  1  0  0  0  0
  8 13  1  0  0  0  0
  9 10  2  0  0  0  0
  9 17  1  0  0  0  0
 11 14  1  0  0  0  0
 11 15  1  0  0  0  0
 11 16  1  0  0  0  0
 17 18  1  0  0  0  0
 17 25  1  0  0  0  0
 18 19  1  0  0  0  0
 18 21  1  0  0  0  0
 18 26  1  0  0  0  0
 19 20  2  0  0  0  0
 19 36  1  0  0  0  0
 21 22  1  0  0  0  0
 21 23  1  0  0  0  0
 21 27  1  0  0  0  0
 22 24  1  0  0  0  0
 22 28  1  0  0  0  0
 22 29  1  0  0  0  0
 23 30  1  0  0  0  0
 23 31  1  0  0  0  0
 23 32  1  0  0  0  0
 24 33  1  0  0  0  0
 24 34  1  0  0  0  0
 24 35  1  0  0  0  0
 36 37  1  0  0  0  0
 36 41  1  0  0  0  0
 37 38  1  0  0  0  0
 37 40  1  0  0  0  0
 37 42  1  0  0  0  0
 38 39  2  0  0  0  0
 38 46  1  0  0  0  0
 40 43  1  0  0  0  0
 40 44  1  0  0  0  0
 40 45  1  0  0  0  0
 46 47  1  0  0  0  0
 46 48  1  0  0  0  0
 47 49  1  0  0  0  0
 47 50  1  0  0  0  0
 47 51  1  0  0  0  0
M  END
$$$$

  -OEChem-05262216503D

 51 50  0     1  0  0  0  0  0999 V2000
    0.3079   -5.7521    1.0386 C   0  0  0  0  0  0  0  0  0  0  0  0
   -0.7651   -6.0550    0.5399 O   0  0  0  0  0  0  0  0  0  0  0  0
    1.4471   -6.7540    1.0524 C   0  0  0  0  0  0  0  0  0  0  0  0
    1.1483   -7.6737    0.5415 H   0  0  0  0  0  0  0  0  0  0  0  0
    2.3178   -6.3347    0.5421 H   0  0  0  0  0  0  0  0  0  0  0  0
    1.7189   -6.9952    2.0829 H   0  0  0  0  0  0  0  0  0  0  0  0
    0.5004   -4.4984    1.5792 N   0  0  0  0  0  0  0  0  0  0  0  0
   -0.4088   -3.3644    1.3630 C   0  0  2  0  0  0  0  0  0  0  0  0
    0.3302   -2.1666    0.7315 C   0  0  0  0  0  0  0  0  0  0  0  0
    1.5570   -2.1362    0.7132 O   0  0  0  0  0  0  0  0  0  0  0  0
   -1.0028   -2.9692    2.7166 C   0  0  0  0  0  0  0  0  0  0  0  0
    1.4661   -4.2512    1.7917 H   0  0  0  0  0  0  0  0  0  0  0  0
   -1.2227   -3.6437    0.6861 H   0  0  0  0  0  0  0  0  0  0  0  0
   -0.2116   -2.6481    3.4024 H   0  0  0  0  0  0  0  0  0  0  0  0
   -1.7132   -2.1453    2.5991 H   0  0  0  0  0  0  0  0  0  0  0  0
   -1.5282   -3.8201    3.1614 H   0  0  0  0  0  0  0  0  0  0  0  0
   -0.3711   -1.1685    0.0759 N   0  0  0  0  0  0  0  0  0  0  0  0
    0.1153    0.2273    0.0123 C   0  0  2  0  0  0  0  0  0  0  0  0
    0.2597    0.8527    1.4455 C   0  0  0  0  0  0  0  0  0  0  0  0
    0.6310    0.1896    2.4058 O   0  0  0  0  0  0  0  0  0  0  0  0
   -0.7791    0.9726   -1.0384 C   0  0  2  0  0  0  0  0  0  0  0  0
   -0.5808    0.3145   -2.4360 C   0  0  0  0  0  0  0  0  0  0  0  0
   -0.4109    2.4732   -1.1639 C   0  0  0  0  0  0  0  0  0  0  0  0
   -1.5960    0.7745   -3.4926 C   0  0  0  0  0  0  0  0  0  0  0  0
   -1.3787   -1.2824    0.1164 H   0  0  0  0  0  0  0  0  0  0  0  0
    1.1347    0.2171   -0.3899 H   0  0  0  0  0  0  0  0  0  0  0  0
   -1.8314    0.8868   -0.7457 H   0  0  0  0  0  0  0  0  0  0  0  0
    0.4336    0.5160   -2.7966 H   0  0  0  0  0  0  0  0  0  0  0  0
   -0.6829   -0.7714   -2.3579 H   0  0  0  0  0  0  0  0  0  0  0  0
    0.6448    2.6350   -0.9231 H   0  0  0  0  0  0  0  0  0  0  0  0
   -1.0306    3.0806   -0.4992 H   0  0  0  0  0  0  0  0  0  0  0  0
   -0.5748    2.8623   -2.1694 H   0  0  0  0  0  0  0  0  0  0  0  0
   -2.6161    0.6743   -3.1096 H   0  0  0  0  0  0  0  0  0  0  0  0
   -1.5026    0.1501   -4.3862 H   0  0  0  0  0  0  0  0  0  0  0  0
   -1.4347    1.8115   -3.7959 H   0  0  0  0  0  0  0  0  0  0  0  0
   -0.1858    2.1244    1.7543 N   0  0  0  0  0  0  0  0  0  0  0  0
   -0.2693    2.7073    3.1005 C   0  0  2  0  0  0  0  0  0  0  0  0
   -1.3726    3.7847    3.1658 C   0  0  0  0  0  0  0  0  0  0  0  0
   -1.9298    4.1558    2.1372 O   0  0  0  0  0  0  0  0  0  0  0  0
    1.0953    3.3059    3.4620 C   0  0  0  0  0  0  0  0  0  0  0  0
   -0.6680    2.6361    1.0194 H   0  0  0  0  0  0  0  0  0  0  0  0
   -0.5287    1.9299    3.8268 H   0  0  0  0  0  0  0  0  0  0  0  0
    1.3634    4.1002    2.7580 H   0  0  0  0  0  0  0  0  0  0  0  0
    1.0776    3.7263    4.4720 H   0  0  0  0  0  0  0  0  0  0  0  0
    1.8709    2.5340    3.4261 H   0  0  0  0  0  0  0  0  0  0  0  0
   -1.7592    4.3251    4.3783 N   0  0  0  0  0  0  0  0  0  0  0  0
   -2.8041    5.3337    4.5093 C   0  0  0  0  0  0  0  0  0  0  0  0
   -1.2851    3.9947    5.2140 H   0  0  0  0  0  0  0  0  0  0  0  0
   -2.5472    6.2295    3.9340 H   0  0  0  0  0  0  0  0  0  0  0  0
   -3.7611    4.9440    4.1463 H   0  0  0  0  0  0  0  0  0  0  0  0
   -2.9237    5.6207    5.5585 H   0  0  0  0  0  0  0  0  0  0  0  0
  1  2  2  0  0  0  0
  1  3  1  0  0  0  0
  1  7  1  0  0  0  0
  3  4  1  0  0  0  0
  3  5  1  0  0  0  0
  3  6  1  0  0  0  0
  7  8  1  0  0  0  0
  7 12  1  0  0  0  0
  8  9  1  0  0  0  0
  8 11  1  0  0  0  0
  8 13  1  0  0  0  0
  9 10  2  0  0  0  0
  9 17  1  0  0  0  0
 11 14  1  0  0  0  0
 11 15  1  0  0  0  0
 11 16  1  0  0  0  0
 17 18  1  0  0  0  0
 17 25  1  0  0  0  0
 18 19  1  0  0  0  0
 18 21  1  0  0  0  0
 18 26  1  0  0  0  0
 19 20  2  0  0  0  0
 19 36  1  0  0  0  0
 21 22  1  0  0  0  0
 21 23  1  0  0  0  0
 21 27  1  0  0  0  0
 22 24  1  0  0  0  0
 22 28  1  0  0  0  0
 22 29  1  0  0  0  0
 23 30  1  0  0  0  0
 23 31  1  0  0  0  0
 23 32  1  0  0  0  0
 24 33  1  0  0  0  0
 24 34  1  0  0  0  0
 24 35  1  0  0  0  0
 36 37  1  0  0  0  0
 36 41  1  0  0  0  0
 37 38  1  0  0  0  0
 37 40  1  0  0  0  0
 37 42  1  0  0  0  0
 38 39  2  0  0  0  0
 38 46  1  0  0  0  0
 40 43  1  0  0  0  0
 40 44  1  0  0  0  0
 40 45  1  0  0  0  0
 46 47  1  0  0  0  0
 46 48  1  0  0  0  0
 47 49  1  0  0  0  0
 47 50  1  0  0  0  0
 47 51  1  0  0  0  0
M  END
$$$$

  -OEChem-05262216503D

 51 50  0     1  0  0  0  0  0999 V2000
    0.1604   -5.6796    1.1208 C   0  0  0  0  0  0  0  0  0  0  0  0
   -0.9521   -5.9281    0.6820 O   0  0  0  0  0  0  0  0  0  0  0  0
    1.2411   -6.7441    1.0927 C   0  0  0  0  0  0  0  0  0  0  0  0
    0.8467   -7.6726    0.6706 H   0  0  0  0  0  0  0  0  0  0  0  0
    2.0795   -6.4067    0.4786 H   0  0  0  0  0  0  0  0  0  0  0  0
    1.5974   -6.9406    2.1067 H   0  0  0  0  0  0  0  0  0  0  0  0
    0.4486   -4.4298    1.6276 N   0  0  0  0  0  0  0  0  0  0  0  0
   -0.4124   -3.2531    1.4465 C   0  0  2  0  0  0  0  0  0  0  0  0
    0.3529   -2.0927    0.7798 C   0  0  0  0  0  0  0  0  0  0  0  0
    1.5789   -2.0804    0.7785 O   0  0  0  0  0  0  0  0  0  0  0  0
   -0.9257   -2.8211    2.8217 C   0  0  0  0  0  0  0  0  0  0  0  0
    1.4341   -4.2330    1.7994 H   0  0  0  0  0  0  0  0  0  0  0  0
   -1.2674   -3.4951    0.8069 H   0  0  0  0  0  0  0  0  0  0  0  0
   -0.0887   -2.5491    3.4735 H   0  0  0  0  0  0  0  0  0  0  0  0
   -1.5875   -1.9547    2.7291 H   0  0  0  0  0  0  0  0  0  0  0  0
   -1.4847   -3.6365    3.2911 H   0  0  0  0  0  0  0  0  0  0  0  0
   -0.3295   -1.1140    0.0782 N   0  0  0  0  0  0  0  0  0  0  0  0
    0.1377    0.2867    0.0053 C   0  0  2  0  0  0  0  0  0  0  0  0
    0.2025    0.9087    1.4398 C   0  0  0  0  0  0  0  0  0  0  0  0
    0.8560    0.3979    2.3388 O   0  0  0  0  0  0  0  0  0  0  0  0
   -0.7158    1.0302   -1.0752 C   0  0  2  0  0  0  0  0  0  0  0  0
   -0.4646    0.3619   -2.4584 C   0  0  0  0  0  0  0  0  0  0  0  0
   -0.3072    2.5192   -1.2201 C   0  0  0  0  0  0  0  0  0  0  0  0
   -1.4363    0.8168   -3.5547 C   0  0  0  0  0  0  0  0  0  0  0  0
   -1.3365   -1.2417    0.0743 H   0  0  0  0  0  0  0  0  0  0  0  0
    1.1744    0.2868   -0.3508 H   0  0  0  0  0  0  0  0  0  0  0  0
   -1.7776    0.9638   -0.8142 H   0  0  0  0  0  0  0  0  0  0  0  0
    0.5637    0.5541   -2.7828 H   0  0  0  0  0  0  0  0  0  0  0  0
   -0.5758   -0.7229   -2.3742 H   0  0  0  0  0  0  0  0  0  0  0  0
    0.7788    2.6061   -1.3276 H   0  0  0  0  0  0  0  0  0  0  0  0
   -0.7736    2.9780   -2.0938 H   0  0  0  0  0  0  0  0  0  0  0  0
   -0.6196    3.1248   -0.3702 H   0  0  0  0  0  0  0  0  0  0  0  0
   -2.4707    0.7358   -3.2068 H   0  0  0  0  0  0  0  0  0  0  0  0
   -1.3192    0.1800   -4.4369 H   0  0  0  0  0  0  0  0  0  0  0  0
   -1.2460    1.8480   -3.8625 H   0  0  0  0  0  0  0  0  0  0  0  0
   -0.5403    2.0192    1.7919 N   0  0  0  0  0  0  0  0  0  0  0  0
   -0.6658    2.5744    3.1458 C   0  0  2  0  0  0  0  0  0  0  0  0
   -2.0355    3.2600    3.3346 C   0  0  0  0  0  0  0  0  0  0  0  0
   -2.7758    3.4266    2.3700 O   0  0  0  0  0  0  0  0  0  0  0  0
    0.4762    3.5710    3.3697 C   0  0  0  0  0  0  0  0  0  0  0  0
   -1.2172    2.3547    1.1077 H   0  0  0  0  0  0  0  0  0  0  0  0
   -0.5967    1.7711    3.8871 H   0  0  0  0  0  0  0  0  0  0  0  0
    0.4221    4.3848    2.6396 H   0  0  0  0  0  0  0  0  0  0  0  0
    0.4230    3.9994    4.3749 H   0  0  0  0  0  0  0  0  0  0  0  0
    1.4433    3.0696    3.2608 H   0  0  0  0  0  0  0  0  0  0  0  0
   -2.4498    3.6751    4.5867 N   0  0  0  0  0  0  0  0  0  0  0  0
   -3.7299    4.3291    4.8307 C   0  0  0  0  0  0  0  0  0  0  0  0
   -1.8173    3.5234    5.3672 H   0  0  0  0  0  0  0  0  0  0  0  0
   -3.7928    5.2686    4.2715 H   0  0  0  0  0  0  0  0  0  0  0  0
   -4.5569    3.6801    4.5237 H   0  0  0  0  0  0  0  0  0  0  0  0
   -3.8441    4.5523    5.8958 H   0  0  0  0  0  0  0  0  0  0  0  0
  1  2  2  0  0  0  0
  1  3  1  0  0  0  0
  1  7  1  0  0  0  0
  3  4  1  0  0  0  0
  3  5  1  0  0  0  0
  3  6  1  0  0  0  0
  7  8  1  0  0  0  0
  7 12  1  0  0  0  0
  8  9  1  0  0  0  0
  8 11  1  0  0  0  0
  8 13  1  0  0  0  0
  9 10  2  0  0  0  0
  9 17  1  0  0  0  0
 11 14  1  0  0  0  0
 11 15  1  0  0  0  0
 11 16  1  0  0  0  0
 17 18  1  0  0  0  0
 17 25  1  0  0  0  0
 18 19  1  0  0  0  0
 18 21  1  0  0  0  0
 18 26  1  0  0  0  0
 19 20  2  0  0  0  0
 19 36  1  0  0  0  0
 21 22  1  0  0  0  0
 21 23  1  0  0  0  0
 21 27  1  0  0  0  0
 22 24  1  0  0  0  0
 22 28  1  0  0  0  0
 22 29  1  0  0  0  0
 23 30  1  0  0  0  0
 23 31  1  0  0  0  0
 23 32  1  0  0  0  0
 24 33  1  0  0  0  0
 24 34  1  0  0  0  0
 24 35  1  0  0  0  0
 36 37  1  0  0  0  0
 36 41  1  0  0  0  0
 37 38  1  0  0  0  0
 37 40  1  0  0  0  0
 37 42  1  0  0  0  0
 38 39  2  0  0  0  0
 38 46  1  0  0  0  0
 40 43  1  0  0  0  0
 40 44  1  0  0  0  0
 40 45  1  0  0  0  0
 46 47  1  0  0  0  0
 46 48  1  0  0  0  0
 47 49  1  0  0  0  0
 47 50  1  0  0  0  0
 47 51  1  0  0  0  0
M  END
$$$$

  -OEChem-05262216503D

 51 50  0     1  0  0  0  0  0999 V2000
    0.1091   -5.6112    1.3045 C   0  0  0  0  0  0  0  0  0  0  0  0
   -0.9797   -5.8980    0.8313 O   0  0  0  0  0  0  0  0  0  0  0  0
    1.1875   -6.6715    1.4233 C   0  0  0  0  0  0  0  0  0  0  0  0
    0.8707   -7.5889    0.9195 H   0  0  0  0  0  0  0  0  0  0  0  0
    2.1118   -6.3179    0.9599 H   0  0  0  0  0  0  0  0  0  0  0  0
    1.3774   -6.8928    2.4763 H   0  0  0  0  0  0  0  0  0  0  0  0
    0.3712   -4.3236    1.7223 N   0  0  0  0  0  0  0  0  0  0  0  0
   -0.4854   -3.1705    1.4144 C   0  0  2  0  0  0  0  0  0  0  0  0
    0.3178   -2.0342    0.7509 C   0  0  0  0  0  0  0  0  0  0  0  0
    1.5413   -2.0278    0.8123 O   0  0  0  0  0  0  0  0  0  0  0  0
   -1.1063   -2.6793    2.7239 C   0  0  0  0  0  0  0  0  0  0  0  0
    1.3468   -4.1079    1.9259 H   0  0  0  0  0  0  0  0  0  0  0  0
   -1.2850   -3.4571    0.7235 H   0  0  0  0  0  0  0  0  0  0  0  0
   -0.3241   -2.3577    3.4197 H   0  0  0  0  0  0  0  0  0  0  0  0
   -1.7754   -1.8334    2.5398 H   0  0  0  0  0  0  0  0  0  0  0  0
   -1.6836   -3.4823    3.1927 H   0  0  0  0  0  0  0  0  0  0  0  0
   -0.3289   -1.0517    0.0215 N   0  0  0  0  0  0  0  0  0  0  0  0
    0.1621    0.3401   -0.0355 C   0  0  2  0  0  0  0  0  0  0  0  0
    0.1793    0.9439    1.4010 C   0  0  0  0  0  0  0  0  0  0  0  0
    1.0122    0.6120    2.2317 O   0  0  0  0  0  0  0  0  0  0  0  0
   -0.6547    1.1302   -1.1030 C   0  0  2  0  0  0  0  0  0  0  0  0
   -0.4194    0.4978   -2.5016 C   0  0  0  0  0  0  0  0  0  0  0  0
   -0.1997    2.6078   -1.1877 C   0  0  0  0  0  0  0  0  0  0  0  0
   -1.3765    1.0256   -3.5762 C   0  0  0  0  0  0  0  0  0  0  0  0
   -1.3368   -1.1667   -0.0209 H   0  0  0  0  0  0  0  0  0  0  0  0
    1.2076    0.3285   -0.3665 H   0  0  0  0  0  0  0  0  0  0  0  0
   -1.7196    1.0888   -0.8490 H   0  0  0  0  0  0  0  0  0  0  0  0
    0.6151    0.6659   -2.8200 H   0  0  0  0  0  0  0  0  0  0  0  0
   -0.5667   -0.5848   -2.4477 H   0  0  0  0  0  0  0  0  0  0  0  0
    0.8642    2.6647   -1.4403 H   0  0  0  0  0  0  0  0  0  0  0  0
   -0.7652    3.1474   -1.9513 H   0  0  0  0  0  0  0  0  0  0  0  0
   -0.3530    3.1470   -0.2526 H   0  0  0  0  0  0  0  0  0  0  0  0
   -2.4139    0.9547   -3.2350 H   0  0  0  0  0  0  0  0  0  0  0  0
   -1.2718    0.4301   -4.4883 H   0  0  0  0  0  0  0  0  0  0  0  0
   -1.1572    2.0664   -3.8287 H   0  0  0  0  0  0  0  0  0  0  0  0
   -0.7802    1.8540    1.8055 N   0  0  0  0  0  0  0  0  0  0  0  0
   -0.9763    2.3167    3.1854 C   0  0  2  0  0  0  0  0  0  0  0  0
   -2.4725    2.5434    3.4864 C   0  0  0  0  0  0  0  0  0  0  0  0
   -3.2940    2.5065    2.5754 O   0  0  0  0  0  0  0  0  0  0  0  0
   -0.1758    3.6082    3.3759 C   0  0  0  0  0  0  0  0  0  0  0  0
   -1.5505    2.0265    1.1606 H   0  0  0  0  0  0  0  0  0  0  0  0
   -0.6148    1.5604    3.8905 H   0  0  0  0  0  0  0  0  0  0  0  0
   -0.5291    4.3833    2.6884 H   0  0  0  0  0  0  0  0  0  0  0  0
   -0.2769    3.9771    4.4007 H   0  0  0  0  0  0  0  0  0  0  0  0
    0.8856    3.4257    3.1794 H   0  0  0  0  0  0  0  0  0  0  0  0
   -2.9036    2.7658    4.7809 N   0  0  0  0  0  0  0  0  0  0  0  0
   -4.3018    2.9793    5.1330 C   0  0  0  0  0  0  0  0  0  0  0  0
   -2.2022    2.7818    5.5159 H   0  0  0  0  0  0  0  0  0  0  0  0
   -4.6846    3.8832    4.6477 H   0  0  0  0  0  0  0  0  0  0  0  0
   -4.9112    2.1252    4.8193 H   0  0  0  0  0  0  0  0  0  0  0  0
   -4.4055    3.0971    6.2159 H   0  0  0  0  0  0  0  0  0  0  0  0
  1  2  2  0  0  0  0
  1  3  1  0  0  0  0
  1  7  1  0  0  0  0
  3  4  1  0  0  0  0
  3  5  1  0  0  0  0
  3  6  1  0  0  0  0
  7  8  1  0  0  0  0
  7 12  1  0  0  0  0
  8  9  1  0  0  0  0
  8 11  1  0  0  0  0
  8 13  1  0  0  0  0
  9 10  2  0  0  0  0
  9 17  1  0  0  0  0
 11 14  1  0  0  0  0
 11 15  1  0  0  0  0
 11 16  1  0  0  0  0
 17 18  1  0  0  0  0
 17 25  1  0  0  0  0
 18 19  1  0  0  0  0
 18 21  1  0  0  0  0
 18 26  1  0  0  0  0
 19 20  2  0  0  0  0
 19 36  1  0  0  0  0
 21 22  1  0  0  0  0
 21 23  1  0  0  0  0
 21 27  1  0  0  0  0
 22 24  1  0  0  0  0
 22 28  1  0  0  0  0
 22 29  1  0  0  0  0
 23 30  1  0  0  0  0
 23 31  1  0  0  0  0
 23 32  1  0  0  0  0
 24 33  1  0  0  0  0
 24 34  1  0  0  0  0
 24 35  1  0  0  0  0
 36 37  1  0  0  0  0
 36 41  1  0  0  0  0
 37 38  1  0  0  0  0
 37 40  1  0  0  0  0
 37 42  1  0  0  0  0
 38 39  2  0  0  0  0
 38 46  1  0  0  0  0
 40 43  1  0  0  0  0
 40 44  1  0  0  0  0
 40 45  1  0  0  0  0
 46 47  1  0  0  0  0
 46 48  1  0  0  0  0
 47 49  1  0  0  0  0
 47 50  1  0  0  0  0
 47 51  1  0  0  0  0
M  END
$$$$

  -OEChem-05262216503D

 51 50  0     1  0  0  0  0  0999 V2000
    0.4286   -5.6101    0.8371 C   0  0  0  0  0  0  0  0  0  0  0  0
   -0.3584   -5.8222   -0.0724 O   0  0  0  0  0  0  0  0  0  0  0  0
    1.5822   -6.5663    1.0775 C   0  0  0  0  0  0  0  0  0  0  0  0
    1.6128   -7.3265    0.2918 H   0  0  0  0  0  0  0  0  0  0  0  0
    2.5284   -6.0196    1.0737 H   0  0  0  0  0  0  0  0  0  0  0  0
    1.4600   -7.0625    2.0433 H   0  0  0  0  0  0  0  0  0  0  0  0
    0.2815   -4.5023    1.6460 N   0  0  0  0  0  0  0  0  0  0  0  0
   -0.6241   -3.3848    1.3432 C   0  0  2  0  0  0  0  0  0  0  0  0
    0.1553   -2.0836    1.0656 C   0  0  0  0  0  0  0  0  0  0  0  0
    1.2776   -1.9370    1.5285 O   0  0  0  0  0  0  0  0  0  0  0  0
   -1.5571   -3.1978    2.5418 C   0  0  0  0  0  0  0  0  0  0  0  0
    1.0828   -4.2772    2.2337 H   0  0  0  0  0  0  0  0  0  0  0  0
   -1.2304   -3.6045    0.4586 H   0  0  0  0  0  0  0  0  0  0  0  0
   -0.9816   -2.9573    3.4418 H   0  0  0  0  0  0  0  0  0  0  0  0
   -2.2650   -2.3843    2.3546 H   0  0  0  0  0  0  0  0  0  0  0  0
   -2.1253   -4.1152    2.7254 H   0  0  0  0  0  0  0  0  0  0  0  0
   -0.4040   -1.0953    0.2757 N   0  0  0  0  0  0  0  0  0  0  0  0
    0.0877    0.2935    0.1917 C   0  0  2  0  0  0  0  0  0  0  0  0
    0.0295    0.9794    1.5835 C   0  0  0  0  0  0  0  0  0  0  0  0
    1.0254    1.0835    2.2851 O   0  0  0  0  0  0  0  0  0  0  0  0
   -0.6798    1.0470   -0.9328 C   0  0  2  0  0  0  0  0  0  0  0  0
   -0.3914    0.3802   -2.3031 C   0  0  0  0  0  0  0  0  0  0  0  0
   -0.2385    2.5269   -1.0080 C   0  0  0  0  0  0  0  0  0  0  0  0
   -1.3078    0.8843   -3.4228 C   0  0  0  0  0  0  0  0  0  0  0  0
   -1.3373   -1.2854   -0.0766 H   0  0  0  0  0  0  0  0  0  0  0  0
    1.1470    0.2673   -0.0891 H   0  0  0  0  0  0  0  0  0  0  0  0
   -1.7541    1.0038   -0.7246 H   0  0  0  0  0  0  0  0  0  0  0  0
    0.6539    0.5462   -2.5850 H   0  0  0  0  0  0  0  0  0  0  0  0
   -0.5380   -0.7014   -2.2293 H   0  0  0  0  0  0  0  0  0  0  0  0
    0.8325    2.5958   -1.2249 H   0  0  0  0  0  0  0  0  0  0  0  0
   -0.7851    3.0592   -1.7903 H   0  0  0  0  0  0  0  0  0  0  0  0
   -0.4299    3.0582   -0.0731 H   0  0  0  0  0  0  0  0  0  0  0  0
   -2.3581    0.7885   -3.1315 H   0  0  0  0  0  0  0  0  0  0  0  0
   -1.1452    0.2915   -4.3279 H   0  0  0  0  0  0  0  0  0  0  0  0
   -1.1029    1.9302   -3.6655 H   0  0  0  0  0  0  0  0  0  0  0  0
   -1.1078    1.6613    1.9784 N   0  0  0  0  0  0  0  0  0  0  0  0
   -1.2941    2.2807    3.2955 C   0  0  2  0  0  0  0  0  0  0  0  0
   -2.7521    2.1376    3.7790 C   0  0  0  0  0  0  0  0  0  0  0  0
   -3.6191    1.7330    3.0102 O   0  0  0  0  0  0  0  0  0  0  0  0
   -0.8962    3.7558    3.1902 C   0  0  0  0  0  0  0  0  0  0  0  0
   -1.9525    1.5009    1.4324 H   0  0  0  0  0  0  0  0  0  0  0  0
   -0.6560    1.7853    4.0353 H   0  0  0  0  0  0  0  0  0  0  0  0
   -1.5315    4.2728    2.4639 H   0  0  0  0  0  0  0  0  0  0  0  0
   -0.9973    4.2531    4.1593 H   0  0  0  0  0  0  0  0  0  0  0  0
    0.1459    3.8427    2.8662 H   0  0  0  0  0  0  0  0  0  0  0  0
   -3.0911    2.4519    5.0821 N   0  0  0  0  0  0  0  0  0  0  0  0
   -4.4467    2.3471    5.6078 C   0  0  0  0  0  0  0  0  0  0  0  0
   -2.3473    2.7672    5.6984 H   0  0  0  0  0  0  0  0  0  0  0  0
   -5.1289    2.9870    5.0384 H   0  0  0  0  0  0  0  0  0  0  0  0
   -4.8019    1.3129    5.5506 H   0  0  0  0  0  0  0  0  0  0  0  0
   -4.4713    2.6633    6.6552 H   0  0  0  0  0  0  0  0  0  0  0  0
  1  2  2  0  0  0  0
  1  3  1  0  0  0  0
  1  7  1  0  0  0  0
  3  4  1  0  0  0  0
  3  5  1  0  0  0  0
  3  6  1  0  0  0  0
  7  8  1  0  0  0  0
  7 12  1  0  0  0  0
  8  9  1  0  0  0  0
  8 11  1  0  0  0  0
  8 13  1  0  0  0  0
  9 10  2  0  0  0  0
  9 17  1  0  0  0  0
 11 14  1  0  0  0  0
 11 15  1  0  0  0  0
 11 16  1  0  0  0  0
 17 18  1  0  0  0  0
 17 25  1  0  0  0  0
 18 19  1  0  0  0  0
 18 21  1  0  0  0  0
 18 26  1  0  0  0  0
 19 20  2  0  0  0  0
 19 36  1  0  0  0  0
 21 22  1  0  0  0  0
 21 23  1  0  0  0  0
 21 27  1  0  0  0  0
 22 24  1  0  0  0  0
 22 28  1  0  0  0  0
 22 29  1  0  0  0  0
 23 30  1  0  0  0  0
 23 31  1  0  0  0  0
 23 32  1  0  0  0  0
 24 33  1  0  0  0  0
 24 34  1  0  0  0  0
 24 35  1  0  0  0  0
 36 37  1  0  0  0  0
 36 41  1  0  0  0  0
 37 38  1  0  0  0  0
 37 40  1  0  0  0  0
 37 42  1  0  0  0  0
 38 39  2  0  0  0  0
 38 46  1  0  0  0  0
 40 43  1  0  0  0  0
 40 44  1  0  0  0  0
 40 45  1  0  0  0  0
 46 47  1  0  0  0  0
 46 48  1  0  0  0  0
 47 49  1  0  0  0  0
 47 50  1  0  0  0  0
 47 51  1  0  0  0  0
M  END
$$$$

  -OEChem-05262216503D

 51 50  0     1  0  0  0  0  0999 V2000
    0.6435   -5.4724    0.6316 C   0  0  0  0  0  0  0  0  0  0  0  0
    0.0688   -5.5527   -0.4430 O   0  0  0  0  0  0  0  0  0  0  0  0
    1.8537   -6.3432    0.9109 C   0  0  0  0  0  0  0  0  0  0  0  0
    2.0170   -7.0395    0.0837 H   0  0  0  0  0  0  0  0  0  0  0  0
    2.7431   -5.7186    1.0268 H   0  0  0  0  0  0  0  0  0  0  0  0
    1.6970   -6.9162    1.8279 H   0  0  0  0  0  0  0  0  0  0  0  0
    0.2150   -4.5768    1.5896 N   0  0  0  0  0  0  0  0  0  0  0  0
   -0.7399   -3.4945    1.3118 C   0  0  2  0  0  0  0  0  0  0  0  0
   -0.0293   -2.1286    1.2310 C   0  0  0  0  0  0  0  0  0  0  0  0
    0.9687   -1.9224    1.9072 O   0  0  0  0  0  0  0  0  0  0  0  0
   -1.7869   -3.4877    2.4281 C   0  0  0  0  0  0  0  0  0  0  0  0
    0.8687   -4.4092    2.3523 H   0  0  0  0  0  0  0  0  0  0  0  0
   -1.2529   -3.6654    0.3599 H   0  0  0  0  0  0  0  0  0  0  0  0
   -1.3139   -3.3054    3.3986 H   0  0  0  0  0  0  0  0  0  0  0  0
   -2.5299   -2.7034    2.2520 H   0  0  0  0  0  0  0  0  0  0  0  0
   -2.3039   -4.4516    2.4675 H   0  0  0  0  0  0  0  0  0  0  0  0
   -0.5184   -1.1374    0.3999 N   0  0  0  0  0  0  0  0  0  0  0  0
    0.0174    0.2336    0.3060 C   0  0  2  0  0  0  0  0  0  0  0  0
   -0.0687    0.9644    1.6685 C   0  0  0  0  0  0  0  0  0  0  0  0
    0.9414    1.3469    2.2440 O   0  0  0  0  0  0  0  0  0  0  0  0
   -0.7054    0.9915   -0.8429 C   0  0  2  0  0  0  0  0  0  0  0  0
   -0.4152    0.3028   -2.2010 C   0  0  0  0  0  0  0  0  0  0  0  0
   -0.2426    2.4633   -0.9066 C   0  0  0  0  0  0  0  0  0  0  0  0
   -1.2991    0.8234   -3.3391 C   0  0  0  0  0  0  0  0  0  0  0  0
   -1.3250   -1.3775   -0.1686 H   0  0  0  0  0  0  0  0  0  0  0  0
    1.0826    0.1720    0.0552 H   0  0  0  0  0  0  0  0  0  0  0  0
   -1.7841    0.9720   -0.6535 H   0  0  0  0  0  0  0  0  0  0  0  0
    0.6384    0.4389   -2.4671 H   0  0  0  0  0  0  0  0  0  0  0  0
   -0.5916   -0.7737   -2.1202 H   0  0  0  0  0  0  0  0  0  0  0  0
    0.8374    2.5181   -1.0775 H   0  0  0  0  0  0  0  0  0  0  0  0
   -0.7496    3.0001   -1.7120 H   0  0  0  0  0  0  0  0  0  0  0  0
   -0.4708    2.9939    0.0218 H   0  0  0  0  0  0  0  0  0  0  0  0
   -2.3562    0.7633   -3.0625 H   0  0  0  0  0  0  0  0  0  0  0  0
   -1.1424    0.2174   -4.2367 H   0  0  0  0  0  0  0  0  0  0  0  0
   -1.0573    1.8604   -3.5868 H   0  0  0  0  0  0  0  0  0  0  0  0
   -1.2935    1.4213    2.1190 N   0  0  0  0  0  0  0  0  0  0  0  0
   -1.5081    2.0440    3.4295 C   0  0  2  0  0  0  0  0  0  0  0  0
   -2.8422    1.5806    4.0517 C   0  0  0  0  0  0  0  0  0  0  0  0
   -3.6404    0.9293    3.3838 O   0  0  0  0  0  0  0  0  0  0  0  0
   -1.4851    3.5634    3.2445 C   0  0  0  0  0  0  0  0  0  0  0  0
   -2.1151    1.0073    1.6819 H   0  0  0  0  0  0  0  0  0  0  0  0
   -0.7081    1.7517    4.1184 H   0  0  0  0  0  0  0  0  0  0  0  0
   -2.2889    3.8797    2.5723 H   0  0  0  0  0  0  0  0  0  0  0  0
   -1.6124    4.0708    4.2052 H   0  0  0  0  0  0  0  0  0  0  0  0
   -0.5277    3.8749    2.8144 H   0  0  0  0  0  0  0  0  0  0  0  0
   -3.1466    1.8817    5.3664 N   0  0  0  0  0  0  0  0  0  0  0  0
   -4.3864    1.4729    6.0157 C   0  0  0  0  0  0  0  0  0  0  0  0
   -2.4567    2.4004    5.9026 H   0  0  0  0  0  0  0  0  0  0  0  0
   -5.2500    1.9048    5.4989 H   0  0  0  0  0  0  0  0  0  0  0  0
   -4.4806    0.3818    6.0095 H   0  0  0  0  0  0  0  0  0  0  0  0
   -4.4005    1.8147    7.0551 H   0  0  0  0  0  0  0  0  0  0  0  0
  1  2  2  0  0  0  0
  1  3  1  0  0  0  0
  1  7  1  0  0  0  0
  3  4  1  0  0  0  0
  3  5  1  0  0  0  0
  3  6  1  0  0  0  0
  7  8  1  0  0  0  0
  7 12  1  0  0  0  0
  8  9  1  0  0  0  0
  8 11  1  0  0  0  0
  8 13  1  0  0  0  0
  9 10  2  0  0  0  0
  9 17  1  0  0  0  0
 11 14  1  0  0  0  0
 11 15  1  0  0  0  0
 11 16  1  0  0  0  0
 17 18  1  0  0  0  0
 17 25  1  0  0  0  0
 18 19  1  0  0  0  0
 18 21  1  0  0  0  0
 18 26  1  0  0  0  0
 19 20  2  0  0  0  0
 19 36  1  0  0  0  0
 21 22  1  0  0  0  0
 21 23  1  0  0  0  0
 21 27  1  0  0  0  0
 22 24  1  0  0  0  0
 22 28  1  0  0  0  0
 22 29  1  0  0  0  0
 23 30  1  0  0  0  0
 23 31  1  0  0  0  0
 23 32  1  0  0  0  0
 24 33  1  0  0  0  0
 24 34  1  0  0  0  0
 24 35  1  0  0  0  0
 36 37  1  0  0  0  0
 36 41  1  0  0  0  0
 37 38  1  0  0  0  0
 37 40  1  0  0  0  0
 37 42  1  0  0  0  0
 38 39  2  0  0  0  0
 38 46  1  0  0  0  0
 40 43  1  0  0  0  0
 40 44  1  0  0  0  0
 40 45  1  0  0  0  0
 46 47  1  0  0  0  0
 46 48  1  0  0  0  0
 47 49  1  0  0  0  0
 47 50  1  0  0  0  0
 47 51  1  0  0  0  0
M  END
$$$$

  -OEChem-05262216503D

 51 50  0     1  0  0  0  0  0999 V2000
   -0.8097   -4.0721   -0.0160 C   0  0  0  0  0  0  0  0  0  0  0  0
   -1.4832   -3.1631   -0.4797 O   0  0  0  0  0  0  0  0  0  0  0  0
   -0.1864   -5.1075   -0.9327 C   0  0  0  0  0  0  0  0  0  0  0  0
   -0.5007   -4.9355   -1.9661 H   0  0  0  0  0  0  0  0  0  0  0  0
    0.9035   -5.0451   -0.8815 H   0  0  0  0  0  0  0  0  0  0  0  0
   -0.5019   -6.1101   -0.6334 H   0  0  0  0  0  0  0  0  0  0  0  0
   -0.5756   -4.1183    1.3433 N   0  0  0  0  0  0  0  0  0  0  0  0
   -1.1771   -3.1944    2.3194 C   0  0  2  0  0  0  0  0  0  0  0  0
   -0.5007   -1.8012    2.3275 C   0  0  0  0  0  0  0  0  0  0  0  0
    0.0213   -1.3448    3.3348 O   0  0  0  0  0  0  0  0  0  0  0  0
   -1.1361   -3.8825    3.6897 C   0  0  0  0  0  0  0  0  0  0  0  0
    0.0304   -4.8583    1.6874 H   0  0  0  0  0  0  0  0  0  0  0  0
   -2.2301   -3.0344    2.0632 H   0  0  0  0  0  0  0  0  0  0  0  0
   -0.1020   -4.0565    4.0040 H   0  0  0  0  0  0  0  0  0  0  0  0
   -1.6243   -3.2554    4.4427 H   0  0  0  0  0  0  0  0  0  0  0  0
   -1.6589   -4.8431    3.6516 H   0  0  0  0  0  0  0  0  0  0  0  0
   -0.5064   -1.0472    1.1691 N   0  0  0  0  0  0  0  0  0  0  0  0
    0.0603    0.3048    1.0225 C   0  0  2  0  0  0  0  0  0  0  0  0
   -0.6303    1.2903    1.9900 C   0  0  0  0  0  0  0  0  0  0  0  0
    0.0128    1.9012    2.8338 O   0  0  0  0  0  0  0  0  0  0  0  0
   -0.0506    0.7470   -0.4619 C   0  0  2  0  0  0  0  0  0  0  0  0
    0.7902   -0.1909   -1.3647 C   0  0  0  0  0  0  0  0  0  0  0  0
    0.4223    2.2059   -0.6331 C   0  0  0  0  0  0  0  0  0  0  0  0
    0.5208    0.0138   -2.8588 C   0  0  0  0  0  0  0  0  0  0  0  0
   -0.9022   -1.5102    0.3456 H   0  0  0  0  0  0  0  0  0  0  0  0
    1.1204    0.2761    1.2989 H   0  0  0  0  0  0  0  0  0  0  0  0
   -1.1006    0.6840   -0.7679 H   0  0  0  0  0  0  0  0  0  0  0  0
    1.8556   -0.0389   -1.1627 H   0  0  0  0  0  0  0  0  0  0  0  0
    0.5617   -1.2356   -1.1354 H   0  0  0  0  0  0  0  0  0  0  0  0
    1.4636    2.3112   -0.3114 H   0  0  0  0  0  0  0  0  0  0  0  0
    0.3463    2.5249   -1.6753 H   0  0  0  0  0  0  0  0  0  0  0  0
   -0.1925    2.8930   -0.0442 H   0  0  0  0  0  0  0  0  0  0  0  0
   -0.5491   -0.0777   -3.0706 H   0  0  0  0  0  0  0  0  0  0  0  0
    1.0530   -0.7465   -3.4385 H   0  0  0  0  0  0  0  0  0  0  0  0
    0.8649    0.9956   -3.1950 H   0  0  0  0  0  0  0  0  0  0  0  0
   -1.9941    1.5036    1.9036 N   0  0  0  0  0  0  0  0  0  0  0  0
   -2.7582    2.2170    2.9377 C   0  0  2  0  0  0  0  0  0  0  0  0
   -3.0044    1.3295    4.1835 C   0  0  0  0  0  0  0  0  0  0  0  0
   -4.1377    1.0873    4.5832 O   0  0  0  0  0  0  0  0  0  0  0  0
   -4.0553    2.7146    2.2882 C   0  0  0  0  0  0  0  0  0  0  0  0
   -2.4997    0.8693    1.2925 H   0  0  0  0  0  0  0  0  0  0  0  0
   -2.1968    3.0952    3.2744 H   0  0  0  0  0  0  0  0  0  0  0  0
   -4.6590    1.8714    1.9375 H   0  0  0  0  0  0  0  0  0  0  0  0
   -4.6462    3.2866    3.0110 H   0  0  0  0  0  0  0  0  0  0  0  0
   -3.8301    3.3641    1.4369 H   0  0  0  0  0  0  0  0  0  0  0  0
   -1.9306    0.7473    4.8284 N   0  0  0  0  0  0  0  0  0  0  0  0
   -2.0569   -0.2086    5.9183 C   0  0  0  0  0  0  0  0  0  0  0  0
   -1.0089    0.8933    4.4066 H   0  0  0  0  0  0  0  0  0  0  0  0
   -2.5382    0.2587    6.7834 H   0  0  0  0  0  0  0  0  0  0  0  0
   -2.6528   -1.0712    5.6040 H   0  0  0  0  0  0  0  0  0  0  0  0
   -1.0673   -0.5641    6.2211 H   0  0  0  0  0  0  0  0  0  0  0  0
  1  2  2  0  0  0  0
  1  3  1  0  0  0  0
  1  7  1  0  0  0  0
  3  4  1  0  0  0  0
  3  5  1  0  0  0  0
  3  6  1  0  0  0  0
  7  8  1  0  0  0  0
  7 12  1  0  0  0  0
  8  9  1  0  0  0  0
  8 11  1  0  0  0  0
  8 13  1  0  0  0  0
  9 10  2  0  0  0  0
  9 17  1  0  0  0  0
 11 14  1  0  0  0  0
 11 15  1  0  0  0  0
 11 16  1  0  0  0  0
 17 18  1  0  0  0  0
 17 25  1  0  0  0  0
 18 19  1  0  0  0  0
 18 21  1  0  0  0  0
 18 26  1  0  0  0  0
 19 20  2  0  0  0  0
 19 36  1  0  0  0  0
 21 22  1  0  0  0  0
 21 23  1  0  0  0  0
 21 27  1  0  0  0  0
 22 24  1  0  0  0  0
 22 28  1  0  0  0  0
 22 29  1  0  0  0  0
 23 30  1  0  0  0  0
 23 31  1  0  0  0  0
 23 32  1  0  0  0  0
 24 33  1  0  0  0  0
 24 34  1  0  0  0  0
 24 35  1  0  0  0  0
 36 37  1  0  0  0  0
 36 41  1  0  0  0  0
 37 38  1  0  0  0  0
 37 40  1  0  0  0  0
 37 42  1  0  0  0  0
 38 39  2  0  0  0  0
 38 46  1  0  0  0  0
 40 43  1  0  0  0  0
 40 44  1  0  0  0  0
 40 45  1  0  0  0  0
 46 47  1  0  0  0  0
 46 48  1  0  0  0  0
 47 49  1  0  0  0  0
 47 50  1  0  0  0  0
 47 51  1  0  0  0  0
M  END
$$$$

  -OEChem-05262216503D

 51 50  0     1  0  0  0  0  0999 V2000
    0.7221   -5.1185    0.5799 C   0  0  0  0  0  0  0  0  0  0  0  0
    0.3754   -4.9236   -0.5754 O   0  0  0  0  0  0  0  0  0  0  0  0
    1.9297   -5.9876    0.8768 C   0  0  0  0  0  0  0  0  0  0  0  0
    2.2757   -6.4773   -0.0377 H   0  0  0  0  0  0  0  0  0  0  0  0
    2.7406   -5.3738    1.2773 H   0  0  0  0  0  0  0  0  0  0  0  0
    1.6677   -6.7556    1.6087 H   0  0  0  0  0  0  0  0  0  0  0  0
    0.0357   -4.5235    1.6183 N   0  0  0  0  0  0  0  0  0  0  0  0
   -0.9561   -3.4627    1.3997 C   0  0  2  0  0  0  0  0  0  0  0  0
   -0.2976   -2.0680    1.3865 C   0  0  0  0  0  0  0  0  0  0  0  0
    0.5593   -1.7915    2.2160 O   0  0  0  0  0  0  0  0  0  0  0  0
   -2.0014   -3.5539    2.5133 C   0  0  0  0  0  0  0  0  0  0  0  0
    0.5053   -4.5325    2.5204 H   0  0  0  0  0  0  0  0  0  0  0  0
   -1.4673   -3.6148    0.4433 H   0  0  0  0  0  0  0  0  0  0  0  0
   -1.5456   -3.3545    3.4887 H   0  0  0  0  0  0  0  0  0  0  0  0
   -2.7969   -2.8210    2.3478 H   0  0  0  0  0  0  0  0  0  0  0  0
   -2.4507   -4.5514    2.5337 H   0  0  0  0  0  0  0  0  0  0  0  0
   -0.6882   -1.1158    0.4611 N   0  0  0  0  0  0  0  0  0  0  0  0
   -0.1079    0.2389    0.3581 C   0  0  2  0  0  0  0  0  0  0  0  0
   -0.3029    1.0347    1.6697 C   0  0  0  0  0  0  0  0  0  0  0  0
    0.5841    1.7566    2.1088 O   0  0  0  0  0  0  0  0  0  0  0  0
   -0.7324    0.9571   -0.8714 C   0  0  2  0  0  0  0  0  0  0  0  0
   -0.3625    0.2050   -2.1763 C   0  0  0  0  0  0  0  0  0  0  0  0
   -0.2616    2.4239   -0.9593 C   0  0  0  0  0  0  0  0  0  0  0  0
   -1.1526    0.6888   -3.3967 C   0  0  0  0  0  0  0  0  0  0  0  0
   -1.3072   -1.4316   -0.2802 H   0  0  0  0  0  0  0  0  0  0  0  0
    0.9731    0.1506    0.2005 H   0  0  0  0  0  0  0  0  0  0  0  0
   -1.8219    0.9547   -0.7562 H   0  0  0  0  0  0  0  0  0  0  0  0
    0.7094    0.3170   -2.3727 H   0  0  0  0  0  0  0  0  0  0  0  0
   -0.5614   -0.8647   -2.0650 H   0  0  0  0  0  0  0  0  0  0  0  0
    0.8297    2.4731   -1.0289 H   0  0  0  0  0  0  0  0  0  0  0  0
   -0.6885    2.9248   -1.8314 H   0  0  0  0  0  0  0  0  0  0  0  0
   -0.5784    2.9929   -0.0803 H   0  0  0  0  0  0  0  0  0  0  0  0
   -2.2279    0.6543   -3.1963 H   0  0  0  0  0  0  0  0  0  0  0  0
   -0.9407    0.0430   -4.2543 H   0  0  0  0  0  0  0  0  0  0  0  0
   -0.8767    1.7108   -3.6700 H   0  0  0  0  0  0  0  0  0  0  0  0
   -1.5326    1.0091    2.2984 N   0  0  0  0  0  0  0  0  0  0  0  0
   -1.7154    1.3825    3.7045 C   0  0  2  0  0  0  0  0  0  0  0  0
   -2.4853    0.2818    4.4639 C   0  0  0  0  0  0  0  0  0  0  0  0
   -3.1246   -0.5639    3.8439 O   0  0  0  0  0  0  0  0  0  0  0  0
   -2.4693    2.7124    3.7517 C   0  0  0  0  0  0  0  0  0  0  0  0
   -2.1614    0.2829    1.9596 H   0  0  0  0  0  0  0  0  0  0  0  0
   -0.7445    1.5015    4.1977 H   0  0  0  0  0  0  0  0  0  0  0  0
   -3.4502    2.6145    3.2756 H   0  0  0  0  0  0  0  0  0  0  0  0
   -2.6137    3.0351    4.7870 H   0  0  0  0  0  0  0  0  0  0  0  0
   -1.9002    3.4847    3.2244 H   0  0  0  0  0  0  0  0  0  0  0  0
   -2.4671    0.2390    5.8455 N   0  0  0  0  0  0  0  0  0  0  0  0
   -3.1450   -0.7902    6.6240 C   0  0  0  0  0  0  0  0  0  0  0  0
   -1.8850    0.9181    6.3277 H   0  0  0  0  0  0  0  0  0  0  0  0
   -4.2184   -0.7895    6.4077 H   0  0  0  0  0  0  0  0  0  0  0  0
   -2.7388   -1.7795    6.3886 H   0  0  0  0  0  0  0  0  0  0  0  0
   -3.0094   -0.6057    7.6940 H   0  0  0  0  0  0  0  0  0  0  0  0
  1  2  2  0  0  0  0
  1  3  1  0  0  0  0
  1  7  1  0  0  0  0
  3  4  1  0  0  0  0
  3  5  1  0  0  0  0
  3  6  1  0  0  0  0
  7  8  1  0  0  0  0
  7 12  1  0  0  0  0
  8  9  1  0  0  0  0
  8 11  1  0  0  0  0
  8 13  1  0  0  0  0
  9 10  2  0  0  0  0
  9 17  1  0  0  0  0
 11 14  1  0  0  0  0
 11 15  1  0  0  0  0
 11 16  1  0  0  0  0
 17 18  1  0  0  0  0
 17 25  1  0  0  0  0
 18 19  1  0  0  0  0
 18 21  1  0  0  0  0
 18 26  1  0  0  0  0
 19 20  2  0  0  0  0
 19 36  1  0  0  0  0
 21 22  1  0  0  0  0
 21 23  1  0  0  0  0
 21 27  1  0  0  0  0
 22 24  1  0  0  0  0
 22 28  1  0  0  0  0
 22 29  1  0  0  0  0
 23 30  1  0  0  0  0
 23 31  1  0  0  0  0
 23 32  1  0  0  0  0
 24 33  1  0  0  0  0
 24 34  1  0  0  0  0
 24 35  1  0  0  0  0
 36 37  1  0  0  0  0
 36 41  1  0  0  0  0
 37 38  1  0  0  0  0
 37 40  1  0  0  0  0
 37 42  1  0  0  0  0
 38 39  2  0  0  0  0
 38 46  1  0  0  0  0
 40 43  1  0  0  0  0
 40 44  1  0  0  0  0
 40 45  1  0  0  0  0
 46 47  1  0  0  0  0
 46 48  1  0  0  0  0
 47 49  1  0  0  0  0
 47 50  1  0  0  0  0
 47 51  1  0  0  0  0
M  END
$$$$

  -OEChem-05262216503D

 51 50  0     1  0  0  0  0  0999 V2000
   -0.8556   -4.1346   -0.1259 C   0  0  0  0  0  0  0  0  0  0  0  0
   -1.5868   -3.2163   -0.4670 O   0  0  0  0  0  0  0  0  0  0  0  0
   -0.3771   -5.1464   -1.1495 C   0  0  0  0  0  0  0  0  0  0  0  0
   -0.8775   -4.9787   -2.1076 H   0  0  0  0  0  0  0  0  0  0  0  0
    0.7018   -5.0501   -1.2941 H   0  0  0  0  0  0  0  0  0  0  0  0
   -0.6037   -6.1596   -0.8086 H   0  0  0  0  0  0  0  0  0  0  0  0
   -0.4161   -4.2098    1.1804 N   0  0  0  0  0  0  0  0  0  0  0  0
   -0.8554   -3.3084    2.2597 C   0  0  2  0  0  0  0  0  0  0  0  0
   -0.1849   -1.9135    2.1932 C   0  0  0  0  0  0  0  0  0  0  0  0
    0.4444   -1.4462    3.1342 O   0  0  0  0  0  0  0  0  0  0  0  0
   -0.5980   -4.0269    3.5896 C   0  0  0  0  0  0  0  0  0  0  0  0
    0.2283   -4.9601    1.4129 H   0  0  0  0  0  0  0  0  0  0  0  0
   -1.9358   -3.1446    2.1790 H   0  0  0  0  0  0  0  0  0  0  0  0
    0.4741   -4.1853    3.7435 H   0  0  0  0  0  0  0  0  0  0  0  0
   -0.9826   -3.4277    4.4206 H   0  0  0  0  0  0  0  0  0  0  0  0
   -1.1042   -4.9966    3.6054 H   0  0  0  0  0  0  0  0  0  0  0  0
   -0.3067   -1.1640    1.0367 N   0  0  0  0  0  0  0  0  0  0  0  0
    0.1010    0.2469    0.8951 C   0  0  2  0  0  0  0  0  0  0  0  0
   -0.6736    1.1484    1.8864 C   0  0  0  0  0  0  0  0  0  0  0  0
   -0.1394    2.1253    2.3981 O   0  0  0  0  0  0  0  0  0  0  0  0
   -0.1196    0.6645   -0.5860 C   0  0  2  0  0  0  0  0  0  0  0  0
    0.7882   -0.1756   -1.5217 C   0  0  0  0  0  0  0  0  0  0  0  0
    0.1677    2.1660   -0.7909 C   0  0  0  0  0  0  0  0  0  0  0  0
    0.4390   -0.0141   -3.0048 C   0  0  0  0  0  0  0  0  0  0  0  0
   -0.8375   -1.6048    0.2798 H   0  0  0  0  0  0  0  0  0  0  0  0
    1.1650    0.3414    1.1377 H   0  0  0  0  0  0  0  0  0  0  0  0
   -1.1676    0.4771   -0.8457 H   0  0  0  0  0  0  0  0  0  0  0  0
    1.8364    0.0984   -1.3626 H   0  0  0  0  0  0  0  0  0  0  0  0
    0.6906   -1.2384   -1.2822 H   0  0  0  0  0  0  0  0  0  0  0  0
    1.1943    2.4040   -0.4941 H   0  0  0  0  0  0  0  0  0  0  0  0
    0.0313    2.4561   -1.8353 H   0  0  0  0  0  0  0  0  0  0  0  0
   -0.5159    2.7813   -0.1990 H   0  0  0  0  0  0  0  0  0  0  0  0
   -0.6254   -0.2069   -3.1704 H   0  0  0  0  0  0  0  0  0  0  0  0
    1.0159   -0.7276   -3.6011 H   0  0  0  0  0  0  0  0  0  0  0  0
    0.6760    0.9915   -3.3621 H   0  0  0  0  0  0  0  0  0  0  0  0
   -1.9535    0.7887    2.2682 N   0  0  0  0  0  0  0  0  0  0  0  0
   -2.5059    1.1306    3.5817 C   0  0  2  0  0  0  0  0  0  0  0  0
   -2.4594   -0.1066    4.5010 C   0  0  0  0  0  0  0  0  0  0  0  0
   -2.8516   -1.1927    4.0808 O   0  0  0  0  0  0  0  0  0  0  0  0
   -3.9431    1.6170    3.3876 C   0  0  0  0  0  0  0  0  0  0  0  0
   -2.2455   -0.1146    1.9012 H   0  0  0  0  0  0  0  0  0  0  0  0
   -1.9302    1.9330    4.0539 H   0  0  0  0  0  0  0  0  0  0  0  0
   -4.5536    0.8369    2.9217 H   0  0  0  0  0  0  0  0  0  0  0  0
   -4.3896    1.8783    4.3518 H   0  0  0  0  0  0  0  0  0  0  0  0
   -3.9593    2.5028    2.7451 H   0  0  0  0  0  0  0  0  0  0  0  0
   -1.9655   -0.0031    5.7876 N   0  0  0  0  0  0  0  0  0  0  0  0
   -1.7107   -1.1676    6.6255 C   0  0  0  0  0  0  0  0  0  0  0  0
   -1.4882    0.8647    6.0161 H   0  0  0  0  0  0  0  0  0  0  0  0
   -2.6059   -1.7938    6.7004 H   0  0  0  0  0  0  0  0  0  0  0  0
   -0.8941   -1.7648    6.2073 H   0  0  0  0  0  0  0  0  0  0  0  0
   -1.4286   -0.8517    7.6342 H   0  0  0  0  0  0  0  0  0  0  0  0
  1  2  2  0  0  0  0
  1  3  1  0  0  0  0
  1  7  1  0  0  0  0
  3  4  1  0  0  0  0
  3  5  1  0  0  0  0
  3  6  1  0  0  0  0
  7  8  1  0  0  0  0
  7 12  1  0  0  0  0
  8  9  1  0  0  0  0
  8 11  1  0  0  0  0
  8 13  1  0  0  0  0
  9 10  2  0  0  0  0
  9 17  1  0  0  0  0
 11 14  1  0  0  0  0
 11 15  1  0  0  0  0
 11 16  1  0  0  0  0
 17 18  1  0  0  0  0
 17 25  1  0  0  0  0
 18 19  1  0  0  0  0
 18 21  1  0  0  0  0
 18 26  1  0  0  0  0
 19 20  2  0  0  0  0
 19 36  1  0  0  0  0
 21 22  1  0  0  0  0
 21 23  1  0  0  0  0
 21 27  1  0  0  0  0
 22 24  1  0  0  0  0
 22 28  1  0  0  0  0
 22 29  1  0  0  0  0
 23 30  1  0  0  0  0
 23 31  1  0  0  0  0
 23 32  1  0  0  0  0
 24 33  1  0  0  0  0
 24 34  1  0  0  0  0
 24 35  1  0  0  0  0
 36 37  1  0  0  0  0
 36 41  1  0  0  0  0
 37 38  1  0  0  0  0
 37 40  1  0  0  0  0
 37 42  1  0  0  0  0
 38 39  2  0  0  0  0
 38 46  1  0  0  0  0
 40 43  1  0  0  0  0
 40 44  1  0  0  0  0
 40 45  1  0  0  0  0
 46 47  1  0  0  0  0
 46 48  1  0  0  0  0
 47 49  1  0  0  0  0
 47 50  1  0  0  0  0
 47 51  1  0  0  0  0
M  END
$$$$

  -OEChem-05262216503D

 51 50  0     1  0  0  0  0  0999 V2000
    0.8928   -5.0377    0.2436 C   0  0  0  0  0  0  0  0  0  0  0  0
    0.5630   -4.6695   -0.8740 O   0  0  0  0  0  0  0  0  0  0  0  0
    2.1479   -5.8678    0.4359 C   0  0  0  0  0  0  0  0  0  0  0  0
    2.6052   -6.0899   -0.5325 H   0  0  0  0  0  0  0  0  0  0  0  0
    2.8679   -5.3187    1.0482 H   0  0  0  0  0  0  0  0  0  0  0  0
    1.9004   -6.8092    0.9327 H   0  0  0  0  0  0  0  0  0  0  0  0
    0.1396   -4.6718    1.3398 N   0  0  0  0  0  0  0  0  0  0  0  0
   -0.9246   -3.6646    1.2552 C   0  0  2  0  0  0  0  0  0  0  0  0
   -0.3587   -2.2343    1.3684 C   0  0  0  0  0  0  0  0  0  0  0  0
    0.4459   -1.9579    2.2491 O   0  0  0  0  0  0  0  0  0  0  0  0
   -1.9318   -3.9416    2.3728 C   0  0  0  0  0  0  0  0  0  0  0  0
    0.5808   -4.8031    2.2464 H   0  0  0  0  0  0  0  0  0  0  0  0
   -1.4501   -3.7549    0.2987 H   0  0  0  0  0  0  0  0  0  0  0  0
   -1.4538   -3.8522    3.3538 H   0  0  0  0  0  0  0  0  0  0  0  0
   -2.7589   -3.2264    2.3265 H   0  0  0  0  0  0  0  0  0  0  0  0
   -2.3423   -4.9510    2.2746 H   0  0  0  0  0  0  0  0  0  0  0  0
   -0.7537   -1.2529    0.4753 N   0  0  0  0  0  0  0  0  0  0  0  0
   -0.2466    0.1374    0.4691 C   0  0  2  0  0  0  0  0  0  0  0  0
   -0.5323    0.8968    1.7949 C   0  0  0  0  0  0  0  0  0  0  0  0
    0.1271    1.8820    2.1064 O   0  0  0  0  0  0  0  0  0  0  0  0
   -0.8500    0.8343   -0.7897 C   0  0  2  0  0  0  0  0  0  0  0  0
   -0.3450    0.1359   -2.0824 C   0  0  0  0  0  0  0  0  0  0  0  0
   -0.5000    2.3358   -0.8453 C   0  0  0  0  0  0  0  0  0  0  0  0
   -1.0889    0.5783   -3.3473 C   0  0  0  0  0  0  0  0  0  0  0  0
   -1.3041   -1.5629   -0.3209 H   0  0  0  0  0  0  0  0  0  0  0  0
    0.8438    0.1131    0.3640 H   0  0  0  0  0  0  0  0  0  0  0  0
   -1.9409    0.7451   -0.7417 H   0  0  0  0  0  0  0  0  0  0  0  0
    0.7258    0.3288   -2.2073 H   0  0  0  0  0  0  0  0  0  0  0  0
   -0.4699   -0.9473   -2.0028 H   0  0  0  0  0  0  0  0  0  0  0  0
    0.5846    2.4791   -0.8034 H   0  0  0  0  0  0  0  0  0  0  0  0
   -0.8761    2.7990   -1.7601 H   0  0  0  0  0  0  0  0  0  0  0  0
   -0.9563    2.8751   -0.0103 H   0  0  0  0  0  0  0  0  0  0  0  0
   -2.1706    0.4851   -3.2102 H   0  0  0  0  0  0  0  0  0  0  0  0
   -0.7924   -0.0538   -4.1902 H   0  0  0  0  0  0  0  0  0  0  0  0
   -0.8526    1.6137   -3.6066 H   0  0  0  0  0  0  0  0  0  0  0  0
   -1.4514    0.4044    2.7023 N   0  0  0  0  0  0  0  0  0  0  0  0
   -1.4422    0.7339    4.1305 C   0  0  2  0  0  0  0  0  0  0  0  0
   -1.7872   -0.5095    4.9761 C   0  0  0  0  0  0  0  0  0  0  0  0
   -2.4312   -1.4326    4.4852 O   0  0  0  0  0  0  0  0  0  0  0  0
   -2.4490    1.8584    4.3834 C   0  0  0  0  0  0  0  0  0  0  0  0
   -1.8185   -0.5174    2.4742 H   0  0  0  0  0  0  0  0  0  0  0  0
   -0.4428    1.0673    4.4299 H   0  0  0  0  0  0  0  0  0  0  0  0
   -3.4567    1.5414    4.0965 H   0  0  0  0  0  0  0  0  0  0  0  0
   -2.4572    2.1334    5.4423 H   0  0  0  0  0  0  0  0  0  0  0  0
   -2.1819    2.7443    3.7982 H   0  0  0  0  0  0  0  0  0  0  0  0
   -1.3782   -0.5955    6.2940 N   0  0  0  0  0  0  0  0  0  0  0  0
   -1.6047   -1.7712    7.1254 C   0  0  0  0  0  0  0  0  0  0  0  0
   -0.7907    0.1529    6.6502 H   0  0  0  0  0  0  0  0  0  0  0  0
   -2.6745   -1.9962    7.1891 H   0  0  0  0  0  0  0  0  0  0  0  0
   -1.0860   -2.6411    6.7089 H   0  0  0  0  0  0  0  0  0  0  0  0
   -1.2291   -1.5953    8.1380 H   0  0  0  0  0  0  0  0  0  0  0  0
  1  2  2  0  0  0  0
  1  3  1  0  0  0  0
  1  7  1  0  0  0  0
  3  4  1  0  0  0  0
  3  5  1  0  0  0  0
  3  6  1  0  0  0  0
  7  8  1  0  0  0  0
  7 12  1  0  0  0  0
  8  9  1  0  0  0  0
  8 11  1  0  0  0  0
  8 13  1  0  0  0  0
  9 10  2  0  0  0  0
  9 17  1  0  0  0  0
 11 14  1  0  0  0  0
 11 15  1  0  0  0  0
 11 16  1  0  0  0  0
 17 18  1  0  0  0  0
 17 25  1  0  0  0  0
 18 19  1  0  0  0  0
 18 21  1  0  0  0  0
 18 26  1  0  0  0  0
 19 20  2  0  0  0  0
 19 36  1  0  0  0  0
 21 22  1  0  0  0  0
 21 23  1  0  0  0  0
 21 27  1  0  0  0  0
 22 24  1  0  0  0  0
 22 28  1  0  0  0  0
 22 29  1  0  0  0  0
 23 30  1  0  0  0  0
 23 31  1  0  0  0  0
 23 32  1  0  0  0  0
 24 33  1  0  0  0  0
 24 34  1  0  0  0  0
 24 35  1  0  0  0  0
 36 37  1  0  0  0  0
 36 41  1  0  0  0  0
 37 38  1  0  0  0  0
 37 40  1  0  0  0  0
 37 42  1  0  0  0  0
 38 39  2  0  0  0  0
 38 46  1  0  0  0  0
 40 43  1  0  0  0  0
 40 44  1  0  0  0  0
 40 45  1  0  0  0  0
 46 47  1  0  0  0  0
 46 48  1  0  0  0  0
 47 49  1  0  0  0  0
 47 50  1  0  0  0  0
 47 51  1  0  0  0  0
M  END
$$$$

  -OEChem-05262216503D

 51 50  0     1  0  0  0  0  0999 V2000
    0.9985   -5.4894    0.2707 C   0  0  0  0  0  0  0  0  0  0  0  0
    0.6872   -5.4257   -0.9086 O   0  0  0  0  0  0  0  0  0  0  0  0
    2.1859   -6.3328    0.6971 C   0  0  0  0  0  0  0  0  0  0  0  0
    2.5966   -6.8680   -0.1637 H   0  0  0  0  0  0  0  0  0  0  0  0
    2.9651   -5.6931    1.1190 H   0  0  0  0  0  0  0  0  0  0  0  0
    1.8758   -7.0622    1.4494 H   0  0  0  0  0  0  0  0  0  0  0  0
    0.2867   -4.7832    1.2185 N   0  0  0  0  0  0  0  0  0  0  0  0
   -0.6977   -3.7456    0.8804 C   0  0  2  0  0  0  0  0  0  0  0  0
   -0.1122   -2.3265    1.0330 C   0  0  0  0  0  0  0  0  0  0  0  0
    0.7899   -2.1099    1.8311 O   0  0  0  0  0  0  0  0  0  0  0  0
   -1.9025   -3.9315    1.8056 C   0  0  0  0  0  0  0  0  0  0  0  0
    0.7259   -4.7086    2.1339 H   0  0  0  0  0  0  0  0  0  0  0  0
   -1.0383   -3.8606   -0.1538 H   0  0  0  0  0  0  0  0  0  0  0  0
   -1.6009   -3.8379    2.8539 H   0  0  0  0  0  0  0  0  0  0  0  0
   -2.6684   -3.1784    1.5968 H   0  0  0  0  0  0  0  0  0  0  0  0
   -2.3429   -4.9226    1.6587 H   0  0  0  0  0  0  0  0  0  0  0  0
   -0.6307   -1.2685    0.3074 N   0  0  0  0  0  0  0  0  0  0  0  0
   -0.2201    0.1498    0.4320 C   0  0  2  0  0  0  0  0  0  0  0  0
   -0.4416    0.7478    1.8566 C   0  0  0  0  0  0  0  0  0  0  0  0
   -0.0448    1.8721    2.1394 O   0  0  0  0  0  0  0  0  0  0  0  0
   -0.9669    0.9067   -0.7179 C   0  0  2  0  0  0  0  0  0  0  0  0
   -0.4959    0.3744   -2.1014 C   0  0  0  0  0  0  0  0  0  0  0  0
   -0.7553    2.4346   -0.6681 C   0  0  0  0  0  0  0  0  0  0  0  0
   -1.3554    0.8596   -3.2754 C   0  0  0  0  0  0  0  0  0  0  0  0
   -1.3641   -1.4916   -0.3592 H   0  0  0  0  0  0  0  0  0  0  0  0
    0.8574    0.2205    0.2481 H   0  0  0  0  0  0  0  0  0  0  0  0
   -2.0407    0.7164   -0.6127 H   0  0  0  0  0  0  0  0  0  0  0  0
    0.5450    0.6702   -2.2706 H   0  0  0  0  0  0  0  0  0  0  0  0
   -0.5265   -0.7181   -2.1188 H   0  0  0  0  0  0  0  0  0  0  0  0
    0.3120    2.6730   -0.6178 H   0  0  0  0  0  0  0  0  0  0  0  0
   -1.1787    2.9306   -1.5437 H   0  0  0  0  0  0  0  0  0  0  0  0
   -1.2554    2.8673    0.2025 H   0  0  0  0  0  0  0  0  0  0  0  0
   -2.4162    0.6807   -3.0750 H   0  0  0  0  0  0  0  0  0  0  0  0
   -1.0798    0.3154   -4.1839 H   0  0  0  0  0  0  0  0  0  0  0  0
   -1.2068    1.9252   -3.4681 H   0  0  0  0  0  0  0  0  0  0  0  0
   -0.9785   -0.0091    2.8818 N   0  0  0  0  0  0  0  0  0  0  0  0
   -1.0023    0.3881    4.2939 C   0  0  2  0  0  0  0  0  0  0  0  0
   -1.0506   -0.8450    5.2203 C   0  0  0  0  0  0  0  0  0  0  0  0
   -1.4157   -1.9342    4.7880 O   0  0  0  0  0  0  0  0  0  0  0  0
   -2.2233    1.2811    4.5367 C   0  0  0  0  0  0  0  0  0  0  0  0
   -1.0069   -1.0126    2.7058 H   0  0  0  0  0  0  0  0  0  0  0  0
   -0.0901    0.9451    4.5320 H   0  0  0  0  0  0  0  0  0  0  0  0
   -3.1450    0.7394    4.3016 H   0  0  0  0  0  0  0  0  0  0  0  0
   -2.2629    1.6011    5.5821 H   0  0  0  0  0  0  0  0  0  0  0  0
   -2.1732    2.1740    3.9056 H   0  0  0  0  0  0  0  0  0  0  0  0
   -0.6964   -0.7313    6.5523 N   0  0  0  0  0  0  0  0  0  0  0  0
   -0.6963   -1.8566    7.4786 C   0  0  0  0  0  0  0  0  0  0  0  0
   -0.3682    0.1740    6.8762 H   0  0  0  0  0  0  0  0  0  0  0  0
   -1.6981   -2.2934    7.5498 H   0  0  0  0  0  0  0  0  0  0  0  0
    0.0026   -2.6297    7.1420 H   0  0  0  0  0  0  0  0  0  0  0  0
   -0.3922   -1.5263    8.4767 H   0  0  0  0  0  0  0  0  0  0  0  0
  1  2  2  0  0  0  0
  1  3  1  0  0  0  0
  1  7  1  0  0  0  0
  3  4  1  0  0  0  0
  3  5  1  0  0  0  0
  3  6  1  0  0  0  0
  7  8  1  0  0  0  0
  7 12  1  0  0  0  0
  8  9  1  0  0  0  0
  8 11  1  0  0  0  0
  8 13  1  0  0  0  0
  9 10  2  0  0  0  0
  9 17  1  0  0  0  0
 11 14  1  0  0  0  0
 11 15  1  0  0  0  0
 11 16  1  0  0  0  0
 17 18  1  0  0  0  0
 17 25  1  0  0  0  0
 18 19  1  0  0  0  0
 18 21  1  0  0  0  0
 18 26  1  0  0  0  0
 19 20  2  0  0  0  0
 19 36  1  0  0  0  0
 21 22  1  0  0  0  0
 21 23  1  0  0  0  0
 21 27  1  0  0  0  0
 22 24  1  0  0  0  0
 22 28  1  0  0  0  0
 22 29  1  0  0  0  0
 23 30  1  0  0  0  0
 23 31  1  0  0  0  0
 23 32  1  0  0  0  0
 24 33  1  0  0  0  0
 24 34  1  0  0  0  0
 24 35  1  0  0  0  0
 36 37  1  0  0  0  0
 36 41  1  0  0  0  0
 37 38  1  0  0  0  0
 37 40  1  0  0  0  0
 37 42  1  0  0  0  0
 38 39  2  0  0  0  0
 38 46  1  0  0  0  0
 40 43  1  0  0  0  0
 40 44  1  0  0  0  0
 40 45  1  0  0  0  0
 46 47  1  0  0  0  0
 46 48  1  0  0  0  0
 47 49  1  0  0  0  0
 47 50  1  0  0  0  0
 47 51  1  0  0  0  0
M  END
$$$$

  -OEChem-05262216503D

 51 50  0     1  0  0  0  0  0999 V2000
    0.9403   -5.6070    0.3267 C   0  0  0  0  0  0  0  0  0  0  0  0
    0.6081   -5.6374   -0.8483 O   0  0  0  0  0  0  0  0  0  0  0  0
    2.1119   -6.4435    0.8056 C   0  0  0  0  0  0  0  0  0  0  0  0
    2.5402   -7.0062   -0.0287 H   0  0  0  0  0  0  0  0  0  0  0  0
    2.8849   -5.7954    1.2263 H   0  0  0  0  0  0  0  0  0  0  0  0
    1.7796   -7.1477    1.5722 H   0  0  0  0  0  0  0  0  0  0  0  0
    0.2682   -4.8002    1.2212 N   0  0  0  0  0  0  0  0  0  0  0  0
   -0.6666   -3.7446    0.8073 C   0  0  2  0  0  0  0  0  0  0  0  0
   -0.0109   -2.3488    0.8505 C   0  0  0  0  0  0  0  0  0  0  0  0
    0.9959   -2.1536    1.5196 O   0  0  0  0  0  0  0  0  0  0  0  0
   -1.8680   -3.7985    1.7544 C   0  0  0  0  0  0  0  0  0  0  0  0
    0.7272   -4.6674    2.1206 H   0  0  0  0  0  0  0  0  0  0  0  0
   -1.0212   -3.9191   -0.2140 H   0  0  0  0  0  0  0  0  0  0  0  0
   -1.5534   -3.6071    2.7855 H   0  0  0  0  0  0  0  0  0  0  0  0
   -2.6138   -3.0484    1.4745 H   0  0  0  0  0  0  0  0  0  0  0  0
   -2.3384   -4.7858    1.7126 H   0  0  0  0  0  0  0  0  0  0  0  0
   -0.5979   -1.2699    0.2143 N   0  0  0  0  0  0  0  0  0  0  0  0
   -0.2250    0.1542    0.3957 C   0  0  2  0  0  0  0  0  0  0  0  0
   -0.3939    0.6564    1.8712 C   0  0  0  0  0  0  0  0  0  0  0  0
   -0.3249    1.8418    2.1679 O   0  0  0  0  0  0  0  0  0  0  0  0
   -1.0194    0.9343   -0.7106 C   0  0  2  0  0  0  0  0  0  0  0  0
   -0.5518    0.4655   -2.1202 C   0  0  0  0  0  0  0  0  0  0  0  0
   -0.8488    2.4665   -0.6189 C   0  0  0  0  0  0  0  0  0  0  0  0
   -1.4400    0.9608   -3.2686 C   0  0  0  0  0  0  0  0  0  0  0  0
   -1.4509   -1.4659   -0.3015 H   0  0  0  0  0  0  0  0  0  0  0  0
    0.8432    0.2626    0.1786 H   0  0  0  0  0  0  0  0  0  0  0  0
   -2.0852    0.7093   -0.5959 H   0  0  0  0  0  0  0  0  0  0  0  0
    0.4770    0.7990   -2.2927 H   0  0  0  0  0  0  0  0  0  0  0  0
   -0.5488   -0.6264   -2.1765 H   0  0  0  0  0  0  0  0  0  0  0  0
    0.2083    2.7294   -0.5119 H   0  0  0  0  0  0  0  0  0  0  0  0
   -1.2412    2.9752   -1.5007 H   0  0  0  0  0  0  0  0  0  0  0  0
   -1.4030    2.8673    0.2337 H   0  0  0  0  0  0  0  0  0  0  0  0
   -2.4932    0.7505   -3.0582 H   0  0  0  0  0  0  0  0  0  0  0  0
   -1.1647    0.4468   -4.1948 H   0  0  0  0  0  0  0  0  0  0  0  0
   -1.3204    2.0341   -3.4372 H   0  0  0  0  0  0  0  0  0  0  0  0
   -0.5514   -0.2273    2.9241 N   0  0  0  0  0  0  0  0  0  0  0  0
   -0.5904    0.1380    4.3452 C   0  0  2  0  0  0  0  0  0  0  0  0
   -0.2376   -1.0653    5.2458 C   0  0  0  0  0  0  0  0  0  0  0  0
   -0.3254   -2.2129    4.8197 O   0  0  0  0  0  0  0  0  0  0  0  0
   -1.9932    0.6515    4.6895 C   0  0  0  0  0  0  0  0  0  0  0  0
   -0.2613   -1.1867    2.7217 H   0  0  0  0  0  0  0  0  0  0  0  0
    0.1456    0.9253    4.5386 H   0  0  0  0  0  0  0  0  0  0  0  0
   -2.7406   -0.1239    4.4931 H   0  0  0  0  0  0  0  0  0  0  0  0
   -2.0509    0.9329    5.7452 H   0  0  0  0  0  0  0  0  0  0  0  0
   -2.2381    1.5317    4.0871 H   0  0  0  0  0  0  0  0  0  0  0  0
    0.1594   -0.8613    6.5548 N   0  0  0  0  0  0  0  0  0  0  0  0
    0.5058   -1.9455    7.4658 C   0  0  0  0  0  0  0  0  0  0  0  0
    0.2464    0.0988    6.8753 H   0  0  0  0  0  0  0  0  0  0  0  0
   -0.3374   -2.6349    7.5802 H   0  0  0  0  0  0  0  0  0  0  0  0
    1.3685   -2.5034    7.0868 H   0  0  0  0  0  0  0  0  0  0  0  0
    0.7589   -1.5442    8.4520 H   0  0  0  0  0  0  0  0  0  0  0  0
  1  2  2  0  0  0  0
  1  3  1  0  0  0  0
  1  7  1  0  0  0  0
  3  4  1  0  0  0  0
  3  5  1  0  0  0  0
  3  6  1  0  0  0  0
  7  8  1  0  0  0  0
  7 12  1  0  0  0  0
  8  9  1  0  0  0  0
  8 11  1  0  0  0  0
  8 13  1  0  0  0  0
  9 10  2  0  0  0  0
  9 17  1  0  0  0  0
 11 14  1  0  0  0  0
 11 15  1  0  0  0  0
 11 16  1  0  0  0  0
 17 18  1  0  0  0  0
 17 25  1  0  0  0  0
 18 19  1  0  0  0  0
 18 21  1  0  0  0  0
 18 26  1  0  0  0  0
 19 20  2  0  0  0  0
 19 36  1  0  0  0  0
 21 22  1  0  0  0  0
 21 23  1  0  0  0  0
 21 27  1  0  0  0  0
 22 24  1  0  0  0  0
 22 28  1  0  0  0  0
 22 29  1  0  0  0  0
 23 30  1  0  0  0  0
 23 31  1  0  0  0  0
 23 32  1  0  0  0  0
 24 33  1  0  0  0  0
 24 34  1  0  0  0  0
 24 35  1  0  0  0  0
 36 37  1  0  0  0  0
 36 41  1  0  0  0  0
 37 38  1  0  0  0  0
 37 40  1  0  0  0  0
 37 42  1  0  0  0  0
 38 39  2  0  0  0  0
 38 46  1  0  0  0  0
 40 43  1  0  0  0  0
 40 44  1  0  0  0  0
 40 45  1  0  0  0  0
 46 47  1  0  0  0  0
 46 48  1  0  0  0  0
 47 49  1  0  0  0  0
 47 50  1  0  0  0  0
 47 51  1  0  0  0  0
M  END
$$$$

  -OEChem-05262216503D

 51 50  0     1  0  0  0  0  0999 V2000
    0.9137   -5.4496    1.6485 C   0  0  0  0  0  0  0  0  0  0  0  0
    0.8460   -6.1189    0.6283 O   0  0  0  0  0  0  0  0  0  0  0  0
    1.8306   -5.8745    2.7798 C   0  0  0  0  0  0  0  0  0  0  0  0
    2.3665   -6.7886    2.5105 H   0  0  0  0  0  0  0  0  0  0  0  0
    2.5579   -5.0843    2.9827 H   0  0  0  0  0  0  0  0  0  0  0  0
    1.2457   -6.0587    3.6839 H   0  0  0  0  0  0  0  0  0  0  0  0
    0.1570   -4.3069    1.7901 N   0  0  0  0  0  0  0  0  0  0  0  0
   -0.5101   -3.6229    0.6703 C   0  0  2  0  0  0  0  0  0  0  0  0
    0.1521   -2.2583    0.3638 C   0  0  0  0  0  0  0  0  0  0  0  0
    1.3132   -2.0436    0.6911 O   0  0  0  0  0  0  0  0  0  0  0  0
   -1.9872   -3.4836    1.0577 C   0  0  0  0  0  0  0  0  0  0  0  0
    0.3849   -3.7452    2.6172 H   0  0  0  0  0  0  0  0  0  0  0  0
   -0.4479   -4.2215   -0.2445 H   0  0  0  0  0  0  0  0  0  0  0  0
   -2.0955   -2.8318    1.9310 H   0  0  0  0  0  0  0  0  0  0  0  0
   -2.5689   -3.0676    0.2301 H   0  0  0  0  0  0  0  0  0  0  0  0
   -2.4039   -4.4654    1.3044 H   0  0  0  0  0  0  0  0  0  0  0  0
   -0.5847   -1.1760   -0.0901 N   0  0  0  0  0  0  0  0  0  0  0  0
   -0.2481    0.2447    0.1857 C   0  0  2  0  0  0  0  0  0  0  0  0
   -0.2427    0.5516    1.7265 C   0  0  0  0  0  0  0  0  0  0  0  0
   -0.6075    1.6161    2.2036 O   0  0  0  0  0  0  0  0  0  0  0  0
   -1.1795    1.1091   -0.7320 C   0  0  2  0  0  0  0  0  0  0  0  0
   -0.8554    0.8010   -2.2237 C   0  0  0  0  0  0  0  0  0  0  0  0
   -0.9977    2.6287   -0.5072 C   0  0  0  0  0  0  0  0  0  0  0  0
   -1.8730    1.3784   -3.2157 C   0  0  0  0  0  0  0  0  0  0  0  0
   -1.5627   -1.3753   -0.2774 H   0  0  0  0  0  0  0  0  0  0  0  0
    0.7815    0.4249   -0.1416 H   0  0  0  0  0  0  0  0  0  0  0  0
   -2.2231    0.8503   -0.5246 H   0  0  0  0  0  0  0  0  0  0  0  0
    0.1424    1.1801   -2.4688 H   0  0  0  0  0  0  0  0  0  0  0  0
   -0.8380   -0.2798   -2.3894 H   0  0  0  0  0  0  0  0  0  0  0  0
    0.0647    2.8814   -0.4330 H   0  0  0  0  0  0  0  0  0  0  0  0
   -1.4315    3.2181   -1.3162 H   0  0  0  0  0  0  0  0  0  0  0  0
   -1.5033    2.9534    0.4050 H   0  0  0  0  0  0  0  0  0  0  0  0
   -2.8927    1.1238   -2.9114 H   0  0  0  0  0  0  0  0  0  0  0  0
   -1.6953    0.9591   -4.2107 H   0  0  0  0  0  0  0  0  0  0  0  0
   -1.7884    2.4650   -3.2942 H   0  0  0  0  0  0  0  0  0  0  0  0
    0.0884   -0.4352    2.6362 N   0  0  0  0  0  0  0  0  0  0  0  0
    0.0244   -0.3659    4.0995 C   0  0  2  0  0  0  0  0  0  0  0  0
    0.7433   -1.5813    4.7239 C   0  0  0  0  0  0  0  0  0  0  0  0
    0.7854   -2.6530    4.1226 O   0  0  0  0  0  0  0  0  0  0  0  0
   -1.4399   -0.3597    4.5580 C   0  0  0  0  0  0  0  0  0  0  0  0
    0.5891   -1.2350    2.2384 H   0  0  0  0  0  0  0  0  0  0  0  0
    0.5211    0.5478    4.4410 H   0  0  0  0  0  0  0  0  0  0  0  0
   -1.9568   -1.2541    4.1957 H   0  0  0  0  0  0  0  0  0  0  0  0
   -1.4978   -0.3429    5.6505 H   0  0  0  0  0  0  0  0  0  0  0  0
   -1.9621    0.5225    4.1759 H   0  0  0  0  0  0  0  0  0  0  0  0
    1.3243   -1.4872    5.9743 N   0  0  0  0  0  0  0  0  0  0  0  0
    2.0477   -2.5843    6.6059 C   0  0  0  0  0  0  0  0  0  0  0  0
    1.3029   -0.5822    6.4361 H   0  0  0  0  0  0  0  0  0  0  0  0
    1.3950   -3.4548    6.7296 H   0  0  0  0  0  0  0  0  0  0  0  0
    2.9106   -2.8740    5.9971 H   0  0  0  0  0  0  0  0  0  0  0  0
    2.4073   -2.2812    7.5938 H   0  0  0  0  0  0  0  0  0  0  0  0
  1  2  2  0  0  0  0
  1  3  1  0  0  0  0
  1  7  1  0  0  0  0
  3  4  1  0  0  0  0
  3  5  1  0  0  0  0
  3  6  1  0  0  0  0
  7  8  1  0  0  0  0
  7 12  1  0  0  0  0
  8  9  1  0  0  0  0
  8 11  1  0  0  0  0
  8 13  1  0  0  0  0
  9 10  2  0  0  0  0
  9 17  1  0  0  0  0
 11 14  1  0  0  0  0
 11 15  1  0  0  0  0
 11 16  1  0  0  0  0
 17 18  1  0  0  0  0
 17 25  1  0  0  0  0
 18 19  1  0  0  0  0
 18 21  1  0  0  0  0
 18 26  1  0  0  0  0
 19 20  2  0  0  0  0
 19 36  1  0  0  0  0
 21 22  1  0  0  0  0
 21 23  1  0  0  0  0
 21 27  1  0  0  0  0
 22 24  1  0  0  0  0
 22 28  1  0  0  0  0
 22 29  1  0  0  0  0
 23 30  1  0  0  0  0
 23 31  1  0  0  0  0
 23 32  1  0  0  0  0
 24 33  1  0  0  0  0
 24 34  1  0  0  0  0
 24 35  1  0  0  0  0
 36 37  1  0  0  0  0
 36 41  1  0  0  0  0
 37 38  1  0  0  0  0
 37 40  1  0  0  0  0
 37 42  1  0  0  0  0
 38 39  2  0  0  0  0
 38 46  1  0  0  0  0
 40 43  1  0  0  0  0
 40 44  1  0  0  0  0
 40 45  1  0  0  0  0
 46 47  1  0  0  0  0
 46 48  1  0  0  0  0
 47 49  1  0  0  0  0
 47 50  1  0  0  0  0
 47 51  1  0  0  0  0
M  END
$$$$

  -OEChem-05262216503D

 51 50  0     1  0  0  0  0  0999 V2000
    0.6157   -5.4826    2.0376 C   0  0  0  0  0  0  0  0  0  0  0  0
    0.1030   -6.3105    1.2995 O   0  0  0  0  0  0  0  0  0  0  0  0
    1.4803   -5.9264    3.2017 C   0  0  0  0  0  0  0  0  0  0  0  0
    1.5436   -7.0175    3.2319 H   0  0  0  0  0  0  0  0  0  0  0  0
    2.4872   -5.5151    3.0941 H   0  0  0  0  0  0  0  0  0  0  0  0
    1.0510   -5.5688    4.1407 H   0  0  0  0  0  0  0  0  0  0  0  0
    0.4087   -4.1387    1.8206 N   0  0  0  0  0  0  0  0  0  0  0  0
   -0.2539   -3.5856    0.6293 C   0  0  2  0  0  0  0  0  0  0  0  0
    0.3034   -2.1872    0.2795 C   0  0  0  0  0  0  0  0  0  0  0  0
    1.4883   -1.9356    0.4651 O   0  0  0  0  0  0  0  0  0  0  0  0
   -1.7675   -3.5702    0.8892 C   0  0  0  0  0  0  0  0  0  0  0  0
    0.9626   -3.5045    2.4070 H   0  0  0  0  0  0  0  0  0  0  0  0
   -0.0520   -4.2287   -0.2342 H   0  0  0  0  0  0  0  0  0  0  0  0
   -2.0084   -2.9021    1.7219 H   0  0  0  0  0  0  0  0  0  0  0  0
   -2.3102   -3.2390   -0.0010 H   0  0  0  0  0  0  0  0  0  0  0  0
   -2.1179   -4.5764    1.1411 H   0  0  0  0  0  0  0  0  0  0  0  0
   -0.5163   -1.1413   -0.1133 N   0  0  0  0  0  0  0  0  0  0  0  0
   -0.2293    0.2888    0.1591 C   0  0  2  0  0  0  0  0  0  0  0  0
   -0.1414    0.5578    1.7011 C   0  0  0  0  0  0  0  0  0  0  0  0
   -0.8386    1.3871    2.2677 O   0  0  0  0  0  0  0  0  0  0  0  0
   -1.2485    1.1415   -0.6665 C   0  0  2  0  0  0  0  0  0  0  0  0
   -1.0207    0.8802   -2.1835 C   0  0  0  0  0  0  0  0  0  0  0  0
   -1.0734    2.6606   -0.4236 C   0  0  0  0  0  0  0  0  0  0  0  0
   -2.1255    1.4481   -3.0831 C   0  0  0  0  0  0  0  0  0  0  0  0
   -1.4990   -1.3860   -0.1927 H   0  0  0  0  0  0  0  0  0  0  0  0
    0.7680    0.5212   -0.2305 H   0  0  0  0  0  0  0  0  0  0  0  0
   -2.2674    0.8523   -0.3882 H   0  0  0  0  0  0  0  0  0  0  0  0
   -0.0550    1.2965   -2.4899 H   0  0  0  0  0  0  0  0  0  0  0  0
   -0.9828   -0.1955   -2.3764 H   0  0  0  0  0  0  0  0  0  0  0  0
   -0.0198    2.9434   -0.5112 H   0  0  0  0  0  0  0  0  0  0  0  0
   -1.6477    3.2519   -1.1387 H   0  0  0  0  0  0  0  0  0  0  0  0
   -1.4336    2.9563    0.5631 H   0  0  0  0  0  0  0  0  0  0  0  0
   -3.1106    1.1331   -2.7251 H   0  0  0  0  0  0  0  0  0  0  0  0
   -1.9952    1.0780   -4.1047 H   0  0  0  0  0  0  0  0  0  0  0  0
   -2.0952    2.5398   -3.1196 H   0  0  0  0  0  0  0  0  0  0  0  0
    0.5709   -0.2988    2.5197 N   0  0  0  0  0  0  0  0  0  0  0  0
    0.4824   -0.4183    3.9808 C   0  0  2  0  0  0  0  0  0  0  0  0
    1.5189   -1.4398    4.4926 C   0  0  0  0  0  0  0  0  0  0  0  0
    1.7025   -2.4873    3.8775 O   0  0  0  0  0  0  0  0  0  0  0  0
   -0.9155   -0.8959    4.4030 C   0  0  0  0  0  0  0  0  0  0  0  0
    1.1531   -0.9869    2.0306 H   0  0  0  0  0  0  0  0  0  0  0  0
    0.6891    0.5555    4.4355 H   0  0  0  0  0  0  0  0  0  0  0  0
   -1.1581   -1.8458    3.9162 H   0  0  0  0  0  0  0  0  0  0  0  0
   -0.9556   -1.0409    5.4868 H   0  0  0  0  0  0  0  0  0  0  0  0
   -1.6797   -0.1619    4.1327 H   0  0  0  0  0  0  0  0  0  0  0  0
    2.2195   -1.2088    5.6613 N   0  0  0  0  0  0  0  0  0  0  0  0
    3.2456   -2.1115    6.1693 C   0  0  0  0  0  0  0  0  0  0  0  0
    2.0753   -0.3173    6.1273 H   0  0  0  0  0  0  0  0  0  0  0  0
    2.8254   -3.1054    6.3558 H   0  0  0  0  0  0  0  0  0  0  0  0
    4.0646   -2.2048    5.4482 H   0  0  0  0  0  0  0  0  0  0  0  0
    3.6542   -1.7284    7.1093 H   0  0  0  0  0  0  0  0  0  0  0  0
  1  2  2  0  0  0  0
  1  3  1  0  0  0  0
  1  7  1  0  0  0  0
  3  4  1  0  0  0  0
  3  5  1  0  0  0  0
  3  6  1  0  0  0  0
  7  8  1  0  0  0  0
  7 12  1  0  0  0  0
  8  9  1  0  0  0  0
  8 11  1  0  0  0  0
  8 13  1  0  0  0  0
  9 10  2  0  0  0  0
  9 17  1  0  0  0  0
 11 14  1  0  0  0  0
 11 15  1  0  0  0  0
 11 16  1  0  0  0  0
 17 18  1  0  0  0  0
 17 25  1  0  0  0  0
 18 19  1  0  0  0  0
 18 21  1  0  0  0  0
 18 26  1  0  0  0  0
 19 20  2  0  0  0  0
 19 36  1  0  0  0  0
 21 22  1  0  0  0  0
 21 23  1  0  0  0  0
 21 27  1  0  0  0  0
 22 24  1  0  0  0  0
 22 28  1  0  0  0  0
 22 29  1  0  0  0  0
 23 30  1  0  0  0  0
 23 31  1  0  0  0  0
 23 32  1  0  0  0  0
 24 33  1  0  0  0  0
 24 34  1  0  0  0  0
 24 35  1  0  0  0  0
 36 37  1  0  0  0  0
 36 41  1  0  0  0  0
 37 38  1  0  0  0  0
 37 40  1  0  0  0  0
 37 42  1  0  0  0  0
 38 39  2  0  0  0  0
 38 46  1  0  0  0  0
 40 43  1  0  0  0  0
 40 44  1  0  0  0  0
 40 45  1  0  0  0  0
 46 47  1  0  0  0  0
 46 48  1  0  0  0  0
 47 49  1  0  0  0  0
 47 50  1  0  0  0  0
 47 51  1  0  0  0  0
M  END
$$$$

  -OEChem-05262216503D

 51 50  0     1  0  0  0  0  0999 V2000
    0.7340   -5.3310    2.2431 C   0  0  0  0  0  0  0  0  0  0  0  0
    0.1357   -6.2125    1.6447 O   0  0  0  0  0  0  0  0  0  0  0  0
    1.6800   -5.6825    3.3756 C   0  0  0  0  0  0  0  0  0  0  0  0
    1.7302   -6.7670    3.5047 H   0  0  0  0  0  0  0  0  0  0  0  0
    2.6813   -5.3047    3.1535 H   0  0  0  0  0  0  0  0  0  0  0  0
    1.3296   -5.2293    4.3062 H   0  0  0  0  0  0  0  0  0  0  0  0
    0.5521   -4.0106    1.8959 N   0  0  0  0  0  0  0  0  0  0  0  0
   -0.1824   -3.5635    0.7012 C   0  0  2  0  0  0  0  0  0  0  0  0
    0.3340   -2.1871    0.2258 C   0  0  0  0  0  0  0  0  0  0  0  0
    1.5266   -1.9194    0.3227 O   0  0  0  0  0  0  0  0  0  0  0  0
   -1.6852   -3.5472    1.0209 C   0  0  0  0  0  0  0  0  0  0  0  0
    1.2025   -3.3494    2.3353 H   0  0  0  0  0  0  0  0  0  0  0  0
   -0.0063   -4.2685   -0.1186 H   0  0  0  0  0  0  0  0  0  0  0  0
   -1.9060   -2.8162    1.8049 H   0  0  0  0  0  0  0  0  0  0  0  0
   -2.2663   -3.2964    0.1284 H   0  0  0  0  0  0  0  0  0  0  0  0
   -2.0109   -4.5332    1.3673 H   0  0  0  0  0  0  0  0  0  0  0  0
   -0.5140   -1.1661   -0.1751 N   0  0  0  0  0  0  0  0  0  0  0  0
   -0.2196    0.2604    0.0962 C   0  0  2  0  0  0  0  0  0  0  0  0
   -0.1224    0.4923    1.6391 C   0  0  0  0  0  0  0  0  0  0  0  0
   -0.9825    1.1098    2.2523 O   0  0  0  0  0  0  0  0  0  0  0  0
   -1.2559    1.1405   -0.6693 C   0  0  2  0  0  0  0  0  0  0  0  0
   -1.1005    0.9133   -2.1985 C   0  0  0  0  0  0  0  0  0  0  0  0
   -1.0341    2.6489   -0.4023 C   0  0  0  0  0  0  0  0  0  0  0  0
   -2.2394    1.5216   -3.0247 C   0  0  0  0  0  0  0  0  0  0  0  0
   -1.4985   -1.4172   -0.1724 H   0  0  0  0  0  0  0  0  0  0  0  0
    0.7684    0.5018   -0.3109 H   0  0  0  0  0  0  0  0  0  0  0  0
   -2.2659    0.8635   -0.3481 H   0  0  0  0  0  0  0  0  0  0  0  0
   -0.1444    1.3231   -2.5409 H   0  0  0  0  0  0  0  0  0  0  0  0
   -1.0877   -0.1587   -2.4158 H   0  0  0  0  0  0  0  0  0  0  0  0
   -0.0219    2.9441   -0.6956 H   0  0  0  0  0  0  0  0  0  0  0  0
   -1.7483    3.2559   -0.9631 H   0  0  0  0  0  0  0  0  0  0  0  0
   -1.1734    2.9066    0.6486 H   0  0  0  0  0  0  0  0  0  0  0  0
   -3.2098    1.1936   -2.6398 H   0  0  0  0  0  0  0  0  0  0  0  0
   -2.1539    1.1982   -4.0666 H   0  0  0  0  0  0  0  0  0  0  0  0
   -2.2042    2.6142   -3.0098 H   0  0  0  0  0  0  0  0  0  0  0  0
    0.8241   -0.1876    2.3839 N   0  0  0  0  0  0  0  0  0  0  0  0
    0.8137   -0.4020    3.8394 C   0  0  2  0  0  0  0  0  0  0  0  0
    2.0195   -1.2743    4.2433 C   0  0  0  0  0  0  0  0  0  0  0  0
    2.2363   -2.3253    3.6463 O   0  0  0  0  0  0  0  0  0  0  0  0
   -0.4637   -1.1246    4.3021 C   0  0  0  0  0  0  0  0  0  0  0  0
    1.4404   -0.7975    1.8342 H   0  0  0  0  0  0  0  0  0  0  0  0
    0.8855    0.5655    4.3455 H   0  0  0  0  0  0  0  0  0  0  0  0
   -0.5962   -2.0609    3.7522 H   0  0  0  0  0  0  0  0  0  0  0  0
   -0.4009   -1.3573    5.3694 H   0  0  0  0  0  0  0  0  0  0  0  0
   -1.3494   -0.5030    4.1478 H   0  0  0  0  0  0  0  0  0  0  0  0
    2.8373   -0.9124    5.2969 N   0  0  0  0  0  0  0  0  0  0  0  0
    4.0146   -1.6770    5.6909 C   0  0  0  0  0  0  0  0  0  0  0  0
    2.6604   -0.0178    5.7448 H   0  0  0  0  0  0  0  0  0  0  0  0
    3.7318   -2.6926    5.9868 H   0  0  0  0  0  0  0  0  0  0  0  0
    4.7272   -1.7374    4.8615 H   0  0  0  0  0  0  0  0  0  0  0  0
    4.5115   -1.1962    6.5391 H   0  0  0  0  0  0  0  0  0  0  0  0
  1  2  2  0  0  0  0
  1  3  1  0  0  0  0
  1  7  1  0  0  0  0
  3  4  1  0  0  0  0
  3  5  1  0  0  0  0
  3  6  1  0  0  0  0
  7  8  1  0  0  0  0
  7 12  1  0  0  0  0
  8  9  1  0  0  0  0
  8 11  1  0  0  0  0
  8 13  1  0  0  0  0
  9 10  2  0  0  0  0
  9 17  1  0  0  0  0
 11 14  1  0  0  0  0
 11 15  1  0  0  0  0
 11 16  1  0  0  0  0
 17 18  1  0  0  0  0
 17 25  1  0  0  0  0
 18 19  1  0  0  0  0
 18 21  1  0  0  0  0
 18 26  1  0  0  0  0
 19 20  2  0  0  0  0
 19 36  1  0  0  0  0
 21 22  1  0  0  0  0
 21 23  1  0  0  0  0
 21 27  1  0  0  0  0
 22 24  1  0  0  0  0
 22 28  1  0  0  0  0
 22 29  1  0  0  0  0
 23 30  1  0  0  0  0
 23 31  1  0  0  0  0
 23 32  1  0  0  0  0
 24 33  1  0  0  0  0
 24 34  1  0  0  0  0
 24 35  1  0  0  0  0
 36 37  1  0  0  0  0
 36 41  1  0  0  0  0
 37 38  1  0  0  0  0
 37 40  1  0  0  0  0
 37 42  1  0  0  0  0
 38 39  2  0  0  0  0
 38 46  1  0  0  0  0
 40 43  1  0  0  0  0
 40 44  1  0  0  0  0
 40 45  1  0  0  0  0
 46 47  1  0  0  0  0
 46 48  1  0  0  0  0
 47 49  1  0  0  0  0
 47 50  1  0  0  0  0
 47 51  1  0  0  0  0
M  END
$$$$

  -OEChem-05262216503D

 51 50  0     1  0  0  0  0  0999 V2000
    0.4078   -6.0996    0.8056 C   0  0  0  0  0  0  0  0  0  0  0  0
   -0.6207   -6.5102    0.2914 O   0  0  0  0  0  0  0  0  0  0  0  0
    1.5433   -7.0585    1.1107 C   0  0  0  0  0  0  0  0  0  0  0  0
    1.2786   -8.0703    0.7906 H   0  0  0  0  0  0  0  0  0  0  0  0
    2.4477   -6.7471    0.5822 H   0  0  0  0  0  0  0  0  0  0  0  0
    1.7430   -7.0700    2.1850 H   0  0  0  0  0  0  0  0  0  0  0  0
    0.5395   -4.7607    1.1070 N   0  0  0  0  0  0  0  0  0  0  0  0
   -0.4382   -3.7288    0.7376 C   0  0  2  0  0  0  0  0  0  0  0  0
    0.2289   -2.3508    0.5502 C   0  0  0  0  0  0  0  0  0  0  0  0
    1.4099   -2.1890    0.8408 O   0  0  0  0  0  0  0  0  0  0  0  0
   -1.5081   -3.6589    1.8330 C   0  0  0  0  0  0  0  0  0  0  0  0
    1.4557   -4.4377    1.4176 H   0  0  0  0  0  0  0  0  0  0  0  0
   -0.9102   -3.9949   -0.2143 H   0  0  0  0  0  0  0  0  0  0  0  0
   -1.0569   -3.3822    2.7912 H   0  0  0  0  0  0  0  0  0  0  0  0
   -2.2724   -2.9179    1.5806 H   0  0  0  0  0  0  0  0  0  0  0  0
   -1.9987   -4.6308    1.9471 H   0  0  0  0  0  0  0  0  0  0  0  0
   -0.4906   -1.2825    0.0456 N   0  0  0  0  0  0  0  0  0  0  0  0
   -0.0910    0.1282    0.2149 C   0  0  2  0  0  0  0  0  0  0  0  0
   -0.0279    0.4896    1.7261 C   0  0  0  0  0  0  0  0  0  0  0  0
   -0.9896    0.9973    2.2925 O   0  0  0  0  0  0  0  0  0  0  0  0
   -1.0353    1.0297   -0.6338 C   0  0  2  0  0  0  0  0  0  0  0  0
   -0.8788    0.6881   -2.1392 C   0  0  0  0  0  0  0  0  0  0  0  0
   -0.7037    2.5270   -0.4382 C   0  0  0  0  0  0  0  0  0  0  0  0
   -1.9546    1.3327   -3.0199 C   0  0  0  0  0  0  0  0  0  0  0  0
   -1.4812   -1.4560   -0.1003 H   0  0  0  0  0  0  0  0  0  0  0  0
    0.9238    0.2575   -0.1768 H   0  0  0  0  0  0  0  0  0  0  0  0
   -2.0699    0.8523   -0.3194 H   0  0  0  0  0  0  0  0  0  0  0  0
    0.1115    0.9975   -2.4900 H   0  0  0  0  0  0  0  0  0  0  0  0
   -0.9500   -0.3935   -2.2846 H   0  0  0  0  0  0  0  0  0  0  0  0
    0.3279    2.7346   -0.7395 H   0  0  0  0  0  0  0  0  0  0  0  0
   -1.3716    3.1567   -1.0309 H   0  0  0  0  0  0  0  0  0  0  0  0
   -0.8252    2.8355    0.6027 H   0  0  0  0  0  0  0  0  0  0  0  0
   -2.9535    1.1016   -2.6371 H   0  0  0  0  0  0  0  0  0  0  0  0
   -1.8776    0.9463   -4.0408 H   0  0  0  0  0  0  0  0  0  0  0  0
   -1.8357    2.4186   -3.0628 H   0  0  0  0  0  0  0  0  0  0  0  0
    1.0218    0.0517    2.5095 N   0  0  0  0  0  0  0  0  0  0  0  0
    1.0883    0.1584    3.9725 C   0  0  2  0  0  0  0  0  0  0  0  0
    2.5387    0.1857    4.4988 C   0  0  0  0  0  0  0  0  0  0  0  0
    3.4617   -0.2513    3.8221 O   0  0  0  0  0  0  0  0  0  0  0  0
    0.3312   -1.0287    4.5770 C   0  0  0  0  0  0  0  0  0  0  0  0
    1.7097   -0.5530    2.0482 H   0  0  0  0  0  0  0  0  0  0  0  0
    0.6108    1.0912    4.2891 H   0  0  0  0  0  0  0  0  0  0  0  0
    0.7865   -1.9719    4.2581 H   0  0  0  0  0  0  0  0  0  0  0  0
    0.3533   -0.9822    5.6699 H   0  0  0  0  0  0  0  0  0  0  0  0
   -0.7144   -1.0185    4.2537 H   0  0  0  0  0  0  0  0  0  0  0  0
    2.8089    0.6887    5.7587 N   0  0  0  0  0  0  0  0  0  0  0  0
    4.1514    0.7553    6.3234 C   0  0  0  0  0  0  0  0  0  0  0  0
    2.0302    1.0617    6.2932 H   0  0  0  0  0  0  0  0  0  0  0  0
    4.5929   -0.2454    6.3808 H   0  0  0  0  0  0  0  0  0  0  0  0
    4.7957    1.3901    5.7060 H   0  0  0  0  0  0  0  0  0  0  0  0
    4.1169    1.1756    7.3332 H   0  0  0  0  0  0  0  0  0  0  0  0
  1  2  2  0  0  0  0
  1  3  1  0  0  0  0
  1  7  1  0  0  0  0
  3  4  1  0  0  0  0
  3  5  1  0  0  0  0
  3  6  1  0  0  0  0
  7  8  1  0  0  0  0
  7 12  1  0  0  0  0
  8  9  1  0  0  0  0
  8 11  1  0  0  0  0
  8 13  1  0  0  0  0
  9 10  2  0  0  0  0
  9 17  1  0  0  0  0
 11 14  1  0  0  0  0
 11 15  1  0  0  0  0
 11 16  1  0  0  0  0
 17 18  1  0  0  0  0
 17 25  1  0  0  0  0
 18 19  1  0  0  0  0
 18 21  1  0  0  0  0
 18 26  1  0  0  0  0
 19 20  2  0  0  0  0
 19 36  1  0  0  0  0
 21 22  1  0  0  0  0
 21 23  1  0  0  0  0
 21 27  1  0  0  0  0
 22 24  1  0  0  0  0
 22 28  1  0  0  0  0
 22 29  1  0  0  0  0
 23 30  1  0  0  0  0
 23 31  1  0  0  0  0
 23 32  1  0  0  0  0
 24 33  1  0  0  0  0
 24 34  1  0  0  0  0
 24 35  1  0  0  0  0
 36 37  1  0  0  0  0
 36 41  1  0  0  0  0
 37 38  1  0  0  0  0
 37 40  1  0  0  0  0
 37 42  1  0  0  0  0
 38 39  2  0  0  0  0
 38 46  1  0  0  0  0
 40 43  1  0  0  0  0
 40 44  1  0  0  0  0
 40 45  1  0  0  0  0
 46 47  1  0  0  0  0
 46 48  1  0  0  0  0
 47 49  1  0  0  0  0
 47 50  1  0  0  0  0
 47 51  1  0  0  0  0
M  END
$$$$

  -OEChem-05262216503D

 51 50  0     1  0  0  0  0  0999 V2000
    0.2910   -6.0888    0.5376 C   0  0  0  0  0  0  0  0  0  0  0  0
   -0.7802   -6.3917    0.0360 O   0  0  0  0  0  0  0  0  0  0  0  0
    1.4380   -7.0818    0.5394 C   0  0  0  0  0  0  0  0  0  0  0  0
    1.1399   -8.0029    0.0308 H   0  0  0  0  0  0  0  0  0  0  0  0
    2.3007   -6.6570    0.0203 H   0  0  0  0  0  0  0  0  0  0  0  0
    1.7220   -7.3221    1.5668 H   0  0  0  0  0  0  0  0  0  0  0  0
    0.4661   -4.8389    1.0933 N   0  0  0  0  0  0  0  0  0  0  0  0
   -0.5018   -3.7403    0.9753 C   0  0  2  0  0  0  0  0  0  0  0  0
    0.2013   -2.3959    0.7052 C   0  0  0  0  0  0  0  0  0  0  0  0
    1.3814   -2.2444    1.0068 O   0  0  0  0  0  0  0  0  0  0  0  0
   -1.3054   -3.6683    2.2765 C   0  0  0  0  0  0  0  0  0  0  0  0
    1.4127   -4.5854    1.3744 H   0  0  0  0  0  0  0  0  0  0  0  0
   -1.1846   -3.9263    0.1393 H   0  0  0  0  0  0  0  0  0  0  0  0
   -0.6424   -3.4787    3.1269 H   0  0  0  0  0  0  0  0  0  0  0  0
   -2.0464   -2.8643    2.2278 H   0  0  0  0  0  0  0  0  0  0  0  0
   -1.8313   -4.6129    2.4479 H   0  0  0  0  0  0  0  0  0  0  0  0
   -0.4835   -1.3460    0.1207 N   0  0  0  0  0  0  0  0  0  0  0  0
   -0.0213    0.0504    0.2071 C   0  0  2  0  0  0  0  0  0  0  0  0
    0.0446    0.4864    1.6937 C   0  0  0  0  0  0  0  0  0  0  0  0
   -0.9575    0.8970    2.2694 O   0  0  0  0  0  0  0  0  0  0  0  0
   -0.9289    0.9534   -0.6755 C   0  0  2  0  0  0  0  0  0  0  0  0
   -0.8111    0.5348   -2.1638 C   0  0  0  0  0  0  0  0  0  0  0  0
   -0.5281    2.4385   -0.5356 C   0  0  0  0  0  0  0  0  0  0  0  0
   -1.8668    1.1921   -3.0594 C   0  0  0  0  0  0  0  0  0  0  0  0
   -1.4814   -1.4891   -0.0078 H   0  0  0  0  0  0  0  0  0  0  0  0
    0.9967    0.1157   -0.1916 H   0  0  0  0  0  0  0  0  0  0  0  0
   -1.9672    0.8373   -0.3453 H   0  0  0  0  0  0  0  0  0  0  0  0
    0.1880    0.7783   -2.5402 H   0  0  0  0  0  0  0  0  0  0  0  0
   -0.9369   -0.5479   -2.2561 H   0  0  0  0  0  0  0  0  0  0  0  0
    0.5087    2.5881   -0.8527 H   0  0  0  0  0  0  0  0  0  0  0  0
   -1.1732    3.0771   -1.1440 H   0  0  0  0  0  0  0  0  0  0  0  0
   -0.6253    2.7828    0.4975 H   0  0  0  0  0  0  0  0  0  0  0  0
   -2.8705    1.0225   -2.6575 H   0  0  0  0  0  0  0  0  0  0  0  0
   -1.8202    0.7623   -4.0648 H   0  0  0  0  0  0  0  0  0  0  0  0
   -1.6989    2.2689   -3.1463 H   0  0  0  0  0  0  0  0  0  0  0  0
    1.2020    0.3064    2.4238 N   0  0  0  0  0  0  0  0  0  0  0  0
    1.3263    0.5436    3.8668 C   0  0  2  0  0  0  0  0  0  0  0  0
    2.7805    0.8415    4.2885 C   0  0  0  0  0  0  0  0  0  0  0  0
    3.7208    0.5114    3.5754 O   0  0  0  0  0  0  0  0  0  0  0  0
    0.8030   -0.6924    4.6070 C   0  0  0  0  0  0  0  0  0  0  0  0
    1.9439   -0.2341    1.9721 H   0  0  0  0  0  0  0  0  0  0  0  0
    0.7225    1.4143    4.1431 H   0  0  0  0  0  0  0  0  0  0  0  0
    1.3849   -1.5774    4.3301 H   0  0  0  0  0  0  0  0  0  0  0  0
    0.8757   -0.5511    5.6894 H   0  0  0  0  0  0  0  0  0  0  0  0
   -0.2463   -0.8728    4.3540 H   0  0  0  0  0  0  0  0  0  0  0  0
    3.0389    1.4817    5.4872 N   0  0  0  0  0  0  0  0  0  0  0  0
    4.3841    1.8087    5.9451 C   0  0  0  0  0  0  0  0  0  0  0  0
    2.2430    1.7663    6.0506 H   0  0  0  0  0  0  0  0  0  0  0  0
    4.9795    0.8976    6.0666 H   0  0  0  0  0  0  0  0  0  0  0  0
    4.8860    2.4634    5.2247 H   0  0  0  0  0  0  0  0  0  0  0  0
    4.3411    2.3250    6.9090 H   0  0  0  0  0  0  0  0  0  0  0  0
  1  2  2  0  0  0  0
  1  3  1  0  0  0  0
  1  7  1  0  0  0  0
  3  4  1  0  0  0  0
  3  5  1  0  0  0  0
  3  6  1  0  0  0  0
  7  8  1  0  0  0  0
  7 12  1  0  0  0  0
  8  9  1  0  0  0  0
  8 11  1  0  0  0  0
  8 13  1  0  0  0  0
  9 10  2  0  0  0  0
  9 17  1  0  0  0  0
 11 14  1  0  0  0  0
 11 15  1  0  0  0  0
 11 16  1  0  0  0  0
 17 18  1  0  0  0  0
 17 25  1  0  0  0  0
 18 19  1  0  0  0  0
 18 21  1  0  0  0  0
 18 26  1  0  0  0  0
 19 20  2  0  0  0  0
 19 36  1  0  0  0  0
 21 22  1  0  0  0  0
 21 23  1  0  0  0  0
 21 27  1  0  0  0  0
 22 24  1  0  0  0  0
 22 28  1  0  0  0  0
 22 29  1  0  0  0  0
 23 30  1  0  0  0  0
 23 31  1  0  0  0  0
 23 32  1  0  0  0  0
 24 33  1  0  0  0  0
 24 34  1  0  0  0  0
 24 35  1  0  0  0  0
 36 37  1  0  0  0  0
 36 41  1  0  0  0  0
 37 38  1  0  0  0  0
 37 40  1  0  0  0  0
 37 42  1  0  0  0  0
 38 39  2  0  0  0  0
 38 46  1  0  0  0  0
 40 43  1  0  0  0  0
 40 44  1  0  0  0  0
 40 45  1  0  0  0  0
 46 47  1  0  0  0  0
 46 48  1  0  0  0  0
 47 49  1  0  0  0  0
 47 50  1  0  0  0  0
 47 51  1  0  0  0  0
M  END
$$$$

  -OEChem-05262216503D

 51 50  0     1  0  0  0  0  0999 V2000
    0.3221   -5.9965    0.5046 C   0  0  0  0  0  0  0  0  0  0  0  0
   -0.6517   -6.2324   -0.1930 O   0  0  0  0  0  0  0  0  0  0  0  0
    1.4897   -6.9650    0.5292 C   0  0  0  0  0  0  0  0  0  0  0  0
    1.2957   -7.8073   -0.1411 H   0  0  0  0  0  0  0  0  0  0  0  0
    2.4016   -6.4585    0.2030 H   0  0  0  0  0  0  0  0  0  0  0  0
    1.6361   -7.3473    1.5424 H   0  0  0  0  0  0  0  0  0  0  0  0
    0.3778   -4.8452    1.2622 N   0  0  0  0  0  0  0  0  0  0  0  0
   -0.5591   -3.7218    1.1204 C   0  0  2  0  0  0  0  0  0  0  0  0
    0.1757   -2.4181    0.7521 C   0  0  0  0  0  0  0  0  0  0  0  0
    1.3582   -2.2717    1.0478 O   0  0  0  0  0  0  0  0  0  0  0  0
   -1.2951   -3.5523    2.4512 C   0  0  0  0  0  0  0  0  0  0  0  0
    1.2842   -4.6243    1.6713 H   0  0  0  0  0  0  0  0  0  0  0  0
   -1.2925   -3.9236    0.3327 H   0  0  0  0  0  0  0  0  0  0  0  0
   -0.5864   -3.3335    3.2566 H   0  0  0  0  0  0  0  0  0  0  0  0
   -2.0145   -2.7295    2.3897 H   0  0  0  0  0  0  0  0  0  0  0  0
   -1.8375   -4.4694    2.7024 H   0  0  0  0  0  0  0  0  0  0  0  0
   -0.4970   -1.3812    0.1317 N   0  0  0  0  0  0  0  0  0  0  0  0
    0.0052    0.0022    0.1633 C   0  0  2  0  0  0  0  0  0  0  0  0
    0.0985    0.4825    1.6321 C   0  0  0  0  0  0  0  0  0  0  0  0
   -0.9214    0.7208    2.2708 O   0  0  0  0  0  0  0  0  0  0  0  0
   -0.9003    0.9054   -0.7175 C   0  0  2  0  0  0  0  0  0  0  0  0
   -0.8381    0.4436   -2.1956 C   0  0  0  0  0  0  0  0  0  0  0  0
   -0.4608    2.3812   -0.6164 C   0  0  0  0  0  0  0  0  0  0  0  0
   -1.9006    1.1071   -3.0776 C   0  0  0  0  0  0  0  0  0  0  0  0
   -1.5026   -1.4998    0.0460 H   0  0  0  0  0  0  0  0  0  0  0  0
    1.0160    0.0265   -0.2579 H   0  0  0  0  0  0  0  0  0  0  0  0
   -1.9318    0.8231   -0.3568 H   0  0  0  0  0  0  0  0  0  0  0  0
    0.1558    0.6500   -2.6066 H   0  0  0  0  0  0  0  0  0  0  0  0
   -0.9960   -0.6375   -2.2550 H   0  0  0  0  0  0  0  0  0  0  0  0
    0.5729    2.4984   -0.9569 H   0  0  0  0  0  0  0  0  0  0  0  0
   -1.1020    3.0236   -1.2249 H   0  0  0  0  0  0  0  0  0  0  0  0
   -0.5302    2.7446    0.4129 H   0  0  0  0  0  0  0  0  0  0  0  0
   -2.8974    0.9655   -2.6487 H   0  0  0  0  0  0  0  0  0  0  0  0
   -1.8869    0.6577   -4.0752 H   0  0  0  0  0  0  0  0  0  0  0  0
   -1.7127    2.1783   -3.1883 H   0  0  0  0  0  0  0  0  0  0  0  0
    1.3242    0.5799    2.2591 N   0  0  0  0  0  0  0  0  0  0  0  0
    1.5178    0.8916    3.6798 C   0  0  2  0  0  0  0  0  0  0  0  0
    2.9188    1.4760    3.9572 C   0  0  0  0  0  0  0  0  0  0  0  0
    3.8228    1.3464    3.1395 O   0  0  0  0  0  0  0  0  0  0  0  0
    1.3077   -0.3936    4.4887 C   0  0  0  0  0  0  0  0  0  0  0  0
    2.1353    0.2344    1.7450 H   0  0  0  0  0  0  0  0  0  0  0  0
    0.7823    1.6408    3.9908 H   0  0  0  0  0  0  0  0  0  0  0  0
    2.0251   -1.1605    4.1789 H   0  0  0  0  0  0  0  0  0  0  0  0
    1.4408   -0.2018    5.5574 H   0  0  0  0  0  0  0  0  0  0  0  0
    0.2964   -0.7815    4.3326 H   0  0  0  0  0  0  0  0  0  0  0  0
    3.1694    2.1554    5.1356 N   0  0  0  0  0  0  0  0  0  0  0  0
    4.4607    2.7520    5.4553 C   0  0  0  0  0  0  0  0  0  0  0  0
    2.4007    2.2624    5.7907 H   0  0  0  0  0  0  0  0  0  0  0  0
    5.2415    1.9847    5.4835 H   0  0  0  0  0  0  0  0  0  0  0  0
    4.7308    3.5027    4.7052 H   0  0  0  0  0  0  0  0  0  0  0  0
    4.4212    3.2399    6.4339 H   0  0  0  0  0  0  0  0  0  0  0  0
  1  2  2  0  0  0  0
  1  3  1  0  0  0  0
  1  7  1  0  0  0  0
  3  4  1  0  0  0  0
  3  5  1  0  0  0  0
  3  6  1  0  0  0  0
  7  8  1  0  0  0  0
  7 12  1  0  0  0  0
  8  9  1  0  0  0  0
  8 11  1  0  0  0  0
  8 13  1  0  0  0  0
  9 10  2  0  0  0  0
  9 17  1  0  0  0  0
 11 14  1  0  0  0  0
 11 15  1  0  0  0  0
 11 16  1  0  0  0  0
 17 18  1  0  0  0  0
 17 25  1  0  0  0  0
 18 19  1  0  0  0  0
 18 21  1  0  0  0  0
 18 26  1  0  0  0  0
 19 20  2  0  0  0  0
 19 36  1  0  0  0  0
 21 22  1  0  0  0  0
 21 23  1  0  0  0  0
 21 27  1  0  0  0  0
 22 24  1  0  0  0  0
 22 28  1  0  0  0  0
 22 29  1  0  0  0  0
 23 30  1  0  0  0  0
 23 31  1  0  0  0  0
 23 32  1  0  0  0  0
 24 33  1  0  0  0  0
 24 34  1  0  0  0  0
 24 35  1  0  0  0  0
 36 37  1  0  0  0  0
 36 41  1  0  0  0  0
 37 38  1  0  0  0  0
 37 40  1  0  0  0  0
 37 42  1  0  0  0  0
 38 39  2  0  0  0  0
 38 46  1  0  0  0  0
 40 43  1  0  0  0  0
 40 44  1  0  0  0  0
 40 45  1  0  0  0  0
 46 47  1  0  0  0  0
 46 48  1  0  0  0  0
 47 49  1  0  0  0  0
 47 50  1  0  0  0  0
 47 51  1  0  0  0  0
M  END
$$$$

  -OEChem-05262216503D

 51 50  0     1  0  0  0  0  0999 V2000
    0.3089   -6.0120    0.5857 C   0  0  0  0  0  0  0  0  0  0  0  0
   -0.6752   -6.2572   -0.0941 O   0  0  0  0  0  0  0  0  0  0  0  0
    1.4746   -6.9828    0.6099 C   0  0  0  0  0  0  0  0  0  0  0  0
    1.2672   -7.8374   -0.0402 H   0  0  0  0  0  0  0  0  0  0  0  0
    2.3817   -6.4850    0.2580 H   0  0  0  0  0  0  0  0  0  0  0  0
    1.6372   -7.3454    1.6278 H   0  0  0  0  0  0  0  0  0  0  0  0
    0.3801   -4.8470    1.3203 N   0  0  0  0  0  0  0  0  0  0  0  0
   -0.5504   -3.7202    1.1642 C   0  0  2  0  0  0  0  0  0  0  0  0
    0.1909   -2.4356    0.7458 C   0  0  0  0  0  0  0  0  0  0  0  0
    1.3819   -2.2975    1.0100 O   0  0  0  0  0  0  0  0  0  0  0  0
   -1.2604   -3.5057    2.5027 C   0  0  0  0  0  0  0  0  0  0  0  0
    1.2951   -4.6199    1.7061 H   0  0  0  0  0  0  0  0  0  0  0  0
   -1.3000   -3.9365    0.3958 H   0  0  0  0  0  0  0  0  0  0  0  0
   -0.5362   -3.2615    3.2867 H   0  0  0  0  0  0  0  0  0  0  0  0
   -1.9794   -2.6837    2.4281 H   0  0  0  0  0  0  0  0  0  0  0  0
   -1.7995   -4.4125    2.7943 H   0  0  0  0  0  0  0  0  0  0  0  0
   -0.4849   -1.4050    0.1186 N   0  0  0  0  0  0  0  0  0  0  0  0
    0.0334   -0.0275    0.1350 C   0  0  2  0  0  0  0  0  0  0  0  0
    0.1463    0.4671    1.5968 C   0  0  0  0  0  0  0  0  0  0  0  0
   -0.8497    0.4983    2.3128 O   0  0  0  0  0  0  0  0  0  0  0  0
   -0.8718    0.8830   -0.7375 C   0  0  2  0  0  0  0  0  0  0  0  0
   -0.8358    0.4149   -2.2144 C   0  0  0  0  0  0  0  0  0  0  0  0
   -0.4186    2.3549   -0.6413 C   0  0  0  0  0  0  0  0  0  0  0  0
   -1.9015    1.0879   -3.0849 C   0  0  0  0  0  0  0  0  0  0  0  0
   -1.4951   -1.5092    0.0814 H   0  0  0  0  0  0  0  0  0  0  0  0
    1.0398   -0.0215   -0.2975 H   0  0  0  0  0  0  0  0  0  0  0  0
   -1.8995    0.8118   -0.3636 H   0  0  0  0  0  0  0  0  0  0  0  0
    0.1548    0.6082   -2.6394 H   0  0  0  0  0  0  0  0  0  0  0  0
   -1.0070   -0.6642   -2.2674 H   0  0  0  0  0  0  0  0  0  0  0  0
    0.6171    2.4612   -0.9798 H   0  0  0  0  0  0  0  0  0  0  0  0
   -1.0516    3.0024   -1.2531 H   0  0  0  0  0  0  0  0  0  0  0  0
   -0.4876    2.7219    0.3870 H   0  0  0  0  0  0  0  0  0  0  0  0
   -2.8943    0.9597   -2.6428 H   0  0  0  0  0  0  0  0  0  0  0  0
   -1.9061    0.6349   -4.0811 H   0  0  0  0  0  0  0  0  0  0  0  0
   -1.7024    2.1565   -3.2020 H   0  0  0  0  0  0  0  0  0  0  0  0
    1.3653    0.8524    2.1172 N   0  0  0  0  0  0  0  0  0  0  0  0
    1.5954    1.2687    3.5049 C   0  0  2  0  0  0  0  0  0  0  0  0
    2.8432    2.1685    3.6317 C   0  0  0  0  0  0  0  0  0  0  0  0
    3.6449    2.2532    2.7076 O   0  0  0  0  0  0  0  0  0  0  0  0
    1.7521    0.0096    4.3651 C   0  0  0  0  0  0  0  0  0  0  0  0
    2.1843    0.7676    1.5159 H   0  0  0  0  0  0  0  0  0  0  0  0
    0.7355    1.8466    3.8600 H   0  0  0  0  0  0  0  0  0  0  0  0
    2.6028   -0.5858    4.0178 H   0  0  0  0  0  0  0  0  0  0  0  0
    1.9162    0.2763    5.4133 H   0  0  0  0  0  0  0  0  0  0  0  0
    0.8499   -0.6072    4.3046 H   0  0  0  0  0  0  0  0  0  0  0  0
    3.0654    2.8990    4.7848 N   0  0  0  0  0  0  0  0  0  0  0  0
    4.2082    3.7872    4.9602 C   0  0  0  0  0  0  0  0  0  0  0  0
    2.3792    2.8241    5.5299 H   0  0  0  0  0  0  0  0  0  0  0  0
    5.1458    3.2296    4.8631 H   0  0  0  0  0  0  0  0  0  0  0  0
    4.1920    4.5841    4.2092 H   0  0  0  0  0  0  0  0  0  0  0  0
    4.1824    4.2473    5.9525 H   0  0  0  0  0  0  0  0  0  0  0  0
  1  2  2  0  0  0  0
  1  3  1  0  0  0  0
  1  7  1  0  0  0  0
  3  4  1  0  0  0  0
  3  5  1  0  0  0  0
  3  6  1  0  0  0  0
  7  8  1  0  0  0  0
  7 12  1  0  0  0  0
  8  9  1  0  0  0  0
  8 11  1  0  0  0  0
  8 13  1  0  0  0  0
  9 10  2  0  0  0  0
  9 17  1  0  0  0  0
 11 14  1  0  0  0  0
 11 15  1  0  0  0  0
 11 16  1  0  0  0  0
 17 18  1  0  0  0  0
 17 25  1  0  0  0  0
 18 19  1  0  0  0  0
 18 21  1  0  0  0  0
 18 26  1  0  0  0  0
 19 20  2  0  0  0  0
 19 36  1  0  0  0  0
 21 22  1  0  0  0  0
 21 23  1  0  0  0  0
 21 27  1  0  0  0  0
 22 24  1  0  0  0  0
 22 28  1  0  0  0  0
 22 29  1  0  0  0  0
 23 30  1  0  0  0  0
 23 31  1  0  0  0  0
 23 32  1  0  0  0  0
 24 33  1  0  0  0  0
 24 34  1  0  0  0  0
 24 35  1  0  0  0  0
 36 37  1  0  0  0  0
 36 41  1  0  0  0  0
 37 38  1  0  0  0  0
 37 40  1  0  0  0  0
 37 42  1  0  0  0  0
 38 39  2  0  0  0  0
 38 46  1  0  0  0  0
 40 43  1  0  0  0  0
 40 44  1  0  0  0  0
 40 45  1  0  0  0  0
 46 47  1  0  0  0  0
 46 48  1  0  0  0  0
 47 49  1  0  0  0  0
 47 50  1  0  0  0  0
 47 51  1  0  0  0  0
M  END
$$$$

  -OEChem-05262216503D

 51 50  0     1  0  0  0  0  0999 V2000
    0.2505   -6.1022    0.6509 C   0  0  0  0  0  0  0  0  0  0  0  0
   -0.7885   -6.3638    0.0657 O   0  0  0  0  0  0  0  0  0  0  0  0
    1.3856   -7.1091    0.6663 C   0  0  0  0  0  0  0  0  0  0  0  0
    1.0860   -8.0233    0.1461 H   0  0  0  0  0  0  0  0  0  0  0  0
    2.2627   -6.6907    0.1661 H   0  0  0  0  0  0  0  0  0  0  0  0
    1.6480   -7.3606    1.6967 H   0  0  0  0  0  0  0  0  0  0  0  0
    0.4072   -4.8886    1.2871 N   0  0  0  0  0  0  0  0  0  0  0  0
   -0.5108   -3.7515    1.1321 C   0  0  2  0  0  0  0  0  0  0  0  0
    0.2414   -2.4743    0.7084 C   0  0  0  0  0  0  0  0  0  0  0  0
    1.4438   -2.3626    0.9306 O   0  0  0  0  0  0  0  0  0  0  0  0
   -1.2189   -3.5272    2.4707 C   0  0  0  0  0  0  0  0  0  0  0  0
    1.3497   -4.6627    1.6011 H   0  0  0  0  0  0  0  0  0  0  0  0
   -1.2609   -3.9627    0.3628 H   0  0  0  0  0  0  0  0  0  0  0  0
   -0.4914   -3.2960    3.2557 H   0  0  0  0  0  0  0  0  0  0  0  0
   -1.9242   -2.6932    2.3977 H   0  0  0  0  0  0  0  0  0  0  0  0
   -1.7731   -4.4252    2.7614 H   0  0  0  0  0  0  0  0  0  0  0  0
   -0.4333   -1.4286    0.1052 N   0  0  0  0  0  0  0  0  0  0  0  0
    0.1020   -0.0572    0.1393 C   0  0  2  0  0  0  0  0  0  0  0  0
    0.2422    0.4228    1.6048 C   0  0  0  0  0  0  0  0  0  0  0  0
   -0.6865    0.2707    2.3929 O   0  0  0  0  0  0  0  0  0  0  0  0
   -0.8095    0.8753   -0.7042 C   0  0  2  0  0  0  0  0  0  0  0  0
   -0.8011    0.4318   -2.1893 C   0  0  0  0  0  0  0  0  0  0  0  0
   -0.3521    2.3444   -0.5926 C   0  0  0  0  0  0  0  0  0  0  0  0
   -1.8738    1.1270   -3.0342 C   0  0  0  0  0  0  0  0  0  0  0  0
   -1.4453   -1.5167    0.1066 H   0  0  0  0  0  0  0  0  0  0  0  0
    1.1021   -0.0562   -0.3073 H   0  0  0  0  0  0  0  0  0  0  0  0
   -1.8314    0.8019   -0.3153 H   0  0  0  0  0  0  0  0  0  0  0  0
    0.1847    0.6226   -2.6264 H   0  0  0  0  0  0  0  0  0  0  0  0
   -0.9831   -0.6448   -2.2563 H   0  0  0  0  0  0  0  0  0  0  0  0
    0.6823    2.4525   -0.9340 H   0  0  0  0  0  0  0  0  0  0  0  0
   -0.9859    3.0001   -1.1944 H   0  0  0  0  0  0  0  0  0  0  0  0
   -0.4172    2.6995    0.4400 H   0  0  0  0  0  0  0  0  0  0  0  0
   -2.8608    1.0105   -2.5758 H   0  0  0  0  0  0  0  0  0  0  0  0
   -1.9027    0.6824   -4.0338 H   0  0  0  0  0  0  0  0  0  0  0  0
   -1.6607    2.1933   -3.1471 H   0  0  0  0  0  0  0  0  0  0  0  0
    1.3851    1.0731    2.0271 N   0  0  0  0  0  0  0  0  0  0  0  0
    1.5792    1.6571    3.3588 C   0  0  2  0  0  0  0  0  0  0  0  0
    2.5477    2.8581    3.3144 C   0  0  0  0  0  0  0  0  0  0  0  0
    3.1919    3.0960    2.2982 O   0  0  0  0  0  0  0  0  0  0  0  0
    2.1151    0.5639    4.2888 C   0  0  0  0  0  0  0  0  0  0  0  0
    2.1175    1.2405    1.3382 H   0  0  0  0  0  0  0  0  0  0  0  0
    0.6212    2.0228    3.7435 H   0  0  0  0  0  0  0  0  0  0  0  0
    3.0750    0.1868    3.9211 H   0  0  0  0  0  0  0  0  0  0  0  0
    2.2574    0.9533    5.3011 H   0  0  0  0  0  0  0  0  0  0  0  0
    1.4096   -0.2718    4.3377 H   0  0  0  0  0  0  0  0  0  0  0  0
    2.6867    3.6886    4.4113 N   0  0  0  0  0  0  0  0  0  0  0  0
    3.5785    4.8419    4.4344 C   0  0  0  0  0  0  0  0  0  0  0  0
    2.1403    3.4712    5.2395 H   0  0  0  0  0  0  0  0  0  0  0  0
    4.6162    4.5265    4.2828 H   0  0  0  0  0  0  0  0  0  0  0  0
    3.3077    5.5526    3.6464 H   0  0  0  0  0  0  0  0  0  0  0  0
    3.5102    5.3542    5.3989 H   0  0  0  0  0  0  0  0  0  0  0  0
  1  2  2  0  0  0  0
  1  3  1  0  0  0  0
  1  7  1  0  0  0  0
  3  4  1  0  0  0  0
  3  5  1  0  0  0  0
  3  6  1  0  0  0  0
  7  8  1  0  0  0  0
  7 12  1  0  0  0  0
  8  9  1  0  0  0  0
  8 11  1  0  0  0  0
  8 13  1  0  0  0  0
  9 10  2  0  0  0  0
  9 17  1  0  0  0  0
 11 14  1  0  0  0  0
 11 15  1  0  0  0  0
 11 16  1  0  0  0  0
 17 18  1  0  0  0  0
 17 25  1  0  0  0  0
 18 19  1  0  0  0  0
 18 21  1  0  0  0  0
 18 26  1  0  0  0  0
 19 20  2  0  0  0  0
 19 36  1  0  0  0  0
 21 22  1  0  0  0  0
 21 23  1  0  0  0  0
 21 27  1  0  0  0  0
 22 24  1  0  0  0  0
 22 28  1  0  0  0  0
 22 29  1  0  0  0  0
 23 30  1  0  0  0  0
 23 31  1  0  0  0  0
 23 32  1  0  0  0  0
 24 33  1  0  0  0  0
 24 34  1  0  0  0  0
 24 35  1  0  0  0  0
 36 37  1  0  0  0  0
 36 41  1  0  0  0  0
 37 38  1  0  0  0  0
 37 40  1  0  0  0  0
 37 42  1  0  0  0  0
 38 39  2  0  0  0  0
 38 46  1  0  0  0  0
 40 43  1  0  0  0  0
 40 44  1  0  0  0  0
 40 45  1  0  0  0  0
 46 47  1  0  0  0  0
 46 48  1  0  0  0  0
 47 49  1  0  0  0  0
 47 50  1  0  0  0  0
 47 51  1  0  0  0  0
M  END
$$$$

  -OEChem-05262216503D

 51 50  0     1  0  0  0  0  0999 V2000
    0.1793   -6.1751    0.7242 C   0  0  0  0  0  0  0  0  0  0  0  0
   -0.9279   -6.4402    0.2830 O   0  0  0  0  0  0  0  0  0  0  0  0
    1.2688   -7.2307    0.7247 C   0  0  0  0  0  0  0  0  0  0  0  0
    0.8758   -8.1788    0.3467 H   0  0  0  0  0  0  0  0  0  0  0  0
    2.0958   -6.9122    0.0854 H   0  0  0  0  0  0  0  0  0  0  0  0
    1.6402   -7.3832    1.7409 H   0  0  0  0  0  0  0  0  0  0  0  0
    0.4510   -4.9128    1.2077 N   0  0  0  0  0  0  0  0  0  0  0  0
   -0.4535   -3.7629    1.0744 C   0  0  2  0  0  0  0  0  0  0  0  0
    0.3101   -2.4844    0.6759 C   0  0  0  0  0  0  0  0  0  0  0  0
    1.5229   -2.4062    0.8509 O   0  0  0  0  0  0  0  0  0  0  0  0
   -1.1689   -3.5568    2.4117 C   0  0  0  0  0  0  0  0  0  0  0  0
    1.4239   -4.7010    1.4256 H   0  0  0  0  0  0  0  0  0  0  0  0
   -1.1973   -3.9554    0.2941 H   0  0  0  0  0  0  0  0  0  0  0  0
   -0.4442   -3.3469    3.2050 H   0  0  0  0  0  0  0  0  0  0  0  0
   -1.8657   -2.7152    2.3491 H   0  0  0  0  0  0  0  0  0  0  0  0
   -1.7335   -4.4548    2.6815 H   0  0  0  0  0  0  0  0  0  0  0  0
   -0.3600   -1.4152    0.1097 N   0  0  0  0  0  0  0  0  0  0  0  0
    0.2019   -0.0544    0.1615 C   0  0  2  0  0  0  0  0  0  0  0  0
    0.3873    0.4035    1.6314 C   0  0  0  0  0  0  0  0  0  0  0  0
   -0.4391    0.0916    2.4842 O   0  0  0  0  0  0  0  0  0  0  0  0
   -0.7241    0.8942   -0.6523 C   0  0  2  0  0  0  0  0  0  0  0  0
   -0.7493    0.4662   -2.1430 C   0  0  0  0  0  0  0  0  0  0  0  0
   -0.2700    2.3647   -0.5383 C   0  0  0  0  0  0  0  0  0  0  0  0
   -1.8358    1.1754   -2.9583 C   0  0  0  0  0  0  0  0  0  0  0  0
   -1.3725   -1.4838    0.1496 H   0  0  0  0  0  0  0  0  0  0  0  0
    1.1915   -0.0608   -0.3077 H   0  0  0  0  0  0  0  0  0  0  0  0
   -1.7379    0.8180   -0.2435 H   0  0  0  0  0  0  0  0  0  0  0  0
    0.2286    0.6552   -2.5984 H   0  0  0  0  0  0  0  0  0  0  0  0
   -0.9399   -0.6083   -2.2188 H   0  0  0  0  0  0  0  0  0  0  0  0
    0.7665    2.4760   -0.8724 H   0  0  0  0  0  0  0  0  0  0  0  0
   -0.9001    3.0210   -1.1431 H   0  0  0  0  0  0  0  0  0  0  0  0
   -0.3459    2.7199    0.4933 H   0  0  0  0  0  0  0  0  0  0  0  0
   -2.8104    1.0703   -2.4719 H   0  0  0  0  0  0  0  0  0  0  0  0
   -1.8988    0.7310   -3.9561 H   0  0  0  0  0  0  0  0  0  0  0  0
   -1.6130    2.2389   -3.0775 H   0  0  0  0  0  0  0  0  0  0  0  0
    1.3965    1.2848    1.9684 N   0  0  0  0  0  0  0  0  0  0  0  0
    1.4866    2.0066    3.2428 C   0  0  2  0  0  0  0  0  0  0  0  0
    2.0580    3.4260    3.0386 C   0  0  0  0  0  0  0  0  0  0  0  0
    2.4987    3.7613    1.9437 O   0  0  0  0  0  0  0  0  0  0  0  0
    2.3667    1.1908    4.1941 C   0  0  0  0  0  0  0  0  0  0  0  0
    1.9733    1.6400    1.2065 H   0  0  0  0  0  0  0  0  0  0  0  0
    0.4890    2.1183    3.6809 H   0  0  0  0  0  0  0  0  0  0  0  0
    3.3754    1.0811    3.7832 H   0  0  0  0  0  0  0  0  0  0  0  0
    2.4385    1.6803    5.1699 H   0  0  0  0  0  0  0  0  0  0  0  0
    1.9400    0.1932    4.3400 H   0  0  0  0  0  0  0  0  0  0  0  0
    2.0593    4.3401    4.0760 N   0  0  0  0  0  0  0  0  0  0  0  0
    2.5960    5.6900    3.9518 C   0  0  0  0  0  0  0  0  0  0  0  0
    1.6895    4.0369    4.9723 H   0  0  0  0  0  0  0  0  0  0  0  0
    3.6686    5.6554    3.7341 H   0  0  0  0  0  0  0  0  0  0  0  0
    2.0900    6.2326    3.1463 H   0  0  0  0  0  0  0  0  0  0  0  0
    2.4495    6.2434    4.8843 H   0  0  0  0  0  0  0  0  0  0  0  0
  1  2  2  0  0  0  0
  1  3  1  0  0  0  0
  1  7  1  0  0  0  0
  3  4  1  0  0  0  0
  3  5  1  0  0  0  0
  3  6  1  0  0  0  0
  7  8  1  0  0  0  0
  7 12  1  0  0  0  0
  8  9  1  0  0  0  0
  8 11  1  0  0  0  0
  8 13  1  0  0  0  0
  9 10  2  0  0  0  0
  9 17  1  0  0  0  0
 11 14  1  0  0  0  0
 11 15  1  0  0  0  0
 11 16  1  0  0  0  0
 17 18  1  0  0  0  0
 17 25  1  0  0  0  0
 18 19  1  0  0  0  0
 18 21  1  0  0  0  0
 18 26  1  0  0  0  0
 19 20  2  0  0  0  0
 19 36  1  0  0  0  0
 21 22  1  0  0  0  0
 21 23  1  0  0  0  0
 21 27  1  0  0  0  0
 22 24  1  0  0  0  0
 22 28  1  0  0  0  0
 22 29  1  0  0  0  0
 23 30  1  0  0  0  0
 23 31  1  0  0  0  0
 23 32  1  0  0  0  0
 24 33  1  0  0  0  0
 24 34  1  0  0  0  0
 24 35  1  0  0  0  0
 36 37  1  0  0  0  0
 36 41  1  0  0  0  0
 37 38  1  0  0  0  0
 37 40  1  0  0  0  0
 37 42  1  0  0  0  0
 38 39  2  0  0  0  0
 38 46  1  0  0  0  0
 40 43  1  0  0  0  0
 40 44  1  0  0  0  0
 40 45  1  0  0  0  0
 46 47  1  0  0  0  0
 46 48  1  0  0  0  0
 47 49  1  0  0  0  0
 47 50  1  0  0  0  0
 47 51  1  0  0  0  0
M  END
$$$$

  -OEChem-05262216503D

 51 50  0     1  0  0  0  0  0999 V2000
    0.2599   -6.0682    0.7714 C   0  0  0  0  0  0  0  0  0  0  0  0
   -0.8031   -6.3418    0.2367 O   0  0  0  0  0  0  0  0  0  0  0  0
    1.3728   -7.0982    0.8177 C   0  0  0  0  0  0  0  0  0  0  0  0
    1.0577   -8.0190    0.3191 H   0  0  0  0  0  0  0  0  0  0  0  0
    2.2606   -6.7108    0.3121 H   0  0  0  0  0  0  0  0  0  0  0  0
    1.6237   -7.3275    1.8561 H   0  0  0  0  0  0  0  0  0  0  0  0
    0.4618   -4.8241    1.3301 N   0  0  0  0  0  0  0  0  0  0  0  0
   -0.4426   -3.6801    1.1505 C   0  0  2  0  0  0  0  0  0  0  0  0
    0.3189   -2.4247    0.6794 C   0  0  0  0  0  0  0  0  0  0  0  0
    1.5379   -2.3525    0.8108 O   0  0  0  0  0  0  0  0  0  0  0  0
   -1.1340   -3.4113    2.4889 C   0  0  0  0  0  0  0  0  0  0  0  0
    1.4165   -4.6012    1.6072 H   0  0  0  0  0  0  0  0  0  0  0  0
   -1.2023   -3.9053    0.3949 H   0  0  0  0  0  0  0  0  0  0  0  0
   -0.3959   -3.1614    3.2582 H   0  0  0  0  0  0  0  0  0  0  0  0
   -1.8342   -2.5750    2.3992 H   0  0  0  0  0  0  0  0  0  0  0  0
   -1.6906   -4.2966    2.8122 H   0  0  0  0  0  0  0  0  0  0  0  0
   -0.3598   -1.3668    0.1006 N   0  0  0  0  0  0  0  0  0  0  0  0
    0.2102   -0.0064    0.1150 C   0  0  2  0  0  0  0  0  0  0  0  0
    0.4241    0.4864    1.5750 C   0  0  0  0  0  0  0  0  0  0  0  0
   -0.2538    0.0278    2.4910 O   0  0  0  0  0  0  0  0  0  0  0  0
   -0.7425    0.8987   -0.7267 C   0  0  2  0  0  0  0  0  0  0  0  0
   -0.7735    0.4097   -2.2005 C   0  0  0  0  0  0  0  0  0  0  0  0
   -0.3334    2.3858   -0.6829 C   0  0  0  0  0  0  0  0  0  0  0  0
   -1.8772    1.0632   -3.0400 C   0  0  0  0  0  0  0  0  0  0  0  0
   -1.3709   -1.4294    0.1714 H   0  0  0  0  0  0  0  0  0  0  0  0
    1.1934   -0.0218   -0.3674 H   0  0  0  0  0  0  0  0  0  0  0  0
   -1.7513    0.8158   -0.3071 H   0  0  0  0  0  0  0  0  0  0  0  0
    0.1979    0.5979   -2.6700 H   0  0  0  0  0  0  0  0  0  0  0  0
   -0.9450   -0.6700   -2.2343 H   0  0  0  0  0  0  0  0  0  0  0  0
    0.7122    2.5088   -0.9825 H   0  0  0  0  0  0  0  0  0  0  0  0
   -0.9545    2.9899   -1.3477 H   0  0  0  0  0  0  0  0  0  0  0  0
   -0.4665    2.7965    0.3214 H   0  0  0  0  0  0  0  0  0  0  0  0
   -2.8450    0.9767   -2.5363 H   0  0  0  0  0  0  0  0  0  0  0  0
   -1.9478    0.5627   -4.0105 H   0  0  0  0  0  0  0  0  0  0  0  0
   -1.6672    2.1200   -3.2234 H   0  0  0  0  0  0  0  0  0  0  0  0
    1.2223    1.5818    1.8457 N   0  0  0  0  0  0  0  0  0  0  0  0
    1.2637    2.2986    3.1260 C   0  0  2  0  0  0  0  0  0  0  0  0
    1.5327    3.8033    2.9112 C   0  0  0  0  0  0  0  0  0  0  0  0
    1.8203    4.2236    1.7949 O   0  0  0  0  0  0  0  0  0  0  0  0
    2.3521    1.6632    3.9967 C   0  0  0  0  0  0  0  0  0  0  0  0
    1.6449    2.0563    1.0484 H   0  0  0  0  0  0  0  0  0  0  0  0
    0.2980    2.2106    3.6348 H   0  0  0  0  0  0  0  0  0  0  0  0
    3.3287    1.7447    3.5087 H   0  0  0  0  0  0  0  0  0  0  0  0
    2.4057    2.1579    4.9710 H   0  0  0  0  0  0  0  0  0  0  0  0
    2.1337    0.6030    4.1610 H   0  0  0  0  0  0  0  0  0  0  0  0
    1.4320    4.6959    3.9625 N   0  0  0  0  0  0  0  0  0  0  0  0
    1.6815    6.1258    3.8232 C   0  0  0  0  0  0  0  0  0  0  0  0
    1.1818    4.3253    4.8747 H   0  0  0  0  0  0  0  0  0  0  0  0
    2.7057    6.3034    3.4786 H   0  0  0  0  0  0  0  0  0  0  0  0
    0.9862    6.5692    3.1024 H   0  0  0  0  0  0  0  0  0  0  0  0
    1.5485    6.6295    4.7855 H   0  0  0  0  0  0  0  0  0  0  0  0
  1  2  2  0  0  0  0
  1  3  1  0  0  0  0
  1  7  1  0  0  0  0
  3  4  1  0  0  0  0
  3  5  1  0  0  0  0
  3  6  1  0  0  0  0
  7  8  1  0  0  0  0
  7 12  1  0  0  0  0
  8  9  1  0  0  0  0
  8 11  1  0  0  0  0
  8 13  1  0  0  0  0
  9 10  2  0  0  0  0
  9 17  1  0  0  0  0
 11 14  1  0  0  0  0
 11 15  1  0  0  0  0
 11 16  1  0  0  0  0
 17 18  1  0  0  0  0
 17 25  1  0  0  0  0
 18 19  1  0  0  0  0
 18 21  1  0  0  0  0
 18 26  1  0  0  0  0
 19 20  2  0  0  0  0
 19 36  1  0  0  0  0
 21 22  1  0  0  0  0
 21 23  1  0  0  0  0
 21 27  1  0  0  0  0
 22 24  1  0  0  0  0
 22 28  1  0  0  0  0
 22 29  1  0  0  0  0
 23 30  1  0  0  0  0
 23 31  1  0  0  0  0
 23 32  1  0  0  0  0
 24 33  1  0  0  0  0
 24 34  1  0  0  0  0
 24 35  1  0  0  0  0
 36 37  1  0  0  0  0
 36 41  1  0  0  0  0
 37 38  1  0  0  0  0
 37 40  1  0  0  0  0
 37 42  1  0  0  0  0
 38 39  2  0  0  0  0
 38 46  1  0  0  0  0
 40 43  1  0  0  0  0
 40 44  1  0  0  0  0
 40 45  1  0  0  0  0
 46 47  1  0  0  0  0
 46 48  1  0  0  0  0
 47 49  1  0  0  0  0
 47 50  1  0  0  0  0
 47 51  1  0  0  0  0
M  END
$$$$

  -OEChem-05262216503D

 51 50  0     1  0  0  0  0  0999 V2000
    0.2040   -6.0247    0.9325 C   0  0  0  0  0  0  0  0  0  0  0  0
   -0.9206   -6.2893    0.5366 O   0  0  0  0  0  0  0  0  0  0  0  0
    1.2811   -7.0926    0.9224 C   0  0  0  0  0  0  0  0  0  0  0  0
    0.8910   -8.0187    0.4912 H   0  0  0  0  0  0  0  0  0  0  0  0
    2.1321   -6.7575    0.3247 H   0  0  0  0  0  0  0  0  0  0  0  0
    1.6169   -7.2923    1.9428 H   0  0  0  0  0  0  0  0  0  0  0  0
    0.5062   -4.7572    1.3827 N   0  0  0  0  0  0  0  0  0  0  0  0
   -0.3762   -3.5940    1.2247 C   0  0  2  0  0  0  0  0  0  0  0  0
    0.3763   -2.3880    0.6269 C   0  0  0  0  0  0  0  0  0  0  0  0
    1.6038   -2.3748    0.5849 O   0  0  0  0  0  0  0  0  0  0  0  0
   -0.9419   -3.2386    2.6010 C   0  0  0  0  0  0  0  0  0  0  0  0
    1.4925   -4.5517    1.5359 H   0  0  0  0  0  0  0  0  0  0  0  0
   -1.2034   -3.8307    0.5478 H   0  0  0  0  0  0  0  0  0  0  0  0
   -0.1332   -2.9707    3.2887 H   0  0  0  0  0  0  0  0  0  0  0  0
   -1.6270   -2.3887    2.5269 H   0  0  0  0  0  0  0  0  0  0  0  0
   -1.4883   -4.0904    3.0177 H   0  0  0  0  0  0  0  0  0  0  0  0
   -0.3199   -1.3388    0.0512 N   0  0  0  0  0  0  0  0  0  0  0  0
    0.2215    0.0375    0.0237 C   0  0  2  0  0  0  0  0  0  0  0  0
    0.8238    0.4848    1.3979 C   0  0  0  0  0  0  0  0  0  0  0  0
    0.5318   -0.1109    2.4316 O   0  0  0  0  0  0  0  0  0  0  0  0
   -0.9540    0.9237   -0.5159 C   0  0  2  0  0  0  0  0  0  0  0  0
   -1.3163    0.4931   -1.9673 C   0  0  0  0  0  0  0  0  0  0  0  0
   -0.6459    2.4360   -0.5011 C   0  0  0  0  0  0  0  0  0  0  0  0
   -2.6197    1.1104   -2.4879 C   0  0  0  0  0  0  0  0  0  0  0  0
   -1.3265   -1.4102    0.1587 H   0  0  0  0  0  0  0  0  0  0  0  0
    1.0460    0.0736   -0.6956 H   0  0  0  0  0  0  0  0  0  0  0  0
   -1.8265    0.7596    0.1263 H   0  0  0  0  0  0  0  0  0  0  0  0
   -0.4959    0.7563   -2.6436 H   0  0  0  0  0  0  0  0  0  0  0  0
   -1.4409   -0.5918   -2.0218 H   0  0  0  0  0  0  0  0  0  0  0  0
    0.3142    2.6407   -0.9851 H   0  0  0  0  0  0  0  0  0  0  0  0
   -1.4172    3.0105   -1.0175 H   0  0  0  0  0  0  0  0  0  0  0  0
   -0.6235    2.8162    0.5232 H   0  0  0  0  0  0  0  0  0  0  0  0
   -3.4264    0.9706   -1.7617 H   0  0  0  0  0  0  0  0  0  0  0  0
   -2.9104    0.6240   -3.4240 H   0  0  0  0  0  0  0  0  0  0  0  0
   -2.5056    2.1783   -2.6897 H   0  0  0  0  0  0  0  0  0  0  0  0
    1.3865    1.7371    1.5664 N   0  0  0  0  0  0  0  0  0  0  0  0
    1.6843    2.3759    2.8554 C   0  0  2  0  0  0  0  0  0  0  0  0
    1.6313    3.9141    2.7399 C   0  0  0  0  0  0  0  0  0  0  0  0
    1.5437    4.4453    1.6372 O   0  0  0  0  0  0  0  0  0  0  0  0
    3.0699    1.9126    3.3167 C   0  0  0  0  0  0  0  0  0  0  0  0
    1.4527    2.3326    0.7420 H   0  0  0  0  0  0  0  0  0  0  0  0
    0.9369    2.0796    3.5990 H   0  0  0  0  0  0  0  0  0  0  0  0
    3.8346    2.2167    2.5950 H   0  0  0  0  0  0  0  0  0  0  0  0
    3.3169    2.3454    4.2905 H   0  0  0  0  0  0  0  0  0  0  0  0
    3.0933    0.8220    3.4096 H   0  0  0  0  0  0  0  0  0  0  0  0
    1.6567    4.7074    3.8722 N   0  0  0  0  0  0  0  0  0  0  0  0
    1.5878    6.1632    3.8304 C   0  0  0  0  0  0  0  0  0  0  0  0
    1.7102    4.2416    4.7735 H   0  0  0  0  0  0  0  0  0  0  0  0
    2.4150    6.5694    3.2391 H   0  0  0  0  0  0  0  0  0  0  0  0
    0.6428    6.4895    3.3838 H   0  0  0  0  0  0  0  0  0  0  0  0
    1.6527    6.5746    4.8422 H   0  0  0  0  0  0  0  0  0  0  0  0
  1  2  2  0  0  0  0
  1  3  1  0  0  0  0
  1  7  1  0  0  0  0
  3  4  1  0  0  0  0
  3  5  1  0  0  0  0
  3  6  1  0  0  0  0
  7  8  1  0  0  0  0
  7 12  1  0  0  0  0
  8  9  1  0  0  0  0
  8 11  1  0  0  0  0
  8 13  1  0  0  0  0
  9 10  2  0  0  0  0
  9 17  1  0  0  0  0
 11 14  1  0  0  0  0
 11 15  1  0  0  0  0
 11 16  1  0  0  0  0
 17 18  1  0  0  0  0
 17 25  1  0  0  0  0
 18 19  1  0  0  0  0
 18 21  1  0  0  0  0
 18 26  1  0  0  0  0
 19 20  2  0  0  0  0
 19 36  1  0  0  0  0
 21 22  1  0  0  0  0
 21 23  1  0  0  0  0
 21 27  1  0  0  0  0
 22 24  1  0  0  0  0
 22 28  1  0  0  0  0
 22 29  1  0  0  0  0
 23 30  1  0  0  0  0
 23 31  1  0  0  0  0
 23 32  1  0  0  0  0
 24 33  1  0  0  0  0
 24 34  1  0  0  0  0
 24 35  1  0  0  0  0
 36 37  1  0  0  0  0
 36 41  1  0  0  0  0
 37 38  1  0  0  0  0
 37 40  1  0  0  0  0
 37 42  1  0  0  0  0
 38 39  2  0  0  0  0
 38 46  1  0  0  0  0
 40 43  1  0  0  0  0
 40 44  1  0  0  0  0
 40 45  1  0  0  0  0
 46 47  1  0  0  0  0
 46 48  1  0  0  0  0
 47 49  1  0  0  0  0
 47 50  1  0  0  0  0
 47 51  1  0  0  0  0
M  END
$$$$

  -OEChem-05262216503D

 51 50  0     1  0  0  0  0  0999 V2000
    0.2649   -5.9342    1.0190 C   0  0  0  0  0  0  0  0  0  0  0  0
   -0.8602   -6.2282    0.6458 O   0  0  0  0  0  0  0  0  0  0  0  0
    1.3704   -6.9726    0.9900 C   0  0  0  0  0  0  0  0  0  0  0  0
    0.9860   -7.9234    0.6108 H   0  0  0  0  0  0  0  0  0  0  0  0
    2.1805   -6.6355    0.3386 H   0  0  0  0  0  0  0  0  0  0  0  0
    1.7629   -7.1269    1.9980 H   0  0  0  0  0  0  0  0  0  0  0  0
    0.5446   -4.6578    1.4573 N   0  0  0  0  0  0  0  0  0  0  0  0
   -0.3584   -3.5120    1.2868 C   0  0  2  0  0  0  0  0  0  0  0  0
    0.3672   -2.3161    0.6369 C   0  0  0  0  0  0  0  0  0  0  0  0
    1.5905   -2.3117    0.5278 O   0  0  0  0  0  0  0  0  0  0  0  0
   -0.8953   -3.1246    2.6661 C   0  0  0  0  0  0  0  0  0  0  0  0
    1.5303   -4.4295    1.5799 H   0  0  0  0  0  0  0  0  0  0  0  0
   -1.1986   -3.7772    0.6368 H   0  0  0  0  0  0  0  0  0  0  0  0
   -0.0731   -2.8314    3.3274 H   0  0  0  0  0  0  0  0  0  0  0  0
   -1.5904   -2.2834    2.5862 H   0  0  0  0  0  0  0  0  0  0  0  0
   -1.4235   -3.9701    3.1175 H   0  0  0  0  0  0  0  0  0  0  0  0
   -0.3491   -1.2823    0.0578 N   0  0  0  0  0  0  0  0  0  0  0  0
    0.1595    0.1083    0.0102 C   0  0  2  0  0  0  0  0  0  0  0  0
    0.7661    0.6077    1.3724 C   0  0  0  0  0  0  0  0  0  0  0  0
    0.7363   -0.0943    2.3786 O   0  0  0  0  0  0  0  0  0  0  0  0
   -1.0282    0.9399   -0.5984 C   0  0  2  0  0  0  0  0  0  0  0  0
   -1.3190    0.4450   -2.0482 C   0  0  0  0  0  0  0  0  0  0  0  0
   -0.7789    2.4634   -0.6443 C   0  0  0  0  0  0  0  0  0  0  0  0
   -2.6205    0.9904   -2.6500 C   0  0  0  0  0  0  0  0  0  0  0  0
   -1.3523   -1.3712    0.1812 H   0  0  0  0  0  0  0  0  0  0  0  0
    0.9924    0.1416   -0.7000 H   0  0  0  0  0  0  0  0  0  0  0  0
   -1.9179    0.7688    0.0181 H   0  0  0  0  0  0  0  0  0  0  0  0
   -0.4814    0.7126   -2.7010 H   0  0  0  0  0  0  0  0  0  0  0  0
   -1.4041   -0.6449   -2.0677 H   0  0  0  0  0  0  0  0  0  0  0  0
    0.2233    2.6815   -1.0266 H   0  0  0  0  0  0  0  0  0  0  0  0
   -1.5009    2.9768   -1.2812 H   0  0  0  0  0  0  0  0  0  0  0  0
   -0.8961    2.9029    0.3491 H   0  0  0  0  0  0  0  0  0  0  0  0
   -3.4482    0.8756   -1.9436 H   0  0  0  0  0  0  0  0  0  0  0  0
   -2.8652    0.4350   -3.5605 H   0  0  0  0  0  0  0  0  0  0  0  0
   -2.5289    2.0452   -2.9210 H   0  0  0  0  0  0  0  0  0  0  0  0
    1.0198    1.9441    1.6229 N   0  0  0  0  0  0  0  0  0  0  0  0
    1.3340    2.5349    2.9317 C   0  0  2  0  0  0  0  0  0  0  0  0
    0.9476    4.0276    2.9812 C   0  0  0  0  0  0  0  0  0  0  0  0
    0.6435    4.6207    1.9510 O   0  0  0  0  0  0  0  0  0  0  0  0
    2.8326    2.3616    3.1986 C   0  0  0  0  0  0  0  0  0  0  0  0
    0.8789    2.5982    0.8548 H   0  0  0  0  0  0  0  0  0  0  0  0
    0.7641    2.0252    3.7159 H   0  0  0  0  0  0  0  0  0  0  0  0
    3.4197    2.8779    2.4324 H   0  0  0  0  0  0  0  0  0  0  0  0
    3.0984    2.7710    4.1775 H   0  0  0  0  0  0  0  0  0  0  0  0
    3.1004    1.3003    3.1863 H   0  0  0  0  0  0  0  0  0  0  0  0
    0.9239    4.7055    4.1861 N   0  0  0  0  0  0  0  0  0  0  0  0
    0.5472    6.1084    4.3078 C   0  0  0  0  0  0  0  0  0  0  0  0
    1.1692    4.1861    5.0242 H   0  0  0  0  0  0  0  0  0  0  0  0
    1.2066    6.7365    3.6995 H   0  0  0  0  0  0  0  0  0  0  0  0
   -0.4859    6.2564    3.9766 H   0  0  0  0  0  0  0  0  0  0  0  0
    0.6264    6.4329    5.3499 H   0  0  0  0  0  0  0  0  0  0  0  0
  1  2  2  0  0  0  0
  1  3  1  0  0  0  0
  1  7  1  0  0  0  0
  3  4  1  0  0  0  0
  3  5  1  0  0  0  0
  3  6  1  0  0  0  0
  7  8  1  0  0  0  0
  7 12  1  0  0  0  0
  8  9  1  0  0  0  0
  8 11  1  0  0  0  0
  8 13  1  0  0  0  0
  9 10  2  0  0  0  0
  9 17  1  0  0  0  0
 11 14  1  0  0  0  0
 11 15  1  0  0  0  0
 11 16  1  0  0  0  0
 17 18  1  0  0  0  0
 17 25  1  0  0  0  0
 18 19  1  0  0  0  0
 18 21  1  0  0  0  0
 18 26  1  0  0  0  0
 19 20  2  0  0  0  0
 19 36  1  0  0  0  0
 21 22  1  0  0  0  0
 21 23  1  0  0  0  0
 21 27  1  0  0  0  0
 22 24  1  0  0  0  0
 22 28  1  0  0  0  0
 22 29  1  0  0  0  0
 23 30  1  0  0  0  0
 23 31  1  0  0  0  0
 23 32  1  0  0  0  0
 24 33  1  0  0  0  0
 24 34  1  0  0  0  0
 24 35  1  0  0  0  0
 36 37  1  0  0  0  0
 36 41  1  0  0  0  0
 37 38  1  0  0  0  0
 37 40  1  0  0  0  0
 37 42  1  0  0  0  0
 38 39  2  0  0  0  0
 38 46  1  0  0  0  0
 40 43  1  0  0  0  0
 40 44  1  0  0  0  0
 40 45  1  0  0  0  0
 46 47  1  0  0  0  0
 46 48  1  0  0  0  0
 47 49  1  0  0  0  0
 47 50  1  0  0  0  0
 47 51  1  0  0  0  0
M  END
$$$$

  -OEChem-05262216503D

 51 50  0     1  0  0  0  0  0999 V2000
    0.1156   -5.8790    1.1361 C   0  0  0  0  0  0  0  0  0  0  0  0
   -1.0604   -6.1302    0.9224 O   0  0  0  0  0  0  0  0  0  0  0  0
    1.1515   -6.9860    1.0732 C   0  0  0  0  0  0  0  0  0  0  0  0
    0.6837   -7.9242    0.7616 H   0  0  0  0  0  0  0  0  0  0  0  0
    1.9320   -6.7267    0.3537 H   0  0  0  0  0  0  0  0  0  0  0  0
    1.6055   -7.1274    2.0568 H   0  0  0  0  0  0  0  0  0  0  0  0
    0.5104   -4.5895    1.4211 N   0  0  0  0  0  0  0  0  0  0  0  0
   -0.3538   -3.4105    1.2821 C   0  0  2  0  0  0  0  0  0  0  0  0
    0.3947   -2.2382    0.6154 C   0  0  0  0  0  0  0  0  0  0  0  0
    1.6126   -2.2793    0.4684 O   0  0  0  0  0  0  0  0  0  0  0  0
   -0.8411   -3.0068    2.6755 C   0  0  0  0  0  0  0  0  0  0  0  0
    1.5137   -4.4081    1.4329 H   0  0  0  0  0  0  0  0  0  0  0  0
   -1.2181   -3.6471    0.6531 H   0  0  0  0  0  0  0  0  0  0  0  0
    0.0085   -2.7478    3.3163 H   0  0  0  0  0  0  0  0  0  0  0  0
   -1.5049   -2.1390    2.6145 H   0  0  0  0  0  0  0  0  0  0  0  0
   -1.3908   -3.8322    3.1391 H   0  0  0  0  0  0  0  0  0  0  0  0
   -0.3011   -1.2025    0.0157 N   0  0  0  0  0  0  0  0  0  0  0  0
    0.1850    0.1982   -0.0090 C   0  0  2  0  0  0  0  0  0  0  0  0
    0.7304    0.7170    1.3765 C   0  0  0  0  0  0  0  0  0  0  0  0
    0.9868   -0.0457    2.3005 O   0  0  0  0  0  0  0  0  0  0  0  0
   -0.9685    1.0052   -0.7127 C   0  0  2  0  0  0  0  0  0  0  0  0
   -1.1386    0.4874   -2.1747 C   0  0  0  0  0  0  0  0  0  0  0  0
   -0.7215    2.5307   -0.7699 C   0  0  0  0  0  0  0  0  0  0  0  0
   -2.3996    1.0000   -2.8836 C   0  0  0  0  0  0  0  0  0  0  0  0
   -1.3070   -1.2995    0.1074 H   0  0  0  0  0  0  0  0  0  0  0  0
    1.0566    0.2355   -0.6711 H   0  0  0  0  0  0  0  0  0  0  0  0
   -1.9020    0.8345   -0.1652 H   0  0  0  0  0  0  0  0  0  0  0  0
   -0.2579    0.7619   -2.7651 H   0  0  0  0  0  0  0  0  0  0  0  0
   -1.2031   -0.6039   -2.1869 H   0  0  0  0  0  0  0  0  0  0  0  0
    0.3358    2.7453   -0.9561 H   0  0  0  0  0  0  0  0  0  0  0  0
   -1.0350    3.0037    0.1640 H   0  0  0  0  0  0  0  0  0  0  0  0
   -1.3010    3.0177   -1.5549 H   0  0  0  0  0  0  0  0  0  0  0  0
   -3.2791    0.8619   -2.2472 H   0  0  0  0  0  0  0  0  0  0  0  0
   -2.5532    0.4378   -3.8097 H   0  0  0  0  0  0  0  0  0  0  0  0
   -2.3179    2.0564   -3.1498 H   0  0  0  0  0  0  0  0  0  0  0  0
    0.6701    2.0451    1.7590 N   0  0  0  0  0  0  0  0  0  0  0  0
    0.9237    2.5745    3.1074 C   0  0  2  0  0  0  0  0  0  0  0  0
    0.1956    3.9170    3.3265 C   0  0  0  0  0  0  0  0  0  0  0  0
   -0.2902    4.5168    2.3728 O   0  0  0  0  0  0  0  0  0  0  0  0
    2.4354    2.7488    3.2895 C   0  0  0  0  0  0  0  0  0  0  0  0
    0.3420    2.7170    1.0693 H   0  0  0  0  0  0  0  0  0  0  0  0
    0.5460    1.8729    3.8588 H   0  0  0  0  0  0  0  0  0  0  0  0
    2.8318    3.4505    2.5487 H   0  0  0  0  0  0  0  0  0  0  0  0
    2.6619    3.1319    4.2889 H   0  0  0  0  0  0  0  0  0  0  0  0
    2.9459    1.7882    3.1671 H   0  0  0  0  0  0  0  0  0  0  0  0
    0.0719    4.4505    4.5961 N   0  0  0  0  0  0  0  0  0  0  0  0
   -0.6064    5.7112    4.8724 C   0  0  0  0  0  0  0  0  0  0  0  0
    0.4819    3.9316    5.3674 H   0  0  0  0  0  0  0  0  0  0  0  0
   -0.1166    6.5340    4.3410 H   0  0  0  0  0  0  0  0  0  0  0  0
   -1.6536    5.6610    4.5559 H   0  0  0  0  0  0  0  0  0  0  0  0
   -0.5800    5.9287    5.9445 H   0  0  0  0  0  0  0  0  0  0  0  0
  1  2  2  0  0  0  0
  1  3  1  0  0  0  0
  1  7  1  0  0  0  0
  3  4  1  0  0  0  0
  3  5  1  0  0  0  0
  3  6  1  0  0  0  0
  7  8  1  0  0  0  0
  7 12  1  0  0  0  0
  8  9  1  0  0  0  0
  8 11  1  0  0  0  0
  8 13  1  0  0  0  0
  9 10  2  0  0  0  0
  9 17  1  0  0  0  0
 11 14  1  0  0  0  0
 11 15  1  0  0  0  0
 11 16  1  0  0  0  0
 17 18  1  0  0  0  0
 17 25  1  0  0  0  0
 18 19  1  0  0  0  0
 18 21  1  0  0  0  0
 18 26  1  0  0  0  0
 19 20  2  0  0  0  0
 19 36  1  0  0  0  0
 21 22  1  0  0  0  0
 21 23  1  0  0  0  0
 21 27  1  0  0  0  0
 22 24  1  0  0  0  0
 22 28  1  0  0  0  0
 22 29  1  0  0  0  0
 23 30  1  0  0  0  0
 23 31  1  0  0  0  0
 23 32  1  0  0  0  0
 24 33  1  0  0  0  0
 24 34  1  0  0  0  0
 24 35  1  0  0  0  0
 36 37  1  0  0  0  0
 36 41  1  0  0  0  0
 37 38  1  0  0  0  0
 37 40  1  0  0  0  0
 37 42  1  0  0  0  0
 38 39  2  0  0  0  0
 38 46  1  0  0  0  0
 40 43  1  0  0  0  0
 40 44  1  0  0  0  0
 40 45  1  0  0  0  0
 46 47  1  0  0  0  0
 46 48  1  0  0  0  0
 47 49  1  0  0  0  0
 47 50  1  0  0  0  0
 47 51  1  0  0  0  0
M  END
$$$$

  -OEChem-05262216503D

 51 50  0     1  0  0  0  0  0999 V2000
    0.0987   -5.7329    1.1275 C   0  0  0  0  0  0  0  0  0  0  0  0
   -1.0628   -5.9234    0.8006 O   0  0  0  0  0  0  0  0  0  0  0  0
    1.1193   -6.8459    0.9819 C   0  0  0  0  0  0  0  0  0  0  0  0
    0.6477   -7.7369    0.5585 H   0  0  0  0  0  0  0  0  0  0  0  0
    1.9268   -6.5263    0.3182 H   0  0  0  0  0  0  0  0  0  0  0  0
    1.5377   -7.0992    1.9591 H   0  0  0  0  0  0  0  0  0  0  0  0
    0.4977   -4.5055    1.6125 N   0  0  0  0  0  0  0  0  0  0  0  0
   -0.3118   -3.2841    1.5097 C   0  0  2  0  0  0  0  0  0  0  0  0
    0.4252   -2.1887    0.7133 C   0  0  0  0  0  0  0  0  0  0  0  0
    1.6349   -2.2644    0.5269 O   0  0  0  0  0  0  0  0  0  0  0  0
   -0.6120   -2.7929    2.9271 C   0  0  0  0  0  0  0  0  0  0  0  0
    1.5047   -4.3595    1.6731 H   0  0  0  0  0  0  0  0  0  0  0  0
   -1.2573   -3.4876    0.9974 H   0  0  0  0  0  0  0  0  0  0  0  0
    0.3179   -2.5564    3.4550 H   0  0  0  0  0  0  0  0  0  0  0  0
   -1.2307   -1.8910    2.8967 H   0  0  0  0  0  0  0  0  0  0  0  0
   -1.1483   -3.5633    3.4897 H   0  0  0  0  0  0  0  0  0  0  0  0
   -0.2783   -1.1938    0.0577 N   0  0  0  0  0  0  0  0  0  0  0  0
    0.1656    0.2190   -0.0042 C   0  0  2  0  0  0  0  0  0  0  0  0
    0.6485    0.7850    1.3831 C   0  0  0  0  0  0  0  0  0  0  0  0
    1.2956    0.1205    2.1804 O   0  0  0  0  0  0  0  0  0  0  0  0
   -0.9556    1.0007   -0.7781 C   0  0  2  0  0  0  0  0  0  0  0  0
   -1.0581    0.4417   -2.2294 C   0  0  0  0  0  0  0  0  0  0  0  0
   -0.6560    2.5183   -0.8846 C   0  0  0  0  0  0  0  0  0  0  0  0
   -2.2900    0.9314   -3.0052 C   0  0  0  0  0  0  0  0  0  0  0  0
   -1.2830   -1.3125    0.1351 H   0  0  0  0  0  0  0  0  0  0  0  0
    1.0643    0.2520   -0.6297 H   0  0  0  0  0  0  0  0  0  0  0  0
   -1.9149    0.8615   -0.2674 H   0  0  0  0  0  0  0  0  0  0  0  0
   -0.1525    0.7014   -2.7884 H   0  0  0  0  0  0  0  0  0  0  0  0
   -1.1194   -0.6498   -2.2087 H   0  0  0  0  0  0  0  0  0  0  0  0
    0.4235    2.7009   -0.8772 H   0  0  0  0  0  0  0  0  0  0  0  0
   -1.1211    3.0643   -0.0601 H   0  0  0  0  0  0  0  0  0  0  0  0
   -1.0516    2.9620   -1.7988 H   0  0  0  0  0  0  0  0  0  0  0  0
   -3.1987    0.7779   -2.4149 H   0  0  0  0  0  0  0  0  0  0  0  0
   -2.3852    0.3638   -3.9360 H   0  0  0  0  0  0  0  0  0  0  0  0
   -2.2180    1.9887   -3.2702 H   0  0  0  0  0  0  0  0  0  0  0  0
    0.2684    2.0285    1.8522 N   0  0  0  0  0  0  0  0  0  0  0  0
    0.5048    2.5497    3.2057 C   0  0  2  0  0  0  0  0  0  0  0  0
   -0.6031    3.5445    3.6111 C   0  0  0  0  0  0  0  0  0  0  0  0
   -1.4163    3.9306    2.7768 O   0  0  0  0  0  0  0  0  0  0  0  0
    1.8789    3.2268    3.2360 C   0  0  0  0  0  0  0  0  0  0  0  0
   -0.4146    2.5389    1.2980 H   0  0  0  0  0  0  0  0  0  0  0  0
    0.4887    1.7292    3.9311 H   0  0  0  0  0  0  0  0  0  0  0  0
    1.9129    4.0563    2.5226 H   0  0  0  0  0  0  0  0  0  0  0  0
    2.0945    3.6164    4.2353 H   0  0  0  0  0  0  0  0  0  0  0  0
    2.6617    2.5085    2.9719 H   0  0  0  0  0  0  0  0  0  0  0  0
   -0.7049    3.9925    4.9152 N   0  0  0  0  0  0  0  0  0  0  0  0
   -1.7410    4.9136    5.3668 C   0  0  0  0  0  0  0  0  0  0  0  0
   -0.0326    3.6376    5.5893 H   0  0  0  0  0  0  0  0  0  0  0  0
   -1.7116    5.8403    4.7839 H   0  0  0  0  0  0  0  0  0  0  0  0
   -2.7311    4.4591    5.2563 H   0  0  0  0  0  0  0  0  0  0  0  0
   -1.5904    5.1660    6.4209 H   0  0  0  0  0  0  0  0  0  0  0  0
  1  2  2  0  0  0  0
  1  3  1  0  0  0  0
  1  7  1  0  0  0  0
  3  4  1  0  0  0  0
  3  5  1  0  0  0  0
  3  6  1  0  0  0  0
  7  8  1  0  0  0  0
  7 12  1  0  0  0  0
  8  9  1  0  0  0  0
  8 11  1  0  0  0  0
  8 13  1  0  0  0  0
  9 10  2  0  0  0  0
  9 17  1  0  0  0  0
 11 14  1  0  0  0  0
 11 15  1  0  0  0  0
 11 16  1  0  0  0  0
 17 18  1  0  0  0  0
 17 25  1  0  0  0  0
 18 19  1  0  0  0  0
 18 21  1  0  0  0  0
 18 26  1  0  0  0  0
 19 20  2  0  0  0  0
 19 36  1  0  0  0  0
 21 22  1  0  0  0  0
 21 23  1  0  0  0  0
 21 27  1  0  0  0  0
 22 24  1  0  0  0  0
 22 28  1  0  0  0  0
 22 29  1  0  0  0  0
 23 30  1  0  0  0  0
 23 31  1  0  0  0  0
 23 32  1  0  0  0  0
 24 33  1  0  0  0  0
 24 34  1  0  0  0  0
 24 35  1  0  0  0  0
 36 37  1  0  0  0  0
 36 41  1  0  0  0  0
 37 38  1  0  0  0  0
 37 40  1  0  0  0  0
 37 42  1  0  0  0  0
 38 39  2  0  0  0  0
 38 46  1  0  0  0  0
 40 43  1  0  0  0  0
 40 44  1  0  0  0  0
 40 45  1  0  0  0  0
 46 47  1  0  0  0  0
 46 48  1  0  0  0  0
 47 49  1  0  0  0  0
 47 50  1  0  0  0  0
 47 51  1  0  0  0  0
M  END
$$$$

  -OEChem-05262216503D

 51 50  0     1  0  0  0  0  0999 V2000
   -0.0121   -5.5930    1.0265 C   0  0  0  0  0  0  0  0  0  0  0  0
   -1.1056   -5.6617    0.4865 O   0  0  0  0  0  0  0  0  0  0  0  0
    0.9667   -6.7452    0.9022 C   0  0  0  0  0  0  0  0  0  0  0  0
    0.5400   -7.5374    0.2808 H   0  0  0  0  0  0  0  0  0  0  0  0
    1.8952   -6.3986    0.4415 H   0  0  0  0  0  0  0  0  0  0  0  0
    1.1883   -7.1530    1.8913 H   0  0  0  0  0  0  0  0  0  0  0  0
    0.3477   -4.4692    1.7409 N   0  0  0  0  0  0  0  0  0  0  0  0
   -0.3869   -3.1984    1.6714 C   0  0  2  0  0  0  0  0  0  0  0  0
    0.4135   -2.1243    0.9080 C   0  0  0  0  0  0  0  0  0  0  0  0
    1.6344   -2.1968    0.8500 O   0  0  0  0  0  0  0  0  0  0  0  0
   -0.6585   -2.7303    3.1020 C   0  0  0  0  0  0  0  0  0  0  0  0
    1.3383   -4.3937    1.9665 H   0  0  0  0  0  0  0  0  0  0  0  0
   -1.3460   -3.3312    1.1613 H   0  0  0  0  0  0  0  0  0  0  0  0
    0.2837   -2.5494    3.6305 H   0  0  0  0  0  0  0  0  0  0  0  0
   -1.2365   -1.8011    3.0968 H   0  0  0  0  0  0  0  0  0  0  0  0
   -1.2267   -3.4903    3.6476 H   0  0  0  0  0  0  0  0  0  0  0  0
   -0.2373   -1.1582    0.1612 N   0  0  0  0  0  0  0  0  0  0  0  0
    0.2051    0.2513    0.0568 C   0  0  2  0  0  0  0  0  0  0  0  0
    0.5852    0.8574    1.4507 C   0  0  0  0  0  0  0  0  0  0  0  0
    1.4847    0.4021    2.1411 O   0  0  0  0  0  0  0  0  0  0  0  0
   -0.8526    1.0212   -0.8054 C   0  0  2  0  0  0  0  0  0  0  0  0
   -0.8758    0.4070   -2.2360 C   0  0  0  0  0  0  0  0  0  0  0  0
   -0.4910    2.5214   -0.9643 C   0  0  0  0  0  0  0  0  0  0  0  0
   -2.0488    0.8848   -3.1025 C   0  0  0  0  0  0  0  0  0  0  0  0
   -1.2434   -1.2894    0.1339 H   0  0  0  0  0  0  0  0  0  0  0  0
    1.1445    0.2591   -0.5070 H   0  0  0  0  0  0  0  0  0  0  0  0
   -1.8427    0.9301   -0.3453 H   0  0  0  0  0  0  0  0  0  0  0  0
    0.0665    0.6275   -2.7492 H   0  0  0  0  0  0  0  0  0  0  0  0
   -0.9591   -0.6818   -2.1739 H   0  0  0  0  0  0  0  0  0  0  0  0
    0.5799    2.6369   -1.1606 H   0  0  0  0  0  0  0  0  0  0  0  0
   -1.0348    2.9862   -1.7881 H   0  0  0  0  0  0  0  0  0  0  0  0
   -0.7498    3.1016   -0.0782 H   0  0  0  0  0  0  0  0  0  0  0  0
   -2.9926    0.7857   -2.5574 H   0  0  0  0  0  0  0  0  0  0  0  0
   -2.1090    0.2730   -4.0078 H   0  0  0  0  0  0  0  0  0  0  0  0
   -1.9284    1.9251   -3.4139 H   0  0  0  0  0  0  0  0  0  0  0  0
   -0.0678    1.9581    1.9724 N   0  0  0  0  0  0  0  0  0  0  0  0
    0.1139    2.4936    3.3282 C   0  0  2  0  0  0  0  0  0  0  0  0
   -1.2135    3.0498    3.8842 C   0  0  0  0  0  0  0  0  0  0  0  0
   -2.1808    3.1845    3.1411 O   0  0  0  0  0  0  0  0  0  0  0  0
    1.1827    3.5886    3.2730 C   0  0  0  0  0  0  0  0  0  0  0  0
   -0.9067    2.2651    1.4820 H   0  0  0  0  0  0  0  0  0  0  0  0
    0.4439    1.6995    4.0065 H   0  0  0  0  0  0  0  0  0  0  0  0
    0.8594    4.4067    2.6214 H   0  0  0  0  0  0  0  0  0  0  0  0
    1.3732    3.9917    4.2720 H   0  0  0  0  0  0  0  0  0  0  0  0
    2.1207    3.1816    2.8820 H   0  0  0  0  0  0  0  0  0  0  0  0
   -1.3337    3.3815    5.2211 N   0  0  0  0  0  0  0  0  0  0  0  0
   -2.5625    3.8999    5.8104 C   0  0  0  0  0  0  0  0  0  0  0  0
   -0.5204    3.2477    5.8153 H   0  0  0  0  0  0  0  0  0  0  0  0
   -2.8535    4.8381    5.3262 H   0  0  0  0  0  0  0  0  0  0  0  0
   -3.3770    3.1767    5.6968 H   0  0  0  0  0  0  0  0  0  0  0  0
   -2.4182    4.0926    6.8779 H   0  0  0  0  0  0  0  0  0  0  0  0
  1  2  2  0  0  0  0
  1  3  1  0  0  0  0
  1  7  1  0  0  0  0
  3  4  1  0  0  0  0
  3  5  1  0  0  0  0
  3  6  1  0  0  0  0
  7  8  1  0  0  0  0
  7 12  1  0  0  0  0
  8  9  1  0  0  0  0
  8 11  1  0  0  0  0
  8 13  1  0  0  0  0
  9 10  2  0  0  0  0
  9 17  1  0  0  0  0
 11 14  1  0  0  0  0
 11 15  1  0  0  0  0
 11 16  1  0  0  0  0
 17 18  1  0  0  0  0
 17 25  1  0  0  0  0
 18 19  1  0  0  0  0
 18 21  1  0  0  0  0
 18 26  1  0  0  0  0
 19 20  2  0  0  0  0
 19 36  1  0  0  0  0
 21 22  1  0  0  0  0
 21 23  1  0  0  0  0
 21 27  1  0  0  0  0
 22 24  1  0  0  0  0
 22 28  1  0  0  0  0
 22 29  1  0  0  0  0
 23 30  1  0  0  0  0
 23 31  1  0  0  0  0
 23 32  1  0  0  0  0
 24 33  1  0  0  0  0
 24 34  1  0  0  0  0
 24 35  1  0  0  0  0
 36 37  1  0  0  0  0
 36 41  1  0  0  0  0
 37 38  1  0  0  0  0
 37 40  1  0  0  0  0
 37 42  1  0  0  0  0
 38 39  2  0  0  0  0
 38 46  1  0  0  0  0
 40 43  1  0  0  0  0
 40 44  1  0  0  0  0
 40 45  1  0  0  0  0
 46 47  1  0  0  0  0
 46 48  1  0  0  0  0
 47 49  1  0  0  0  0
 47 50  1  0  0  0  0
 47 51  1  0  0  0  0
M  END
$$$$

  -OEChem-05262216503D

 51 50  0     1  0  0  0  0  0999 V2000
    0.4014   -5.5907    0.6853 C   0  0  0  0  0  0  0  0  0  0  0  0
   -0.3707   -5.6553   -0.2590 O   0  0  0  0  0  0  0  0  0  0  0  0
    1.5571   -6.5684    0.7854 C   0  0  0  0  0  0  0  0  0  0  0  0
    1.5778   -7.2192   -0.0933 H   0  0  0  0  0  0  0  0  0  0  0  0
    2.5030   -6.0237    0.8415 H   0  0  0  0  0  0  0  0  0  0  0  0
    1.4470   -7.1865    1.6797 H   0  0  0  0  0  0  0  0  0  0  0  0
    0.2453   -4.6181    1.6514 N   0  0  0  0  0  0  0  0  0  0  0  0
   -0.6326   -3.4510    1.4834 C   0  0  2  0  0  0  0  0  0  0  0  0
    0.1794   -2.1667    1.2181 C   0  0  0  0  0  0  0  0  0  0  0  0
    1.3016   -2.0645    1.6883 O   0  0  0  0  0  0  0  0  0  0  0  0
   -1.4641   -3.2973    2.7583 C   0  0  0  0  0  0  0  0  0  0  0  0
    1.0460   -4.4848    2.2669 H   0  0  0  0  0  0  0  0  0  0  0  0
   -1.3163   -3.5988    0.6413 H   0  0  0  0  0  0  0  0  0  0  0  0
   -0.8134   -3.1301    3.6229 H   0  0  0  0  0  0  0  0  0  0  0  0
   -2.1478   -2.4474    2.6686 H   0  0  0  0  0  0  0  0  0  0  0  0
   -2.0561   -4.2005    2.9355 H   0  0  0  0  0  0  0  0  0  0  0  0
   -0.3530   -1.1743    0.4127 N   0  0  0  0  0  0  0  0  0  0  0  0
    0.1208    0.2201    0.2640 C   0  0  2  0  0  0  0  0  0  0  0  0
    0.4363    0.8805    1.6413 C   0  0  0  0  0  0  0  0  0  0  0  0
    1.5620    0.8323    2.1166 O   0  0  0  0  0  0  0  0  0  0  0  0
   -0.8851    0.9891   -0.6507 C   0  0  2  0  0  0  0  0  0  0  0  0
   -0.8974    0.3386   -2.0633 C   0  0  0  0  0  0  0  0  0  0  0  0
   -0.4700    2.4700   -0.8432 C   0  0  0  0  0  0  0  0  0  0  0  0
   -2.0368    0.8400   -2.9582 C   0  0  0  0  0  0  0  0  0  0  0  0
   -1.2676   -1.3847    0.0253 H   0  0  0  0  0  0  0  0  0  0  0  0
    1.0816    0.1884   -0.2615 H   0  0  0  0  0  0  0  0  0  0  0  0
   -1.8856    0.9444   -0.2076 H   0  0  0  0  0  0  0  0  0  0  0  0
    0.0611    0.5139   -2.5638 H   0  0  0  0  0  0  0  0  0  0  0  0
   -1.0188   -0.7447   -1.9752 H   0  0  0  0  0  0  0  0  0  0  0  0
    0.5421    2.5310   -1.2560 H   0  0  0  0  0  0  0  0  0  0  0  0
   -1.1519    2.9839   -1.5242 H   0  0  0  0  0  0  0  0  0  0  0  0
   -0.4888    3.0358    0.0881 H   0  0  0  0  0  0  0  0  0  0  0  0
   -2.9964    0.7610   -2.4383 H   0  0  0  0  0  0  0  0  0  0  0  0
   -2.0864    0.2329   -3.8673 H   0  0  0  0  0  0  0  0  0  0  0  0
   -1.8822    1.8791   -3.2594 H   0  0  0  0  0  0  0  0  0  0  0  0
   -0.4202    1.8098    2.2047 N   0  0  0  0  0  0  0  0  0  0  0  0
   -0.1961    2.4908    3.4859 C   0  0  2  0  0  0  0  0  0  0  0  0
   -1.5232    2.7010    4.2433 C   0  0  0  0  0  0  0  0  0  0  0  0
   -2.5937    2.5199    3.6709 O   0  0  0  0  0  0  0  0  0  0  0  0
    0.4866    3.8323    3.2044 C   0  0  0  0  0  0  0  0  0  0  0  0
   -1.3740    1.8293    1.8470 H   0  0  0  0  0  0  0  0  0  0  0  0
    0.4518    1.8806    4.1247 H   0  0  0  0  0  0  0  0  0  0  0  0
   -0.1522    4.4633    2.5785 H   0  0  0  0  0  0  0  0  0  0  0  0
    0.6939    4.3629    4.1383 H   0  0  0  0  0  0  0  0  0  0  0  0
    1.4350    3.6700    2.6823 H   0  0  0  0  0  0  0  0  0  0  0  0
   -1.5198    3.0837    5.5718 N   0  0  0  0  0  0  0  0  0  0  0  0
   -2.7360    3.2936    6.3477 C   0  0  0  0  0  0  0  0  0  0  0  0
   -0.6181    3.2118    6.0226 H   0  0  0  0  0  0  0  0  0  0  0  0
   -3.3365    4.0967    5.9079 H   0  0  0  0  0  0  0  0  0  0  0  0
   -3.3369    2.3784    6.3751 H   0  0  0  0  0  0  0  0  0  0  0  0
   -2.4855    3.5724    7.3757 H   0  0  0  0  0  0  0  0  0  0  0  0
  1  2  2  0  0  0  0
  1  3  1  0  0  0  0
  1  7  1  0  0  0  0
  3  4  1  0  0  0  0
  3  5  1  0  0  0  0
  3  6  1  0  0  0  0
  7  8  1  0  0  0  0
  7 12  1  0  0  0  0
  8  9  1  0  0  0  0
  8 11  1  0  0  0  0
  8 13  1  0  0  0  0
  9 10  2  0  0  0  0
  9 17  1  0  0  0  0
 11 14  1  0  0  0  0
 11 15  1  0  0  0  0
 11 16  1  0  0  0  0
 17 18  1  0  0  0  0
 17 25  1  0  0  0  0
 18 19  1  0  0  0  0
 18 21  1  0  0  0  0
 18 26  1  0  0  0  0
 19 20  2  0  0  0  0
 19 36  1  0  0  0  0
 21 22  1  0  0  0  0
 21 23  1  0  0  0  0
 21 27  1  0  0  0  0
 22 24  1  0  0  0  0
 22 28  1  0  0  0  0
 22 29  1  0  0  0  0
 23 30  1  0  0  0  0
 23 31  1  0  0  0  0
 23 32  1  0  0  0  0
 24 33  1  0  0  0  0
 24 34  1  0  0  0  0
 24 35  1  0  0  0  0
 36 37  1  0  0  0  0
 36 41  1  0  0  0  0
 37 38  1  0  0  0  0
 37 40  1  0  0  0  0
 37 42  1  0  0  0  0
 38 39  2  0  0  0  0
 38 46  1  0  0  0  0
 40 43  1  0  0  0  0
 40 44  1  0  0  0  0
 40 45  1  0  0  0  0
 46 47  1  0  0  0  0
 46 48  1  0  0  0  0
 47 49  1  0  0  0  0
 47 50  1  0  0  0  0
 47 51  1  0  0  0  0
M  END
$$$$

  -OEChem-05262216503D

 51 50  0     1  0  0  0  0  0999 V2000
    0.6148   -5.5285    0.6525 C   0  0  0  0  0  0  0  0  0  0  0  0
   -0.0012   -5.5973   -0.3999 O   0  0  0  0  0  0  0  0  0  0  0  0
    1.8268   -6.4119    0.8809 C   0  0  0  0  0  0  0  0  0  0  0  0
    1.9710   -7.0824    0.0290 H   0  0  0  0  0  0  0  0  0  0  0  0
    2.7211   -5.7943    0.9983 H   0  0  0  0  0  0  0  0  0  0  0  0
    1.6868   -7.0132    1.7827 H   0  0  0  0  0  0  0  0  0  0  0  0
    0.2343   -4.6318    1.6293 N   0  0  0  0  0  0  0  0  0  0  0  0
   -0.7052   -3.5281    1.3869 C   0  0  2  0  0  0  0  0  0  0  0  0
    0.0344   -2.1792    1.2703 C   0  0  0  0  0  0  0  0  0  0  0  0
    1.0572   -2.0047    1.9154 O   0  0  0  0  0  0  0  0  0  0  0  0
   -1.6983   -3.4917    2.5505 C   0  0  0  0  0  0  0  0  0  0  0  0
    0.9204   -4.4761    2.3656 H   0  0  0  0  0  0  0  0  0  0  0  0
   -1.2655   -3.6915    0.4605 H   0  0  0  0  0  0  0  0  0  0  0  0
   -1.1762   -3.3083    3.4953 H   0  0  0  0  0  0  0  0  0  0  0  0
   -2.4345   -2.6958    2.4007 H   0  0  0  0  0  0  0  0  0  0  0  0
   -2.2296   -4.4457    2.6247 H   0  0  0  0  0  0  0  0  0  0  0  0
   -0.4650   -1.1855    0.4452 N   0  0  0  0  0  0  0  0  0  0  0  0
    0.0452    0.1954    0.2997 C   0  0  2  0  0  0  0  0  0  0  0  0
    0.3532    0.8624    1.6696 C   0  0  0  0  0  0  0  0  0  0  0  0
    1.5115    1.0351    2.0261 O   0  0  0  0  0  0  0  0  0  0  0  0
   -0.9327    1.0076   -0.6019 C   0  0  2  0  0  0  0  0  0  0  0  0
   -0.9782    0.3837   -2.0227 C   0  0  0  0  0  0  0  0  0  0  0  0
   -0.4766    2.4798   -0.7383 C   0  0  0  0  0  0  0  0  0  0  0  0
   -2.1052    0.9462   -2.8954 C   0  0  0  0  0  0  0  0  0  0  0  0
   -1.2877   -1.4355   -0.0950 H   0  0  0  0  0  0  0  0  0  0  0  0
    1.0079    0.1404   -0.2210 H   0  0  0  0  0  0  0  0  0  0  0  0
   -1.9332    0.9827   -0.1568 H   0  0  0  0  0  0  0  0  0  0  0  0
   -0.0179    0.5371   -2.5267 H   0  0  0  0  0  0  0  0  0  0  0  0
   -1.1363   -0.6962   -1.9531 H   0  0  0  0  0  0  0  0  0  0  0  0
    0.5221    2.5303   -1.1842 H   0  0  0  0  0  0  0  0  0  0  0  0
   -1.1660    3.0477   -1.3676 H   0  0  0  0  0  0  0  0  0  0  0  0
   -0.4428    2.9897    0.2267 H   0  0  0  0  0  0  0  0  0  0  0  0
   -3.0672    0.8639   -2.3806 H   0  0  0  0  0  0  0  0  0  0  0  0
   -2.1648    0.3818   -3.8311 H   0  0  0  0  0  0  0  0  0  0  0  0
   -1.9284    1.9951   -3.1479 H   0  0  0  0  0  0  0  0  0  0  0  0
   -0.6274    1.5735    2.3381 N   0  0  0  0  0  0  0  0  0  0  0  0
   -0.4400    2.2068    3.6485 C   0  0  2  0  0  0  0  0  0  0  0  0
   -1.7172    2.0877    4.5064 C   0  0  0  0  0  0  0  0  0  0  0  0
   -2.7633    1.6929    3.9996 O   0  0  0  0  0  0  0  0  0  0  0  0
   -0.0661    3.6751    3.4254 C   0  0  0  0  0  0  0  0  0  0  0  0
   -1.5903    1.3670    2.0778 H   0  0  0  0  0  0  0  0  0  0  0  0
    0.3686    1.7058    4.1918 H   0  0  0  0  0  0  0  0  0  0  0  0
   -0.8740    4.2017    2.9073 H   0  0  0  0  0  0  0  0  0  0  0  0
    0.1206    4.1743    4.3809 H   0  0  0  0  0  0  0  0  0  0  0  0
    0.8420    3.7455    2.8175 H   0  0  0  0  0  0  0  0  0  0  0  0
   -1.6989    2.4149    5.8497 N   0  0  0  0  0  0  0  0  0  0  0  0
   -2.8708    2.3188    6.7118 C   0  0  0  0  0  0  0  0  0  0  0  0
   -0.8143    2.7146    6.2499 H   0  0  0  0  0  0  0  0  0  0  0  0
   -3.6835    2.9421    6.3244 H   0  0  0  0  0  0  0  0  0  0  0  0
   -3.2192    1.2823    6.7704 H   0  0  0  0  0  0  0  0  0  0  0  0
   -2.6271    2.6595    7.7225 H   0  0  0  0  0  0  0  0  0  0  0  0
  1  2  2  0  0  0  0
  1  3  1  0  0  0  0
  1  7  1  0  0  0  0
  3  4  1  0  0  0  0
  3  5  1  0  0  0  0
  3  6  1  0  0  0  0
  7  8  1  0  0  0  0
  7 12  1  0  0  0  0
  8  9  1  0  0  0  0
  8 11  1  0  0  0  0
  8 13  1  0  0  0  0
  9 10  2  0  0  0  0
  9 17  1  0  0  0  0
 11 14  1  0  0  0  0
 11 15  1  0  0  0  0
 11 16  1  0  0  0  0
 17 18  1  0  0  0  0
 17 25  1  0  0  0  0
 18 19  1  0  0  0  0
 18 21  1  0  0  0  0
 18 26  1  0  0  0  0
 19 20  2  0  0  0  0
 19 36  1  0  0  0  0
 21 22  1  0  0  0  0
 21 23  1  0  0  0  0
 21 27  1  0  0  0  0
 22 24  1  0  0  0  0
 22 28  1  0  0  0  0
 22 29  1  0  0  0  0
 23 30  1  0  0  0  0
 23 31  1  0  0  0  0
 23 32  1  0  0  0  0
 24 33  1  0  0  0  0
 24 34  1  0  0  0  0
 24 35  1  0  0  0  0
 36 37  1  0  0  0  0
 36 41  1  0  0  0  0
 37 38  1  0  0  0  0
 37 40  1  0  0  0  0
 37 42  1  0  0  0  0
 38 39  2  0  0  0  0
 38 46  1  0  0  0  0
 40 43  1  0  0  0  0
 40 44  1  0  0  0  0
 40 45  1  0  0  0  0
 46 47  1  0  0  0  0
 46 48  1  0  0  0  0
 47 49  1  0  0  0  0
 47 50  1  0  0  0  0
 47 51  1  0  0  0  0
M  END
$$$$

  -OEChem-05262216503D

 51 50  0     1  0  0  0  0  0999 V2000
   -0.8770   -4.1032    0.2848 C   0  0  0  0  0  0  0  0  0  0  0  0
   -1.5990   -3.2021   -0.1168 O   0  0  0  0  0  0  0  0  0  0  0  0
   -0.3909   -5.1776   -0.6691 C   0  0  0  0  0  0  0  0  0  0  0  0
   -0.8395   -5.0364   -1.6568 H   0  0  0  0  0  0  0  0  0  0  0  0
    0.6965   -5.1276   -0.7661 H   0  0  0  0  0  0  0  0  0  0  0  0
   -0.6709   -6.1653   -0.2946 H   0  0  0  0  0  0  0  0  0  0  0  0
   -0.4562   -4.0985    1.5991 N   0  0  0  0  0  0  0  0  0  0  0  0
   -0.8906   -3.1132    2.6032 C   0  0  2  0  0  0  0  0  0  0  0  0
   -0.1677   -1.7505    2.4605 C   0  0  0  0  0  0  0  0  0  0  0  0
    0.4826   -1.2796    3.3818 O   0  0  0  0  0  0  0  0  0  0  0  0
   -0.6941   -3.7503    3.9854 C   0  0  0  0  0  0  0  0  0  0  0  0
    0.1965   -4.8241    1.8835 H   0  0  0  0  0  0  0  0  0  0  0  0
   -1.9615   -2.9187    2.4793 H   0  0  0  0  0  0  0  0  0  0  0  0
    0.3651   -3.9593    4.1677 H   0  0  0  0  0  0  0  0  0  0  0  0
   -1.0516   -3.0737    4.7686 H   0  0  0  0  0  0  0  0  0  0  0  0
   -1.2551   -4.6870    4.0583 H   0  0  0  0  0  0  0  0  0  0  0  0
   -0.2702   -1.0639    1.2632 N   0  0  0  0  0  0  0  0  0  0  0  0
    0.2712    0.2737    0.9483 C   0  0  2  0  0  0  0  0  0  0  0  0
   -0.0045    1.2933    2.0796 C   0  0  0  0  0  0  0  0  0  0  0  0
    0.9075    1.7233    2.7735 O   0  0  0  0  0  0  0  0  0  0  0  0
   -0.2810    0.7333   -0.4313 C   0  0  2  0  0  0  0  0  0  0  0  0
    0.2066   -0.2253   -1.5483 C   0  0  0  0  0  0  0  0  0  0  0  0
    0.1762    2.1719   -0.7584 C   0  0  0  0  0  0  0  0  0  0  0  0
   -0.5045   -0.0010   -2.8863 C   0  0  0  0  0  0  0  0  0  0  0  0
   -0.8062   -1.5496    0.5382 H   0  0  0  0  0  0  0  0  0  0  0  0
    1.3612    0.1911    0.8706 H   0  0  0  0  0  0  0  0  0  0  0  0
   -1.3756    0.7123   -0.3963 H   0  0  0  0  0  0  0  0  0  0  0  0
    1.2871   -0.1139   -1.6867 H   0  0  0  0  0  0  0  0  0  0  0  0
    0.0232   -1.2629   -1.2571 H   0  0  0  0  0  0  0  0  0  0  0  0
    1.2691    2.2293   -0.7875 H   0  0  0  0  0  0  0  0  0  0  0  0
   -0.2143    2.4977   -1.7256 H   0  0  0  0  0  0  0  0  0  0  0  0
   -0.1858    2.8865   -0.0142 H   0  0  0  0  0  0  0  0  0  0  0  0
   -1.5902   -0.0358   -2.7539 H   0  0  0  0  0  0  0  0  0  0  0  0
   -0.2185   -0.7854   -3.5934 H   0  0  0  0  0  0  0  0  0  0  0  0
   -0.2323    0.9628   -3.3245 H   0  0  0  0  0  0  0  0  0  0  0  0
   -1.2722    1.8185    2.2578 N   0  0  0  0  0  0  0  0  0  0  0  0
   -1.6394    2.6524    3.4128 C   0  0  2  0  0  0  0  0  0  0  0  0
   -1.8860    1.8027    4.6848 C   0  0  0  0  0  0  0  0  0  0  0  0
   -2.9316    1.8909    5.3187 O   0  0  0  0  0  0  0  0  0  0  0  0
   -2.8564    3.4902    3.0021 C   0  0  0  0  0  0  0  0  0  0  0  0
   -2.0188    1.3587    1.7459 H   0  0  0  0  0  0  0  0  0  0  0  0
   -0.8235    3.3453    3.6448 H   0  0  0  0  0  0  0  0  0  0  0  0
   -3.7148    2.8455    2.7883 H   0  0  0  0  0  0  0  0  0  0  0  0
   -3.1320    4.1773    3.8084 H   0  0  0  0  0  0  0  0  0  0  0  0
   -2.6286    4.0809    2.1096 H   0  0  0  0  0  0  0  0  0  0  0  0
   -0.9359    0.8861    5.0922 N   0  0  0  0  0  0  0  0  0  0  0  0
   -1.1067   -0.0217    6.2165 C   0  0  0  0  0  0  0  0  0  0  0  0
   -0.1049    0.7845    4.5012 H   0  0  0  0  0  0  0  0  0  0  0  0
   -1.2370    0.5411    7.1464 H   0  0  0  0  0  0  0  0  0  0  0  0
   -1.9813   -0.6620    6.0634 H   0  0  0  0  0  0  0  0  0  0  0  0
   -0.2238   -0.6600    6.3182 H   0  0  0  0  0  0  0  0  0  0  0  0
  1  2  2  0  0  0  0
  1  3  1  0  0  0  0
  1  7  1  0  0  0  0
  3  4  1  0  0  0  0
  3  5  1  0  0  0  0
  3  6  1  0  0  0  0
  7  8  1  0  0  0  0
  7 12  1  0  0  0  0
  8  9  1  0  0  0  0
  8 11  1  0  0  0  0
  8 13  1  0  0  0  0
  9 10  2  0  0  0  0
  9 17  1  0  0  0  0
 11 14  1  0  0  0  0
 11 15  1  0  0  0  0
 11 16  1  0  0  0  0
 17 18  1  0  0  0  0
 17 25  1  0  0  0  0
 18 19  1  0  0  0  0
 18 21  1  0  0  0  0
 18 26  1  0  0  0  0
 19 20  2  0  0  0  0
 19 36  1  0  0  0  0
 21 22  1  0  0  0  0
 21 23  1  0  0  0  0
 21 27  1  0  0  0  0
 22 24  1  0  0  0  0
 22 28  1  0  0  0  0
 22 29  1  0  0  0  0
 23 30  1  0  0  0  0
 23 31  1  0  0  0  0
 23 32  1  0  0  0  0
 24 33  1  0  0  0  0
 24 34  1  0  0  0  0
 24 35  1  0  0  0  0
 36 37  1  0  0  0  0
 36 41  1  0  0  0  0
 37 38  1  0  0  0  0
 37 40  1  0  0  0  0
 37 42  1  0  0  0  0
 38 39  2  0  0  0  0
 38 46  1  0  0  0  0
 40 43  1  0  0  0  0
 40 44  1  0  0  0  0
 40 45  1  0  0  0  0
 46 47  1  0  0  0  0
 46 48  1  0  0  0  0
 47 49  1  0  0  0  0
 47 50  1  0  0  0  0
 47 51  1  0  0  0  0
M  END
$$$$

  -OEChem-05262216503D

 51 50  0     1  0  0  0  0  0999 V2000
   -0.9932   -4.1041    0.1478 C   0  0  0  0  0  0  0  0  0  0  0  0
   -1.6649   -3.1449   -0.2040 O   0  0  0  0  0  0  0  0  0  0  0  0
   -0.5851   -5.1636   -0.8580 C   0  0  0  0  0  0  0  0  0  0  0  0
   -0.9903   -4.9232   -1.8449 H   0  0  0  0  0  0  0  0  0  0  0  0
    0.5042   -5.2132   -0.9285 H   0  0  0  0  0  0  0  0  0  0  0  0
   -0.9686   -6.1390   -0.5491 H   0  0  0  0  0  0  0  0  0  0  0  0
   -0.5552   -4.1824    1.4545 N   0  0  0  0  0  0  0  0  0  0  0  0
   -0.9237   -3.2265    2.5124 C   0  0  2  0  0  0  0  0  0  0  0  0
   -0.1457   -1.8902    2.4188 C   0  0  0  0  0  0  0  0  0  0  0  0
    0.5052   -1.4591    3.3593 O   0  0  0  0  0  0  0  0  0  0  0  0
   -0.7286   -3.9345    3.8591 C   0  0  0  0  0  0  0  0  0  0  0  0
    0.0497   -4.9624    1.6975 H   0  0  0  0  0  0  0  0  0  0  0  0
   -1.9873   -2.9809    2.4209 H   0  0  0  0  0  0  0  0  0  0  0  0
    0.3266   -4.1800    4.0170 H   0  0  0  0  0  0  0  0  0  0  0  0
   -1.0597   -3.2877    4.6783 H   0  0  0  0  0  0  0  0  0  0  0  0
   -1.3140   -4.8583    3.8944 H   0  0  0  0  0  0  0  0  0  0  0  0
   -0.2047   -1.1658    1.2424 N   0  0  0  0  0  0  0  0  0  0  0  0
    0.2625    0.2184    1.0379 C   0  0  2  0  0  0  0  0  0  0  0  0
   -0.1821    1.1530    2.1863 C   0  0  0  0  0  0  0  0  0  0  0  0
    0.6371    1.7928    2.8349 O   0  0  0  0  0  0  0  0  0  0  0  0
   -0.2282    0.7073   -0.3530 C   0  0  2  0  0  0  0  0  0  0  0  0
    0.4019   -0.1577   -1.4748 C   0  0  0  0  0  0  0  0  0  0  0  0
    0.1292    2.1921   -0.5767 C   0  0  0  0  0  0  0  0  0  0  0  0
   -0.2321    0.0830   -2.8481 C   0  0  0  0  0  0  0  0  0  0  0  0
   -0.7667   -1.5972    0.5029 H   0  0  0  0  0  0  0  0  0  0  0  0
    1.3580    0.2193    1.0409 H   0  0  0  0  0  0  0  0  0  0  0  0
   -1.3179    0.6029   -0.3946 H   0  0  0  0  0  0  0  0  0  0  0  0
    1.4777    0.0381   -1.5309 H   0  0  0  0  0  0  0  0  0  0  0  0
    0.2773   -1.2195   -1.2447 H   0  0  0  0  0  0  0  0  0  0  0  0
    1.2131    2.3373   -0.5234 H   0  0  0  0  0  0  0  0  0  0  0  0
   -0.2198    2.5374   -1.5530 H   0  0  0  0  0  0  0  0  0  0  0  0
   -0.3425    2.8324    0.1747 H   0  0  0  0  0  0  0  0  0  0  0  0
   -1.3190   -0.0346   -2.7942 H   0  0  0  0  0  0  0  0  0  0  0  0
    0.1583   -0.6424   -3.5684 H   0  0  0  0  0  0  0  0  0  0  0  0
   -0.0022    1.0844   -3.2215 H   0  0  0  0  0  0  0  0  0  0  0  0
   -1.5294    1.3242    2.4516 N   0  0  0  0  0  0  0  0  0  0  0  0
   -2.0315    2.0309    3.6388 C   0  0  2  0  0  0  0  0  0  0  0  0
   -1.8920    1.1710    4.9185 C   0  0  0  0  0  0  0  0  0  0  0  0
   -2.8749    0.7687    5.5313 O   0  0  0  0  0  0  0  0  0  0  0  0
   -3.4795    2.4462    3.3509 C   0  0  0  0  0  0  0  0  0  0  0  0
   -2.1569    0.6794    1.9809 H   0  0  0  0  0  0  0  0  0  0  0  0
   -1.4485    2.9444    3.7977 H   0  0  0  0  0  0  0  0  0  0  0  0
   -4.1103    1.5653    3.1938 H   0  0  0  0  0  0  0  0  0  0  0  0
   -3.8849    3.0151    4.1938 H   0  0  0  0  0  0  0  0  0  0  0  0
   -3.5250    3.0748    2.4563 H   0  0  0  0  0  0  0  0  0  0  0  0
   -0.6318    0.8051    5.3461 N   0  0  0  0  0  0  0  0  0  0  0  0
   -0.3937   -0.1682    6.4012 C   0  0  0  0  0  0  0  0  0  0  0  0
    0.1315    1.0087    4.6947 H   0  0  0  0  0  0  0  0  0  0  0  0
   -0.8630    0.1562    7.3356 H   0  0  0  0  0  0  0  0  0  0  0  0
   -0.8002   -1.1447    6.1195 H   0  0  0  0  0  0  0  0  0  0  0  0
    0.6814   -0.2773    6.5736 H   0  0  0  0  0  0  0  0  0  0  0  0
  1  2  2  0  0  0  0
  1  3  1  0  0  0  0
  1  7  1  0  0  0  0
  3  4  1  0  0  0  0
  3  5  1  0  0  0  0
  3  6  1  0  0  0  0
  7  8  1  0  0  0  0
  7 12  1  0  0  0  0
  8  9  1  0  0  0  0
  8 11  1  0  0  0  0
  8 13  1  0  0  0  0
  9 10  2  0  0  0  0
  9 17  1  0  0  0  0
 11 14  1  0  0  0  0
 11 15  1  0  0  0  0
 11 16  1  0  0  0  0
 17 18  1  0  0  0  0
 17 25  1  0  0  0  0
 18 19  1  0  0  0  0
 18 21  1  0  0  0  0
 18 26  1  0  0  0  0
 19 20  2  0  0  0  0
 19 36  1  0  0  0  0
 21 22  1  0  0  0  0
 21 23  1  0  0  0  0
 21 27  1  0  0  0  0
 22 24  1  0  0  0  0
 22 28  1  0  0  0  0
 22 29  1  0  0  0  0
 23 30  1  0  0  0  0
 23 31  1  0  0  0  0
 23 32  1  0  0  0  0
 24 33  1  0  0  0  0
 24 34  1  0  0  0  0
 24 35  1  0  0  0  0
 36 37  1  0  0  0  0
 36 41  1  0  0  0  0
 37 38  1  0  0  0  0
 37 40  1  0  0  0  0
 37 42  1  0  0  0  0
 38 39  2  0  0  0  0
 38 46  1  0  0  0  0
 40 43  1  0  0  0  0
 40 44  1  0  0  0  0
 40 45  1  0  0  0  0
 46 47  1  0  0  0  0
 46 48  1  0  0  0  0
 47 49  1  0  0  0  0
 47 50  1  0  0  0  0
 47 51  1  0  0  0  0
M  END
$$$$

  -OEChem-05262216503D

 51 50  0     1  0  0  0  0  0999 V2000
    0.7095   -5.2284    0.5957 C   0  0  0  0  0  0  0  0  0  0  0  0
    0.2490   -5.0849   -0.5267 O   0  0  0  0  0  0  0  0  0  0  0  0
    1.9161   -6.1218    0.8143 C   0  0  0  0  0  0  0  0  0  0  0  0
    2.1761   -6.6379   -0.1140 H   0  0  0  0  0  0  0  0  0  0  0  0
    2.7709   -5.5214    1.1358 H   0  0  0  0  0  0  0  0  0  0  0  0
    1.6946   -6.8681    1.5810 H   0  0  0  0  0  0  0  0  0  0  0  0
    0.1531   -4.5568    1.6647 N   0  0  0  0  0  0  0  0  0  0  0  0
   -0.8273   -3.4763    1.4958 C   0  0  2  0  0  0  0  0  0  0  0  0
   -0.1390   -2.0985    1.4176 C   0  0  0  0  0  0  0  0  0  0  0  0
    0.7859   -1.8422    2.1775 O   0  0  0  0  0  0  0  0  0  0  0  0
   -1.7970   -3.5257    2.6781 C   0  0  0  0  0  0  0  0  0  0  0  0
    0.7172   -4.5316    2.5110 H   0  0  0  0  0  0  0  0  0  0  0  0
   -1.4055   -3.6277    0.5786 H   0  0  0  0  0  0  0  0  0  0  0  0
   -1.2669   -3.3501    3.6200 H   0  0  0  0  0  0  0  0  0  0  0  0
   -2.5695   -2.7582    2.5689 H   0  0  0  0  0  0  0  0  0  0  0  0
   -2.2861   -4.5032    2.7291 H   0  0  0  0  0  0  0  0  0  0  0  0
   -0.5691   -1.1550    0.4983 N   0  0  0  0  0  0  0  0  0  0  0  0
   -0.0616    0.2290    0.3681 C   0  0  2  0  0  0  0  0  0  0  0  0
    0.0798    0.9457    1.7330 C   0  0  0  0  0  0  0  0  0  0  0  0
    1.0444    1.6627    1.9714 O   0  0  0  0  0  0  0  0  0  0  0  0
   -0.9994    1.0046   -0.6013 C   0  0  2  0  0  0  0  0  0  0  0  0
   -0.9590    0.3669   -2.0146 C   0  0  0  0  0  0  0  0  0  0  0  0
   -0.6048    2.4942   -0.6940 C   0  0  0  0  0  0  0  0  0  0  0  0
   -2.0488    0.9027   -2.9493 C   0  0  0  0  0  0  0  0  0  0  0  0
   -1.2711   -1.4657   -0.1670 H   0  0  0  0  0  0  0  0  0  0  0  0
    0.9431    0.1921   -0.0677 H   0  0  0  0  0  0  0  0  0  0  0  0
   -2.0219    0.9455   -0.2124 H   0  0  0  0  0  0  0  0  0  0  0  0
    0.0233    0.5367   -2.4679 H   0  0  0  0  0  0  0  0  0  0  0  0
   -1.0997   -0.7151   -1.9435 H   0  0  0  0  0  0  0  0  0  0  0  0
    0.4306    2.5965   -1.0348 H   0  0  0  0  0  0  0  0  0  0  0  0
   -1.2538    3.0326   -1.3888 H   0  0  0  0  0  0  0  0  0  0  0  0
   -0.7004    2.9896    0.2767 H   0  0  0  0  0  0  0  0  0  0  0  0
   -3.0330    0.8279   -2.4765 H   0  0  0  0  0  0  0  0  0  0  0  0
   -2.0644    0.3177   -3.8740 H   0  0  0  0  0  0  0  0  0  0  0  0
   -1.8638    1.9467   -3.2160 H   0  0  0  0  0  0  0  0  0  0  0  0
   -0.9413    0.8457    2.6580 N   0  0  0  0  0  0  0  0  0  0  0  0
   -0.7565    1.1363    4.0820 C   0  0  2  0  0  0  0  0  0  0  0  0
   -1.4249    0.0503    4.9501 C   0  0  0  0  0  0  0  0  0  0  0  0
   -2.2647   -0.7011    4.4613 O   0  0  0  0  0  0  0  0  0  0  0  0
   -1.3505    2.5154    4.3745 C   0  0  0  0  0  0  0  0  0  0  0  0
   -1.6357    0.1304    2.4494 H   0  0  0  0  0  0  0  0  0  0  0  0
    0.3107    1.1411    4.3293 H   0  0  0  0  0  0  0  0  0  0  0  0
   -2.4199    2.5292    4.1411 H   0  0  0  0  0  0  0  0  0  0  0  0
   -1.2190    2.7740    5.4292 H   0  0  0  0  0  0  0  0  0  0  0  0
   -0.8505    3.2766    3.7671 H   0  0  0  0  0  0  0  0  0  0  0  0
   -1.0843   -0.0894    6.2827 N   0  0  0  0  0  0  0  0  0  0  0  0
   -1.6346   -1.1274    7.1455 C   0  0  0  0  0  0  0  0  0  0  0  0
   -0.3407    0.5041    6.6395 H   0  0  0  0  0  0  0  0  0  0  0  0
   -2.7260   -1.0508    7.1911 H   0  0  0  0  0  0  0  0  0  0  0  0
   -1.3657   -2.1199    6.7692 H   0  0  0  0  0  0  0  0  0  0  0  0
   -1.2404   -1.0232    8.1608 H   0  0  0  0  0  0  0  0  0  0  0  0
  1  2  2  0  0  0  0
  1  3  1  0  0  0  0
  1  7  1  0  0  0  0
  3  4  1  0  0  0  0
  3  5  1  0  0  0  0
  3  6  1  0  0  0  0
  7  8  1  0  0  0  0
  7 12  1  0  0  0  0
  8  9  1  0  0  0  0
  8 11  1  0  0  0  0
  8 13  1  0  0  0  0
  9 10  2  0  0  0  0
  9 17  1  0  0  0  0
 11 14  1  0  0  0  0
 11 15  1  0  0  0  0
 11 16  1  0  0  0  0
 17 18  1  0  0  0  0
 17 25  1  0  0  0  0
 18 19  1  0  0  0  0
 18 21  1  0  0  0  0
 18 26  1  0  0  0  0
 19 20  2  0  0  0  0
 19 36  1  0  0  0  0
 21 22  1  0  0  0  0
 21 23  1  0  0  0  0
 21 27  1  0  0  0  0
 22 24  1  0  0  0  0
 22 28  1  0  0  0  0
 22 29  1  0  0  0  0
 23 30  1  0  0  0  0
 23 31  1  0  0  0  0
 23 32  1  0  0  0  0
 24 33  1  0  0  0  0
 24 34  1  0  0  0  0
 24 35  1  0  0  0  0
 36 37  1  0  0  0  0
 36 41  1  0  0  0  0
 37 38  1  0  0  0  0
 37 40  1  0  0  0  0
 37 42  1  0  0  0  0
 38 39  2  0  0  0  0
 38 46  1  0  0  0  0
 40 43  1  0  0  0  0
 40 44  1  0  0  0  0
 40 45  1  0  0  0  0
 46 47  1  0  0  0  0
 46 48  1  0  0  0  0
 47 49  1  0  0  0  0
 47 50  1  0  0  0  0
 47 51  1  0  0  0  0
M  END
$$$$

  -OEChem-05262216503D

 51 50  0     1  0  0  0  0  0999 V2000
   -0.7066   -4.2207   -0.0515 C   0  0  0  0  0  0  0  0  0  0  0  0
   -1.5040   -3.3215   -0.2744 O   0  0  0  0  0  0  0  0  0  0  0  0
   -0.3503   -5.2119   -1.1423 C   0  0  0  0  0  0  0  0  0  0  0  0
   -0.9391   -5.0103   -2.0416 H   0  0  0  0  0  0  0  0  0  0  0  0
    0.7108   -5.1288   -1.3903 H   0  0  0  0  0  0  0  0  0  0  0  0
   -0.5611   -6.2298   -0.8056 H   0  0  0  0  0  0  0  0  0  0  0  0
   -0.0779   -4.2886    1.1751 N   0  0  0  0  0  0  0  0  0  0  0  0
   -0.3571   -3.3847    2.3040 C   0  0  2  0  0  0  0  0  0  0  0  0
    0.2827   -1.9847    2.1292 C   0  0  0  0  0  0  0  0  0  0  0  0
    1.0471   -1.5142    2.9619 O   0  0  0  0  0  0  0  0  0  0  0  0
    0.1089   -4.0945    3.5809 C   0  0  0  0  0  0  0  0  0  0  0  0
    0.6175   -5.0183    1.3026 H   0  0  0  0  0  0  0  0  0  0  0  0
   -1.4388   -3.2313    2.3885 H   0  0  0  0  0  0  0  0  0  0  0  0
    1.1925   -4.2483    3.5638 H   0  0  0  0  0  0  0  0  0  0  0  0
   -0.1411   -3.4914    4.4594 H   0  0  0  0  0  0  0  0  0  0  0  0
   -0.3841   -5.0661    3.6812 H   0  0  0  0  0  0  0  0  0  0  0  0
   -0.0067   -1.2503    0.9916 N   0  0  0  0  0  0  0  0  0  0  0  0
    0.2651    0.1894    0.7911 C   0  0  2  0  0  0  0  0  0  0  0  0
   -0.1417    1.0589    2.0081 C   0  0  0  0  0  0  0  0  0  0  0  0
    0.5032    2.0559    2.3114 O   0  0  0  0  0  0  0  0  0  0  0  0
   -0.4705    0.6229   -0.5106 C   0  0  2  0  0  0  0  0  0  0  0  0
    0.1048   -0.1392   -1.7337 C   0  0  0  0  0  0  0  0  0  0  0  0
   -0.3601    2.1440   -0.7448 C   0  0  0  0  0  0  0  0  0  0  0  0
   -0.7364    0.0291   -3.0030 C   0  0  0  0  0  0  0  0  0  0  0  0
   -0.6562   -1.7076    0.3452 H   0  0  0  0  0  0  0  0  0  0  0  0
    1.3430    0.3272    0.6548 H   0  0  0  0  0  0  0  0  0  0  0  0
   -1.5315    0.3708   -0.4046 H   0  0  0  0  0  0  0  0  0  0  0  0
    1.1280    0.1983   -1.9290 H   0  0  0  0  0  0  0  0  0  0  0  0
    0.1523   -1.2108   -1.5214 H   0  0  0  0  0  0  0  0  0  0  0  0
    0.6899    2.4486   -0.7986 H   0  0  0  0  0  0  0  0  0  0  0  0
   -0.8558    2.4389   -1.6725 H   0  0  0  0  0  0  0  0  0  0  0  0
   -0.8429    2.7024    0.0624 H   0  0  0  0  0  0  0  0  0  0  0  0
   -1.7815   -0.2290   -2.8060 H   0  0  0  0  0  0  0  0  0  0  0  0
   -0.3593   -0.6343   -3.7873 H   0  0  0  0  0  0  0  0  0  0  0  0
   -0.6898    1.0544   -3.3791 H   0  0  0  0  0  0  0  0  0  0  0  0
   -1.1954    0.6619    2.8093 N   0  0  0  0  0  0  0  0  0  0  0  0
   -1.2646    0.9690    4.2396 C   0  0  2  0  0  0  0  0  0  0  0  0
   -1.4735   -0.3277    5.0507 C   0  0  0  0  0  0  0  0  0  0  0  0
   -1.9955   -1.3087    4.5245 O   0  0  0  0  0  0  0  0  0  0  0  0
   -2.4155    1.9501    4.4658 C   0  0  0  0  0  0  0  0  0  0  0  0
   -1.5933   -0.2392    2.5517 H   0  0  0  0  0  0  0  0  0  0  0  0
   -0.3287    1.4255    4.5792 H   0  0  0  0  0  0  0  0  0  0  0  0
   -3.3639    1.5083    4.1438 H   0  0  0  0  0  0  0  0  0  0  0  0
   -2.4929    2.2115    5.5253 H   0  0  0  0  0  0  0  0  0  0  0  0
   -2.2455    2.8676    3.8934 H   0  0  0  0  0  0  0  0  0  0  0  0
   -1.0853   -0.3942    6.3758 N   0  0  0  0  0  0  0  0  0  0  0  0
   -1.1666   -1.6142    7.1687 C   0  0  0  0  0  0  0  0  0  0  0  0
   -0.5622    0.3949    6.7444 H   0  0  0  0  0  0  0  0  0  0  0  0
   -2.1906   -2.0028    7.1735 H   0  0  0  0  0  0  0  0  0  0  0  0
   -0.5005   -2.3806    6.7594 H   0  0  0  0  0  0  0  0  0  0  0  0
   -0.8713   -1.4134    8.2031 H   0  0  0  0  0  0  0  0  0  0  0  0
  1  2  2  0  0  0  0
  1  3  1  0  0  0  0
  1  7  1  0  0  0  0
  3  4  1  0  0  0  0
  3  5  1  0  0  0  0
  3  6  1  0  0  0  0
  7  8  1  0  0  0  0
  7 12  1  0  0  0  0
  8  9  1  0  0  0  0
  8 11  1  0  0  0  0
  8 13  1  0  0  0  0
  9 10  2  0  0  0  0
  9 17  1  0  0  0  0
 11 14  1  0  0  0  0
 11 15  1  0  0  0  0
 11 16  1  0  0  0  0
 17 18  1  0  0  0  0
 17 25  1  0  0  0  0
 18 19  1  0  0  0  0
 18 21  1  0  0  0  0
 18 26  1  0  0  0  0
 19 20  2  0  0  0  0
 19 36  1  0  0  0  0
 21 22  1  0  0  0  0
 21 23  1  0  0  0  0
 21 27  1  0  0  0  0
 22 24  1  0  0  0  0
 22 28  1  0  0  0  0
 22 29  1  0  0  0  0
 23 30  1  0  0  0  0
 23 31  1  0  0  0  0
 23 32  1  0  0  0  0
 24 33  1  0  0  0  0
 24 34  1  0  0  0  0
 24 35  1  0  0  0  0
 36 37  1  0  0  0  0
 36 41  1  0  0  0  0
 37 38  1  0  0  0  0
 37 40  1  0  0  0  0
 37 42  1  0  0  0  0
 38 39  2  0  0  0  0
 38 46  1  0  0  0  0
 40 43  1  0  0  0  0
 40 44  1  0  0  0  0
 40 45  1  0  0  0  0
 46 47  1  0  0  0  0
 46 48  1  0  0  0  0
 47 49  1  0  0  0  0
 47 50  1  0  0  0  0
 47 51  1  0  0  0  0
M  END
$$$$

  -OEChem-05262216503D

 51 50  0     1  0  0  0  0  0999 V2000
    0.8503   -5.5698    0.3770 C   0  0  0  0  0  0  0  0  0  0  0  0
    0.4669   -5.5651   -0.7827 O   0  0  0  0  0  0  0  0  0  0  0  0
    2.0206   -6.4447    0.7859 C   0  0  0  0  0  0  0  0  0  0  0  0
    2.3662   -7.0351   -0.0672 H   0  0  0  0  0  0  0  0  0  0  0  0
    2.8453   -5.8217    1.1407 H   0  0  0  0  0  0  0  0  0  0  0  0
    1.7168   -7.1249    1.5851 H   0  0  0  0  0  0  0  0  0  0  0  0
    0.2375   -4.7692    1.3186 N   0  0  0  0  0  0  0  0  0  0  0  0
   -0.7030   -3.6935    0.9767 C   0  0  2  0  0  0  0  0  0  0  0  0
   -0.0425   -2.3026    1.0703 C   0  0  0  0  0  0  0  0  0  0  0  0
    0.9175   -2.1235    1.8074 O   0  0  0  0  0  0  0  0  0  0  0  0
   -1.8870   -3.7904    1.9408 C   0  0  0  0  0  0  0  0  0  0  0  0
    0.7363   -4.6673    2.2002 H   0  0  0  0  0  0  0  0  0  0  0  0
   -1.0780   -3.8189   -0.0442 H   0  0  0  0  0  0  0  0  0  0  0  0
   -1.5484   -3.6862    2.9766 H   0  0  0  0  0  0  0  0  0  0  0  0
   -2.6187   -3.0035    1.7343 H   0  0  0  0  0  0  0  0  0  0  0  0
   -2.3824   -4.7604    1.8342 H   0  0  0  0  0  0  0  0  0  0  0  0
   -0.5383   -1.2444    0.3283 N   0  0  0  0  0  0  0  0  0  0  0  0
   -0.1406    0.1804    0.4334 C   0  0  2  0  0  0  0  0  0  0  0  0
   -0.0289    0.7451    1.8821 C   0  0  0  0  0  0  0  0  0  0  0  0
    0.6019    1.7738    2.0977 O   0  0  0  0  0  0  0  0  0  0  0  0
   -1.1559    0.9707   -0.4554 C   0  0  2  0  0  0  0  0  0  0  0  0
   -1.0238    0.5317   -1.9407 C   0  0  0  0  0  0  0  0  0  0  0  0
   -0.9706    2.4995   -0.3552 C   0  0  0  0  0  0  0  0  0  0  0  0
   -2.1530    1.0538   -2.8359 C   0  0  0  0  0  0  0  0  0  0  0  0
   -1.3148   -1.4630   -0.2892 H   0  0  0  0  0  0  0  0  0  0  0  0
    0.8596    0.2891    0.0005 H   0  0  0  0  0  0  0  0  0  0  0  0
   -2.1676    0.7361   -0.1065 H   0  0  0  0  0  0  0  0  0  0  0  0
   -0.0612    0.8706   -2.3379 H   0  0  0  0  0  0  0  0  0  0  0  0
   -1.0375   -0.5586   -2.0184 H   0  0  0  0  0  0  0  0  0  0  0  0
    0.0604    2.7778   -0.5959 H   0  0  0  0  0  0  0  0  0  0  0  0
   -1.6405    3.0301   -1.0350 H   0  0  0  0  0  0  0  0  0  0  0  0
   -1.2050    2.8552    0.6520 H   0  0  0  0  0  0  0  0  0  0  0  0
   -3.1290    0.8201   -2.3998 H   0  0  0  0  0  0  0  0  0  0  0  0
   -2.0929    0.5804   -3.8206 H   0  0  0  0  0  0  0  0  0  0  0  0
   -2.0796    2.1349   -2.9804 H   0  0  0  0  0  0  0  0  0  0  0  0
   -0.5720    0.0799    2.9653 N   0  0  0  0  0  0  0  0  0  0  0  0
   -0.2989    0.4107    4.3672 C   0  0  2  0  0  0  0  0  0  0  0  0
   -0.4399   -0.8351    5.2672 C   0  0  0  0  0  0  0  0  0  0  0  0
   -1.0562   -1.8212    4.8734 O   0  0  0  0  0  0  0  0  0  0  0  0
   -1.2722    1.5061    4.8131 C   0  0  0  0  0  0  0  0  0  0  0  0
   -0.8342   -0.8881    2.7887 H   0  0  0  0  0  0  0  0  0  0  0  0
    0.7297    0.7741    4.4651 H   0  0  0  0  0  0  0  0  0  0  0  0
   -2.3062    1.1605    4.7150 H   0  0  0  0  0  0  0  0  0  0  0  0
   -1.0921    1.7787    5.8572 H   0  0  0  0  0  0  0  0  0  0  0  0
   -1.1441    2.4015    4.1968 H   0  0  0  0  0  0  0  0  0  0  0  0
    0.1152   -0.8475    6.5337 N   0  0  0  0  0  0  0  0  0  0  0  0
    0.0370   -1.9934    7.4312 C   0  0  0  0  0  0  0  0  0  0  0  0
    0.6479   -0.0315    6.8207 H   0  0  0  0  0  0  0  0  0  0  0  0
   -1.0077   -2.2377    7.6510 H   0  0  0  0  0  0  0  0  0  0  0  0
    0.5161   -2.8679    6.9785 H   0  0  0  0  0  0  0  0  0  0  0  0
    0.5449   -1.7701    8.3744 H   0  0  0  0  0  0  0  0  0  0  0  0
  1  2  2  0  0  0  0
  1  3  1  0  0  0  0
  1  7  1  0  0  0  0
  3  4  1  0  0  0  0
  3  5  1  0  0  0  0
  3  6  1  0  0  0  0
  7  8  1  0  0  0  0
  7 12  1  0  0  0  0
  8  9  1  0  0  0  0
  8 11  1  0  0  0  0
  8 13  1  0  0  0  0
  9 10  2  0  0  0  0
  9 17  1  0  0  0  0
 11 14  1  0  0  0  0
 11 15  1  0  0  0  0
 11 16  1  0  0  0  0
 17 18  1  0  0  0  0
 17 25  1  0  0  0  0
 18 19  1  0  0  0  0
 18 21  1  0  0  0  0
 18 26  1  0  0  0  0
 19 20  2  0  0  0  0
 19 36  1  0  0  0  0
 21 22  1  0  0  0  0
 21 23  1  0  0  0  0
 21 27  1  0  0  0  0
 22 24  1  0  0  0  0
 22 28  1  0  0  0  0
 22 29  1  0  0  0  0
 23 30  1  0  0  0  0
 23 31  1  0  0  0  0
 23 32  1  0  0  0  0
 24 33  1  0  0  0  0
 24 34  1  0  0  0  0
 24 35  1  0  0  0  0
 36 37  1  0  0  0  0
 36 41  1  0  0  0  0
 37 38  1  0  0  0  0
 37 40  1  0  0  0  0
 37 42  1  0  0  0  0
 38 39  2  0  0  0  0
 38 46  1  0  0  0  0
 40 43  1  0  0  0  0
 40 44  1  0  0  0  0
 40 45  1  0  0  0  0
 46 47  1  0  0  0  0
 46 48  1  0  0  0  0
 47 49  1  0  0  0  0
 47 50  1  0  0  0  0
 47 51  1  0  0  0  0
M  END
$$$$

  -OEChem-05262216503D

 51 50  0     1  0  0  0  0  0999 V2000
    0.8195   -5.6755    0.3582 C   0  0  0  0  0  0  0  0  0  0  0  0
    0.4469   -5.7247   -0.8040 O   0  0  0  0  0  0  0  0  0  0  0  0
    1.9652   -6.5533    0.8250 C   0  0  0  0  0  0  0  0  0  0  0  0
    2.3177   -7.1827    0.0031 H   0  0  0  0  0  0  0  0  0  0  0  0
    2.7933   -5.9303    1.1721 H   0  0  0  0  0  0  0  0  0  0  0  0
    1.6333   -7.1958    1.6440 H   0  0  0  0  0  0  0  0  0  0  0  0
    0.2172   -4.8118    1.2492 N   0  0  0  0  0  0  0  0  0  0  0  0
   -0.6762   -3.7214    0.8355 C   0  0  2  0  0  0  0  0  0  0  0  0
    0.0329   -2.3517    0.8755 C   0  0  0  0  0  0  0  0  0  0  0  0
    1.0634   -2.2050    1.5186 O   0  0  0  0  0  0  0  0  0  0  0  0
   -1.8772   -3.7305    1.7841 C   0  0  0  0  0  0  0  0  0  0  0  0
    0.7092   -4.6784    2.1312 H   0  0  0  0  0  0  0  0  0  0  0  0
   -1.0383   -3.8823   -0.1852 H   0  0  0  0  0  0  0  0  0  0  0  0
   -1.5525   -3.5677    2.8172 H   0  0  0  0  0  0  0  0  0  0  0  0
   -2.5881   -2.9434    1.5154 H   0  0  0  0  0  0  0  0  0  0  0  0
   -2.3924   -4.6947    1.7301 H   0  0  0  0  0  0  0  0  0  0  0  0
   -0.5097   -1.2579    0.2251 N   0  0  0  0  0  0  0  0  0  0  0  0
   -0.1604    0.1706    0.4326 C   0  0  2  0  0  0  0  0  0  0  0  0
   -0.0426    0.6417    1.9216 C   0  0  0  0  0  0  0  0  0  0  0  0
    0.3468    1.7719    2.1903 O   0  0  0  0  0  0  0  0  0  0  0  0
   -1.2069    0.9651   -0.4240 C   0  0  2  0  0  0  0  0  0  0  0  0
   -1.0364    0.6156   -1.9318 C   0  0  0  0  0  0  0  0  0  0  0  0
   -1.1071    2.4949   -0.2473 C   0  0  0  0  0  0  0  0  0  0  0  0
   -2.1745    1.1286   -2.8222 C   0  0  0  0  0  0  0  0  0  0  0  0
   -1.3588   -1.4442   -0.3006 H   0  0  0  0  0  0  0  0  0  0  0  0
    0.8330    0.3414    0.0042 H   0  0  0  0  0  0  0  0  0  0  0  0
   -2.2096    0.6624   -0.1031 H   0  0  0  0  0  0  0  0  0  0  0  0
   -0.0866    1.0236   -2.2932 H   0  0  0  0  0  0  0  0  0  0  0  0
   -0.9940   -0.4677   -2.0716 H   0  0  0  0  0  0  0  0  0  0  0  0
   -0.0803    2.8346   -0.4167 H   0  0  0  0  0  0  0  0  0  0  0  0
   -1.7652    3.0258   -0.9378 H   0  0  0  0  0  0  0  0  0  0  0  0
   -1.4164    2.7897    0.7592 H   0  0  0  0  0  0  0  0  0  0  0  0
   -3.1455    0.8296   -2.4159 H   0  0  0  0  0  0  0  0  0  0  0  0
   -2.0759    0.7045   -3.8263 H   0  0  0  0  0  0  0  0  0  0  0  0
   -2.1499    2.2172   -2.9172 H   0  0  0  0  0  0  0  0  0  0  0  0
   -0.2536   -0.2118    2.9896 N   0  0  0  0  0  0  0  0  0  0  0  0
    0.0355    0.1036    4.3934 C   0  0  2  0  0  0  0  0  0  0  0  0
    0.2634   -1.1820    5.2181 C   0  0  0  0  0  0  0  0  0  0  0  0
   -0.1276   -2.2689    4.8022 O   0  0  0  0  0  0  0  0  0  0  0  0
   -1.1361    0.9017    4.9759 C   0  0  0  0  0  0  0  0  0  0  0  0
   -0.2029   -1.2032    2.7518 H   0  0  0  0  0  0  0  0  0  0  0  0
    0.9512    0.7015    4.4525 H   0  0  0  0  0  0  0  0  0  0  0  0
   -2.0587    0.3146    4.9265 H   0  0  0  0  0  0  0  0  0  0  0  0
   -0.9427    1.1607    6.0211 H   0  0  0  0  0  0  0  0  0  0  0  0
   -1.2826    1.8296    4.4143 H   0  0  0  0  0  0  0  0  0  0  0  0
    0.8951   -1.1191    6.4468 N   0  0  0  0  0  0  0  0  0  0  0  0
    1.1418   -2.2883    7.2823 C   0  0  0  0  0  0  0  0  0  0  0  0
    1.2283   -0.2112    6.7578 H   0  0  0  0  0  0  0  0  0  0  0  0
    0.1967   -2.7677    7.5588 H   0  0  0  0  0  0  0  0  0  0  0  0
    1.7635   -3.0165    6.7509 H   0  0  0  0  0  0  0  0  0  0  0  0
    1.6621   -1.9953    8.1994 H   0  0  0  0  0  0  0  0  0  0  0  0
  1  2  2  0  0  0  0
  1  3  1  0  0  0  0
  1  7  1  0  0  0  0
  3  4  1  0  0  0  0
  3  5  1  0  0  0  0
  3  6  1  0  0  0  0
  7  8  1  0  0  0  0
  7 12  1  0  0  0  0
  8  9  1  0  0  0  0
  8 11  1  0  0  0  0
  8 13  1  0  0  0  0
  9 10  2  0  0  0  0
  9 17  1  0  0  0  0
 11 14  1  0  0  0  0
 11 15  1  0  0  0  0
 11 16  1  0  0  0  0
 17 18  1  0  0  0  0
 17 25  1  0  0  0  0
 18 19  1  0  0  0  0
 18 21  1  0  0  0  0
 18 26  1  0  0  0  0
 19 20  2  0  0  0  0
 19 36  1  0  0  0  0
 21 22  1  0  0  0  0
 21 23  1  0  0  0  0
 21 27  1  0  0  0  0
 22 24  1  0  0  0  0
 22 28  1  0  0  0  0
 22 29  1  0  0  0  0
 23 30  1  0  0  0  0
 23 31  1  0  0  0  0
 23 32  1  0  0  0  0
 24 33  1  0  0  0  0
 24 34  1  0  0  0  0
 24 35  1  0  0  0  0
 36 37  1  0  0  0  0
 36 41  1  0  0  0  0
 37 38  1  0  0  0  0
 37 40  1  0  0  0  0
 37 42  1  0  0  0  0
 38 39  2  0  0  0  0
 38 46  1  0  0  0  0
 40 43  1  0  0  0  0
 40 44  1  0  0  0  0
 40 45  1  0  0  0  0
 46 47  1  0  0  0  0
 46 48  1  0  0  0  0
 47 49  1  0  0  0  0
 47 50  1  0  0  0  0
 47 51  1  0  0  0  0
M  END
$$$$

  -OEChem-05262216503D

 51 50  0     1  0  0  0  0  0999 V2000
    0.8491   -5.5563    1.4729 C   0  0  0  0  0  0  0  0  0  0  0  0
    0.7406   -6.1710    0.4224 O   0  0  0  0  0  0  0  0  0  0  0  0
    1.7650   -6.0725    2.5661 C   0  0  0  0  0  0  0  0  0  0  0  0
    2.2872   -6.9723    2.2292 H   0  0  0  0  0  0  0  0  0  0  0  0
    2.5043   -5.3084    2.8208 H   0  0  0  0  0  0  0  0  0  0  0  0
    1.1808   -6.3128    3.4576 H   0  0  0  0  0  0  0  0  0  0  0  0
    0.1393   -4.3943    1.6835 N   0  0  0  0  0  0  0  0  0  0  0  0
   -0.5158   -3.6319    0.6078 C   0  0  2  0  0  0  0  0  0  0  0  0
    0.1957   -2.2812    0.3562 C   0  0  0  0  0  0  0  0  0  0  0  0
    1.3545   -2.1142    0.7136 O   0  0  0  0  0  0  0  0  0  0  0  0
   -1.9788   -3.4488    1.0281 C   0  0  0  0  0  0  0  0  0  0  0  0
    0.4069   -3.8807    2.5301 H   0  0  0  0  0  0  0  0  0  0  0  0
   -0.4928   -4.1888   -0.3350 H   0  0  0  0  0  0  0  0  0  0  0  0
   -2.0441   -2.8383    1.9348 H   0  0  0  0  0  0  0  0  0  0  0  0
   -2.5550   -2.9655    0.2341 H   0  0  0  0  0  0  0  0  0  0  0  0
   -2.4348   -4.4230    1.2328 H   0  0  0  0  0  0  0  0  0  0  0  0
   -0.4870   -1.1698   -0.1084 N   0  0  0  0  0  0  0  0  0  0  0  0
   -0.2131    0.2404    0.2838 C   0  0  2  0  0  0  0  0  0  0  0  0
   -0.0127    0.4796    1.8264 C   0  0  0  0  0  0  0  0  0  0  0  0
    0.0346    1.6009    2.3132 O   0  0  0  0  0  0  0  0  0  0  0  0
   -1.3489    1.0754   -0.4100 C   0  0  2  0  0  0  0  0  0  0  0  0
   -1.2266    0.9414   -1.9573 C   0  0  0  0  0  0  0  0  0  0  0  0
   -1.3274    2.5761   -0.0448 C   0  0  0  0  0  0  0  0  0  0  0  0
   -2.4323    1.4915   -2.7296 C   0  0  0  0  0  0  0  0  0  0  0  0
   -1.4426   -1.3622   -0.3929 H   0  0  0  0  0  0  0  0  0  0  0  0
    0.7410    0.5345   -0.1663 H   0  0  0  0  0  0  0  0  0  0  0  0
   -2.3162    0.6704   -0.0939 H   0  0  0  0  0  0  0  0  0  0  0  0
   -0.3190    1.4524   -2.2958 H   0  0  0  0  0  0  0  0  0  0  0  0
   -1.1273   -0.1092   -2.2426 H   0  0  0  0  0  0  0  0  0  0  0  0
   -0.3167    2.9831   -0.1512 H   0  0  0  0  0  0  0  0  0  0  0  0
   -2.0001    3.1598   -0.6751 H   0  0  0  0  0  0  0  0  0  0  0  0
   -1.6673    2.7298    0.9826 H   0  0  0  0  0  0  0  0  0  0  0  0
   -3.3657    1.0946   -2.3191 H   0  0  0  0  0  0  0  0  0  0  0  0
   -2.3634    1.1932   -3.7803 H   0  0  0  0  0  0  0  0  0  0  0  0
   -2.4665    2.5834   -2.6967 H   0  0  0  0  0  0  0  0  0  0  0  0
    0.2127   -0.5626    2.7062 N   0  0  0  0  0  0  0  0  0  0  0  0
    0.5175   -0.4595    4.1358 C   0  0  2  0  0  0  0  0  0  0  0  0
    1.1379   -1.7798    4.6448 C   0  0  0  0  0  0  0  0  0  0  0  0
    0.9217   -2.8389    4.0569 O   0  0  0  0  0  0  0  0  0  0  0  0
   -0.7698   -0.1581    4.9117 C   0  0  0  0  0  0  0  0  0  0  0  0
    0.5310   -1.4232    2.2573 H   0  0  0  0  0  0  0  0  0  0  0  0
    1.2416    0.3458    4.2975 H   0  0  0  0  0  0  0  0  0  0  0  0
   -1.5093   -0.9479    4.7454 H   0  0  0  0  0  0  0  0  0  0  0  0
   -0.5638   -0.0933    5.9842 H   0  0  0  0  0  0  0  0  0  0  0  0
   -1.1994    0.7946    4.5873 H   0  0  0  0  0  0  0  0  0  0  0  0
    1.9357   -1.7871    5.7733 N   0  0  0  0  0  0  0  0  0  0  0  0
    2.5867   -2.9859    6.2874 C   0  0  0  0  0  0  0  0  0  0  0  0
    2.1318   -0.8932    6.2151 H   0  0  0  0  0  0  0  0  0  0  0  0
    1.8419   -3.7463    6.5451 H   0  0  0  0  0  0  0  0  0  0  0  0
    3.2711   -3.4009    5.5399 H   0  0  0  0  0  0  0  0  0  0  0  0
    3.1614   -2.7475    7.1877 H   0  0  0  0  0  0  0  0  0  0  0  0
  1  2  2  0  0  0  0
  1  3  1  0  0  0  0
  1  7  1  0  0  0  0
  3  4  1  0  0  0  0
  3  5  1  0  0  0  0
  3  6  1  0  0  0  0
  7  8  1  0  0  0  0
  7 12  1  0  0  0  0
  8  9  1  0  0  0  0
  8 11  1  0  0  0  0
  8 13  1  0  0  0  0
  9 10  2  0  0  0  0
  9 17  1  0  0  0  0
 11 14  1  0  0  0  0
 11 15  1  0  0  0  0
 11 16  1  0  0  0  0
 17 18  1  0  0  0  0
 17 25  1  0  0  0  0
 18 19  1  0  0  0  0
 18 21  1  0  0  0  0
 18 26  1  0  0  0  0
 19 20  2  0  0  0  0
 19 36  1  0  0  0  0
 21 22  1  0  0  0  0
 21 23  1  0  0  0  0
 21 27  1  0  0  0  0
 22 24  1  0  0  0  0
 22 28  1  0  0  0  0
 22 29  1  0  0  0  0
 23 30  1  0  0  0  0
 23 31  1  0  0  0  0
 23 32  1  0  0  0  0
 24 33  1  0  0  0  0
 24 34  1  0  0  0  0
 24 35  1  0  0  0  0
 36 37  1  0  0  0  0
 36 41  1  0  0  0  0
 37 38  1  0  0  0  0
 37 40  1  0  0  0  0
 37 42  1  0  0  0  0
 38 39  2  0  0  0  0
 38 46  1  0  0  0  0
 40 43  1  0  0  0  0
 40 44  1  0  0  0  0
 40 45  1  0  0  0  0
 46 47  1  0  0  0  0
 46 48  1  0  0  0  0
 47 49  1  0  0  0  0
 47 50  1  0  0  0  0
 47 51  1  0  0  0  0
M  END
$$$$

  -OEChem-05262216503D

 51 50  0     1  0  0  0  0  0999 V2000
    0.8633   -5.6031    1.3740 C   0  0  0  0  0  0  0  0  0  0  0  0
    0.4916   -6.2310    0.3937 O   0  0  0  0  0  0  0  0  0  0  0  0
    1.9689   -6.1515    2.2555 C   0  0  0  0  0  0  0  0  0  0  0  0
    2.4084   -7.0430    1.8003 H   0  0  0  0  0  0  0  0  0  0  0  0
    2.7504   -5.3974    2.3819 H   0  0  0  0  0  0  0  0  0  0  0  0
    1.5663   -6.4135    3.2367 H   0  0  0  0  0  0  0  0  0  0  0  0
    0.2813   -4.3970    1.6973 N   0  0  0  0  0  0  0  0  0  0  0  0
   -0.5572   -3.6204    0.7706 C   0  0  2  0  0  0  0  0  0  0  0  0
    0.1512   -2.3234    0.3141 C   0  0  0  0  0  0  0  0  0  0  0  0
    1.3655   -2.2004    0.4206 O   0  0  0  0  0  0  0  0  0  0  0  0
   -1.8705   -3.3308    1.5063 C   0  0  0  0  0  0  0  0  0  0  0  0
    0.7563   -3.8805    2.4455 H   0  0  0  0  0  0  0  0  0  0  0  0
   -0.7840   -4.2003   -0.1304 H   0  0  0  0  0  0  0  0  0  0  0  0
   -1.6898   -2.6892    2.3748 H   0  0  0  0  0  0  0  0  0  0  0  0
   -2.5874   -2.8357    0.8450 H   0  0  0  0  0  0  0  0  0  0  0  0
   -2.3195   -4.2669    1.8541 H   0  0  0  0  0  0  0  0  0  0  0  0
   -0.5571   -1.2092   -0.1009 N   0  0  0  0  0  0  0  0  0  0  0  0
   -0.2111    0.2004    0.2294 C   0  0  2  0  0  0  0  0  0  0  0  0
    0.1562    0.4413    1.7434 C   0  0  0  0  0  0  0  0  0  0  0  0
   -0.0861    1.4881    2.3253 O   0  0  0  0  0  0  0  0  0  0  0  0
   -1.3687    1.0647   -0.3896 C   0  0  2  0  0  0  0  0  0  0  0  0
   -1.3730    0.8885   -1.9383 C   0  0  0  0  0  0  0  0  0  0  0  0
   -1.2375    2.5750   -0.0835 C   0  0  0  0  0  0  0  0  0  0  0  0
   -2.6143    1.4651   -2.6319 C   0  0  0  0  0  0  0  0  0  0  0  0
   -1.5509   -1.3843   -0.2132 H   0  0  0  0  0  0  0  0  0  0  0  0
    0.7061    0.4528   -0.3132 H   0  0  0  0  0  0  0  0  0  0  0  0
   -2.3244    0.7162    0.0162 H   0  0  0  0  0  0  0  0  0  0  0  0
   -0.4761    1.3536   -2.3611 H   0  0  0  0  0  0  0  0  0  0  0  0
   -1.3366   -0.1722   -2.2000 H   0  0  0  0  0  0  0  0  0  0  0  0
   -0.2002    2.9025   -0.2048 H   0  0  0  0  0  0  0  0  0  0  0  0
   -1.8644    3.1842   -0.7356 H   0  0  0  0  0  0  0  0  0  0  0  0
   -1.5642    2.7953    0.9356 H   0  0  0  0  0  0  0  0  0  0  0  0
   -3.5256    1.1230   -2.1322 H   0  0  0  0  0  0  0  0  0  0  0  0
   -2.6442    1.1272   -3.6723 H   0  0  0  0  0  0  0  0  0  0  0  0
   -2.6038    2.5578   -2.6398 H   0  0  0  0  0  0  0  0  0  0  0  0
    0.7376   -0.5403    2.5244 N   0  0  0  0  0  0  0  0  0  0  0  0
    0.9789   -0.5192    3.9722 C   0  0  2  0  0  0  0  0  0  0  0  0
    1.7698   -1.7749    4.3981 C   0  0  0  0  0  0  0  0  0  0  0  0
    1.5939   -2.8447    3.8181 O   0  0  0  0  0  0  0  0  0  0  0  0
   -0.3520   -0.4983    4.7387 C   0  0  0  0  0  0  0  0  0  0  0  0
    1.1202   -1.3381    2.0090 H   0  0  0  0  0  0  0  0  0  0  0  0
    1.5643    0.3697    4.2279 H   0  0  0  0  0  0  0  0  0  0  0  0
   -0.9685   -1.3571    4.4557 H   0  0  0  0  0  0  0  0  0  0  0  0
   -0.1718   -0.5405    5.8172 H   0  0  0  0  0  0  0  0  0  0  0  0
   -0.9119    0.4166    4.5252 H   0  0  0  0  0  0  0  0  0  0  0  0
    2.6497   -1.7217    5.4626 N   0  0  0  0  0  0  0  0  0  0  0  0
    3.4158   -2.8718    5.9267 C   0  0  0  0  0  0  0  0  0  0  0  0
    2.7796   -0.8251    5.9230 H   0  0  0  0  0  0  0  0  0  0  0  0
    2.7449   -3.6496    6.3058 H   0  0  0  0  0  0  0  0  0  0  0  0
    4.0149   -3.2895    5.1106 H   0  0  0  0  0  0  0  0  0  0  0  0
    4.0929   -2.5749    6.7334 H   0  0  0  0  0  0  0  0  0  0  0  0
  1  2  2  0  0  0  0
  1  3  1  0  0  0  0
  1  7  1  0  0  0  0
  3  4  1  0  0  0  0
  3  5  1  0  0  0  0
  3  6  1  0  0  0  0
  7  8  1  0  0  0  0
  7 12  1  0  0  0  0
  8  9  1  0  0  0  0
  8 11  1  0  0  0  0
  8 13  1  0  0  0  0
  9 10  2  0  0  0  0
  9 17  1  0  0  0  0
 11 14  1  0  0  0  0
 11 15  1  0  0  0  0
 11 16  1  0  0  0  0
 17 18  1  0  0  0  0
 17 25  1  0  0  0  0
 18 19  1  0  0  0  0
 18 21  1  0  0  0  0
 18 26  1  0  0  0  0
 19 20  2  0  0  0  0
 19 36  1  0  0  0  0
 21 22  1  0  0  0  0
 21 23  1  0  0  0  0
 21 27  1  0  0  0  0
 22 24  1  0  0  0  0
 22 28  1  0  0  0  0
 22 29  1  0  0  0  0
 23 30  1  0  0  0  0
 23 31  1  0  0  0  0
 23 32  1  0  0  0  0
 24 33  1  0  0  0  0
 24 34  1  0  0  0  0
 24 35  1  0  0  0  0
 36 37  1  0  0  0  0
 36 41  1  0  0  0  0
 37 38  1  0  0  0  0
 37 40  1  0  0  0  0
 37 42  1  0  0  0  0
 38 39  2  0  0  0  0
 38 46  1  0  0  0  0
 40 43  1  0  0  0  0
 40 44  1  0  0  0  0
 40 45  1  0  0  0  0
 46 47  1  0  0  0  0
 46 48  1  0  0  0  0
 47 49  1  0  0  0  0
 47 50  1  0  0  0  0
 47 51  1  0  0  0  0
M  END
$$$$

  -OEChem-05262216503D

 51 50  0     1  0  0  0  0  0999 V2000
    0.6727   -5.5796    1.8492 C   0  0  0  0  0  0  0  0  0  0  0  0
   -0.0656   -6.3479    1.2507 O   0  0  0  0  0  0  0  0  0  0  0  0
    1.7234   -6.1154    2.8028 C   0  0  0  0  0  0  0  0  0  0  0  0
    1.7616   -7.2067    2.7497 H   0  0  0  0  0  0  0  0  0  0  0  0
    2.7049   -5.7137    2.5386 H   0  0  0  0  0  0  0  0  0  0  0  0
    1.4828   -5.8168    3.8258 H   0  0  0  0  0  0  0  0  0  0  0  0
    0.5482   -4.2200    1.6700 N   0  0  0  0  0  0  0  0  0  0  0  0
   -0.3106   -3.5949    0.6520 C   0  0  2  0  0  0  0  0  0  0  0  0
    0.2799   -2.2490    0.1779 C   0  0  0  0  0  0  0  0  0  0  0  0
    1.4933   -2.0806    0.1570 O   0  0  0  0  0  0  0  0  0  0  0  0
   -1.7176   -3.4373    1.2453 C   0  0  0  0  0  0  0  0  0  0  0  0
    1.2780   -3.6456    2.1074 H   0  0  0  0  0  0  0  0  0  0  0  0
   -0.3688   -4.2437   -0.2290 H   0  0  0  0  0  0  0  0  0  0  0  0
   -1.7023   -2.7476    2.0948 H   0  0  0  0  0  0  0  0  0  0  0  0
   -2.4158   -3.0584    0.4934 H   0  0  0  0  0  0  0  0  0  0  0  0
   -2.0907   -4.4058    1.5929 H   0  0  0  0  0  0  0  0  0  0  0  0
   -0.5088   -1.1652   -0.1677 N   0  0  0  0  0  0  0  0  0  0  0  0
   -0.2109    0.2431    0.2044 C   0  0  2  0  0  0  0  0  0  0  0  0
    0.2119    0.4127    1.7103 C   0  0  0  0  0  0  0  0  0  0  0  0
   -0.3461    1.2027    2.4572 O   0  0  0  0  0  0  0  0  0  0  0  0
   -1.4116    1.1083   -0.3156 C   0  0  2  0  0  0  0  0  0  0  0  0
   -1.4805    1.0073   -1.8686 C   0  0  0  0  0  0  0  0  0  0  0  0
   -1.2653    2.6070    0.0463 C   0  0  0  0  0  0  0  0  0  0  0  0
   -2.7641    1.5882   -2.4765 C   0  0  0  0  0  0  0  0  0  0  0  0
   -1.4995   -1.3881   -0.1903 H   0  0  0  0  0  0  0  0  0  0  0  0
    0.6730    0.5545   -0.3623 H   0  0  0  0  0  0  0  0  0  0  0  0
   -2.3422    0.7303    0.1211 H   0  0  0  0  0  0  0  0  0  0  0  0
   -0.6131    1.5101   -2.3095 H   0  0  0  0  0  0  0  0  0  0  0  0
   -1.4361   -0.0400   -2.1793 H   0  0  0  0  0  0  0  0  0  0  0  0
   -0.2433    2.9492   -0.1431 H   0  0  0  0  0  0  0  0  0  0  0  0
   -1.9464    3.2347   -0.5299 H   0  0  0  0  0  0  0  0  0  0  0  0
   -1.5096    2.7896    1.0944 H   0  0  0  0  0  0  0  0  0  0  0  0
   -3.6447    1.2004   -1.9550 H   0  0  0  0  0  0  0  0  0  0  0  0
   -2.8343    1.3025   -3.5307 H   0  0  0  0  0  0  0  0  0  0  0  0
   -2.7773    2.6798   -2.4282 H   0  0  0  0  0  0  0  0  0  0  0  0
    1.1193   -0.4371    2.3168 N   0  0  0  0  0  0  0  0  0  0  0  0
    1.3401   -0.6242    3.7590 C   0  0  2  0  0  0  0  0  0  0  0  0
    2.4503   -1.6691    3.9953 C   0  0  0  0  0  0  0  0  0  0  0  0
    2.4393   -2.7256    3.3686 O   0  0  0  0  0  0  0  0  0  0  0  0
    0.0653   -1.1263    4.4575 C   0  0  0  0  0  0  0  0  0  0  0  0
    1.5776   -1.1059    1.6891 H   0  0  0  0  0  0  0  0  0  0  0  0
    1.6469    0.3284    4.2018 H   0  0  0  0  0  0  0  0  0  0  0  0
   -0.2784   -2.0599    4.0016 H   0  0  0  0  0  0  0  0  0  0  0  0
    0.2629   -1.3111    5.5178 H   0  0  0  0  0  0  0  0  0  0  0  0
   -0.7400   -0.3900    4.3898 H   0  0  0  0  0  0  0  0  0  0  0  0
    3.4289   -1.4576    4.9483 N   0  0  0  0  0  0  0  0  0  0  0  0
    4.5058   -2.4045    5.2118 C   0  0  0  0  0  0  0  0  0  0  0  0
    3.4292   -0.5648    5.4334 H   0  0  0  0  0  0  0  0  0  0  0  0
    4.0983   -3.3682    5.5349 H   0  0  0  0  0  0  0  0  0  0  0  0
    5.1077   -2.5608    4.3102 H   0  0  0  0  0  0  0  0  0  0  0  0
    5.1597   -2.0243    6.0028 H   0  0  0  0  0  0  0  0  0  0  0  0
  1  2  2  0  0  0  0
  1  3  1  0  0  0  0
  1  7  1  0  0  0  0
  3  4  1  0  0  0  0
  3  5  1  0  0  0  0
  3  6  1  0  0  0  0
  7  8  1  0  0  0  0
  7 12  1  0  0  0  0
  8  9  1  0  0  0  0
  8 11  1  0  0  0  0
  8 13  1  0  0  0  0
  9 10  2  0  0  0  0
  9 17  1  0  0  0  0
 11 14  1  0  0  0  0
 11 15  1  0  0  0  0
 11 16  1  0  0  0  0
 17 18  1  0  0  0  0
 17 25  1  0  0  0  0
 18 19  1  0  0  0  0
 18 21  1  0  0  0  0
 18 26  1  0  0  0  0
 19 20  2  0  0  0  0
 19 36  1  0  0  0  0
 21 22  1  0  0  0  0
 21 23  1  0  0  0  0
 21 27  1  0  0  0  0
 22 24  1  0  0  0  0
 22 28  1  0  0  0  0
 22 29  1  0  0  0  0
 23 30  1  0  0  0  0
 23 31  1  0  0  0  0
 23 32  1  0  0  0  0
 24 33  1  0  0  0  0
 24 34  1  0  0  0  0
 24 35  1  0  0  0  0
 36 37  1  0  0  0  0
 36 41  1  0  0  0  0
 37 38  1  0  0  0  0
 37 40  1  0  0  0  0
 37 42  1  0  0  0  0
 38 39  2  0  0  0  0
 38 46  1  0  0  0  0
 40 43  1  0  0  0  0
 40 44  1  0  0  0  0
 40 45  1  0  0  0  0
 46 47  1  0  0  0  0
 46 48  1  0  0  0  0
 47 49  1  0  0  0  0
 47 50  1  0  0  0  0
 47 51  1  0  0  0  0
M  END
$$$$

  -OEChem-05262216503D

 51 50  0     1  0  0  0  0  0999 V2000
    0.8605   -5.4682    1.9608 C   0  0  0  0  0  0  0  0  0  0  0  0
    0.0912   -6.2799    1.4683 O   0  0  0  0  0  0  0  0  0  0  0  0
    2.0006   -5.9334    2.8467 C   0  0  0  0  0  0  0  0  0  0  0  0
    2.0190   -7.0254    2.8997 H   0  0  0  0  0  0  0  0  0  0  0  0
    2.9526   -5.5818    2.4407 H   0  0  0  0  0  0  0  0  0  0  0  0
    1.8763   -5.5302    3.8547 H   0  0  0  0  0  0  0  0  0  0  0  0
    0.7012   -4.1233    1.7121 N   0  0  0  0  0  0  0  0  0  0  0  0
   -0.2250   -3.5725    0.7101 C   0  0  2  0  0  0  0  0  0  0  0  0
    0.3115   -2.2363    0.1532 C   0  0  0  0  0  0  0  0  0  0  0  0
    1.5197   -2.0428    0.0745 O   0  0  0  0  0  0  0  0  0  0  0  0
   -1.6117   -3.4205    1.3520 C   0  0  0  0  0  0  0  0  0  0  0  0
    1.4714   -3.5241    2.0314 H   0  0  0  0  0  0  0  0  0  0  0  0
   -0.3017   -4.2638   -0.1362 H   0  0  0  0  0  0  0  0  0  0  0  0
   -1.5867   -2.6800    2.1572 H   0  0  0  0  0  0  0  0  0  0  0  0
   -2.3497   -3.1069    0.6081 H   0  0  0  0  0  0  0  0  0  0  0  0
   -1.9411   -4.3764    1.7718 H   0  0  0  0  0  0  0  0  0  0  0  0
   -0.5063   -1.1831   -0.2189 N   0  0  0  0  0  0  0  0  0  0  0  0
   -0.2150    0.2237    0.1557 C   0  0  2  0  0  0  0  0  0  0  0  0
    0.1909    0.3561    1.6650 C   0  0  0  0  0  0  0  0  0  0  0  0
   -0.5476    0.9055    2.4698 O   0  0  0  0  0  0  0  0  0  0  0  0
   -1.4083    1.1118   -0.3248 C   0  0  2  0  0  0  0  0  0  0  0  0
   -1.5106    1.0401   -1.8748 C   0  0  0  0  0  0  0  0  0  0  0  0
   -1.2068    2.6029    0.0449 C   0  0  0  0  0  0  0  0  0  0  0  0
   -2.7993    1.6534   -2.4349 C   0  0  0  0  0  0  0  0  0  0  0  0
   -1.4935   -1.4216   -0.1929 H   0  0  0  0  0  0  0  0  0  0  0  0
    0.6680    0.5445   -0.4073 H   0  0  0  0  0  0  0  0  0  0  0  0
   -2.3349    0.7489    0.1331 H   0  0  0  0  0  0  0  0  0  0  0  0
   -0.6461    1.5361   -2.3287 H   0  0  0  0  0  0  0  0  0  0  0  0
   -1.4902   -0.0032   -2.2016 H   0  0  0  0  0  0  0  0  0  0  0  0
   -0.2473    2.9652   -0.3373 H   0  0  0  0  0  0  0  0  0  0  0  0
   -2.0011    3.2249   -0.3728 H   0  0  0  0  0  0  0  0  0  0  0  0
   -1.2317    2.7679    1.1227 H   0  0  0  0  0  0  0  0  0  0  0  0
   -3.6735    1.2485   -1.9157 H   0  0  0  0  0  0  0  0  0  0  0  0
   -2.8888    1.4153   -3.4992 H   0  0  0  0  0  0  0  0  0  0  0  0
   -2.8017    2.7418   -2.3354 H   0  0  0  0  0  0  0  0  0  0  0  0
    1.2960   -0.3010    2.1769 N   0  0  0  0  0  0  0  0  0  0  0  0
    1.5948   -0.5696    3.5953 C   0  0  2  0  0  0  0  0  0  0  0  0
    2.8210   -1.5002    3.6950 C   0  0  0  0  0  0  0  0  0  0  0  0
    2.8185   -2.5776    3.1055 O   0  0  0  0  0  0  0  0  0  0  0  0
    0.4333   -1.2663    4.3290 C   0  0  0  0  0  0  0  0  0  0  0  0
    1.7914   -0.8836    1.4921 H   0  0  0  0  0  0  0  0  0  0  0  0
    1.8203    0.3751    4.0990 H   0  0  0  0  0  0  0  0  0  0  0  0
    0.1095   -2.1544    3.7793 H   0  0  0  0  0  0  0  0  0  0  0  0
    0.7496   -1.5773    5.3297 H   0  0  0  0  0  0  0  0  0  0  0  0
   -0.4227   -0.5971    4.4467 H   0  0  0  0  0  0  0  0  0  0  0  0
    3.9074   -1.1596    4.4784 N   0  0  0  0  0  0  0  0  0  0  0  0
    5.1018   -1.9884    4.5882 C   0  0  0  0  0  0  0  0  0  0  0  0
    3.8977   -0.2485    4.9278 H   0  0  0  0  0  0  0  0  0  0  0  0
    4.8490   -2.9741    4.9927 H   0  0  0  0  0  0  0  0  0  0  0  0
    5.5678   -2.1200    3.6059 H   0  0  0  0  0  0  0  0  0  0  0  0
    5.8296   -1.5174    5.2560 H   0  0  0  0  0  0  0  0  0  0  0  0
  1  2  2  0  0  0  0
  1  3  1  0  0  0  0
  1  7  1  0  0  0  0
  3  4  1  0  0  0  0
  3  5  1  0  0  0  0
  3  6  1  0  0  0  0
  7  8  1  0  0  0  0
  7 12  1  0  0  0  0
  8  9  1  0  0  0  0
  8 11  1  0  0  0  0
  8 13  1  0  0  0  0
  9 10  2  0  0  0  0
  9 17  1  0  0  0  0
 11 14  1  0  0  0  0
 11 15  1  0  0  0  0
 11 16  1  0  0  0  0
 17 18  1  0  0  0  0
 17 25  1  0  0  0  0
 18 19  1  0  0  0  0
 18 21  1  0  0  0  0
 18 26  1  0  0  0  0
 19 20  2  0  0  0  0
 19 36  1  0  0  0  0
 21 22  1  0  0  0  0
 21 23  1  0  0  0  0
 21 27  1  0  0  0  0
 22 24  1  0  0  0  0
 22 28  1  0  0  0  0
 22 29  1  0  0  0  0
 23 30  1  0  0  0  0
 23 31  1  0  0  0  0
 23 32  1  0  0  0  0
 24 33  1  0  0  0  0
 24 34  1  0  0  0  0
 24 35  1  0  0  0  0
 36 37  1  0  0  0  0
 36 41  1  0  0  0  0
 37 38  1  0  0  0  0
 37 40  1  0  0  0  0
 37 42  1  0  0  0  0
 38 39  2  0  0  0  0
 38 46  1  0  0  0  0
 40 43  1  0  0  0  0
 40 44  1  0  0  0  0
 40 45  1  0  0  0  0
 46 47  1  0  0  0  0
 46 48  1  0  0  0  0
 47 49  1  0  0  0  0
 47 50  1  0  0  0  0
 47 51  1  0  0  0  0
M  END
$$$$

  -OEChem-05262216503D

 51 50  0     1  0  0  0  0  0999 V2000
   -0.1648   -5.9484    0.1040 C   0  0  0  0  0  0  0  0  0  0  0  0
   -1.1124   -5.8765   -0.6628 O   0  0  0  0  0  0  0  0  0  0  0  0
    0.8644   -7.0506   -0.0630 C   0  0  0  0  0  0  0  0  0  0  0  0
    0.5972   -7.6915   -0.9077 H   0  0  0  0  0  0  0  0  0  0  0  0
    1.8495   -6.6154   -0.2494 H   0  0  0  0  0  0  0  0  0  0  0  0
    0.9082   -7.6614    0.8421 H   0  0  0  0  0  0  0  0  0  0  0  0
   -0.0090   -5.0196    1.1123 N   0  0  0  0  0  0  0  0  0  0  0  0
   -0.7786   -3.7694    1.1879 C   0  0  2  0  0  0  0  0  0  0  0  0
    0.0827   -2.5482    0.8113 C   0  0  0  0  0  0  0  0  0  0  0  0
    1.2911   -2.5642    1.0166 O   0  0  0  0  0  0  0  0  0  0  0  0
   -1.2987   -3.6244    2.6194 C   0  0  0  0  0  0  0  0  0  0  0  0
    0.9033   -5.0147    1.5641 H   0  0  0  0  0  0  0  0  0  0  0  0
   -1.6371   -3.7996    0.5092 H   0  0  0  0  0  0  0  0  0  0  0  0
   -0.4660   -3.5897    3.3295 H   0  0  0  0  0  0  0  0  0  0  0  0
   -1.8820   -2.7040    2.7240 H   0  0  0  0  0  0  0  0  0  0  0  0
   -1.9408   -4.4731    2.8754 H   0  0  0  0  0  0  0  0  0  0  0  0
   -0.4880   -1.4430    0.2070 N   0  0  0  0  0  0  0  0  0  0  0  0
    0.0373   -0.0623    0.2814 C   0  0  2  0  0  0  0  0  0  0  0  0
    0.4512    0.3369    1.7301 C   0  0  0  0  0  0  0  0  0  0  0  0
   -0.3376    0.9264    2.4611 O   0  0  0  0  0  0  0  0  0  0  0  0
   -0.9916    0.8996   -0.3867 C   0  0  2  0  0  0  0  0  0  0  0  0
   -1.1460    0.5414   -1.8896 C   0  0  0  0  0  0  0  0  0  0  0  0
   -0.5268    2.3724   -0.2963 C   0  0  0  0  0  0  0  0  0  0  0  0
   -2.3242    1.2517   -2.5645 C   0  0  0  0  0  0  0  0  0  0  0  0
   -1.4902   -1.5195    0.0578 H   0  0  0  0  0  0  0  0  0  0  0  0
    0.9572   -0.0191   -0.3111 H   0  0  0  0  0  0  0  0  0  0  0  0
   -1.9560    0.7982    0.1234 H   0  0  0  0  0  0  0  0  0  0  0  0
   -0.2217    0.7787   -2.4272 H   0  0  0  0  0  0  0  0  0  0  0  0
   -1.3167   -0.5332   -2.0002 H   0  0  0  0  0  0  0  0  0  0  0  0
    0.4467    2.4970   -0.7810 H   0  0  0  0  0  0  0  0  0  0  0  0
   -1.2432    3.0401   -0.7803 H   0  0  0  0  0  0  0  0  0  0  0  0
   -0.4400    2.7098    0.7388 H   0  0  0  0  0  0  0  0  0  0  0  0
   -3.2432    1.1030   -1.9892 H   0  0  0  0  0  0  0  0  0  0  0  0
   -2.4758    0.8433   -3.5683 H   0  0  0  0  0  0  0  0  0  0  0  0
   -2.1385    2.3244   -2.6633 H   0  0  0  0  0  0  0  0  0  0  0  0
    1.6122   -0.1412    2.3043 N   0  0  0  0  0  0  0  0  0  0  0  0
    1.9783    0.0098    3.7183 C   0  0  2  0  0  0  0  0  0  0  0  0
    3.5050    0.0709    3.9316 C   0  0  0  0  0  0  0  0  0  0  0  0
    4.2745   -0.4561    3.1372 O   0  0  0  0  0  0  0  0  0  0  0  0
    1.3813   -1.1702    4.4908 C   0  0  0  0  0  0  0  0  0  0  0  0
    2.1120   -0.8563    1.7665 H   0  0  0  0  0  0  0  0  0  0  0  0
    1.5601    0.9436    4.1079 H   0  0  0  0  0  0  0  0  0  0  0  0
    1.7798   -2.1161    4.1090 H   0  0  0  0  0  0  0  0  0  0  0  0
    1.6225   -1.0941    5.5553 H   0  0  0  0  0  0  0  0  0  0  0  0
    0.2923   -1.1817    4.3833 H   0  0  0  0  0  0  0  0  0  0  0  0
    4.0216    0.7121    5.0431 N   0  0  0  0  0  0  0  0  0  0  0  0
    5.4506    0.8392    5.3012 C   0  0  0  0  0  0  0  0  0  0  0  0
    3.3656    1.1707    5.6682 H   0  0  0  0  0  0  0  0  0  0  0  0
    5.9158   -0.1493    5.3770 H   0  0  0  0  0  0  0  0  0  0  0  0
    5.9376    1.3964    4.4940 H   0  0  0  0  0  0  0  0  0  0  0  0
    5.6186    1.3734    6.2414 H   0  0  0  0  0  0  0  0  0  0  0  0
  1  2  2  0  0  0  0
  1  3  1  0  0  0  0
  1  7  1  0  0  0  0
  3  4  1  0  0  0  0
  3  5  1  0  0  0  0
  3  6  1  0  0  0  0
  7  8  1  0  0  0  0
  7 12  1  0  0  0  0
  8  9  1  0  0  0  0
  8 11  1  0  0  0  0
  8 13  1  0  0  0  0
  9 10  2  0  0  0  0
  9 17  1  0  0  0  0
 11 14  1  0  0  0  0
 11 15  1  0  0  0  0
 11 16  1  0  0  0  0
 17 18  1  0  0  0  0
 17 25  1  0  0  0  0
 18 19  1  0  0  0  0
 18 21  1  0  0  0  0
 18 26  1  0  0  0  0
 19 20  2  0  0  0  0
 19 36  1  0  0  0  0
 21 22  1  0  0  0  0
 21 23  1  0  0  0  0
 21 27  1  0  0  0  0
 22 24  1  0  0  0  0
 22 28  1  0  0  0  0
 22 29  1  0  0  0  0
 23 30  1  0  0  0  0
 23 31  1  0  0  0  0
 23 32  1  0  0  0  0
 24 33  1  0  0  0  0
 24 34  1  0  0  0  0
 24 35  1  0  0  0  0
 36 37  1  0  0  0  0
 36 41  1  0  0  0  0
 37 38  1  0  0  0  0
 37 40  1  0  0  0  0
 37 42  1  0  0  0  0
 38 39  2  0  0  0  0
 38 46  1  0  0  0  0
 40 43  1  0  0  0  0
 40 44  1  0  0  0  0
 40 45  1  0  0  0  0
 46 47  1  0  0  0  0
 46 48  1  0  0  0  0
 47 49  1  0  0  0  0
 47 50  1  0  0  0  0
 47 51  1  0  0  0  0
M  END
$$$$

  -OEChem-05262216503D

 51 50  0     1  0  0  0  0  0999 V2000
   -0.0492   -6.0348    0.3732 C   0  0  0  0  0  0  0  0  0  0  0  0
   -1.0839   -6.1278   -0.2681 O   0  0  0  0  0  0  0  0  0  0  0  0
    1.0183   -7.1055    0.2492 C   0  0  0  0  0  0  0  0  0  0  0  0
    0.7050   -7.8688   -0.4687 H   0  0  0  0  0  0  0  0  0  0  0  0
    1.9554   -6.6610   -0.0956 H   0  0  0  0  0  0  0  0  0  0  0  0
    1.1834   -7.5810    1.2190 H   0  0  0  0  0  0  0  0  0  0  0  0
    0.1654   -4.9538    1.2032 N   0  0  0  0  0  0  0  0  0  0  0  0
   -0.6671   -3.7425    1.2011 C   0  0  2  0  0  0  0  0  0  0  0  0
    0.1409   -2.5038    0.7676 C   0  0  0  0  0  0  0  0  0  0  0  0
    1.3533   -2.4664    0.9497 O   0  0  0  0  0  0  0  0  0  0  0  0
   -1.2129   -3.5431    2.6168 C   0  0  0  0  0  0  0  0  0  0  0  0
    1.1171   -4.8430    1.5488 H   0  0  0  0  0  0  0  0  0  0  0  0
   -1.5095   -3.8501    0.5098 H   0  0  0  0  0  0  0  0  0  0  0  0
   -0.3920   -3.4187    3.3304 H   0  0  0  0  0  0  0  0  0  0  0  0
   -1.8489   -2.6533    2.6617 H   0  0  0  0  0  0  0  0  0  0  0  0
   -1.8089   -4.4102    2.9181 H   0  0  0  0  0  0  0  0  0  0  0  0
   -0.4858   -1.4332    0.1558 N   0  0  0  0  0  0  0  0  0  0  0  0
    0.0250   -0.0489    0.1986 C   0  0  2  0  0  0  0  0  0  0  0  0
    0.4717    0.3512    1.6321 C   0  0  0  0  0  0  0  0  0  0  0  0
   -0.3519    0.7554    2.4465 O   0  0  0  0  0  0  0  0  0  0  0  0
   -1.0421    0.9051   -0.4127 C   0  0  2  0  0  0  0  0  0  0  0  0
   -1.2772    0.5537   -1.9053 C   0  0  0  0  0  0  0  0  0  0  0  0
   -0.5894    2.3786   -0.3125 C   0  0  0  0  0  0  0  0  0  0  0  0
   -2.4954    1.2621   -2.5075 C   0  0  0  0  0  0  0  0  0  0  0  0
   -1.4939   -1.5266    0.0719 H   0  0  0  0  0  0  0  0  0  0  0  0
    0.9193    0.0078   -0.4303 H   0  0  0  0  0  0  0  0  0  0  0  0
   -1.9790    0.7875    0.1435 H   0  0  0  0  0  0  0  0  0  0  0  0
   -0.3860    0.8023   -2.4910 H   0  0  0  0  0  0  0  0  0  0  0  0
   -1.4446   -0.5218   -2.0123 H   0  0  0  0  0  0  0  0  0  0  0  0
    0.3566    2.5269   -0.8426 H   0  0  0  0  0  0  0  0  0  0  0  0
   -1.3371    3.0489   -0.7427 H   0  0  0  0  0  0  0  0  0  0  0  0
   -0.4535    2.6855    0.7277 H   0  0  0  0  0  0  0  0  0  0  0  0
   -3.3840    1.0857   -1.8936 H   0  0  0  0  0  0  0  0  0  0  0  0
   -2.6886    0.8768   -3.5133 H   0  0  0  0  0  0  0  0  0  0  0  0
   -2.3303    2.3399   -2.5873 H   0  0  0  0  0  0  0  0  0  0  0  0
    1.7686    0.1397    2.0555 N   0  0  0  0  0  0  0  0  0  0  0  0
    2.2371    0.3202    3.4345 C   0  0  2  0  0  0  0  0  0  0  0  0
    3.7418    0.6544    3.5048 C   0  0  0  0  0  0  0  0  0  0  0  0
    4.4947    0.3638    2.5824 O   0  0  0  0  0  0  0  0  0  0  0  0
    1.9426   -0.9674    4.2111 C   0  0  0  0  0  0  0  0  0  0  0  0
    2.3532   -0.4288    1.4396 H   0  0  0  0  0  0  0  0  0  0  0  0
    1.6969    1.1528    3.8964 H   0  0  0  0  0  0  0  0  0  0  0  0
    2.4705   -1.8138    3.7595 H   0  0  0  0  0  0  0  0  0  0  0  0
    2.2640   -0.8701    5.2522 H   0  0  0  0  0  0  0  0  0  0  0  0
    0.8695   -1.1812    4.1998 H   0  0  0  0  0  0  0  0  0  0  0  0
    4.2597    1.2814    4.6236 N   0  0  0  0  0  0  0  0  0  0  0  0
    5.6648    1.6460    4.7579 C   0  0  0  0  0  0  0  0  0  0  0  0
    3.6113    1.5353    5.3631 H   0  0  0  0  0  0  0  0  0  0  0  0
    6.3009    0.7583    4.6764 H   0  0  0  0  0  0  0  0  0  0  0  0
    5.9526    2.3588    3.9778 H   0  0  0  0  0  0  0  0  0  0  0  0
    5.8433    2.1098    5.7326 H   0  0  0  0  0  0  0  0  0  0  0  0
  1  2  2  0  0  0  0
  1  3  1  0  0  0  0
  1  7  1  0  0  0  0
  3  4  1  0  0  0  0
  3  5  1  0  0  0  0
  3  6  1  0  0  0  0
  7  8  1  0  0  0  0
  7 12  1  0  0  0  0
  8  9  1  0  0  0  0
  8 11  1  0  0  0  0
  8 13  1  0  0  0  0
  9 10  2  0  0  0  0
  9 17  1  0  0  0  0
 11 14  1  0  0  0  0
 11 15  1  0  0  0  0
 11 16  1  0  0  0  0
 17 18  1  0  0  0  0
 17 25  1  0  0  0  0
 18 19  1  0  0  0  0
 18 21  1  0  0  0  0
 18 26  1  0  0  0  0
 19 20  2  0  0  0  0
 19 36  1  0  0  0  0
 21 22  1  0  0  0  0
 21 23  1  0  0  0  0
 21 27  1  0  0  0  0
 22 24  1  0  0  0  0
 22 28  1  0  0  0  0
 22 29  1  0  0  0  0
 23 30  1  0  0  0  0
 23 31  1  0  0  0  0
 23 32  1  0  0  0  0
 24 33  1  0  0  0  0
 24 34  1  0  0  0  0
 24 35  1  0  0  0  0
 36 37  1  0  0  0  0
 36 41  1  0  0  0  0
 37 38  1  0  0  0  0
 37 40  1  0  0  0  0
 37 42  1  0  0  0  0
 38 39  2  0  0  0  0
 38 46  1  0  0  0  0
 40 43  1  0  0  0  0
 40 44  1  0  0  0  0
 40 45  1  0  0  0  0
 46 47  1  0  0  0  0
 46 48  1  0  0  0  0
 47 49  1  0  0  0  0
 47 50  1  0  0  0  0
 47 51  1  0  0  0  0
M  END
$$$$

  -OEChem-05262216503D

 51 50  0     1  0  0  0  0  0999 V2000
    0.0999   -6.0318    0.5562 C   0  0  0  0  0  0  0  0  0  0  0  0
   -0.9246   -6.2000   -0.0863 O   0  0  0  0  0  0  0  0  0  0  0  0
    1.2061   -7.0684    0.5043 C   0  0  0  0  0  0  0  0  0  0  0  0
    0.9180   -7.8953   -0.1509 H   0  0  0  0  0  0  0  0  0  0  0  0
    2.1227   -6.6160    0.1177 H   0  0  0  0  0  0  0  0  0  0  0  0
    1.3968   -7.4623    1.5055 H   0  0  0  0  0  0  0  0  0  0  0  0
    0.2692   -4.8946    1.3183 N   0  0  0  0  0  0  0  0  0  0  0  0
   -0.5991   -3.7118    1.2263 C   0  0  2  0  0  0  0  0  0  0  0  0
    0.1775   -2.4783    0.7262 C   0  0  0  0  0  0  0  0  0  0  0  0
    1.3912   -2.4056    0.8929 O   0  0  0  0  0  0  0  0  0  0  0  0
   -1.1739   -3.4384    2.6181 C   0  0  0  0  0  0  0  0  0  0  0  0
    1.2128   -4.7306    1.6649 H   0  0  0  0  0  0  0  0  0  0  0  0
   -1.4270   -3.8885    0.5317 H   0  0  0  0  0  0  0  0  0  0  0  0
   -0.3695   -3.2408    3.3343 H   0  0  0  0  0  0  0  0  0  0  0  0
   -1.8370   -2.5679    2.5951 H   0  0  0  0  0  0  0  0  0  0  0  0
   -1.7486   -4.3023    2.9661 H   0  0  0  0  0  0  0  0  0  0  0  0
   -0.4859   -1.4350    0.1050 N   0  0  0  0  0  0  0  0  0  0  0  0
    0.0167   -0.0485    0.1258 C   0  0  2  0  0  0  0  0  0  0  0  0
    0.4809    0.3562    1.5494 C   0  0  0  0  0  0  0  0  0  0  0  0
   -0.3474    0.5522    2.4332 O   0  0  0  0  0  0  0  0  0  0  0  0
   -1.0726    0.9017   -0.4460 C   0  0  2  0  0  0  0  0  0  0  0  0
   -1.3620    0.5521   -1.9283 C   0  0  0  0  0  0  0  0  0  0  0  0
   -0.6259    2.3761   -0.3441 C   0  0  0  0  0  0  0  0  0  0  0  0
   -2.6027    1.2595   -2.4823 C   0  0  0  0  0  0  0  0  0  0  0  0
   -1.4960   -1.5381    0.0703 H   0  0  0  0  0  0  0  0  0  0  0  0
    0.8940    0.0110   -0.5263 H   0  0  0  0  0  0  0  0  0  0  0  0
   -1.9887    0.7750    0.1418 H   0  0  0  0  0  0  0  0  0  0  0  0
   -0.4938    0.8068   -2.5448 H   0  0  0  0  0  0  0  0  0  0  0  0
   -1.5283   -0.5239   -2.0322 H   0  0  0  0  0  0  0  0  0  0  0  0
    0.2969    2.5382   -0.9103 H   0  0  0  0  0  0  0  0  0  0  0  0
   -1.3956    3.0463   -0.7347 H   0  0  0  0  0  0  0  0  0  0  0  0
   -0.4502    2.6666    0.6956 H   0  0  0  0  0  0  0  0  0  0  0  0
   -3.4678    1.0799   -1.8365 H   0  0  0  0  0  0  0  0  0  0  0  0
   -2.8322    0.8762   -3.4814 H   0  0  0  0  0  0  0  0  0  0  0  0
   -2.4411    2.3376   -2.5640 H   0  0  0  0  0  0  0  0  0  0  0  0
    1.8238    0.4411    1.8567 N   0  0  0  0  0  0  0  0  0  0  0  0
    2.3612    0.6791    3.2005 C   0  0  2  0  0  0  0  0  0  0  0  0
    3.7881    1.2647    3.1554 C   0  0  0  0  0  0  0  0  0  0  0  0
    4.4626    1.1904    2.1343 O   0  0  0  0  0  0  0  0  0  0  0  0
    2.3563   -0.6497    3.9652 C   0  0  0  0  0  0  0  0  0  0  0  0
    2.4814    0.1211    1.1461 H   0  0  0  0  0  0  0  0  0  0  0  0
    1.7255    1.4015    3.7231 H   0  0  0  0  0  0  0  0  0  0  0  0
    2.9733   -1.3911    3.4464 H   0  0  0  0  0  0  0  0  0  0  0  0
    2.7503   -0.5134    4.9766 H   0  0  0  0  0  0  0  0  0  0  0  0
    1.3371   -1.0408    4.0431 H   0  0  0  0  0  0  0  0  0  0  0  0
    4.3221    1.8853    4.2701 N   0  0  0  0  0  0  0  0  0  0  0  0
    5.6540    2.4777    4.2944 C   0  0  0  0  0  0  0  0  0  0  0  0
    3.7368    1.9526    5.0974 H   0  0  0  0  0  0  0  0  0  0  0  0
    6.4137    1.7226    4.0662 H   0  0  0  0  0  0  0  0  0  0  0  0
    5.7264    3.2846    3.5575 H   0  0  0  0  0  0  0  0  0  0  0  0
    5.8665    2.8926    5.2844 H   0  0  0  0  0  0  0  0  0  0  0  0
  1  2  2  0  0  0  0
  1  3  1  0  0  0  0
  1  7  1  0  0  0  0
  3  4  1  0  0  0  0
  3  5  1  0  0  0  0
  3  6  1  0  0  0  0
  7  8  1  0  0  0  0
  7 12  1  0  0  0  0
  8  9  1  0  0  0  0
  8 11  1  0  0  0  0
  8 13  1  0  0  0  0
  9 10  2  0  0  0  0
  9 17  1  0  0  0  0
 11 14  1  0  0  0  0
 11 15  1  0  0  0  0
 11 16  1  0  0  0  0
 17 18  1  0  0  0  0
 17 25  1  0  0  0  0
 18 19  1  0  0  0  0
 18 21  1  0  0  0  0
 18 26  1  0  0  0  0
 19 20  2  0  0  0  0
 19 36  1  0  0  0  0
 21 22  1  0  0  0  0
 21 23  1  0  0  0  0
 21 27  1  0  0  0  0
 22 24  1  0  0  0  0
 22 28  1  0  0  0  0
 22 29  1  0  0  0  0
 23 30  1  0  0  0  0
 23 31  1  0  0  0  0
 23 32  1  0  0  0  0
 24 33  1  0  0  0  0
 24 34  1  0  0  0  0
 24 35  1  0  0  0  0
 36 37  1  0  0  0  0
 36 41  1  0  0  0  0
 37 38  1  0  0  0  0
 37 40  1  0  0  0  0
 37 42  1  0  0  0  0
 38 39  2  0  0  0  0
 38 46  1  0  0  0  0
 40 43  1  0  0  0  0
 40 44  1  0  0  0  0
 40 45  1  0  0  0  0
 46 47  1  0  0  0  0
 46 48  1  0  0  0  0
 47 49  1  0  0  0  0
 47 50  1  0  0  0  0
 47 51  1  0  0  0  0
M  END
$$$$

  -OEChem-05262216503D

 51 50  0     1  0  0  0  0  0999 V2000
    0.1738   -6.0377    0.6853 C   0  0  0  0  0  0  0  0  0  0  0  0
   -0.8615   -6.2580    0.0769 O   0  0  0  0  0  0  0  0  0  0  0  0
    1.2975   -7.0571    0.6608 C   0  0  0  0  0  0  0  0  0  0  0  0
    1.0136   -7.9158    0.0461 H   0  0  0  0  0  0  0  0  0  0  0  0
    2.2004   -6.6073    0.2403 H   0  0  0  0  0  0  0  0  0  0  0  0
    1.5091   -7.4049    1.6748 H   0  0  0  0  0  0  0  0  0  0  0  0
    0.3384   -4.8588    1.3821 N   0  0  0  0  0  0  0  0  0  0  0  0
   -0.5539   -3.6977    1.2510 C   0  0  2  0  0  0  0  0  0  0  0  0
    0.2013   -2.4660    0.7144 C   0  0  0  0  0  0  0  0  0  0  0  0
    1.4175   -2.3789    0.8579 O   0  0  0  0  0  0  0  0  0  0  0  0
   -1.1402   -3.3927    2.6317 C   0  0  0  0  0  0  0  0  0  0  0  0
    1.2862   -4.6585    1.6968 H   0  0  0  0  0  0  0  0  0  0  0  0
   -1.3743   -3.9128    0.5584 H   0  0  0  0  0  0  0  0  0  0  0  0
   -0.3434   -3.1540    3.3439 H   0  0  0  0  0  0  0  0  0  0  0  0
   -1.8215   -2.5377    2.5786 H   0  0  0  0  0  0  0  0  0  0  0  0
   -1.6971   -4.2572    3.0063 H   0  0  0  0  0  0  0  0  0  0  0  0
   -0.4815   -1.4394    0.0855 N   0  0  0  0  0  0  0  0  0  0  0  0
    0.0236   -0.0539    0.0846 C   0  0  2  0  0  0  0  0  0  0  0  0
    0.5071    0.3642    1.4961 C   0  0  0  0  0  0  0  0  0  0  0  0
   -0.2787    0.3571    2.4388 O   0  0  0  0  0  0  0  0  0  0  0  0
   -1.0730    0.8965   -0.4705 C   0  0  2  0  0  0  0  0  0  0  0  0
   -1.3925    0.5369   -1.9440 C   0  0  0  0  0  0  0  0  0  0  0  0
   -0.6273    2.3714   -0.3758 C   0  0  0  0  0  0  0  0  0  0  0  0
   -2.6410    1.2428   -2.4818 C   0  0  0  0  0  0  0  0  0  0  0  0
   -1.4919   -1.5423    0.0911 H   0  0  0  0  0  0  0  0  0  0  0  0
    0.8904   -0.0040   -0.5829 H   0  0  0  0  0  0  0  0  0  0  0  0
   -1.9781    0.7714    0.1348 H   0  0  0  0  0  0  0  0  0  0  0  0
   -0.5348    0.7838   -2.5783 H   0  0  0  0  0  0  0  0  0  0  0  0
   -1.5645   -0.5393   -2.0363 H   0  0  0  0  0  0  0  0  0  0  0  0
    0.2901    2.5340   -0.9505 H   0  0  0  0  0  0  0  0  0  0  0  0
   -1.4013    3.0404   -0.7605 H   0  0  0  0  0  0  0  0  0  0  0  0
   -0.4433    2.6637    0.6626 H   0  0  0  0  0  0  0  0  0  0  0  0
   -3.4978    1.0602   -1.8260 H   0  0  0  0  0  0  0  0  0  0  0  0
   -2.8815    0.8609   -3.4789 H   0  0  0  0  0  0  0  0  0  0  0  0
   -2.4826    2.3214   -2.5638 H   0  0  0  0  0  0  0  0  0  0  0  0
    1.8163    0.7468    1.7088 N   0  0  0  0  0  0  0  0  0  0  0  0
    2.3936    1.0619    3.0197 C   0  0  2  0  0  0  0  0  0  0  0  0
    3.6563    1.9401    2.8942 C   0  0  0  0  0  0  0  0  0  0  0  0
    4.2166    2.0738    1.8115 O   0  0  0  0  0  0  0  0  0  0  0  0
    2.7274   -0.2558    3.7286 C   0  0  0  0  0  0  0  0  0  0  0  0
    2.4614    0.6804    0.9227 H   0  0  0  0  0  0  0  0  0  0  0  0
    1.6632    1.6199    3.6146 H   0  0  0  0  0  0  0  0  0  0  0  0
    3.4481   -0.8331    3.1403 H   0  0  0  0  0  0  0  0  0  0  0  0
    3.1556   -0.0644    4.7166 H   0  0  0  0  0  0  0  0  0  0  0  0
    1.8235   -0.8594    3.8569 H   0  0  0  0  0  0  0  0  0  0  0  0
    4.1625    2.5968    4.0012 N   0  0  0  0  0  0  0  0  0  0  0  0
    5.3353    3.4613    3.9516 C   0  0  0  0  0  0  0  0  0  0  0  0
    3.6706    2.4821    4.8825 H   0  0  0  0  0  0  0  0  0  0  0  0
    6.2114    2.8993    3.6112 H   0  0  0  0  0  0  0  0  0  0  0  0
    5.1652    4.2986    3.2666 H   0  0  0  0  0  0  0  0  0  0  0  0
    5.5496    3.8663    4.9452 H   0  0  0  0  0  0  0  0  0  0  0  0
  1  2  2  0  0  0  0
  1  3  1  0  0  0  0
  1  7  1  0  0  0  0
  3  4  1  0  0  0  0
  3  5  1  0  0  0  0
  3  6  1  0  0  0  0
  7  8  1  0  0  0  0
  7 12  1  0  0  0  0
  8  9  1  0  0  0  0
  8 11  1  0  0  0  0
  8 13  1  0  0  0  0
  9 10  2  0  0  0  0
  9 17  1  0  0  0  0
 11 14  1  0  0  0  0
 11 15  1  0  0  0  0
 11 16  1  0  0  0  0
 17 18  1  0  0  0  0
 17 25  1  0  0  0  0
 18 19  1  0  0  0  0
 18 21  1  0  0  0  0
 18 26  1  0  0  0  0
 19 20  2  0  0  0  0
 19 36  1  0  0  0  0
 21 22  1  0  0  0  0
 21 23  1  0  0  0  0
 21 27  1  0  0  0  0
 22 24  1  0  0  0  0
 22 28  1  0  0  0  0
 22 29  1  0  0  0  0
 23 30  1  0  0  0  0
 23 31  1  0  0  0  0
 23 32  1  0  0  0  0
 24 33  1  0  0  0  0
 24 34  1  0  0  0  0
 24 35  1  0  0  0  0
 36 37  1  0  0  0  0
 36 41  1  0  0  0  0
 37 38  1  0  0  0  0
 37 40  1  0  0  0  0
 37 42  1  0  0  0  0
 38 39  2  0  0  0  0
 38 46  1  0  0  0  0
 40 43  1  0  0  0  0
 40 44  1  0  0  0  0
 40 45  1  0  0  0  0
 46 47  1  0  0  0  0
 46 48  1  0  0  0  0
 47 49  1  0  0  0  0
 47 50  1  0  0  0  0
 47 51  1  0  0  0  0
M  END
$$$$

  -OEChem-05262216503D

 51 50  0     1  0  0  0  0  0999 V2000
    0.2067   -6.0538    0.7348 C   0  0  0  0  0  0  0  0  0  0  0  0
   -0.8131   -6.2790    0.1022 O   0  0  0  0  0  0  0  0  0  0  0  0
    1.3188   -7.0851    0.7692 C   0  0  0  0  0  0  0  0  0  0  0  0
    1.0274   -7.9724    0.2003 H   0  0  0  0  0  0  0  0  0  0  0  0
    2.2281   -6.6668    0.3306 H   0  0  0  0  0  0  0  0  0  0  0  0
    1.5229   -7.3808    1.8011 H   0  0  0  0  0  0  0  0  0  0  0  0
    0.3626   -4.8629    1.4124 N   0  0  0  0  0  0  0  0  0  0  0  0
   -0.5243   -3.7025    1.2466 C   0  0  2  0  0  0  0  0  0  0  0  0
    0.2340   -2.4813    0.6900 C   0  0  0  0  0  0  0  0  0  0  0  0
    1.4536   -2.4040    0.8100 O   0  0  0  0  0  0  0  0  0  0  0  0
   -1.1194   -3.3694    2.6164 C   0  0  0  0  0  0  0  0  0  0  0  0
    1.3034   -4.6612    1.7461 H   0  0  0  0  0  0  0  0  0  0  0  0
   -1.3398   -3.9310    0.5528 H   0  0  0  0  0  0  0  0  0  0  0  0
   -0.3272   -3.1029    3.3242 H   0  0  0  0  0  0  0  0  0  0  0  0
   -1.8111   -2.5246    2.5389 H   0  0  0  0  0  0  0  0  0  0  0  0
   -1.6669   -4.2307    3.0117 H   0  0  0  0  0  0  0  0  0  0  0  0
   -0.4499   -1.4530    0.0643 N   0  0  0  0  0  0  0  0  0  0  0  0
    0.0682   -0.0718    0.0576 C   0  0  2  0  0  0  0  0  0  0  0  0
    0.5699    0.3484    1.4636 C   0  0  0  0  0  0  0  0  0  0  0  0
   -0.1409    0.1666    2.4483 O   0  0  0  0  0  0  0  0  0  0  0  0
   -1.0365    0.8822   -0.4754 C   0  0  2  0  0  0  0  0  0  0  0  0
   -1.3891    0.5265   -1.9426 C   0  0  0  0  0  0  0  0  0  0  0  0
   -0.5876    2.3567   -0.3912 C   0  0  0  0  0  0  0  0  0  0  0  0
   -2.6470    1.2403   -2.4488 C   0  0  0  0  0  0  0  0  0  0  0  0
   -1.4608   -1.5464    0.0908 H   0  0  0  0  0  0  0  0  0  0  0  0
    0.9261   -0.0280   -0.6210 H   0  0  0  0  0  0  0  0  0  0  0  0
   -1.9290    0.7588    0.1481 H   0  0  0  0  0  0  0  0  0  0  0  0
   -0.5449    0.7695   -2.5964 H   0  0  0  0  0  0  0  0  0  0  0  0
   -1.5691   -0.5489   -2.0322 H   0  0  0  0  0  0  0  0  0  0  0  0
    0.3281    2.5137   -0.9703 H   0  0  0  0  0  0  0  0  0  0  0  0
   -1.3604    3.0260   -0.7770 H   0  0  0  0  0  0  0  0  0  0  0  0
   -0.4002    2.6537    0.6447 H   0  0  0  0  0  0  0  0  0  0  0  0
   -3.4844    1.0739   -1.7642 H   0  0  0  0  0  0  0  0  0  0  0  0
   -2.9231    0.8503   -3.4332 H   0  0  0  0  0  0  0  0  0  0  0  0
   -2.4807    2.3162   -2.5480 H   0  0  0  0  0  0  0  0  0  0  0  0
    1.7748    1.0055    1.6163 N   0  0  0  0  0  0  0  0  0  0  0  0
    2.3307    1.4534    2.8976 C   0  0  2  0  0  0  0  0  0  0  0  0
    3.3277    2.6167    2.7104 C   0  0  0  0  0  0  0  0  0  0  0  0
    3.7286    2.9149    1.5902 O   0  0  0  0  0  0  0  0  0  0  0  0
    3.0176    0.2580    3.5670 C   0  0  0  0  0  0  0  0  0  0  0  0
    2.3327    1.1794    0.7816 H   0  0  0  0  0  0  0  0  0  0  0  0
    1.5213    1.8141    3.5410 H   0  0  0  0  0  0  0  0  0  0  0  0
    3.8337   -0.1130    2.9387 H   0  0  0  0  0  0  0  0  0  0  0  0
    3.4273    0.5439    4.5399 H   0  0  0  0  0  0  0  0  0  0  0  0
    2.3019   -0.5561    3.7209 H   0  0  0  0  0  0  0  0  0  0  0  0
    3.7694    3.3443    3.8005 N   0  0  0  0  0  0  0  0  0  0  0  0
    4.7075    4.4554    3.6931 C   0  0  0  0  0  0  0  0  0  0  0  0
    3.4203    3.0801    4.7171 H   0  0  0  0  0  0  0  0  0  0  0  0
    5.6617    4.1116    3.2802 H   0  0  0  0  0  0  0  0  0  0  0  0
    4.3031    5.2375    3.0418 H   0  0  0  0  0  0  0  0  0  0  0  0
    4.8941    4.8906    4.6796 H   0  0  0  0  0  0  0  0  0  0  0  0
  1  2  2  0  0  0  0
  1  3  1  0  0  0  0
  1  7  1  0  0  0  0
  3  4  1  0  0  0  0
  3  5  1  0  0  0  0
  3  6  1  0  0  0  0
  7  8  1  0  0  0  0
  7 12  1  0  0  0  0
  8  9  1  0  0  0  0
  8 11  1  0  0  0  0
  8 13  1  0  0  0  0
  9 10  2  0  0  0  0
  9 17  1  0  0  0  0
 11 14  1  0  0  0  0
 11 15  1  0  0  0  0
 11 16  1  0  0  0  0
 17 18  1  0  0  0  0
 17 25  1  0  0  0  0
 18 19  1  0  0  0  0
 18 21  1  0  0  0  0
 18 26  1  0  0  0  0
 19 20  2  0  0  0  0
 19 36  1  0  0  0  0
 21 22  1  0  0  0  0
 21 23  1  0  0  0  0
 21 27  1  0  0  0  0
 22 24  1  0  0  0  0
 22 28  1  0  0  0  0
 22 29  1  0  0  0  0
 23 30  1  0  0  0  0
 23 31  1  0  0  0  0
 23 32  1  0  0  0  0
 24 33  1  0  0  0  0
 24 34  1  0  0  0  0
 24 35  1  0  0  0  0
 36 37  1  0  0  0  0
 36 41  1  0  0  0  0
 37 38  1  0  0  0  0
 37 40  1  0  0  0  0
 37 42  1  0  0  0  0
 38 39  2  0  0  0  0
 38 46  1  0  0  0  0
 40 43  1  0  0  0  0
 40 44  1  0  0  0  0
 40 45  1  0  0  0  0
 46 47  1  0  0  0  0
 46 48  1  0  0  0  0
 47 49  1  0  0  0  0
 47 50  1  0  0  0  0
 47 51  1  0  0  0  0
M  END
$$$$

  -OEChem-05262216503D

 51 50  0     1  0  0  0  0  0999 V2000
    0.1367   -6.1234    0.8000 C   0  0  0  0  0  0  0  0  0  0  0  0
   -0.9487   -6.3605    0.2935 O   0  0  0  0  0  0  0  0  0  0  0  0
    1.2164   -7.1887    0.8113 C   0  0  0  0  0  0  0  0  0  0  0  0
    0.8500   -8.1015    0.3335 H   0  0  0  0  0  0  0  0  0  0  0  0
    2.0957   -6.8351    0.2676 H   0  0  0  0  0  0  0  0  0  0  0  0
    1.5011   -7.4195    1.8405 H   0  0  0  0  0  0  0  0  0  0  0  0
    0.3931   -4.8890    1.3582 N   0  0  0  0  0  0  0  0  0  0  0  0
   -0.4803   -3.7174    1.2050 C   0  0  2  0  0  0  0  0  0  0  0  0
    0.2901   -2.5022    0.6519 C   0  0  0  0  0  0  0  0  0  0  0  0
    1.5157   -2.4606    0.7184 O   0  0  0  0  0  0  0  0  0  0  0  0
   -1.0711   -3.3874    2.5774 C   0  0  0  0  0  0  0  0  0  0  0  0
    1.3634   -4.6954    1.6011 H   0  0  0  0  0  0  0  0  0  0  0  0
   -1.2961   -3.9330    0.5076 H   0  0  0  0  0  0  0  0  0  0  0  0
   -0.2747   -3.1473    3.2895 H   0  0  0  0  0  0  0  0  0  0  0  0
   -1.7434   -2.5265    2.5098 H   0  0  0  0  0  0  0  0  0  0  0  0
   -1.6384   -4.2412    2.9607 H   0  0  0  0  0  0  0  0  0  0  0  0
   -0.3872   -1.4522    0.0555 N   0  0  0  0  0  0  0  0  0  0  0  0
    0.1627   -0.0824    0.0600 C   0  0  2  0  0  0  0  0  0  0  0  0
    0.7059    0.3162    1.4594 C   0  0  0  0  0  0  0  0  0  0  0  0
    0.0910   -0.0063    2.4726 O   0  0  0  0  0  0  0  0  0  0  0  0
   -0.9433    0.8890   -0.4471 C   0  0  2  0  0  0  0  0  0  0  0  0
   -1.3206    0.5477   -1.9125 C   0  0  0  0  0  0  0  0  0  0  0  0
   -0.4949    2.3633   -0.3564 C   0  0  0  0  0  0  0  0  0  0  0  0
   -2.5788    1.2734   -2.4005 C   0  0  0  0  0  0  0  0  0  0  0  0
   -1.3982   -1.5225    0.1196 H   0  0  0  0  0  0  0  0  0  0  0  0
    1.0081   -0.0483   -0.6355 H   0  0  0  0  0  0  0  0  0  0  0  0
   -1.8276    0.7633    0.1878 H   0  0  0  0  0  0  0  0  0  0  0  0
   -0.4826    0.7886   -2.5751 H   0  0  0  0  0  0  0  0  0  0  0  0
   -1.5115   -0.5249   -2.0089 H   0  0  0  0  0  0  0  0  0  0  0  0
    0.4304    2.5210   -0.9198 H   0  0  0  0  0  0  0  0  0  0  0  0
   -1.2598    3.0344   -0.7539 H   0  0  0  0  0  0  0  0  0  0  0  0
   -0.3279    2.6599    0.6829 H   0  0  0  0  0  0  0  0  0  0  0  0
   -3.4072    1.1175   -1.7027 H   0  0  0  0  0  0  0  0  0  0  0  0
   -2.8740    0.8837   -3.3796 H   0  0  0  0  0  0  0  0  0  0  0  0
   -2.4030    2.3471   -2.5064 H   0  0  0  0  0  0  0  0  0  0  0  0
    1.7582    1.2036    1.5791 N   0  0  0  0  0  0  0  0  0  0  0  0
    2.2026    1.8158    2.8361 C   0  0  2  0  0  0  0  0  0  0  0  0
    2.8167    3.2108    2.5953 C   0  0  0  0  0  0  0  0  0  0  0  0
    3.0198    3.6069    1.4520 O   0  0  0  0  0  0  0  0  0  0  0  0
    3.2174    0.8766    3.4964 C   0  0  0  0  0  0  0  0  0  0  0  0
    2.1605    1.5767    0.7203 H   0  0  0  0  0  0  0  0  0  0  0  0
    1.3462    1.9491    3.5054 H   0  0  0  0  0  0  0  0  0  0  0  0
    4.0852    0.7311    2.8450 H   0  0  0  0  0  0  0  0  0  0  0  0
    3.5614    1.2882    4.4498 H   0  0  0  0  0  0  0  0  0  0  0  0
    2.7602   -0.0995    3.6886 H   0  0  0  0  0  0  0  0  0  0  0  0
    3.1210    4.0369    3.6615 N   0  0  0  0  0  0  0  0  0  0  0  0
    3.6934    5.3684    3.5047 C   0  0  0  0  0  0  0  0  0  0  0  0
    2.9328    3.6876    4.5967 H   0  0  0  0  0  0  0  0  0  0  0  0
    4.6593    5.3123    2.9921 H   0  0  0  0  0  0  0  0  0  0  0  0
    3.0219    6.0085    2.9228 H   0  0  0  0  0  0  0  0  0  0  0  0
    3.8488    5.8311    4.4839 H   0  0  0  0  0  0  0  0  0  0  0  0
  1  2  2  0  0  0  0
  1  3  1  0  0  0  0
  1  7  1  0  0  0  0
  3  4  1  0  0  0  0
  3  5  1  0  0  0  0
  3  6  1  0  0  0  0
  7  8  1  0  0  0  0
  7 12  1  0  0  0  0
  8  9  1  0  0  0  0
  8 11  1  0  0  0  0
  8 13  1  0  0  0  0
  9 10  2  0  0  0  0
  9 17  1  0  0  0  0
 11 14  1  0  0  0  0
 11 15  1  0  0  0  0
 11 16  1  0  0  0  0
 17 18  1  0  0  0  0
 17 25  1  0  0  0  0
 18 19  1  0  0  0  0
 18 21  1  0  0  0  0
 18 26  1  0  0  0  0
 19 20  2  0  0  0  0
 19 36  1  0  0  0  0
 21 22  1  0  0  0  0
 21 23  1  0  0  0  0
 21 27  1  0  0  0  0
 22 24  1  0  0  0  0
 22 28  1  0  0  0  0
 22 29  1  0  0  0  0
 23 30  1  0  0  0  0
 23 31  1  0  0  0  0
 23 32  1  0  0  0  0
 24 33  1  0  0  0  0
 24 34  1  0  0  0  0
 24 35  1  0  0  0  0
 36 37  1  0  0  0  0
 36 41  1  0  0  0  0
 37 38  1  0  0  0  0
 37 40  1  0  0  0  0
 37 42  1  0  0  0  0
 38 39  2  0  0  0  0
 38 46  1  0  0  0  0
 40 43  1  0  0  0  0
 40 44  1  0  0  0  0
 40 45  1  0  0  0  0
 46 47  1  0  0  0  0
 46 48  1  0  0  0  0
 47 49  1  0  0  0  0
 47 50  1  0  0  0  0
 47 51  1  0  0  0  0
M  END
$$$$

  -OEChem-05262216503D

 51 50  0     1  0  0  0  0  0999 V2000
    0.1165   -6.1333    0.8959 C   0  0  0  0  0  0  0  0  0  0  0  0
   -1.0260   -6.3852    0.5459 O   0  0  0  0  0  0  0  0  0  0  0  0
    1.1751   -7.2197    0.8720 C   0  0  0  0  0  0  0  0  0  0  0  0
    0.7538   -8.1482    0.4766 H   0  0  0  0  0  0  0  0  0  0  0  0
    2.0098   -6.9134    0.2368 H   0  0  0  0  0  0  0  0  0  0  0  0
    1.5446   -7.4027    1.8839 H   0  0  0  0  0  0  0  0  0  0  0  0
    0.4554   -4.8604    1.3023 N   0  0  0  0  0  0  0  0  0  0  0  0
   -0.4180   -3.6874    1.1652 C   0  0  2  0  0  0  0  0  0  0  0  0
    0.3500   -2.4732    0.6048 C   0  0  0  0  0  0  0  0  0  0  0  0
    1.5782   -2.4616    0.5999 O   0  0  0  0  0  0  0  0  0  0  0  0
   -0.9925   -3.3572    2.5446 C   0  0  0  0  0  0  0  0  0  0  0  0
    1.4482   -4.6685    1.4300 H   0  0  0  0  0  0  0  0  0  0  0  0
   -1.2397   -3.9033    0.4741 H   0  0  0  0  0  0  0  0  0  0  0  0
   -0.1873   -3.1104    3.2443 H   0  0  0  0  0  0  0  0  0  0  0  0
   -1.6702   -2.5005    2.4834 H   0  0  0  0  0  0  0  0  0  0  0  0
   -1.5494   -4.2127    2.9388 H   0  0  0  0  0  0  0  0  0  0  0  0
   -0.3299   -1.4054    0.0443 N   0  0  0  0  0  0  0  0  0  0  0  0
    0.2382   -0.0417    0.0529 C   0  0  2  0  0  0  0  0  0  0  0  0
    0.8327    0.3480    1.4397 C   0  0  0  0  0  0  0  0  0  0  0  0
    0.3577   -0.1221    2.4702 O   0  0  0  0  0  0  0  0  0  0  0  0
   -0.8934    0.9170   -0.4379 C   0  0  2  0  0  0  0  0  0  0  0  0
   -1.2894    0.5685   -1.8993 C   0  0  0  0  0  0  0  0  0  0  0  0
   -0.4939    2.4054   -0.3539 C   0  0  0  0  0  0  0  0  0  0  0  0
   -2.5656    1.2729   -2.3735 C   0  0  0  0  0  0  0  0  0  0  0  0
   -1.3379   -1.4609    0.1512 H   0  0  0  0  0  0  0  0  0  0  0  0
    1.0657   -0.0062   -0.6629 H   0  0  0  0  0  0  0  0  0  0  0  0
   -1.7664    0.7707    0.2080 H   0  0  0  0  0  0  0  0  0  0  0  0
   -0.4646    0.8221   -2.5736 H   0  0  0  0  0  0  0  0  0  0  0  0
   -1.4657   -0.5066   -1.9952 H   0  0  0  0  0  0  0  0  0  0  0  0
    0.4450    2.5855   -0.8872 H   0  0  0  0  0  0  0  0  0  0  0  0
   -1.2624    3.0508   -0.7849 H   0  0  0  0  0  0  0  0  0  0  0  0
   -0.3785    2.7190    0.6871 H   0  0  0  0  0  0  0  0  0  0  0  0
   -3.3770    1.1219   -1.6549 H   0  0  0  0  0  0  0  0  0  0  0  0
   -2.8777    0.8616   -3.3383 H   0  0  0  0  0  0  0  0  0  0  0  0
   -2.4045    2.3460   -2.5053 H   0  0  0  0  0  0  0  0  0  0  0  0
    1.6766    1.4362    1.5636 N   0  0  0  0  0  0  0  0  0  0  0  0
    1.9979    2.1185    2.8231 C   0  0  2  0  0  0  0  0  0  0  0  0
    2.2126    3.6298    2.5929 C   0  0  0  0  0  0  0  0  0  0  0  0
    2.2395    4.0805    1.4519 O   0  0  0  0  0  0  0  0  0  0  0  0
    3.2516    1.4680    3.4152 C   0  0  0  0  0  0  0  0  0  0  0  0
    1.9016    1.9440    0.7089 H   0  0  0  0  0  0  0  0  0  0  0  0
    1.1680    2.0121    3.5297 H   0  0  0  0  0  0  0  0  0  0  0  0
    4.0995    1.5799    2.7318 H   0  0  0  0  0  0  0  0  0  0  0  0
    3.5107    1.9288    4.3729 H   0  0  0  0  0  0  0  0  0  0  0  0
    3.0789    0.3999    3.5831 H   0  0  0  0  0  0  0  0  0  0  0  0
    2.3529    4.4944    3.6627 N   0  0  0  0  0  0  0  0  0  0  0  0
    2.5529    5.9306    3.5094 C   0  0  0  0  0  0  0  0  0  0  0  0
    2.3176    4.0983    4.5975 H   0  0  0  0  0  0  0  0  0  0  0  0
    3.4659    6.1323    2.9390 H   0  0  0  0  0  0  0  0  0  0  0  0
    1.7036    6.3823    2.9863 H   0  0  0  0  0  0  0  0  0  0  0  0
    2.6465    6.4064    4.4902 H   0  0  0  0  0  0  0  0  0  0  0  0
  1  2  2  0  0  0  0
  1  3  1  0  0  0  0
  1  7  1  0  0  0  0
  3  4  1  0  0  0  0
  3  5  1  0  0  0  0
  3  6  1  0  0  0  0
  7  8  1  0  0  0  0
  7 12  1  0  0  0  0
  8  9  1  0  0  0  0
  8 11  1  0  0  0  0
  8 13  1  0  0  0  0
  9 10  2  0  0  0  0
  9 17  1  0  0  0  0
 11 14  1  0  0  0  0
 11 15  1  0  0  0  0
 11 16  1  0  0  0  0
 17 18  1  0  0  0  0
 17 25  1  0  0  0  0
 18 19  1  0  0  0  0
 18 21  1  0  0  0  0
 18 26  1  0  0  0  0
 19 20  2  0  0  0  0
 19 36  1  0  0  0  0
 21 22  1  0  0  0  0
 21 23  1  0  0  0  0
 21 27  1  0  0  0  0
 22 24  1  0  0  0  0
 22 28  1  0  0  0  0
 22 29  1  0  0  0  0
 23 30  1  0  0  0  0
 23 31  1  0  0  0  0
 23 32  1  0  0  0  0
 24 33  1  0  0  0  0
 24 34  1  0  0  0  0
 24 35  1  0  0  0  0
 36 37  1  0  0  0  0
 36 41  1  0  0  0  0
 37 38  1  0  0  0  0
 37 40  1  0  0  0  0
 37 42  1  0  0  0  0
 38 39  2  0  0  0  0
 38 46  1  0  0  0  0
 40 43  1  0  0  0  0
 40 44  1  0  0  0  0
 40 45  1  0  0  0  0
 46 47  1  0  0  0  0
 46 48  1  0  0  0  0
 47 49  1  0  0  0  0
 47 50  1  0  0  0  0
 47 51  1  0  0  0  0
M  END
$$$$

  -OEChem-05262216503D

 51 50  0     1  0  0  0  0  0999 V2000
    0.0076   -6.0805    1.0818 C   0  0  0  0  0  0  0  0  0  0  0  0
   -1.1877   -6.2761    0.9249 O   0  0  0  0  0  0  0  0  0  0  0  0
    0.9855   -7.2370    0.9927 C   0  0  0  0  0  0  0  0  0  0  0  0
    0.4616   -8.1536    0.7079 H   0  0  0  0  0  0  0  0  0  0  0  0
    1.7508   -7.0220    0.2429 H   0  0  0  0  0  0  0  0  0  0  0  0
    1.4673   -7.3919    1.9611 H   0  0  0  0  0  0  0  0  0  0  0  0
    0.4774   -4.8090    1.3320 N   0  0  0  0  0  0  0  0  0  0  0  0
   -0.3376   -3.5914    1.2369 C   0  0  2  0  0  0  0  0  0  0  0  0
    0.4249   -2.4510    0.5323 C   0  0  0  0  0  0  0  0  0  0  0  0
    1.6325   -2.5385    0.3288 O   0  0  0  0  0  0  0  0  0  0  0  0
   -0.7310   -3.1660    2.6531 C   0  0  0  0  0  0  0  0  0  0  0  0
    1.4877   -4.6765    1.3019 H   0  0  0  0  0  0  0  0  0  0  0  0
   -1.2440   -3.7882    0.6551 H   0  0  0  0  0  0  0  0  0  0  0  0
    0.1622   -2.9446    3.2469 H   0  0  0  0  0  0  0  0  0  0  0  0
   -1.3576   -2.2695    2.6249 H   0  0  0  0  0  0  0  0  0  0  0  0
   -1.2914   -3.9659    3.1471 H   0  0  0  0  0  0  0  0  0  0  0  0
   -0.2586   -1.3796   -0.0162 N   0  0  0  0  0  0  0  0  0  0  0  0
    0.2781    0.0018   -0.0428 C   0  0  2  0  0  0  0  0  0  0  0  0
    1.2258    0.3699    1.1510 C   0  0  0  0  0  0  0  0  0  0  0  0
    1.1637   -0.2463    2.2112 O   0  0  0  0  0  0  0  0  0  0  0  0
   -0.9975    0.9069   -0.1892 C   0  0  2  0  0  0  0  0  0  0  0  0
   -1.7093    0.6049   -1.5419 C   0  0  0  0  0  0  0  0  0  0  0  0
   -0.7093    2.4206   -0.1038 C   0  0  0  0  0  0  0  0  0  0  0  0
   -3.1026    1.2341   -1.6681 C   0  0  0  0  0  0  0  0  0  0  0  0
   -1.2602   -1.4361    0.1356 H   0  0  0  0  0  0  0  0  0  0  0  0
    0.8895    0.1100   -0.9440 H   0  0  0  0  0  0  0  0  0  0  0  0
   -1.6820    0.6596    0.6302 H   0  0  0  0  0  0  0  0  0  0  0  0
   -1.0815    0.9532   -2.3692 H   0  0  0  0  0  0  0  0  0  0  0  0
   -1.8428   -0.4725   -1.6722 H   0  0  0  0  0  0  0  0  0  0  0  0
    0.1012    2.7008   -0.7838 H   0  0  0  0  0  0  0  0  0  0  0  0
   -1.5880    3.0152   -0.3597 H   0  0  0  0  0  0  0  0  0  0  0  0
   -0.4422    2.7050    0.9171 H   0  0  0  0  0  0  0  0  0  0  0  0
   -3.7075    1.0110   -0.7836 H   0  0  0  0  0  0  0  0  0  0  0  0
   -3.6130    0.8264   -2.5462 H   0  0  0  0  0  0  0  0  0  0  0  0
   -3.0437    2.3183   -1.7933 H   0  0  0  0  0  0  0  0  0  0  0  0
    1.8030    1.6247    1.2394 N   0  0  0  0  0  0  0  0  0  0  0  0
    2.3559    2.2348    2.4567 C   0  0  2  0  0  0  0  0  0  0  0  0
    2.2418    3.7729    2.4091 C   0  0  0  0  0  0  0  0  0  0  0  0
    1.9037    4.3335    1.3712 O   0  0  0  0  0  0  0  0  0  0  0  0
    3.8188    1.8028    2.5953 C   0  0  0  0  0  0  0  0  0  0  0  0
    1.6662    2.2518    0.4477 H   0  0  0  0  0  0  0  0  0  0  0  0
    1.7938    1.8954    3.3331 H   0  0  0  0  0  0  0  0  0  0  0  0
    4.4033    2.1490    1.7368 H   0  0  0  0  0  0  0  0  0  0  0  0
    4.2580    2.2178    3.5072 H   0  0  0  0  0  0  0  0  0  0  0  0
    3.8880    0.7113    2.6464 H   0  0  0  0  0  0  0  0  0  0  0  0
    2.4909    4.5327    3.5370 N   0  0  0  0  0  0  0  0  0  0  0  0
    2.3798    5.9861    3.5620 C   0  0  0  0  0  0  0  0  0  0  0  0
    2.7567    4.0431    4.3867 H   0  0  0  0  0  0  0  0  0  0  0  0
    3.0705    6.4355    2.8407 H   0  0  0  0  0  0  0  0  0  0  0  0
    1.3594    6.2963    3.3132 H   0  0  0  0  0  0  0  0  0  0  0  0
    2.6238    6.3684    4.5578 H   0  0  0  0  0  0  0  0  0  0  0  0
  1  2  2  0  0  0  0
  1  3  1  0  0  0  0
  1  7  1  0  0  0  0
  3  4  1  0  0  0  0
  3  5  1  0  0  0  0
  3  6  1  0  0  0  0
  7  8  1  0  0  0  0
  7 12  1  0  0  0  0
  8  9  1  0  0  0  0
  8 11  1  0  0  0  0
  8 13  1  0  0  0  0
  9 10  2  0  0  0  0
  9 17  1  0  0  0  0
 11 14  1  0  0  0  0
 11 15  1  0  0  0  0
 11 16  1  0  0  0  0
 17 18  1  0  0  0  0
 17 25  1  0  0  0  0
 18 19  1  0  0  0  0
 18 21  1  0  0  0  0
 18 26  1  0  0  0  0
 19 20  2  0  0  0  0
 19 36  1  0  0  0  0
 21 22  1  0  0  0  0
 21 23  1  0  0  0  0
 21 27  1  0  0  0  0
 22 24  1  0  0  0  0
 22 28  1  0  0  0  0
 22 29  1  0  0  0  0
 23 30  1  0  0  0  0
 23 31  1  0  0  0  0
 23 32  1  0  0  0  0
 24 33  1  0  0  0  0
 24 34  1  0  0  0  0
 24 35  1  0  0  0  0
 36 37  1  0  0  0  0
 36 41  1  0  0  0  0
 37 38  1  0  0  0  0
 37 40  1  0  0  0  0
 37 42  1  0  0  0  0
 38 39  2  0  0  0  0
 38 46  1  0  0  0  0
 40 43  1  0  0  0  0
 40 44  1  0  0  0  0
 40 45  1  0  0  0  0
 46 47  1  0  0  0  0
 46 48  1  0  0  0  0
 47 49  1  0  0  0  0
 47 50  1  0  0  0  0
 47 51  1  0  0  0  0
M  END
$$$$

  -OEChem-05262216503D

 51 50  0     1  0  0  0  0  0999 V2000
    0.1070   -5.9828    1.1432 C   0  0  0  0  0  0  0  0  0  0  0  0
   -1.0855   -6.2056    1.0013 O   0  0  0  0  0  0  0  0  0  0  0  0
    1.1095   -7.1163    1.0373 C   0  0  0  0  0  0  0  0  0  0  0  0
    0.6027   -8.0437    0.7568 H   0  0  0  0  0  0  0  0  0  0  0  0
    1.8587   -6.8816    0.2772 H   0  0  0  0  0  0  0  0  0  0  0  0
    1.6080   -7.2631    1.9985 H   0  0  0  0  0  0  0  0  0  0  0  0
    0.5514   -4.7011    1.3865 N   0  0  0  0  0  0  0  0  0  0  0  0
   -0.2888   -3.5019    1.2799 C   0  0  2  0  0  0  0  0  0  0  0  0
    0.4433   -2.3629    0.5415 C   0  0  0  0  0  0  0  0  0  0  0  0
    1.6397   -2.4540    0.2821 O   0  0  0  0  0  0  0  0  0  0  0  0
   -0.6705   -3.0592    2.6940 C   0  0  0  0  0  0  0  0  0  0  0  0
    1.5578   -4.5465    1.3329 H   0  0  0  0  0  0  0  0  0  0  0  0
   -1.1989   -3.7261    0.7140 H   0  0  0  0  0  0  0  0  0  0  0  0
    0.2260   -2.8063    3.2698 H   0  0  0  0  0  0  0  0  0  0  0  0
   -1.3189   -2.1788    2.6602 H   0  0  0  0  0  0  0  0  0  0  0  0
   -1.2034   -3.8632    3.2111 H   0  0  0  0  0  0  0  0  0  0  0  0
   -0.2635   -1.3095   -0.0117 N   0  0  0  0  0  0  0  0  0  0  0  0
    0.2166    0.0950   -0.0390 C   0  0  2  0  0  0  0  0  0  0  0  0
    1.1428    0.5294    1.1599 C   0  0  0  0  0  0  0  0  0  0  0  0
    1.3385   -0.2067    2.1208 O   0  0  0  0  0  0  0  0  0  0  0  0
   -1.1029    0.9265   -0.2639 C   0  0  2  0  0  0  0  0  0  0  0  0
   -1.7270    0.5539   -1.6450 C   0  0  0  0  0  0  0  0  0  0  0  0
   -0.9155    2.4589   -0.2144 C   0  0  0  0  0  0  0  0  0  0  0  0
   -3.1465    1.0938   -1.8627 C   0  0  0  0  0  0  0  0  0  0  0  0
   -1.2634   -1.3999    0.1337 H   0  0  0  0  0  0  0  0  0  0  0  0
    0.8453    0.2129   -0.9272 H   0  0  0  0  0  0  0  0  0  0  0  0
   -1.8128    0.6588    0.5268 H   0  0  0  0  0  0  0  0  0  0  0  0
   -1.0776    0.9189   -2.4476 H   0  0  0  0  0  0  0  0  0  0  0  0
   -1.7921   -0.5314   -1.7571 H   0  0  0  0  0  0  0  0  0  0  0  0
   -0.0517    2.7642   -0.8134 H   0  0  0  0  0  0  0  0  0  0  0  0
   -1.7904    2.9912   -0.5902 H   0  0  0  0  0  0  0  0  0  0  0  0
   -0.7873    2.7978    0.8165 H   0  0  0  0  0  0  0  0  0  0  0  0
   -3.7814    0.8615   -1.0023 H   0  0  0  0  0  0  0  0  0  0  0  0
   -3.5849    0.6272   -2.7502 H   0  0  0  0  0  0  0  0  0  0  0  0
   -3.1482    2.1746   -2.0239 H   0  0  0  0  0  0  0  0  0  0  0  0
    1.4220    1.8584    1.4266 N   0  0  0  0  0  0  0  0  0  0  0  0
    2.0039    2.3950    2.6659 C   0  0  2  0  0  0  0  0  0  0  0  0
    1.6557    3.8876    2.8445 C   0  0  0  0  0  0  0  0  0  0  0  0
    1.1669    4.5216    1.9144 O   0  0  0  0  0  0  0  0  0  0  0  0
    3.5234    2.2008    2.6193 C   0  0  0  0  0  0  0  0  0  0  0  0
    1.1117    2.5465    0.7424 H   0  0  0  0  0  0  0  0  0  0  0  0
    1.5947    1.8593    3.5292 H   0  0  0  0  0  0  0  0  0  0  0  0
    3.9522    2.7409    1.7692 H   0  0  0  0  0  0  0  0  0  0  0  0
    3.9871    2.5707    3.5383 H   0  0  0  0  0  0  0  0  0  0  0  0
    3.7683    1.1390    2.5150 H   0  0  0  0  0  0  0  0  0  0  0  0
    1.8730    4.5202    4.0546 N   0  0  0  0  0  0  0  0  0  0  0  0
    1.5532    5.9225    4.2933 C   0  0  0  0  0  0  0  0  0  0  0  0
    2.2712    3.9693    4.8099 H   0  0  0  0  0  0  0  0  0  0  0  0
    2.1212    6.5661    3.6132 H   0  0  0  0  0  0  0  0  0  0  0  0
    0.4843    6.1039    4.1391 H   0  0  0  0  0  0  0  0  0  0  0  0
    1.8046    6.1985    5.3218 H   0  0  0  0  0  0  0  0  0  0  0  0
  1  2  2  0  0  0  0
  1  3  1  0  0  0  0
  1  7  1  0  0  0  0
  3  4  1  0  0  0  0
  3  5  1  0  0  0  0
  3  6  1  0  0  0  0
  7  8  1  0  0  0  0
  7 12  1  0  0  0  0
  8  9  1  0  0  0  0
  8 11  1  0  0  0  0
  8 13  1  0  0  0  0
  9 10  2  0  0  0  0
  9 17  1  0  0  0  0
 11 14  1  0  0  0  0
 11 15  1  0  0  0  0
 11 16  1  0  0  0  0
 17 18  1  0  0  0  0
 17 25  1  0  0  0  0
 18 19  1  0  0  0  0
 18 21  1  0  0  0  0
 18 26  1  0  0  0  0
 19 20  2  0  0  0  0
 19 36  1  0  0  0  0
 21 22  1  0  0  0  0
 21 23  1  0  0  0  0
 21 27  1  0  0  0  0
 22 24  1  0  0  0  0
 22 28  1  0  0  0  0
 22 29  1  0  0  0  0
 23 30  1  0  0  0  0
 23 31  1  0  0  0  0
 23 32  1  0  0  0  0
 24 33  1  0  0  0  0
 24 34  1  0  0  0  0
 24 35  1  0  0  0  0
 36 37  1  0  0  0  0
 36 41  1  0  0  0  0
 37 38  1  0  0  0  0
 37 40  1  0  0  0  0
 37 42  1  0  0  0  0
 38 39  2  0  0  0  0
 38 46  1  0  0  0  0
 40 43  1  0  0  0  0
 40 44  1  0  0  0  0
 40 45  1  0  0  0  0
 46 47  1  0  0  0  0
 46 48  1  0  0  0  0
 47 49  1  0  0  0  0
 47 50  1  0  0  0  0
 47 51  1  0  0  0  0
M  END
$$$$

  -OEChem-05262216503D

 51 50  0     1  0  0  0  0  0999 V2000
   -0.0093   -5.8716    1.2375 C   0  0  0  0  0  0  0  0  0  0  0  0
   -1.2112   -6.0406    1.0997 O   0  0  0  0  0  0  0  0  0  0  0  0
    0.9420   -7.0467    1.1141 C   0  0  0  0  0  0  0  0  0  0  0  0
    0.3883   -7.9555    0.8627 H   0  0  0  0  0  0  0  0  0  0  0  0
    1.6750   -6.8514    0.3276 H   0  0  0  0  0  0  0  0  0  0  0  0
    1.4660   -7.2028    2.0600 H   0  0  0  0  0  0  0  0  0  0  0  0
    0.4925   -4.6130    1.4902 N   0  0  0  0  0  0  0  0  0  0  0  0
   -0.2910   -3.3765    1.3765 C   0  0  2  0  0  0  0  0  0  0  0  0
    0.4680   -2.2980    0.5770 C   0  0  0  0  0  0  0  0  0  0  0  0
    1.6498   -2.4545    0.2882 O   0  0  0  0  0  0  0  0  0  0  0  0
   -0.5932   -2.8736    2.7893 C   0  0  0  0  0  0  0  0  0  0  0  0
    1.5041   -4.5043    1.4220 H   0  0  0  0  0  0  0  0  0  0  0  0
   -1.2337   -3.5693    0.8541 H   0  0  0  0  0  0  0  0  0  0  0  0
    0.3377   -2.6516    3.3221 H   0  0  0  0  0  0  0  0  0  0  0  0
   -1.1969   -1.9620    2.7521 H   0  0  0  0  0  0  0  0  0  0  0  0
   -1.1456   -3.6334    3.3509 H   0  0  0  0  0  0  0  0  0  0  0  0
   -0.2129   -1.2538   -0.0227 N   0  0  0  0  0  0  0  0  0  0  0  0
    0.2365    0.1621   -0.0416 C   0  0  2  0  0  0  0  0  0  0  0  0
    1.0852    0.6415    1.2014 C   0  0  0  0  0  0  0  0  0  0  0  0
    1.5956   -0.1390    1.9934 O   0  0  0  0  0  0  0  0  0  0  0  0
   -1.0737    0.9599   -0.4070 C   0  0  2  0  0  0  0  0  0  0  0  0
   -1.5582    0.5375   -1.8306 C   0  0  0  0  0  0  0  0  0  0  0  0
   -0.9061    2.4969   -0.4021 C   0  0  0  0  0  0  0  0  0  0  0  0
   -2.9628    1.0379   -2.1955 C   0  0  0  0  0  0  0  0  0  0  0  0
   -1.2171   -1.3532    0.0817 H   0  0  0  0  0  0  0  0  0  0  0  0
    0.9287    0.2704   -0.8829 H   0  0  0  0  0  0  0  0  0  0  0  0
   -1.8510    0.7059    0.3224 H   0  0  0  0  0  0  0  0  0  0  0  0
   -0.8447    0.8954   -2.5803 H   0  0  0  0  0  0  0  0  0  0  0  0
   -1.5904   -0.5517   -1.9175 H   0  0  0  0  0  0  0  0  0  0  0  0
    0.0656    2.7830   -0.8175 H   0  0  0  0  0  0  0  0  0  0  0  0
   -1.0051    2.8879    0.6135 H   0  0  0  0  0  0  0  0  0  0  0  0
   -1.6763    3.0025   -0.9852 H   0  0  0  0  0  0  0  0  0  0  0  0
   -3.6653    0.8359   -1.3812 H   0  0  0  0  0  0  0  0  0  0  0  0
   -3.3163    0.5181   -3.0913 H   0  0  0  0  0  0  0  0  0  0  0  0
   -2.9702    2.1087   -2.4127 H   0  0  0  0  0  0  0  0  0  0  0  0
    1.0802    1.9478    1.6580 N   0  0  0  0  0  0  0  0  0  0  0  0
    1.6468    2.4303    2.9266 C   0  0  2  0  0  0  0  0  0  0  0  0
    0.9706    3.7432    3.3747 C   0  0  0  0  0  0  0  0  0  0  0  0
    0.2420    4.3568    2.6010 O   0  0  0  0  0  0  0  0  0  0  0  0
    3.1553    2.6376    2.7488 C   0  0  0  0  0  0  0  0  0  0  0  0
    0.5714    2.6355    1.1077 H   0  0  0  0  0  0  0  0  0  0  0  0
    1.4735    1.6895    3.7143 H   0  0  0  0  0  0  0  0  0  0  0  0
    3.3503    3.3821    1.9705 H   0  0  0  0  0  0  0  0  0  0  0  0
    3.6097    2.9816    3.6827 H   0  0  0  0  0  0  0  0  0  0  0  0
    3.6366    1.6979    2.4601 H   0  0  0  0  0  0  0  0  0  0  0  0
    1.1629    4.2316    4.6539 N   0  0  0  0  0  0  0  0  0  0  0  0
    0.5402    5.4547    5.1457 C   0  0  0  0  0  0  0  0  0  0  0  0
    1.7679    3.7019    5.2750 H   0  0  0  0  0  0  0  0  0  0  0  0
    0.8626    6.3148    4.5494 H   0  0  0  0  0  0  0  0  0  0  0  0
   -0.5511    5.3772    5.0927 H   0  0  0  0  0  0  0  0  0  0  0  0
    0.8235    5.6310    6.1878 H   0  0  0  0  0  0  0  0  0  0  0  0
  1  2  2  0  0  0  0
  1  3  1  0  0  0  0
  1  7  1  0  0  0  0
  3  4  1  0  0  0  0
  3  5  1  0  0  0  0
  3  6  1  0  0  0  0
  7  8  1  0  0  0  0
  7 12  1  0  0  0  0
  8  9  1  0  0  0  0
  8 11  1  0  0  0  0
  8 13  1  0  0  0  0
  9 10  2  0  0  0  0
  9 17  1  0  0  0  0
 11 14  1  0  0  0  0
 11 15  1  0  0  0  0
 11 16  1  0  0  0  0
 17 18  1  0  0  0  0
 17 25  1  0  0  0  0
 18 19  1  0  0  0  0
 18 21  1  0  0  0  0
 18 26  1  0  0  0  0
 19 20  2  0  0  0  0
 19 36  1  0  0  0  0
 21 22  1  0  0  0  0
 21 23  1  0  0  0  0
 21 27  1  0  0  0  0
 22 24  1  0  0  0  0
 22 28  1  0  0  0  0
 22 29  1  0  0  0  0
 23 30  1  0  0  0  0
 23 31  1  0  0  0  0
 23 32  1  0  0  0  0
 24 33  1  0  0  0  0
 24 34  1  0  0  0  0
 24 35  1  0  0  0  0
 36 37  1  0  0  0  0
 36 41  1  0  0  0  0
 37 38  1  0  0  0  0
 37 40  1  0  0  0  0
 37 42  1  0  0  0  0
 38 39  2  0  0  0  0
 38 46  1  0  0  0  0
 40 43  1  0  0  0  0
 40 44  1  0  0  0  0
 40 45  1  0  0  0  0
 46 47  1  0  0  0  0
 46 48  1  0  0  0  0
 47 49  1  0  0  0  0
 47 50  1  0  0  0  0
 47 51  1  0  0  0  0
M  END
$$$$

  -OEChem-05262216503D

 51 50  0     1  0  0  0  0  0999 V2000
    1.1397   -5.1284    0.8409 C   0  0  0  0  0  0  0  0  0  0  0  0
    1.0074   -5.0466   -0.3708 O   0  0  0  0  0  0  0  0  0  0  0  0
    2.3863   -5.7649    1.4264 C   0  0  0  0  0  0  0  0  0  0  0  0
    3.0692   -6.0618    0.6255 H   0  0  0  0  0  0  0  0  0  0  0  0
    2.8980   -5.0525    2.0787 H   0  0  0  0  0  0  0  0  0  0  0  0
    2.1160   -6.6507    2.0061 H   0  0  0  0  0  0  0  0  0  0  0  0
    0.1689   -4.6270    1.6836 N   0  0  0  0  0  0  0  0  0  0  0  0
   -0.8932   -3.7216    1.2261 C   0  0  2  0  0  0  0  0  0  0  0  0
   -0.5476   -2.2585    1.5680 C   0  0  0  0  0  0  0  0  0  0  0  0
   -0.1220   -2.0100    2.6868 O   0  0  0  0  0  0  0  0  0  0  0  0
   -2.2000   -4.1444    1.9011 C   0  0  0  0  0  0  0  0  0  0  0  0
    0.4485   -4.5268    2.6576 H   0  0  0  0  0  0  0  0  0  0  0  0
   -1.0277   -3.7978    0.1423 H   0  0  0  0  0  0  0  0  0  0  0  0
   -2.1067   -4.0836    2.9904 H   0  0  0  0  0  0  0  0  0  0  0  0
   -3.0206   -3.4924    1.5865 H   0  0  0  0  0  0  0  0  0  0  0  0
   -2.4511   -5.1744    1.6289 H   0  0  0  0  0  0  0  0  0  0  0  0
   -0.9368   -1.2495    0.7010 N   0  0  0  0  0  0  0  0  0  0  0  0
   -0.2306    0.0244    0.4000 C   0  0  2  0  0  0  0  0  0  0  0  0
    0.6333    0.5926    1.5756 C   0  0  0  0  0  0  0  0  0  0  0  0
    1.6769    0.0045    1.8368 O   0  0  0  0  0  0  0  0  0  0  0  0
   -1.3148    0.9726   -0.2303 C   0  0  2  0  0  0  0  0  0  0  0  0
   -1.8360    0.3564   -1.5656 C   0  0  0  0  0  0  0  0  0  0  0  0
   -0.7540    2.3803   -0.5599 C   0  0  0  0  0  0  0  0  0  0  0  0
   -3.0822    1.0518   -2.1338 C   0  0  0  0  0  0  0  0  0  0  0  0
   -1.4439   -1.6211   -0.0947 H   0  0  0  0  0  0  0  0  0  0  0  0
    0.5064   -0.1844   -0.3830 H   0  0  0  0  0  0  0  0  0  0  0  0
   -2.1505    1.0763    0.4709 H   0  0  0  0  0  0  0  0  0  0  0  0
   -1.0380    0.3773   -2.3157 H   0  0  0  0  0  0  0  0  0  0  0  0
   -2.1128   -0.6901   -1.4198 H   0  0  0  0  0  0  0  0  0  0  0  0
    0.2985    2.3160   -0.8548 H   0  0  0  0  0  0  0  0  0  0  0  0
   -0.8461    3.0484    0.2995 H   0  0  0  0  0  0  0  0  0  0  0  0
   -1.2919    2.8669   -1.3737 H   0  0  0  0  0  0  0  0  0  0  0  0
   -3.8494    1.1513   -1.3596 H   0  0  0  0  0  0  0  0  0  0  0  0
   -3.4961    0.4538   -2.9517 H   0  0  0  0  0  0  0  0  0  0  0  0
   -2.8555    2.0429   -2.5335 H   0  0  0  0  0  0  0  0  0  0  0  0
    0.6285    1.9194    1.9661 N   0  0  0  0  0  0  0  0  0  0  0  0
    1.5076    2.4923    2.9946 C   0  0  2  0  0  0  0  0  0  0  0  0
    0.7609    3.5406    3.8443 C   0  0  0  0  0  0  0  0  0  0  0  0
   -0.3115    3.9952    3.4575 O   0  0  0  0  0  0  0  0  0  0  0  0
    2.7151    3.1265    2.2976 C   0  0  0  0  0  0  0  0  0  0  0  0
   -0.2386    2.4271    1.8000 H   0  0  0  0  0  0  0  0  0  0  0  0
    1.8507    1.7043    3.6741 H   0  0  0  0  0  0  0  0  0  0  0  0
    2.3923    3.9347    1.6336 H   0  0  0  0  0  0  0  0  0  0  0  0
    3.4132    3.5360    3.0334 H   0  0  0  0  0  0  0  0  0  0  0  0
    3.2445    2.3765    1.7014 H   0  0  0  0  0  0  0  0  0  0  0  0
    1.2883    3.9745    5.0466 N   0  0  0  0  0  0  0  0  0  0  0  0
    0.6175    4.9347    5.9143 C   0  0  0  0  0  0  0  0  0  0  0  0
    2.1553    3.5479    5.3608 H   0  0  0  0  0  0  0  0  0  0  0  0
    0.4375    5.8740    5.3804 H   0  0  0  0  0  0  0  0  0  0  0  0
   -0.3425    4.5348    6.2573 H   0  0  0  0  0  0  0  0  0  0  0  0
    1.2359    5.1502    6.7911 H   0  0  0  0  0  0  0  0  0  0  0  0
  1  2  2  0  0  0  0
  1  3  1  0  0  0  0
  1  7  1  0  0  0  0
  3  4  1  0  0  0  0
  3  5  1  0  0  0  0
  3  6  1  0  0  0  0
  7  8  1  0  0  0  0
  7 12  1  0  0  0  0
  8  9  1  0  0  0  0
  8 11  1  0  0  0  0
  8 13  1  0  0  0  0
  9 10  2  0  0  0  0
  9 17  1  0  0  0  0
 11 14  1  0  0  0  0
 11 15  1  0  0  0  0
 11 16  1  0  0  0  0
 17 18  1  0  0  0  0
 17 25  1  0  0  0  0
 18 19  1  0  0  0  0
 18 21  1  0  0  0  0
 18 26  1  0  0  0  0
 19 20  2  0  0  0  0
 19 36  1  0  0  0  0
 21 22  1  0  0  0  0
 21 23  1  0  0  0  0
 21 27  1  0  0  0  0
 22 24  1  0  0  0  0
 22 28  1  0  0  0  0
 22 29  1  0  0  0  0
 23 30  1  0  0  0  0
 23 31  1  0  0  0  0
 23 32  1  0  0  0  0
 24 33  1  0  0  0  0
 24 34  1  0  0  0  0
 24 35  1  0  0  0  0
 36 37  1  0  0  0  0
 36 41  1  0  0  0  0
 37 38  1  0  0  0  0
 37 40  1  0  0  0  0
 37 42  1  0  0  0  0
 38 39  2  0  0  0  0
 38 46  1  0  0  0  0
 40 43  1  0  0  0  0
 40 44  1  0  0  0  0
 40 45  1  0  0  0  0
 46 47  1  0  0  0  0
 46 48  1  0  0  0  0
 47 49  1  0  0  0  0
 47 50  1  0  0  0  0
 47 51  1  0  0  0  0
M  END
$$$$

  -OEChem-05262216503D

 51 50  0     1  0  0  0  0  0999 V2000
    0.8328   -5.2861    0.6471 C   0  0  0  0  0  0  0  0  0  0  0  0
    0.4585   -5.1642   -0.5095 O   0  0  0  0  0  0  0  0  0  0  0  0
    2.0883   -6.0774    0.9612 C   0  0  0  0  0  0  0  0  0  0  0  0
    2.5066   -6.5024    0.0445 H   0  0  0  0  0  0  0  0  0  0  0  0
    2.8352   -5.4233    1.4181 H   0  0  0  0  0  0  0  0  0  0  0  0
    1.8540   -6.8903    1.6527 H   0  0  0  0  0  0  0  0  0  0  0  0
    0.1340   -4.6826    1.6722 N   0  0  0  0  0  0  0  0  0  0  0  0
   -0.8847   -3.6511    1.4369 C   0  0  2  0  0  0  0  0  0  0  0  0
   -0.2794   -2.2389    1.5734 C   0  0  0  0  0  0  0  0  0  0  0  0
    0.4653   -2.0212    2.5162 O   0  0  0  0  0  0  0  0  0  0  0  0
   -2.0148   -3.8590    2.4479 C   0  0  0  0  0  0  0  0  0  0  0  0
    0.6298   -4.6253    2.5594 H   0  0  0  0  0  0  0  0  0  0  0  0
   -1.3075   -3.7500    0.4318 H   0  0  0  0  0  0  0  0  0  0  0  0
   -1.6390   -3.7601    3.4715 H   0  0  0  0  0  0  0  0  0  0  0  0
   -2.8043   -3.1168    2.2950 H   0  0  0  0  0  0  0  0  0  0  0  0
   -2.4493   -4.8565    2.3300 H   0  0  0  0  0  0  0  0  0  0  0  0
   -0.6882   -1.2476    0.6936 N   0  0  0  0  0  0  0  0  0  0  0  0
   -0.0653    0.0655    0.3848 C   0  0  2  0  0  0  0  0  0  0  0  0
    0.7294    0.7003    1.5698 C   0  0  0  0  0  0  0  0  0  0  0  0
    1.8924    0.3503    1.7354 O   0  0  0  0  0  0  0  0  0  0  0  0
   -1.1809    0.9528   -0.2699 C   0  0  2  0  0  0  0  0  0  0  0  0
   -1.6462    0.3014   -1.6068 C   0  0  0  0  0  0  0  0  0  0  0  0
   -0.6640    2.3764   -0.6064 C   0  0  0  0  0  0  0  0  0  0  0  0
   -2.9143    0.9322   -2.1992 C   0  0  0  0  0  0  0  0  0  0  0  0
   -1.3229   -1.5929   -0.0184 H   0  0  0  0  0  0  0  0  0  0  0  0
    0.6981   -0.1097   -0.3812 H   0  0  0  0  0  0  0  0  0  0  0  0
   -2.0321    1.0289    0.4157 H   0  0  0  0  0  0  0  0  0  0  0  0
   -0.8376    0.3560   -2.3440 H   0  0  0  0  0  0  0  0  0  0  0  0
   -1.8713   -0.7568   -1.4552 H   0  0  0  0  0  0  0  0  0  0  0  0
    0.3782    2.3370   -0.9397 H   0  0  0  0  0  0  0  0  0  0  0  0
   -1.2461    2.8539   -1.3951 H   0  0  0  0  0  0  0  0  0  0  0  0
   -0.7350    3.0399    0.2576 H   0  0  0  0  0  0  0  0  0  0  0  0
   -3.6974    1.0021   -1.4378 H   0  0  0  0  0  0  0  0  0  0  0  0
   -3.2860    0.3088   -3.0182 H   0  0  0  0  0  0  0  0  0  0  0  0
   -2.7263    1.9296   -2.6032 H   0  0  0  0  0  0  0  0  0  0  0  0
    0.4076    1.9248    2.1248 N   0  0  0  0  0  0  0  0  0  0  0  0
    1.1417    2.5500    3.2314 C   0  0  2  0  0  0  0  0  0  0  0  0
    0.1715    3.2012    4.2375 C   0  0  0  0  0  0  0  0  0  0  0  0
   -0.9834    3.4505    3.9050 O   0  0  0  0  0  0  0  0  0  0  0  0
    2.0993    3.5917    2.6471 C   0  0  0  0  0  0  0  0  0  0  0  0
   -0.5624    2.2185    2.0195 H   0  0  0  0  0  0  0  0  0  0  0  0
    1.7175    1.7923    3.7742 H   0  0  0  0  0  0  0  0  0  0  0  0
    1.5422    4.3641    2.1070 H   0  0  0  0  0  0  0  0  0  0  0  0
    2.6787    4.0695    3.4426 H   0  0  0  0  0  0  0  0  0  0  0  0
    2.7968    3.1140    1.9514 H   0  0  0  0  0  0  0  0  0  0  0  0
    0.5865    3.4932    5.5234 N   0  0  0  0  0  0  0  0  0  0  0  0
   -0.2969    4.0479    6.5417 C   0  0  0  0  0  0  0  0  0  0  0  0
    1.5320    3.2267    5.7828 H   0  0  0  0  0  0  0  0  0  0  0  0
   -0.6862    5.0206    6.2229 H   0  0  0  0  0  0  0  0  0  0  0  0
   -1.1401    3.3738    6.7258 H   0  0  0  0  0  0  0  0  0  0  0  0
    0.2476    4.1850    7.4809 H   0  0  0  0  0  0  0  0  0  0  0  0
  1  2  2  0  0  0  0
  1  3  1  0  0  0  0
  1  7  1  0  0  0  0
  3  4  1  0  0  0  0
  3  5  1  0  0  0  0
  3  6  1  0  0  0  0
  7  8  1  0  0  0  0
  7 12  1  0  0  0  0
  8  9  1  0  0  0  0
  8 11  1  0  0  0  0
  8 13  1  0  0  0  0
  9 10  2  0  0  0  0
  9 17  1  0  0  0  0
 11 14  1  0  0  0  0
 11 15  1  0  0  0  0
 11 16  1  0  0  0  0
 17 18  1  0  0  0  0
 17 25  1  0  0  0  0
 18 19  1  0  0  0  0
 18 21  1  0  0  0  0
 18 26  1  0  0  0  0
 19 20  2  0  0  0  0
 19 36  1  0  0  0  0
 21 22  1  0  0  0  0
 21 23  1  0  0  0  0
 21 27  1  0  0  0  0
 22 24  1  0  0  0  0
 22 28  1  0  0  0  0
 22 29  1  0  0  0  0
 23 30  1  0  0  0  0
 23 31  1  0  0  0  0
 23 32  1  0  0  0  0
 24 33  1  0  0  0  0
 24 34  1  0  0  0  0
 24 35  1  0  0  0  0
 36 37  1  0  0  0  0
 36 41  1  0  0  0  0
 37 38  1  0  0  0  0
 37 40  1  0  0  0  0
 37 42  1  0  0  0  0
 38 39  2  0  0  0  0
 38 46  1  0  0  0  0
 40 43  1  0  0  0  0
 40 44  1  0  0  0  0
 40 45  1  0  0  0  0
 46 47  1  0  0  0  0
 46 48  1  0  0  0  0
 47 49  1  0  0  0  0
 47 50  1  0  0  0  0
 47 51  1  0  0  0  0
M  END
$$$$

  -OEChem-05262216503D

 51 50  0     1  0  0  0  0  0999 V2000
    0.7443   -5.3997    0.6536 C   0  0  0  0  0  0  0  0  0  0  0  0
    0.2705   -5.3306   -0.4701 O   0  0  0  0  0  0  0  0  0  0  0  0
    1.9482   -6.2843    0.9166 C   0  0  0  0  0  0  0  0  0  0  0  0
    2.3440   -6.6725   -0.0262 H   0  0  0  0  0  0  0  0  0  0  0  0
    2.7329   -5.7106    1.4165 H   0  0  0  0  0  0  0  0  0  0  0  0
    1.6595   -7.1252    1.5518 H   0  0  0  0  0  0  0  0  0  0  0  0
    0.1967   -4.6669    1.6861 N   0  0  0  0  0  0  0  0  0  0  0  0
   -0.7772   -3.5881    1.4707 C   0  0  2  0  0  0  0  0  0  0  0  0
   -0.0939   -2.2054    1.4835 C   0  0  0  0  0  0  0  0  0  0  0  0
    0.7830   -2.0008    2.3084 O   0  0  0  0  0  0  0  0  0  0  0  0
   -1.8319   -3.6780    2.5756 C   0  0  0  0  0  0  0  0  0  0  0  0
    0.7764   -4.5872    2.5191 H   0  0  0  0  0  0  0  0  0  0  0  0
   -1.2827   -3.7117    0.5076 H   0  0  0  0  0  0  0  0  0  0  0  0
   -1.3687   -3.5535    3.5599 H   0  0  0  0  0  0  0  0  0  0  0  0
   -2.5876   -2.8971    2.4464 H   0  0  0  0  0  0  0  0  0  0  0  0
   -2.3305   -4.6519    2.5441 H   0  0  0  0  0  0  0  0  0  0  0  0
   -0.5417   -1.2270    0.6078 N   0  0  0  0  0  0  0  0  0  0  0  0
    0.0063    0.1255    0.3359 C   0  0  2  0  0  0  0  0  0  0  0  0
    0.7201    0.7631    1.5652 C   0  0  0  0  0  0  0  0  0  0  0  0
    1.9370    0.6548    1.6597 O   0  0  0  0  0  0  0  0  0  0  0  0
   -1.1271    0.9910   -0.3059 C   0  0  2  0  0  0  0  0  0  0  0  0
   -1.5520    0.3671   -1.6665 C   0  0  0  0  0  0  0  0  0  0  0  0
   -0.6489    2.4339   -0.6149 C   0  0  0  0  0  0  0  0  0  0  0  0
   -2.8315    0.9801   -2.2485 C   0  0  0  0  0  0  0  0  0  0  0  0
   -1.2488   -1.5529   -0.0431 H   0  0  0  0  0  0  0  0  0  0  0  0
    0.7958    0.0132   -0.4150 H   0  0  0  0  0  0  0  0  0  0  0  0
   -1.9837    1.0266    0.3759 H   0  0  0  0  0  0  0  0  0  0  0  0
   -0.7386    0.4638   -2.3937 H   0  0  0  0  0  0  0  0  0  0  0  0
   -1.7463   -0.7013   -1.5447 H   0  0  0  0  0  0  0  0  0  0  0  0
    0.2320    2.4121   -1.2647 H   0  0  0  0  0  0  0  0  0  0  0  0
   -1.4316    3.0098   -1.1137 H   0  0  0  0  0  0  0  0  0  0  0  0
   -0.3909    2.9943    0.2832 H   0  0  0  0  0  0  0  0  0  0  0  0
   -3.6261    0.9964   -1.4960 H   0  0  0  0  0  0  0  0  0  0  0  0
   -3.1738    0.3824   -3.0989 H   0  0  0  0  0  0  0  0  0  0  0  0
   -2.6614    1.9994   -2.6047 H   0  0  0  0  0  0  0  0  0  0  0  0
    0.1356    1.7669    2.3165 N   0  0  0  0  0  0  0  0  0  0  0  0
    0.7537    2.3647    3.5053 C   0  0  2  0  0  0  0  0  0  0  0  0
   -0.2900    2.5896    4.6180 C   0  0  0  0  0  0  0  0  0  0  0  0
   -1.4883    2.5578    4.3544 O   0  0  0  0  0  0  0  0  0  0  0  0
    1.4075    3.6865    3.0945 C   0  0  0  0  0  0  0  0  0  0  0  0
   -0.8808    1.8212    2.2730 H   0  0  0  0  0  0  0  0  0  0  0  0
    1.5189    1.6916    3.9070 H   0  0  0  0  0  0  0  0  0  0  0  0
    0.6559    4.3810    2.7060 H   0  0  0  0  0  0  0  0  0  0  0  0
    1.9050    4.1516    3.9505 H   0  0  0  0  0  0  0  0  0  0  0  0
    2.1557    3.5102    2.3150 H   0  0  0  0  0  0  0  0  0  0  0  0
    0.1129    2.8177    5.9208 N   0  0  0  0  0  0  0  0  0  0  0  0
   -0.8191    2.9862    7.0289 C   0  0  0  0  0  0  0  0  0  0  0  0
    1.1095    2.7845    6.1160 H   0  0  0  0  0  0  0  0  0  0  0  0
   -1.4894    3.8317    6.8420 H   0  0  0  0  0  0  0  0  0  0  0  0
   -1.4213    2.0815    7.1627 H   0  0  0  0  0  0  0  0  0  0  0  0
   -0.2723    3.1789    7.9567 H   0  0  0  0  0  0  0  0  0  0  0  0
  1  2  2  0  0  0  0
  1  3  1  0  0  0  0
  1  7  1  0  0  0  0
  3  4  1  0  0  0  0
  3  5  1  0  0  0  0
  3  6  1  0  0  0  0
  7  8  1  0  0  0  0
  7 12  1  0  0  0  0
  8  9  1  0  0  0  0
  8 11  1  0  0  0  0
  8 13  1  0  0  0  0
  9 10  2  0  0  0  0
  9 17  1  0  0  0  0
 11 14  1  0  0  0  0
 11 15  1  0  0  0  0
 11 16  1  0  0  0  0
 17 18  1  0  0  0  0
 17 25  1  0  0  0  0
 18 19  1  0  0  0  0
 18 21  1  0  0  0  0
 18 26  1  0  0  0  0
 19 20  2  0  0  0  0
 19 36  1  0  0  0  0
 21 22  1  0  0  0  0
 21 23  1  0  0  0  0
 21 27  1  0  0  0  0
 22 24  1  0  0  0  0
 22 28  1  0  0  0  0
 22 29  1  0  0  0  0
 23 30  1  0  0  0  0
 23 31  1  0  0  0  0
 23 32  1  0  0  0  0
 24 33  1  0  0  0  0
 24 34  1  0  0  0  0
 24 35  1  0  0  0  0
 36 37  1  0  0  0  0
 36 41  1  0  0  0  0
 37 38  1  0  0  0  0
 37 40  1  0  0  0  0
 37 42  1  0  0  0  0
 38 39  2  0  0  0  0
 38 46  1  0  0  0  0
 40 43  1  0  0  0  0
 40 44  1  0  0  0  0
 40 45  1  0  0  0  0
 46 47  1  0  0  0  0
 46 48  1  0  0  0  0
 47 49  1  0  0  0  0
 47 50  1  0  0  0  0
 47 51  1  0  0  0  0
M  END
$$$$

  -OEChem-05262216503D

 51 50  0     1  0  0  0  0  0999 V2000
    0.6744   -5.4409    0.6648 C   0  0  0  0  0  0  0  0  0  0  0  0
    0.1139   -5.4101   -0.4200 O   0  0  0  0  0  0  0  0  0  0  0  0
    1.8688   -6.3517    0.8777 C   0  0  0  0  0  0  0  0  0  0  0  0
    2.0909   -6.9040   -0.0395 H   0  0  0  0  0  0  0  0  0  0  0  0
    2.7448   -5.7589    1.1523 H   0  0  0  0  0  0  0  0  0  0  0  0
    1.6558   -7.0662    1.6765 H   0  0  0  0  0  0  0  0  0  0  0  0
    0.2410   -4.6335    1.6962 N   0  0  0  0  0  0  0  0  0  0  0  0
   -0.7103   -3.5304    1.5053 C   0  0  2  0  0  0  0  0  0  0  0  0
    0.0133   -2.1712    1.4221 C   0  0  0  0  0  0  0  0  0  0  0  0
    0.9561   -1.9628    2.1712 O   0  0  0  0  0  0  0  0  0  0  0  0
   -1.6902   -3.5406    2.6809 C   0  0  0  0  0  0  0  0  0  0  0  0
    0.8856   -4.5399    2.4784 H   0  0  0  0  0  0  0  0  0  0  0  0
   -1.2833   -3.6709    0.5831 H   0  0  0  0  0  0  0  0  0  0  0  0
   -1.1586   -3.3881    3.6260 H   0  0  0  0  0  0  0  0  0  0  0  0
   -2.4303   -2.7422    2.5675 H   0  0  0  0  0  0  0  0  0  0  0  0
   -2.2177   -4.4985    2.7269 H   0  0  0  0  0  0  0  0  0  0  0  0
   -0.4574   -1.2077    0.5427 N   0  0  0  0  0  0  0  0  0  0  0  0
    0.0517    0.1640    0.3045 C   0  0  2  0  0  0  0  0  0  0  0  0
    0.7096    0.8079    1.5568 C   0  0  0  0  0  0  0  0  0  0  0  0
    1.9281    0.9253    1.6085 O   0  0  0  0  0  0  0  0  0  0  0  0
   -1.1007    1.0174   -0.3101 C   0  0  2  0  0  0  0  0  0  0  0  0
   -1.5209    0.4329   -1.6866 C   0  0  0  0  0  0  0  0  0  0  0  0
   -0.6567    2.4832   -0.5369 C   0  0  0  0  0  0  0  0  0  0  0  0
   -2.8165    1.0449   -2.2311 C   0  0  0  0  0  0  0  0  0  0  0  0
   -1.2032   -1.5230   -0.0699 H   0  0  0  0  0  0  0  0  0  0  0  0
    0.8524    0.0959   -0.4401 H   0  0  0  0  0  0  0  0  0  0  0  0
   -1.9572    1.0030    0.3727 H   0  0  0  0  0  0  0  0  0  0  0  0
   -0.7155    0.5787   -2.4147 H   0  0  0  0  0  0  0  0  0  0  0  0
   -1.6886   -0.6442   -1.6032 H   0  0  0  0  0  0  0  0  0  0  0  0
    0.1984    2.5213   -1.2196 H   0  0  0  0  0  0  0  0  0  0  0  0
   -1.4681    3.0772   -0.9640 H   0  0  0  0  0  0  0  0  0  0  0  0
   -0.3693    2.9755    0.3941 H   0  0  0  0  0  0  0  0  0  0  0  0
   -3.6133    0.9831   -1.4833 H   0  0  0  0  0  0  0  0  0  0  0  0
   -3.1378    0.4987   -3.1232 H   0  0  0  0  0  0  0  0  0  0  0  0
   -2.6762    2.0919   -2.5120 H   0  0  0  0  0  0  0  0  0  0  0  0
   -0.0440    1.5413    2.4558 N   0  0  0  0  0  0  0  0  0  0  0  0
    0.4831    2.0547    3.7246 C   0  0  2  0  0  0  0  0  0  0  0  0
   -0.5467    1.8783    4.8599 C   0  0  0  0  0  0  0  0  0  0  0  0
   -1.7179    1.6217    4.5959 O   0  0  0  0  0  0  0  0  0  0  0  0
    0.8417    3.5310    3.5364 C   0  0  0  0  0  0  0  0  0  0  0  0
   -1.0475    1.3667    2.4369 H   0  0  0  0  0  0  0  0  0  0  0  0
    1.3821    1.4967    4.0093 H   0  0  0  0  0  0  0  0  0  0  0  0
   -0.0454    4.1080    3.2565 H   0  0  0  0  0  0  0  0  0  0  0  0
    1.2530    3.9475    4.4606 H   0  0  0  0  0  0  0  0  0  0  0  0
    1.5916    3.6385    2.7460 H   0  0  0  0  0  0  0  0  0  0  0  0
   -0.1608    1.9962    6.1824 N   0  0  0  0  0  0  0  0  0  0  0  0
   -1.0721    1.7978    7.3027 C   0  0  0  0  0  0  0  0  0  0  0  0
    0.8236    2.1622    6.3711 H   0  0  0  0  0  0  0  0  0  0  0  0
   -1.9093    2.5013    7.2454 H   0  0  0  0  0  0  0  0  0  0  0  0
   -1.4686    0.7770    7.2978 H   0  0  0  0  0  0  0  0  0  0  0  0
   -0.5490    1.9617    8.2499 H   0  0  0  0  0  0  0  0  0  0  0  0
  1  2  2  0  0  0  0
  1  3  1  0  0  0  0
  1  7  1  0  0  0  0
  3  4  1  0  0  0  0
  3  5  1  0  0  0  0
  3  6  1  0  0  0  0
  7  8  1  0  0  0  0
  7 12  1  0  0  0  0
  8  9  1  0  0  0  0
  8 11  1  0  0  0  0
  8 13  1  0  0  0  0
  9 10  2  0  0  0  0
  9 17  1  0  0  0  0
 11 14  1  0  0  0  0
 11 15  1  0  0  0  0
 11 16  1  0  0  0  0
 17 18  1  0  0  0  0
 17 25  1  0  0  0  0
 18 19  1  0  0  0  0
 18 21  1  0  0  0  0
 18 26  1  0  0  0  0
 19 20  2  0  0  0  0
 19 36  1  0  0  0  0
 21 22  1  0  0  0  0
 21 23  1  0  0  0  0
 21 27  1  0  0  0  0
 22 24  1  0  0  0  0
 22 28  1  0  0  0  0
 22 29  1  0  0  0  0
 23 30  1  0  0  0  0
 23 31  1  0  0  0  0
 23 32  1  0  0  0  0
 24 33  1  0  0  0  0
 24 34  1  0  0  0  0
 24 35  1  0  0  0  0
 36 37  1  0  0  0  0
 36 41  1  0  0  0  0
 37 38  1  0  0  0  0
 37 40  1  0  0  0  0
 37 42  1  0  0  0  0
 38 39  2  0  0  0  0
 38 46  1  0  0  0  0
 40 43  1  0  0  0  0
 40 44  1  0  0  0  0
 40 45  1  0  0  0  0
 46 47  1  0  0  0  0
 46 48  1  0  0  0  0
 47 49  1  0  0  0  0
 47 50  1  0  0  0  0
 47 51  1  0  0  0  0
M  END
$$$$

  -OEChem-05262216503D

 51 50  0     1  0  0  0  0  0999 V2000
   -0.8137   -4.2808    0.3478 C   0  0  0  0  0  0  0  0  0  0  0  0
   -1.5475   -3.3854   -0.0444 O   0  0  0  0  0  0  0  0  0  0  0  0
   -0.3395   -5.3590   -0.6078 C   0  0  0  0  0  0  0  0  0  0  0  0
   -0.8173   -5.2341   -1.5837 H   0  0  0  0  0  0  0  0  0  0  0  0
    0.7439   -5.2960   -0.7360 H   0  0  0  0  0  0  0  0  0  0  0  0
   -0.5964   -6.3459   -0.2152 H   0  0  0  0  0  0  0  0  0  0  0  0
   -0.3732   -4.2666    1.6550 N   0  0  0  0  0  0  0  0  0  0  0  0
   -0.7849   -3.2656    2.6520 C   0  0  2  0  0  0  0  0  0  0  0  0
   -0.0386   -1.9177    2.4890 C   0  0  0  0  0  0  0  0  0  0  0  0
    0.6508   -1.4718    3.3936 O   0  0  0  0  0  0  0  0  0  0  0  0
   -0.5915   -3.8943    4.0384 C   0  0  0  0  0  0  0  0  0  0  0  0
    0.2952   -4.9806    1.9321 H   0  0  0  0  0  0  0  0  0  0  0  0
   -1.8533   -3.0546    2.5337 H   0  0  0  0  0  0  0  0  0  0  0  0
    0.4662   -4.1105    4.2204 H   0  0  0  0  0  0  0  0  0  0  0  0
   -0.9429   -3.2093    4.8171 H   0  0  0  0  0  0  0  0  0  0  0  0
   -1.1596   -4.8262    4.1185 H   0  0  0  0  0  0  0  0  0  0  0  0
   -0.1564   -1.2312    1.2910 N   0  0  0  0  0  0  0  0  0  0  0  0
    0.3742    0.1066    0.9428 C   0  0  2  0  0  0  0  0  0  0  0  0
    0.4781    1.0769    2.1463 C   0  0  0  0  0  0  0  0  0  0  0  0
    1.5728    1.4272    2.5687 O   0  0  0  0  0  0  0  0  0  0  0  0
   -0.4649    0.6963   -0.2286 C   0  0  2  0  0  0  0  0  0  0  0  0
   -0.3171   -0.1902   -1.4929 C   0  0  0  0  0  0  0  0  0  0  0  0
   -0.0186    2.1365   -0.5677 C   0  0  0  0  0  0  0  0  0  0  0  0
   -1.3125    0.1654   -2.6021 C   0  0  0  0  0  0  0  0  0  0  0  0
   -0.7234   -1.7131    0.5874 H   0  0  0  0  0  0  0  0  0  0  0  0
    1.4008   -0.0292    0.5857 H   0  0  0  0  0  0  0  0  0  0  0  0
   -1.5180    0.7166    0.0714 H   0  0  0  0  0  0  0  0  0  0  0  0
    0.7032   -0.1102   -1.8827 H   0  0  0  0  0  0  0  0  0  0  0  0
   -0.4836   -1.2394   -1.2385 H   0  0  0  0  0  0  0  0  0  0  0  0
    1.0404    2.1527   -0.8445 H   0  0  0  0  0  0  0  0  0  0  0  0
   -0.6007    2.5439   -1.3976 H   0  0  0  0  0  0  0  0  0  0  0  0
   -0.1633    2.8124    0.2792 H   0  0  0  0  0  0  0  0  0  0  0  0
   -2.3358    0.1639   -2.2136 H   0  0  0  0  0  0  0  0  0  0  0  0
   -1.2484   -0.5733   -3.4070 H   0  0  0  0  0  0  0  0  0  0  0  0
   -1.0981    1.1479   -3.0305 H   0  0  0  0  0  0  0  0  0  0  0  0
   -0.6561    1.6673    2.6769 N   0  0  0  0  0  0  0  0  0  0  0  0
   -0.6386    2.5568    3.8484 C   0  0  2  0  0  0  0  0  0  0  0  0
   -0.5876    1.7665    5.1784 C   0  0  0  0  0  0  0  0  0  0  0  0
   -1.4362    1.9246    6.0493 O   0  0  0  0  0  0  0  0  0  0  0  0
   -1.8590    3.4796    3.7410 C   0  0  0  0  0  0  0  0  0  0  0  0
   -1.5453    1.2718    2.3876 H   0  0  0  0  0  0  0  0  0  0  0  0
    0.2559    3.1883    3.8203 H   0  0  0  0  0  0  0  0  0  0  0  0
   -2.7868    2.9010    3.7924 H   0  0  0  0  0  0  0  0  0  0  0  0
   -1.8581    4.2055    4.5606 H   0  0  0  0  0  0  0  0  0  0  0  0
   -1.8390    4.0288    2.7949 H   0  0  0  0  0  0  0  0  0  0  0  0
    0.4136    0.8368    5.3761 N   0  0  0  0  0  0  0  0  0  0  0  0
    0.4530   -0.0775    6.5070 C   0  0  0  0  0  0  0  0  0  0  0  0
    0.9987    0.6254    4.5627 H   0  0  0  0  0  0  0  0  0  0  0  0
    0.4581    0.4775    7.4507 H   0  0  0  0  0  0  0  0  0  0  0  0
   -0.4159   -0.7431    6.4900 H   0  0  0  0  0  0  0  0  0  0  0  0
    1.3597   -0.6885    6.4603 H   0  0  0  0  0  0  0  0  0  0  0  0
  1  2  2  0  0  0  0
  1  3  1  0  0  0  0
  1  7  1  0  0  0  0
  3  4  1  0  0  0  0
  3  5  1  0  0  0  0
  3  6  1  0  0  0  0
  7  8  1  0  0  0  0
  7 12  1  0  0  0  0
  8  9  1  0  0  0  0
  8 11  1  0  0  0  0
  8 13  1  0  0  0  0
  9 10  2  0  0  0  0
  9 17  1  0  0  0  0
 11 14  1  0  0  0  0
 11 15  1  0  0  0  0
 11 16  1  0  0  0  0
 17 18  1  0  0  0  0
 17 25  1  0  0  0  0
 18 19  1  0  0  0  0
 18 21  1  0  0  0  0
 18 26  1  0  0  0  0
 19 20  2  0  0  0  0
 19 36  1  0  0  0  0
 21 22  1  0  0  0  0
 21 23  1  0  0  0  0
 21 27  1  0  0  0  0
 22 24  1  0  0  0  0
 22 28  1  0  0  0  0
 22 29  1  0  0  0  0
 23 30  1  0  0  0  0
 23 31  1  0  0  0  0
 23 32  1  0  0  0  0
 24 33  1  0  0  0  0
 24 34  1  0  0  0  0
 24 35  1  0  0  0  0
 36 37  1  0  0  0  0
 36 41  1  0  0  0  0
 37 38  1  0  0  0  0
 37 40  1  0  0  0  0
 37 42  1  0  0  0  0
 38 39  2  0  0  0  0
 38 46  1  0  0  0  0
 40 43  1  0  0  0  0
 40 44  1  0  0  0  0
 40 45  1  0  0  0  0
 46 47  1  0  0  0  0
 46 48  1  0  0  0  0
 47 49  1  0  0  0  0
 47 50  1  0  0  0  0
 47 51  1  0  0  0  0
M  END
$$$$

  -OEChem-05262216503D

 51 50  0     1  0  0  0  0  0999 V2000
   -1.0580   -4.1851    0.2559 C   0  0  0  0  0  0  0  0  0  0  0  0
   -1.7242   -3.1961   -0.0134 O   0  0  0  0  0  0  0  0  0  0  0  0
   -0.7915   -5.2409   -0.8000 C   0  0  0  0  0  0  0  0  0  0  0  0
    0.2838   -5.3368   -0.9707 H   0  0  0  0  0  0  0  0  0  0  0  0
   -1.1888   -6.2053   -0.4739 H   0  0  0  0  0  0  0  0  0  0  0  0
   -1.2730   -4.9626   -1.7420 H   0  0  0  0  0  0  0  0  0  0  0  0
   -0.4897   -4.2955    1.5086 N   0  0  0  0  0  0  0  0  0  0  0  0
   -0.7062   -3.3357    2.6040 C   0  0  2  0  0  0  0  0  0  0  0  0
    0.1175   -2.0326    2.4431 C   0  0  0  0  0  0  0  0  0  0  0  0
    0.8489   -1.6320    3.3360 O   0  0  0  0  0  0  0  0  0  0  0  0
   -0.4090   -4.0672    3.9198 C   0  0  0  0  0  0  0  0  0  0  0  0
    0.1056   -5.1009    1.6820 H   0  0  0  0  0  0  0  0  0  0  0  0
   -1.7615   -3.0432    2.6224 H   0  0  0  0  0  0  0  0  0  0  0  0
    0.6441   -4.3628    3.9685 H   0  0  0  0  0  0  0  0  0  0  0  0
   -0.6238   -3.4149    4.7730 H   0  0  0  0  0  0  0  0  0  0  0  0
   -1.0307   -4.9632    4.0090 H   0  0  0  0  0  0  0  0  0  0  0  0
    0.0248   -1.3179    1.2608 N   0  0  0  0  0  0  0  0  0  0  0  0
    0.4553    0.0764    1.0203 C   0  0  2  0  0  0  0  0  0  0  0  0
    0.3663    0.9851    2.2709 C   0  0  0  0  0  0  0  0  0  0  0  0
    1.3493    1.5877    2.6845 O   0  0  0  0  0  0  0  0  0  0  0  0
   -0.3651    0.6395   -0.1755 C   0  0  2  0  0  0  0  0  0  0  0  0
   -0.0558   -0.1666   -1.4646 C   0  0  0  0  0  0  0  0  0  0  0  0
   -0.0547    2.1335   -0.4108 C   0  0  0  0  0  0  0  0  0  0  0  0
   -1.0144    0.1483   -2.6172 C   0  0  0  0  0  0  0  0  0  0  0  0
   -0.6201   -1.7286    0.5796 H   0  0  0  0  0  0  0  0  0  0  0  0
    1.5130    0.0592    0.7360 H   0  0  0  0  0  0  0  0  0  0  0  0
   -1.4313    0.5407    0.0565 H   0  0  0  0  0  0  0  0  0  0  0  0
    0.9730    0.0300   -1.7846 H   0  0  0  0  0  0  0  0  0  0  0  0
   -0.1331   -1.2390   -1.2665 H   0  0  0  0  0  0  0  0  0  0  0  0
    1.0115    2.2758   -0.6140 H   0  0  0  0  0  0  0  0  0  0  0  0
   -0.6248    2.5261   -1.2562 H   0  0  0  0  0  0  0  0  0  0  0  0
   -0.3243    2.7371    0.4607 H   0  0  0  0  0  0  0  0  0  0  0  0
   -2.0534    0.0314   -2.2939 H   0  0  0  0  0  0  0  0  0  0  0  0
   -0.8328   -0.5398   -3.4483 H   0  0  0  0  0  0  0  0  0  0  0  0
   -0.8713    1.1669   -2.9867 H   0  0  0  0  0  0  0  0  0  0  0  0
   -0.8533    1.1821    2.8941 N   0  0  0  0  0  0  0  0  0  0  0  0
   -1.0203    1.9429    4.1406 C   0  0  2  0  0  0  0  0  0  0  0  0
   -0.6297    1.1088    5.3845 C   0  0  0  0  0  0  0  0  0  0  0  0
   -1.4517    0.8255    6.2497 O   0  0  0  0  0  0  0  0  0  0  0  0
   -2.4706    2.4393    4.1819 C   0  0  0  0  0  0  0  0  0  0  0  0
   -1.6059    0.5657    2.6047 H   0  0  0  0  0  0  0  0  0  0  0  0
   -0.3680    2.8227    4.1267 H   0  0  0  0  0  0  0  0  0  0  0  0
   -3.1679    1.5955    4.1998 H   0  0  0  0  0  0  0  0  0  0  0  0
   -2.6375    3.0449    5.0785 H   0  0  0  0  0  0  0  0  0  0  0  0
   -2.6866    3.0550    3.3037 H   0  0  0  0  0  0  0  0  0  0  0  0
    0.6632    0.6393    5.4975 N   0  0  0  0  0  0  0  0  0  0  0  0
    1.0672   -0.3463    6.4897 C   0  0  0  0  0  0  0  0  0  0  0  0
    1.2388    0.7418    4.6578 H   0  0  0  0  0  0  0  0  0  0  0  0
    0.8691    0.0215    7.5017 H   0  0  0  0  0  0  0  0  0  0  0  0
    0.5217   -1.2835    6.3393 H   0  0  0  0  0  0  0  0  0  0  0  0
    2.1383   -0.5503    6.4002 H   0  0  0  0  0  0  0  0  0  0  0  0
  1  2  2  0  0  0  0
  1  3  1  0  0  0  0
  1  7  1  0  0  0  0
  3  4  1  0  0  0  0
  3  5  1  0  0  0  0
  3  6  1  0  0  0  0
  7  8  1  0  0  0  0
  7 12  1  0  0  0  0
  8  9  1  0  0  0  0
  8 11  1  0  0  0  0
  8 13  1  0  0  0  0
  9 10  2  0  0  0  0
  9 17  1  0  0  0  0
 11 14  1  0  0  0  0
 11 15  1  0  0  0  0
 11 16  1  0  0  0  0
 17 18  1  0  0  0  0
 17 25  1  0  0  0  0
 18 19  1  0  0  0  0
 18 21  1  0  0  0  0
 18 26  1  0  0  0  0
 19 20  2  0  0  0  0
 19 36  1  0  0  0  0
 21 22  1  0  0  0  0
 21 23  1  0  0  0  0
 21 27  1  0  0  0  0
 22 24  1  0  0  0  0
 22 28  1  0  0  0  0
 22 29  1  0  0  0  0
 23 30  1  0  0  0  0
 23 31  1  0  0  0  0
 23 32  1  0  0  0  0
 24 33  1  0  0  0  0
 24 34  1  0  0  0  0
 24 35  1  0  0  0  0
 36 37  1  0  0  0  0
 36 41  1  0  0  0  0
 37 38  1  0  0  0  0
 37 40  1  0  0  0  0
 37 42  1  0  0  0  0
 38 39  2  0  0  0  0
 38 46  1  0  0  0  0
 40 43  1  0  0  0  0
 40 44  1  0  0  0  0
 40 45  1  0  0  0  0
 46 47  1  0  0  0  0
 46 48  1  0  0  0  0
 47 49  1  0  0  0  0
 47 50  1  0  0  0  0
 47 51  1  0  0  0  0
M  END
$$$$

  -OEChem-05262216503D

 51 50  0     1  0  0  0  0  0999 V2000
   -0.8678   -4.2153    0.1982 C   0  0  0  0  0  0  0  0  0  0  0  0
   -1.6037   -3.2615   -0.0073 O   0  0  0  0  0  0  0  0  0  0  0  0
   -0.7042   -5.2954   -0.8540 C   0  0  0  0  0  0  0  0  0  0  0  0
   -1.3130   -5.0615   -1.7319 H   0  0  0  0  0  0  0  0  0  0  0  0
    0.3424   -5.3641   -1.1610 H   0  0  0  0  0  0  0  0  0  0  0  0
   -1.0233   -6.2600   -0.4518 H   0  0  0  0  0  0  0  0  0  0  0  0
   -0.1348   -4.2692    1.3660 N   0  0  0  0  0  0  0  0  0  0  0  0
   -0.2420   -3.2883    2.4593 C   0  0  2  0  0  0  0  0  0  0  0  0
    0.5043   -1.9633    2.1605 C   0  0  0  0  0  0  0  0  0  0  0  0
    1.3677   -1.5301    2.9126 O   0  0  0  0  0  0  0  0  0  0  0  0
    0.2512   -3.9769    3.7374 C   0  0  0  0  0  0  0  0  0  0  0  0
    0.5117   -5.0452    1.4757 H   0  0  0  0  0  0  0  0  0  0  0  0
   -1.2956   -3.0291    2.6130 H   0  0  0  0  0  0  0  0  0  0  0  0
    1.3129   -4.2297    3.6555 H   0  0  0  0  0  0  0  0  0  0  0  0
    0.1187   -3.3132    4.5969 H   0  0  0  0  0  0  0  0  0  0  0  0
   -0.3176   -4.8931    3.9220 H   0  0  0  0  0  0  0  0  0  0  0  0
    0.1940   -1.2679    1.0025 N   0  0  0  0  0  0  0  0  0  0  0  0
    0.4506    0.1650    0.7309 C   0  0  2  0  0  0  0  0  0  0  0  0
    0.4217    1.0585    1.9954 C   0  0  0  0  0  0  0  0  0  0  0  0
    1.2733    1.9215    2.1734 O   0  0  0  0  0  0  0  0  0  0  0  0
   -0.5668    0.6400   -0.3469 C   0  0  2  0  0  0  0  0  0  0  0  0
   -0.3385   -0.1314   -1.6738 C   0  0  0  0  0  0  0  0  0  0  0  0
   -0.4530    2.1584   -0.6005 C   0  0  0  0  0  0  0  0  0  0  0  0
   -1.4576    0.0778   -2.6987 C   0  0  0  0  0  0  0  0  0  0  0  0
   -0.5359   -1.7174    0.4424 H   0  0  0  0  0  0  0  0  0  0  0  0
    1.4614    0.2564    0.3200 H   0  0  0  0  0  0  0  0  0  0  0  0
   -1.5786    0.4281    0.0164 H   0  0  0  0  0  0  0  0  0  0  0  0
    0.6172    0.1720   -2.1144 H   0  0  0  0  0  0  0  0  0  0  0  0
   -0.2786   -1.2055   -1.4795 H   0  0  0  0  0  0  0  0  0  0  0  0
    0.5594    2.4177   -0.9268 H   0  0  0  0  0  0  0  0  0  0  0  0
   -1.1601    2.4848   -1.3670 H   0  0  0  0  0  0  0  0  0  0  0  0
   -0.6822    2.7282    0.3050 H   0  0  0  0  0  0  0  0  0  0  0  0
   -2.4311   -0.1532   -2.2553 H   0  0  0  0  0  0  0  0  0  0  0  0
   -1.3027   -0.5853   -3.5552 H   0  0  0  0  0  0  0  0  0  0  0  0
   -1.4718    1.1063   -3.0682 H   0  0  0  0  0  0  0  0  0  0  0  0
   -0.5942    0.8955    2.9188 N   0  0  0  0  0  0  0  0  0  0  0  0
   -0.4145    1.2133    4.3383 C   0  0  2  0  0  0  0  0  0  0  0  0
   -0.6136   -0.0524    5.1984 C   0  0  0  0  0  0  0  0  0  0  0  0
   -1.3677   -0.9447    4.8154 O   0  0  0  0  0  0  0  0  0  0  0  0
   -1.4233    2.2977    4.7187 C   0  0  0  0  0  0  0  0  0  0  0  0
   -1.1859    0.0864    2.7401 H   0  0  0  0  0  0  0  0  0  0  0  0
    0.5980    1.5859    4.5265 H   0  0  0  0  0  0  0  0  0  0  0  0
   -2.4461    1.9458    4.5505 H   0  0  0  0  0  0  0  0  0  0  0  0
   -1.3154    2.5671    5.7737 H   0  0  0  0  0  0  0  0  0  0  0  0
   -1.2581    3.1942    4.1127 H   0  0  0  0  0  0  0  0  0  0  0  0
    0.0382   -0.1813    6.4109 N   0  0  0  0  0  0  0  0  0  0  0  0
   -0.0181   -1.3910    7.2215 C   0  0  0  0  0  0  0  0  0  0  0  0
    0.7444    0.5164    6.6270 H   0  0  0  0  0  0  0  0  0  0  0  0
   -1.0571   -1.6812    7.4110 H   0  0  0  0  0  0  0  0  0  0  0  0
    0.4924   -2.2153    6.7134 H   0  0  0  0  0  0  0  0  0  0  0  0
    0.4707   -1.2218    8.1857 H   0  0  0  0  0  0  0  0  0  0  0  0
  1  2  2  0  0  0  0
  1  3  1  0  0  0  0
  1  7  1  0  0  0  0
  3  4  1  0  0  0  0
  3  5  1  0  0  0  0
  3  6  1  0  0  0  0
  7  8  1  0  0  0  0
  7 12  1  0  0  0  0
  8  9  1  0  0  0  0
  8 11  1  0  0  0  0
  8 13  1  0  0  0  0
  9 10  2  0  0  0  0
  9 17  1  0  0  0  0
 11 14  1  0  0  0  0
 11 15  1  0  0  0  0
 11 16  1  0  0  0  0
 17 18  1  0  0  0  0
 17 25  1  0  0  0  0
 18 19  1  0  0  0  0
 18 21  1  0  0  0  0
 18 26  1  0  0  0  0
 19 20  2  0  0  0  0
 19 36  1  0  0  0  0
 21 22  1  0  0  0  0
 21 23  1  0  0  0  0
 21 27  1  0  0  0  0
 22 24  1  0  0  0  0
 22 28  1  0  0  0  0
 22 29  1  0  0  0  0
 23 30  1  0  0  0  0
 23 31  1  0  0  0  0
 23 32  1  0  0  0  0
 24 33  1  0  0  0  0
 24 34  1  0  0  0  0
 24 35  1  0  0  0  0
 36 37  1  0  0  0  0
 36 41  1  0  0  0  0
 37 38  1  0  0  0  0
 37 40  1  0  0  0  0
 37 42  1  0  0  0  0
 38 39  2  0  0  0  0
 38 46  1  0  0  0  0
 40 43  1  0  0  0  0
 40 44  1  0  0  0  0
 40 45  1  0  0  0  0
 46 47  1  0  0  0  0
 46 48  1  0  0  0  0
 47 49  1  0  0  0  0
 47 50  1  0  0  0  0
 47 51  1  0  0  0  0
M  END
$$$$

  -OEChem-05262216503D

 51 50  0     1  0  0  0  0  0999 V2000
    0.7031   -5.6367    0.4752 C   0  0  0  0  0  0  0  0  0  0  0  0
    0.1876   -5.6770   -0.6312 O   0  0  0  0  0  0  0  0  0  0  0  0
    1.8499   -6.5704    0.8131 C   0  0  0  0  0  0  0  0  0  0  0  0
    2.0239   -7.2676   -0.0110 H   0  0  0  0  0  0  0  0  0  0  0  0
    2.7619   -5.9938    0.9869 H   0  0  0  0  0  0  0  0  0  0  0  0
    1.6119   -7.1423    1.7131 H   0  0  0  0  0  0  0  0  0  0  0  0
    0.2574   -4.7382    1.4219 N   0  0  0  0  0  0  0  0  0  0  0  0
   -0.6581   -3.6287    1.1229 C   0  0  2  0  0  0  0  0  0  0  0  0
    0.0721   -2.2703    1.1128 C   0  0  0  0  0  0  0  0  0  0  0  0
    1.0903   -2.1222    1.7746 O   0  0  0  0  0  0  0  0  0  0  0  0
   -1.7545   -3.6359    2.1899 C   0  0  0  0  0  0  0  0  0  0  0  0
    0.8611   -4.6160    2.2325 H   0  0  0  0  0  0  0  0  0  0  0  0
   -1.1271   -3.7661    0.1429 H   0  0  0  0  0  0  0  0  0  0  0  0
   -1.3209   -3.5085    3.1871 H   0  0  0  0  0  0  0  0  0  0  0  0
   -2.4679   -2.8247    2.0154 H   0  0  0  0  0  0  0  0  0  0  0  0
   -2.2976   -4.5858    2.1662 H   0  0  0  0  0  0  0  0  0  0  0  0
   -0.4182   -1.2258    0.3459 N   0  0  0  0  0  0  0  0  0  0  0  0
   -0.0361    0.2074    0.4067 C   0  0  2  0  0  0  0  0  0  0  0  0
    0.4189    0.7495    1.7922 C   0  0  0  0  0  0  0  0  0  0  0  0
    1.2263    1.6697    1.8556 O   0  0  0  0  0  0  0  0  0  0  0  0
   -1.2512    1.0111   -0.1559 C   0  0  2  0  0  0  0  0  0  0  0  0
   -1.5005    0.6410   -1.6441 C   0  0  0  0  0  0  0  0  0  0  0  0
   -1.0478    2.5373   -0.0354 C   0  0  0  0  0  0  0  0  0  0  0  0
   -2.8272    1.1787   -2.1909 C   0  0  0  0  0  0  0  0  0  0  0  0
   -1.2325   -1.4520   -0.2176 H   0  0  0  0  0  0  0  0  0  0  0  0
    0.8209    0.3545   -0.2593 H   0  0  0  0  0  0  0  0  0  0  0  0
   -2.1378    0.7442    0.4300 H   0  0  0  0  0  0  0  0  0  0  0  0
   -0.6761    1.0180   -2.2586 H   0  0  0  0  0  0  0  0  0  0  0  0
   -1.5233   -0.4449   -1.7671 H   0  0  0  0  0  0  0  0  0  0  0  0
   -0.1253    2.8413   -0.5405 H   0  0  0  0  0  0  0  0  0  0  0  0
   -1.8822    3.0871   -0.4762 H   0  0  0  0  0  0  0  0  0  0  0  0
   -0.9900    2.8455    1.0126 H   0  0  0  0  0  0  0  0  0  0  0  0
   -3.6560    0.8971   -1.5340 H   0  0  0  0  0  0  0  0  0  0  0  0
   -3.0153    0.7587   -3.1837 H   0  0  0  0  0  0  0  0  0  0  0  0
   -2.8062    2.2673   -2.2872 H   0  0  0  0  0  0  0  0  0  0  0  0
   -0.0774    0.2197    2.9683 N   0  0  0  0  0  0  0  0  0  0  0  0
    0.4747    0.4972    4.2966 C   0  0  2  0  0  0  0  0  0  0  0  0
    0.2593   -0.7034    5.2423 C   0  0  0  0  0  0  0  0  0  0  0  0
   -0.5693   -1.5684    4.9710 O   0  0  0  0  0  0  0  0  0  0  0  0
   -0.2016    1.7522    4.8569 C   0  0  0  0  0  0  0  0  0  0  0  0
   -0.5473   -0.6786    2.8728 H   0  0  0  0  0  0  0  0  0  0  0  0
    1.5540    0.6661    4.2173 H   0  0  0  0  0  0  0  0  0  0  0  0
   -1.2825    1.5990    4.9376 H   0  0  0  0  0  0  0  0  0  0  0  0
    0.1924    1.9918    5.8489 H   0  0  0  0  0  0  0  0  0  0  0  0
   -0.0194    2.6075    4.1987 H   0  0  0  0  0  0  0  0  0  0  0  0
    0.9869   -0.8090    6.4134 N   0  0  0  0  0  0  0  0  0  0  0  0
    0.8370   -1.9126    7.3537 C   0  0  0  0  0  0  0  0  0  0  0  0
    1.6834   -0.0931    6.5991 H   0  0  0  0  0  0  0  0  0  0  0  0
   -0.1863   -1.9485    7.7419 H   0  0  0  0  0  0  0  0  0  0  0  0
    1.0626   -2.8664    6.8653 H   0  0  0  0  0  0  0  0  0  0  0  0
    1.5219   -1.7863    8.1977 H   0  0  0  0  0  0  0  0  0  0  0  0
  1  2  2  0  0  0  0
  1  3  1  0  0  0  0
  1  7  1  0  0  0  0
  3  4  1  0  0  0  0
  3  5  1  0  0  0  0
  3  6  1  0  0  0  0
  7  8  1  0  0  0  0
  7 12  1  0  0  0  0
  8  9  1  0  0  0  0
  8 11  1  0  0  0  0
  8 13  1  0  0  0  0
  9 10  2  0  0  0  0
  9 17  1  0  0  0  0
 11 14  1  0  0  0  0
 11 15  1  0  0  0  0
 11 16  1  0  0  0  0
 17 18  1  0  0  0  0
 17 25  1  0  0  0  0
 18 19  1  0  0  0  0
 18 21  1  0  0  0  0
 18 26  1  0  0  0  0
 19 20  2  0  0  0  0
 19 36  1  0  0  0  0
 21 22  1  0  0  0  0
 21 23  1  0  0  0  0
 21 27  1  0  0  0  0
 22 24  1  0  0  0  0
 22 28  1  0  0  0  0
 22 29  1  0  0  0  0
 23 30  1  0  0  0  0
 23 31  1  0  0  0  0
 23 32  1  0  0  0  0
 24 33  1  0  0  0  0
 24 34  1  0  0  0  0
 24 35  1  0  0  0  0
 36 37  1  0  0  0  0
 36 41  1  0  0  0  0
 37 38  1  0  0  0  0
 37 40  1  0  0  0  0
 37 42  1  0  0  0  0
 38 39  2  0  0  0  0
 38 46  1  0  0  0  0
 40 43  1  0  0  0  0
 40 44  1  0  0  0  0
 40 45  1  0  0  0  0
 46 47  1  0  0  0  0
 46 48  1  0  0  0  0
 47 49  1  0  0  0  0
 47 50  1  0  0  0  0
 47 51  1  0  0  0  0
M  END
$$$$

  -OEChem-05262216503D

 51 50  0     1  0  0  0  0  0999 V2000
    0.6433   -5.7419    0.4237 C   0  0  0  0  0  0  0  0  0  0  0  0
    0.1976   -5.8032   -0.7119 O   0  0  0  0  0  0  0  0  0  0  0  0
    1.7532   -6.6816    0.8555 C   0  0  0  0  0  0  0  0  0  0  0  0
    2.0104   -7.3640    0.0404 H   0  0  0  0  0  0  0  0  0  0  0  0
    2.6423   -6.1069    1.1278 H   0  0  0  0  0  0  0  0  0  0  0  0
    1.4286   -7.2689    1.7178 H   0  0  0  0  0  0  0  0  0  0  0  0
    0.1554   -4.8117    1.3179 N   0  0  0  0  0  0  0  0  0  0  0  0
   -0.6884   -3.6762    0.9212 C   0  0  2  0  0  0  0  0  0  0  0  0
    0.1018   -2.3515    0.8987 C   0  0  0  0  0  0  0  0  0  0  0  0
    1.1664   -2.2594    1.4931 O   0  0  0  0  0  0  0  0  0  0  0  0
   -1.8408   -3.5870    1.9244 C   0  0  0  0  0  0  0  0  0  0  0  0
    0.7079   -4.6858    2.1645 H   0  0  0  0  0  0  0  0  0  0  0  0
   -1.1077   -3.8350   -0.0777 H   0  0  0  0  0  0  0  0  0  0  0  0
   -1.4579   -3.4146    2.9359 H   0  0  0  0  0  0  0  0  0  0  0  0
   -2.5156   -2.7661    1.6638 H   0  0  0  0  0  0  0  0  0  0  0  0
   -2.4146   -4.5190    1.9242 H   0  0  0  0  0  0  0  0  0  0  0  0
   -0.4040   -1.2496    0.2316 N   0  0  0  0  0  0  0  0  0  0  0  0
   -0.0559    0.1815    0.4301 C   0  0  2  0  0  0  0  0  0  0  0  0
    0.3814    0.6358    1.8608 C   0  0  0  0  0  0  0  0  0  0  0  0
    0.9855    1.6925    2.0056 O   0  0  0  0  0  0  0  0  0  0  0  0
   -1.2944    0.9764   -0.1064 C   0  0  2  0  0  0  0  0  0  0  0  0
   -1.4850    0.7140   -1.6280 C   0  0  0  0  0  0  0  0  0  0  0  0
   -1.1876    2.4972    0.1363 C   0  0  0  0  0  0  0  0  0  0  0  0
   -2.8177    1.2325   -2.1794 C   0  0  0  0  0  0  0  0  0  0  0  0
   -1.2690   -1.4255   -0.2707 H   0  0  0  0  0  0  0  0  0  0  0  0
    0.8039    0.4052   -0.2103 H   0  0  0  0  0  0  0  0  0  0  0  0
   -2.1825    0.6199    0.4272 H   0  0  0  0  0  0  0  0  0  0  0  0
   -0.6618    1.1763   -2.1829 H   0  0  0  0  0  0  0  0  0  0  0  0
   -1.4522   -0.3577   -1.8398 H   0  0  0  0  0  0  0  0  0  0  0  0
   -0.2600    2.8905   -0.2920 H   0  0  0  0  0  0  0  0  0  0  0  0
   -2.0286    3.0345   -0.3067 H   0  0  0  0  0  0  0  0  0  0  0  0
   -1.2052    2.7234    1.2061 H   0  0  0  0  0  0  0  0  0  0  0  0
   -3.6525    0.8724   -1.5703 H   0  0  0  0  0  0  0  0  0  0  0  0
   -2.9577    0.8735   -3.2037 H   0  0  0  0  0  0  0  0  0  0  0  0
   -2.8419    2.3252   -2.2029 H   0  0  0  0  0  0  0  0  0  0  0  0
    0.1680   -0.1356    2.9887 N   0  0  0  0  0  0  0  0  0  0  0  0
    0.7308    0.1460    4.3133 C   0  0  2  0  0  0  0  0  0  0  0  0
    0.8724   -1.1495    5.1420 C   0  0  0  0  0  0  0  0  0  0  0  0
    0.2400   -2.1580    4.8399 O   0  0  0  0  0  0  0  0  0  0  0  0
   -0.1804    1.1435    5.0364 C   0  0  0  0  0  0  0  0  0  0  0  0
    0.0003   -1.1231    2.7971 H   0  0  0  0  0  0  0  0  0  0  0  0
    1.7307    0.5784    4.2018 H   0  0  0  0  0  0  0  0  0  0  0  0
   -1.1833    0.7228    5.1605 H   0  0  0  0  0  0  0  0  0  0  0  0
    0.2222    1.3851    6.0245 H   0  0  0  0  0  0  0  0  0  0  0  0
   -0.2609    2.0717    4.4618 H   0  0  0  0  0  0  0  0  0  0  0  0
    1.7037   -1.1817    6.2468 N   0  0  0  0  0  0  0  0  0  0  0  0
    1.8901   -2.3663    7.0754 C   0  0  0  0  0  0  0  0  0  0  0  0
    2.2360   -0.3428    6.4587 H   0  0  0  0  0  0  0  0  0  0  0  0
    0.9391   -2.6742    7.5224 H   0  0  0  0  0  0  0  0  0  0  0  0
    2.2835   -3.1950    6.4773 H   0  0  0  0  0  0  0  0  0  0  0  0
    2.5986   -2.1559    7.8823 H   0  0  0  0  0  0  0  0  0  0  0  0
  1  2  2  0  0  0  0
  1  3  1  0  0  0  0
  1  7  1  0  0  0  0
  3  4  1  0  0  0  0
  3  5  1  0  0  0  0
  3  6  1  0  0  0  0
  7  8  1  0  0  0  0
  7 12  1  0  0  0  0
  8  9  1  0  0  0  0
  8 11  1  0  0  0  0
  8 13  1  0  0  0  0
  9 10  2  0  0  0  0
  9 17  1  0  0  0  0
 11 14  1  0  0  0  0
 11 15  1  0  0  0  0
 11 16  1  0  0  0  0
 17 18  1  0  0  0  0
 17 25  1  0  0  0  0
 18 19  1  0  0  0  0
 18 21  1  0  0  0  0
 18 26  1  0  0  0  0
 19 20  2  0  0  0  0
 19 36  1  0  0  0  0
 21 22  1  0  0  0  0
 21 23  1  0  0  0  0
 21 27  1  0  0  0  0
 22 24  1  0  0  0  0
 22 28  1  0  0  0  0
 22 29  1  0  0  0  0
 23 30  1  0  0  0  0
 23 31  1  0  0  0  0
 23 32  1  0  0  0  0
 24 33  1  0  0  0  0
 24 34  1  0  0  0  0
 24 35  1  0  0  0  0
 36 37  1  0  0  0  0
 36 41  1  0  0  0  0
 37 38  1  0  0  0  0
 37 40  1  0  0  0  0
 37 42  1  0  0  0  0
 38 39  2  0  0  0  0
 38 46  1  0  0  0  0
 40 43  1  0  0  0  0
 40 44  1  0  0  0  0
 40 45  1  0  0  0  0
 46 47  1  0  0  0  0
 46 48  1  0  0  0  0
 47 49  1  0  0  0  0
 47 50  1  0  0  0  0
 47 51  1  0  0  0  0
M  END
$$$$

  -OEChem-05262216503D

 51 50  0     1  0  0  0  0  0999 V2000
    0.7038   -5.6196    1.4479 C   0  0  0  0  0  0  0  0  0  0  0  0
    0.4943   -6.2297    0.4100 O   0  0  0  0  0  0  0  0  0  0  0  0
    1.5999   -6.2168    2.5160 C   0  0  0  0  0  0  0  0  0  0  0  0
    2.0914   -7.1169    2.1372 H   0  0  0  0  0  0  0  0  0  0  0  0
    2.3645   -5.4917    2.8061 H   0  0  0  0  0  0  0  0  0  0  0  0
    1.0064   -6.4781    3.3952 H   0  0  0  0  0  0  0  0  0  0  0  0
    0.1219   -4.3906    1.6685 N   0  0  0  0  0  0  0  0  0  0  0  0
   -0.5095   -3.5820    0.6127 C   0  0  2  0  0  0  0  0  0  0  0  0
    0.2628   -2.2639    0.3720 C   0  0  0  0  0  0  0  0  0  0  0  0
    1.4295   -2.1577    0.7226 O   0  0  0  0  0  0  0  0  0  0  0  0
   -1.9571   -3.3338    1.0533 C   0  0  0  0  0  0  0  0  0  0  0  0
    0.4754   -3.8940    2.4936 H   0  0  0  0  0  0  0  0  0  0  0  0
   -0.5228   -4.1241   -0.3386 H   0  0  0  0  0  0  0  0  0  0  0  0
   -1.9827   -2.7379    1.9717 H   0  0  0  0  0  0  0  0  0  0  0  0
   -2.5178   -2.8078    0.2752 H   0  0  0  0  0  0  0  0  0  0  0  0
   -2.4582   -4.2881    1.2456 H   0  0  0  0  0  0  0  0  0  0  0  0
   -0.3626   -1.1262   -0.1072 N   0  0  0  0  0  0  0  0  0  0  0  0
   -0.1177    0.2743    0.3395 C   0  0  2  0  0  0  0  0  0  0  0  0
    0.3206    0.5009    1.8316 C   0  0  0  0  0  0  0  0  0  0  0  0
    0.6621    1.6103    2.2217 O   0  0  0  0  0  0  0  0  0  0  0  0
   -1.4262    1.0399   -0.0663 C   0  0  2  0  0  0  0  0  0  0  0  0
   -1.6007    1.0181   -1.6138 C   0  0  0  0  0  0  0  0  0  0  0  0
   -1.4595    2.5043    0.4206 C   0  0  0  0  0  0  0  0  0  0  0  0
   -2.9751    1.5032   -2.0902 C   0  0  0  0  0  0  0  0  0  0  0  0
   -1.3039   -1.2997   -0.4455 H   0  0  0  0  0  0  0  0  0  0  0  0
    0.7121    0.6714   -0.2545 H   0  0  0  0  0  0  0  0  0  0  0  0
   -2.2773    0.5240    0.3916 H   0  0  0  0  0  0  0  0  0  0  0  0
   -0.8225    1.6357   -2.0750 H   0  0  0  0  0  0  0  0  0  0  0  0
   -1.4755    0.0035   -2.0011 H   0  0  0  0  0  0  0  0  0  0  0  0
   -0.5551    3.0345    0.1052 H   0  0  0  0  0  0  0  0  0  0  0  0
   -2.3270    3.0406    0.0315 H   0  0  0  0  0  0  0  0  0  0  0  0
   -1.5350    2.5494    1.5105 H   0  0  0  0  0  0  0  0  0  0  0  0
   -3.7739    0.9815   -1.5544 H   0  0  0  0  0  0  0  0  0  0  0  0
   -3.0872    1.3003   -3.1598 H   0  0  0  0  0  0  0  0  0  0  0  0
   -3.0935    2.5797   -1.9426 H   0  0  0  0  0  0  0  0  0  0  0  0
    0.4787   -0.5376    2.7302 N   0  0  0  0  0  0  0  0  0  0  0  0
    1.1005   -0.4565    4.0542 C   0  0  2  0  0  0  0  0  0  0  0  0
    1.5925   -1.8548    4.4940 C   0  0  0  0  0  0  0  0  0  0  0  0
    1.1275   -2.8727    3.9815 O   0  0  0  0  0  0  0  0  0  0  0  0
    0.0812    0.0858    5.0615 C   0  0  0  0  0  0  0  0  0  0  0  0
    0.5628   -1.4516    2.2862 H   0  0  0  0  0  0  0  0  0  0  0  0
    1.9671    0.2120    4.0122 H   0  0  0  0  0  0  0  0  0  0  0  0
   -0.7894   -0.5754    5.1171 H   0  0  0  0  0  0  0  0  0  0  0  0
    0.5289    0.1591    6.0571 H   0  0  0  0  0  0  0  0  0  0  0  0
   -0.2575    1.0828    4.7633 H   0  0  0  0  0  0  0  0  0  0  0  0
    2.5619   -1.9796    5.4712 N   0  0  0  0  0  0  0  0  0  0  0  0
    3.1185   -3.2606    5.8895 C   0  0  0  0  0  0  0  0  0  0  0  0
    2.9658   -1.1243    5.8418 H   0  0  0  0  0  0  0  0  0  0  0  0
    2.3259   -3.9249    6.2501 H   0  0  0  0  0  0  0  0  0  0  0  0
    3.6325   -3.7459    5.0530 H   0  0  0  0  0  0  0  0  0  0  0  0
    3.8393   -3.1131    6.6999 H   0  0  0  0  0  0  0  0  0  0  0  0
  1  2  2  0  0  0  0
  1  3  1  0  0  0  0
  1  7  1  0  0  0  0
  3  4  1  0  0  0  0
  3  5  1  0  0  0  0
  3  6  1  0  0  0  0
  7  8  1  0  0  0  0
  7 12  1  0  0  0  0
  8  9  1  0  0  0  0
  8 11  1  0  0  0  0
  8 13  1  0  0  0  0
  9 10  2  0  0  0  0
  9 17  1  0  0  0  0
 11 14  1  0  0  0  0
 11 15  1  0  0  0  0
 11 16  1  0  0  0  0
 17 18  1  0  0  0  0
 17 25  1  0  0  0  0
 18 19  1  0  0  0  0
 18 21  1  0  0  0  0
 18 26  1  0  0  0  0
 19 20  2  0  0  0  0
 19 36  1  0  0  0  0
 21 22  1  0  0  0  0
 21 23  1  0  0  0  0
 21 27  1  0  0  0  0
 22 24  1  0  0  0  0
 22 28  1  0  0  0  0
 22 29  1  0  0  0  0
 23 30  1  0  0  0  0
 23 31  1  0  0  0  0
 23 32  1  0  0  0  0
 24 33  1  0  0  0  0
 24 34  1  0  0  0  0
 24 35  1  0  0  0  0
 36 37  1  0  0  0  0
 36 41  1  0  0  0  0
 37 38  1  0  0  0  0
 37 40  1  0  0  0  0
 37 42  1  0  0  0  0
 38 39  2  0  0  0  0
 38 46  1  0  0  0  0
 40 43  1  0  0  0  0
 40 44  1  0  0  0  0
 40 45  1  0  0  0  0
 46 47  1  0  0  0  0
 46 48  1  0  0  0  0
 47 49  1  0  0  0  0
 47 50  1  0  0  0  0
 47 51  1  0  0  0  0
M  END
$$$$

  -OEChem-05262216503D

 51 50  0     1  0  0  0  0  0999 V2000
    1.8740   -4.8629    1.7520 C   0  0  0  0  0  0  0  0  0  0  0  0
    1.8220   -3.9914    2.6063 O   0  0  0  0  0  0  0  0  0  0  0  0
    3.0333   -5.8413    1.7600 C   0  0  0  0  0  0  0  0  0  0  0  0
    3.7041   -5.6262    2.5964 H   0  0  0  0  0  0  0  0  0  0  0  0
    2.6601   -6.8631    1.8626 H   0  0  0  0  0  0  0  0  0  0  0  0
    3.5973   -5.7568    0.8277 H   0  0  0  0  0  0  0  0  0  0  0  0
    0.9157   -4.9675    0.7592 N   0  0  0  0  0  0  0  0  0  0  0  0
   -0.1273   -3.9594    0.4807 C   0  0  2  0  0  0  0  0  0  0  0  0
    0.4404   -2.5602    0.1290 C   0  0  0  0  0  0  0  0  0  0  0  0
    1.5836   -2.4596   -0.3003 O   0  0  0  0  0  0  0  0  0  0  0  0
   -1.1486   -3.9191    1.6289 C   0  0  0  0  0  0  0  0  0  0  0  0
    1.1444   -5.6149    0.0110 H   0  0  0  0  0  0  0  0  0  0  0  0
   -0.6673   -4.2894   -0.4118 H   0  0  0  0  0  0  0  0  0  0  0  0
   -0.6991   -3.5292    2.5454 H   0  0  0  0  0  0  0  0  0  0  0  0
   -1.9994   -3.2827    1.3687 H   0  0  0  0  0  0  0  0  0  0  0  0
   -1.5250   -4.9258    1.8337 H   0  0  0  0  0  0  0  0  0  0  0  0
   -0.3875   -1.4593    0.0083 N   0  0  0  0  0  0  0  0  0  0  0  0
   -0.0341   -0.0187    0.1476 C   0  0  2  0  0  0  0  0  0  0  0  0
    1.1355    0.3610    1.1284 C   0  0  0  0  0  0  0  0  0  0  0  0
    1.3817    1.5293    1.3962 O   0  0  0  0  0  0  0  0  0  0  0  0
   -1.4230    0.6605    0.4482 C   0  0  2  0  0  0  0  0  0  0  0  0
   -2.3838    0.4671   -0.7651 C   0  0  0  0  0  0  0  0  0  0  0  0
   -1.3373    2.1693    0.7673 C   0  0  0  0  0  0  0  0  0  0  0  0
   -3.8402    0.8528   -0.4778 C   0  0  0  0  0  0  0  0  0  0  0  0
   -1.3281   -1.6603    0.3338 H   0  0  0  0  0  0  0  0  0  0  0  0
    0.3122    0.3333   -0.8289 H   0  0  0  0  0  0  0  0  0  0  0  0
   -1.8560    0.1683    1.3266 H   0  0  0  0  0  0  0  0  0  0  0  0
   -2.0178    1.0530   -1.6147 H   0  0  0  0  0  0  0  0  0  0  0  0
   -2.3986   -0.5789   -1.0811 H   0  0  0  0  0  0  0  0  0  0  0  0
   -0.7353    2.6883    0.0148 H   0  0  0  0  0  0  0  0  0  0  0  0
   -2.3220    2.6372    0.8018 H   0  0  0  0  0  0  0  0  0  0  0  0
   -0.8935    2.3293    1.7536 H   0  0  0  0  0  0  0  0  0  0  0  0
   -4.1833    0.3900    0.4527 H   0  0  0  0  0  0  0  0  0  0  0  0
   -4.4811    0.5048   -1.2936 H   0  0  0  0  0  0  0  0  0  0  0  0
   -3.9612    1.9364   -0.4007 H   0  0  0  0  0  0  0  0  0  0  0  0
    2.0372   -0.5572    1.6348 N   0  0  0  0  0  0  0  0  0  0  0  0
    2.2248   -0.7466    3.0857 C   0  0  2  0  0  0  0  0  0  0  0  0
    0.9417   -1.1965    3.8348 C   0  0  0  0  0  0  0  0  0  0  0  0
   -0.1793   -1.0865    3.3420 O   0  0  0  0  0  0  0  0  0  0  0  0
    2.8384    0.4868    3.7634 C   0  0  0  0  0  0  0  0  0  0  0  0
    2.0254   -1.4294    1.1062 H   0  0  0  0  0  0  0  0  0  0  0  0
    2.9466   -1.5616    3.1927 H   0  0  0  0  0  0  0  0  0  0  0  0
    2.1035    1.2936    3.8454 H   0  0  0  0  0  0  0  0  0  0  0  0
    3.1826    0.2360    4.7709 H   0  0  0  0  0  0  0  0  0  0  0  0
    3.6932    0.8507    3.1849 H   0  0  0  0  0  0  0  0  0  0  0  0
    1.0548   -1.7857    5.0815 N   0  0  0  0  0  0  0  0  0  0  0  0
   -0.0717   -2.3979    5.7737 C   0  0  0  0  0  0  0  0  0  0  0  0
    1.9945   -2.0156    5.3890 H   0  0  0  0  0  0  0  0  0  0  0  0
   -0.8714   -1.6658    5.9281 H   0  0  0  0  0  0  0  0  0  0  0  0
   -0.4673   -3.2363    5.1910 H   0  0  0  0  0  0  0  0  0  0  0  0
    0.2442   -2.7728    6.7517 H   0  0  0  0  0  0  0  0  0  0  0  0
  1  2  2  0  0  0  0
  1  3  1  0  0  0  0
  1  7  1  0  0  0  0
  3  4  1  0  0  0  0
  3  5  1  0  0  0  0
  3  6  1  0  0  0  0
  7  8  1  0  0  0  0
  7 12  1  0  0  0  0
  8  9  1  0  0  0  0
  8 11  1  0  0  0  0
  8 13  1  0  0  0  0
  9 10  2  0  0  0  0
  9 17  1  0  0  0  0
 11 14  1  0  0  0  0
 11 15  1  0  0  0  0
 11 16  1  0  0  0  0
 17 18  1  0  0  0  0
 17 25  1  0  0  0  0
 18 19  1  0  0  0  0
 18 21  1  0  0  0  0
 18 26  1  0  0  0  0
 19 20  2  0  0  0  0
 19 36  1  0  0  0  0
 21 22  1  0  0  0  0
 21 23  1  0  0  0  0
 21 27  1  0  0  0  0
 22 24  1  0  0  0  0
 22 28  1  0  0  0  0
 22 29  1  0  0  0  0
 23 30  1  0  0  0  0
 23 31  1  0  0  0  0
 23 32  1  0  0  0  0
 24 33  1  0  0  0  0
 24 34  1  0  0  0  0
 24 35  1  0  0  0  0
 36 37  1  0  0  0  0
 36 41  1  0  0  0  0
 37 38  1  0  0  0  0
 37 40  1  0  0  0  0
 37 42  1  0  0  0  0
 38 39  2  0  0  0  0
 38 46  1  0  0  0  0
 40 43  1  0  0  0  0
 40 44  1  0  0  0  0
 40 45  1  0  0  0  0
 46 47  1  0  0  0  0
 46 48  1  0  0  0  0
 47 49  1  0  0  0  0
 47 50  1  0  0  0  0
 47 51  1  0  0  0  0
M  END
$$$$

  -OEChem-05262216503D

 51 50  0     1  0  0  0  0  0999 V2000
   -1.2023   -4.4578   -0.4688 C   0  0  0  0  0  0  0  0  0  0  0  0
   -1.8575   -3.4272   -0.5065 O   0  0  0  0  0  0  0  0  0  0  0  0
   -1.0439   -5.3153   -1.7096 C   0  0  0  0  0  0  0  0  0  0  0  0
   -1.5890   -4.8699   -2.5469 H   0  0  0  0  0  0  0  0  0  0  0  0
    0.0124   -5.3922   -1.9794 H   0  0  0  0  0  0  0  0  0  0  0  0
   -1.4398   -6.3172   -1.5259 H   0  0  0  0  0  0  0  0  0  0  0  0
   -0.5520   -4.7950    0.7004 N   0  0  0  0  0  0  0  0  0  0  0  0
   -0.6633   -4.0296    1.9523 C   0  0  2  0  0  0  0  0  0  0  0  0
    0.2129   -2.7513    1.9544 C   0  0  0  0  0  0  0  0  0  0  0  0
    1.1539   -2.6292    2.7315 O   0  0  0  0  0  0  0  0  0  0  0  0
   -0.3284   -4.9850    3.1046 C   0  0  0  0  0  0  0  0  0  0  0  0
    0.0319   -5.6272    0.6876 H   0  0  0  0  0  0  0  0  0  0  0  0
   -1.7013   -3.7041    2.0861 H   0  0  0  0  0  0  0  0  0  0  0  0
    0.7033   -5.3425    3.0239 H   0  0  0  0  0  0  0  0  0  0  0  0
   -0.4434   -4.4742    4.0660 H   0  0  0  0  0  0  0  0  0  0  0  0
   -1.0005   -5.8486    3.0925 H   0  0  0  0  0  0  0  0  0  0  0  0
    0.0079   -1.7963    0.9755 N   0  0  0  0  0  0  0  0  0  0  0  0
    0.3091   -0.3381    0.9452 C   0  0  2  0  0  0  0  0  0  0  0  0
    0.2746    0.4641    2.2988 C   0  0  0  0  0  0  0  0  0  0  0  0
    0.2450    1.6847    2.3084 O   0  0  0  0  0  0  0  0  0  0  0  0
   -0.6130    0.1881   -0.2215 C   0  0  2  0  0  0  0  0  0  0  0  0
   -0.1848   -0.4715   -1.5702 C   0  0  0  0  0  0  0  0  0  0  0  0
   -0.6013    1.7220   -0.4099 C   0  0  0  0  0  0  0  0  0  0  0  0
   -1.1706   -0.2453   -2.7232 C   0  0  0  0  0  0  0  0  0  0  0  0
   -0.7312   -2.0812    0.3244 H   0  0  0  0  0  0  0  0  0  0  0  0
    1.3466   -0.2296    0.6137 H   0  0  0  0  0  0  0  0  0  0  0  0
   -1.6450   -0.1057    0.0018 H   0  0  0  0  0  0  0  0  0  0  0  0
    0.7987   -0.0886   -1.8621 H   0  0  0  0  0  0  0  0  0  0  0  0
   -0.0846   -1.5534   -1.4587 H   0  0  0  0  0  0  0  0  0  0  0  0
    0.4259    2.0996   -0.4285 H   0  0  0  0  0  0  0  0  0  0  0  0
   -1.0947    2.0259   -1.3341 H   0  0  0  0  0  0  0  0  0  0  0  0
   -1.1501    2.2149    0.3969 H   0  0  0  0  0  0  0  0  0  0  0  0
   -2.1901   -0.4885   -2.4078 H   0  0  0  0  0  0  0  0  0  0  0  0
   -0.9066   -0.8932   -3.5644 H   0  0  0  0  0  0  0  0  0  0  0  0
   -1.1458    0.7871   -3.0808 H   0  0  0  0  0  0  0  0  0  0  0  0
    0.5741   -0.1153    3.5174 N   0  0  0  0  0  0  0  0  0  0  0  0
    1.1212    0.5733    4.6991 C   0  0  2  0  0  0  0  0  0  0  0  0
    2.5800    0.1557    4.9890 C   0  0  0  0  0  0  0  0  0  0  0  0
    3.2372    0.7645    5.8233 O   0  0  0  0  0  0  0  0  0  0  0  0
    0.2192    0.2347    5.8875 C   0  0  0  0  0  0  0  0  0  0  0  0
    0.7101   -1.1219    3.4814 H   0  0  0  0  0  0  0  0  0  0  0  0
    1.1207    1.6597    4.5614 H   0  0  0  0  0  0  0  0  0  0  0  0
    0.2189   -0.8431    6.0761 H   0  0  0  0  0  0  0  0  0  0  0  0
    0.5725    0.7458    6.7889 H   0  0  0  0  0  0  0  0  0  0  0  0
   -0.8071    0.5572    5.6877 H   0  0  0  0  0  0  0  0  0  0  0  0
    3.1390   -0.9569    4.3801 N   0  0  0  0  0  0  0  0  0  0  0  0
    4.4880   -1.4306    4.6561 C   0  0  0  0  0  0  0  0  0  0  0  0
    2.5580   -1.4832    3.7264 H   0  0  0  0  0  0  0  0  0  0  0  0
    5.2241   -0.6691    4.3783 H   0  0  0  0  0  0  0  0  0  0  0  0
    4.6032   -1.6627    5.7200 H   0  0  0  0  0  0  0  0  0  0  0  0
    4.6933   -2.3381    4.0804 H   0  0  0  0  0  0  0  0  0  0  0  0
  1  2  2  0  0  0  0
  1  3  1  0  0  0  0
  1  7  1  0  0  0  0
  3  4  1  0  0  0  0
  3  5  1  0  0  0  0
  3  6  1  0  0  0  0
  7  8  1  0  0  0  0
  7 12  1  0  0  0  0
  8  9  1  0  0  0  0
  8 11  1  0  0  0  0
  8 13  1  0  0  0  0
  9 10  2  0  0  0  0
  9 17  1  0  0  0  0
 11 14  1  0  0  0  0
 11 15  1  0  0  0  0
 11 16  1  0  0  0  0
 17 18  1  0  0  0  0
 17 25  1  0  0  0  0
 18 19  1  0  0  0  0
 18 21  1  0  0  0  0
 18 26  1  0  0  0  0
 19 20  2  0  0  0  0
 19 36  1  0  0  0  0
 21 22  1  0  0  0  0
 21 23  1  0  0  0  0
 21 27  1  0  0  0  0
 22 24  1  0  0  0  0
 22 28  1  0  0  0  0
 22 29  1  0  0  0  0
 23 30  1  0  0  0  0
 23 31  1  0  0  0  0
 23 32  1  0  0  0  0
 24 33  1  0  0  0  0
 24 34  1  0  0  0  0
 24 35  1  0  0  0  0
 36 37  1  0  0  0  0
 36 41  1  0  0  0  0
 37 38  1  0  0  0  0
 37 40  1  0  0  0  0
 37 42  1  0  0  0  0
 38 39  2  0  0  0  0
 38 46  1  0  0  0  0
 40 43  1  0  0  0  0
 40 44  1  0  0  0  0
 40 45  1  0  0  0  0
 46 47  1  0  0  0  0
 46 48  1  0  0  0  0
 47 49  1  0  0  0  0
 47 50  1  0  0  0  0
 47 51  1  0  0  0  0
M  END
$$$$

  -OEChem-05262216503D

 51 50  0     1  0  0  0  0  0999 V2000
    0.3814   -3.7475   -0.0185 C   0  0  0  0  0  0  0  0  0  0  0  0
   -0.4640   -3.4300   -0.8438 O   0  0  0  0  0  0  0  0  0  0  0  0
    1.8488   -3.7820   -0.3997 C   0  0  0  0  0  0  0  0  0  0  0  0
    2.2973   -4.7221   -0.0694 H   0  0  0  0  0  0  0  0  0  0  0  0
    1.9599   -3.7004   -1.4843 H   0  0  0  0  0  0  0  0  0  0  0  0
    2.3770   -2.9512    0.0748 H   0  0  0  0  0  0  0  0  0  0  0  0
    0.0029   -3.9514    1.2909 N   0  0  0  0  0  0  0  0  0  0  0  0
   -1.3696   -3.7363    1.7764 C   0  0  2  0  0  0  0  0  0  0  0  0
   -1.6234   -2.2357    2.0474 C   0  0  0  0  0  0  0  0  0  0  0  0
   -1.8776   -1.8300    3.1723 O   0  0  0  0  0  0  0  0  0  0  0  0
   -1.5570   -4.6162    3.0181 C   0  0  0  0  0  0  0  0  0  0  0  0
    0.7642   -3.8924    1.9756 H   0  0  0  0  0  0  0  0  0  0  0  0
   -2.0937   -4.0641    1.0227 H   0  0  0  0  0  0  0  0  0  0  0  0
   -0.8497   -4.3304    3.8035 H   0  0  0  0  0  0  0  0  0  0  0  0
   -2.5735   -4.5092    3.4101 H   0  0  0  0  0  0  0  0  0  0  0  0
   -1.3933   -5.6684    2.7665 H   0  0  0  0  0  0  0  0  0  0  0  0
   -1.4186   -1.3330    1.0208 N   0  0  0  0  0  0  0  0  0  0  0  0
   -0.3450   -0.3031    0.9491 C   0  0  2  0  0  0  0  0  0  0  0  0
    0.2057    0.3131    2.2861 C   0  0  0  0  0  0  0  0  0  0  0  0
    0.8851    1.3309    2.2762 O   0  0  0  0  0  0  0  0  0  0  0  0
   -0.9033    0.7130   -0.1219 C   0  0  2  0  0  0  0  0  0  0  0  0
   -1.0521    0.0047   -1.5053 C   0  0  0  0  0  0  0  0  0  0  0  0
   -0.0423    1.9800   -0.3249 C   0  0  0  0  0  0  0  0  0  0  0  0
   -1.8311    0.8158   -2.5488 C   0  0  0  0  0  0  0  0  0  0  0  0
   -1.4791   -1.8359    0.1325 H   0  0  0  0  0  0  0  0  0  0  0  0
    0.5382   -0.7814    0.5153 H   0  0  0  0  0  0  0  0  0  0  0  0
   -1.8942    1.0406    0.2125 H   0  0  0  0  0  0  0  0  0  0  0  0
   -0.0603   -0.2368   -1.9018 H   0  0  0  0  0  0  0  0  0  0  0  0
   -1.5930   -0.9380   -1.3968 H   0  0  0  0  0  0  0  0  0  0  0  0
    1.0118    1.7127   -0.4488 H   0  0  0  0  0  0  0  0  0  0  0  0
   -0.3547    2.5541   -1.1980 H   0  0  0  0  0  0  0  0  0  0  0  0
   -0.1443    2.6559    0.5281 H   0  0  0  0  0  0  0  0  0  0  0  0
   -2.7608    1.2013   -2.1194 H   0  0  0  0  0  0  0  0  0  0  0  0
   -2.0837    0.1751   -3.3990 H   0  0  0  0  0  0  0  0  0  0  0  0
   -1.2417    1.6532   -2.9302 H   0  0  0  0  0  0  0  0  0  0  0  0
    0.4940   -0.5195    3.3512 N   0  0  0  0  0  0  0  0  0  0  0  0
    1.7918   -0.6205    4.0289 C   0  0  2  0  0  0  0  0  0  0  0  0
    2.6329   -1.7935    3.4763 C   0  0  0  0  0  0  0  0  0  0  0  0
    2.1038   -2.7342    2.8842 O   0  0  0  0  0  0  0  0  0  0  0  0
    1.5133   -0.8153    5.5201 C   0  0  0  0  0  0  0  0  0  0  0  0
   -0.1232   -1.3287    3.4244 H   0  0  0  0  0  0  0  0  0  0  0  0
    2.3683    0.3016    3.9023 H   0  0  0  0  0  0  0  0  0  0  0  0
    0.9483   -1.7381    5.6879 H   0  0  0  0  0  0  0  0  0  0  0  0
    2.4506   -0.8724    6.0816 H   0  0  0  0  0  0  0  0  0  0  0  0
    0.9286    0.0252    5.9071 H   0  0  0  0  0  0  0  0  0  0  0  0
    4.0035   -1.8039    3.6543 N   0  0  0  0  0  0  0  0  0  0  0  0
    4.8739   -2.8669    3.1670 C   0  0  0  0  0  0  0  0  0  0  0  0
    4.4200   -1.0028    4.1211 H   0  0  0  0  0  0  0  0  0  0  0  0
    4.5920   -3.8278    3.6103 H   0  0  0  0  0  0  0  0  0  0  0  0
    4.8079   -2.9473    2.0770 H   0  0  0  0  0  0  0  0  0  0  0  0
    5.9137   -2.6558    3.4349 H   0  0  0  0  0  0  0  0  0  0  0  0
  1  2  2  0  0  0  0
  1  3  1  0  0  0  0
  1  7  1  0  0  0  0
  3  4  1  0  0  0  0
  3  5  1  0  0  0  0
  3  6  1  0  0  0  0
  7  8  1  0  0  0  0
  7 12  1  0  0  0  0
  8  9  1  0  0  0  0
  8 11  1  0  0  0  0
  8 13  1  0  0  0  0
  9 10  2  0  0  0  0
  9 17  1  0  0  0  0
 11 14  1  0  0  0  0
 11 15  1  0  0  0  0
 11 16  1  0  0  0  0
 17 18  1  0  0  0  0
 17 25  1  0  0  0  0
 18 19  1  0  0  0  0
 18 21  1  0  0  0  0
 18 26  1  0  0  0  0
 19 20  2  0  0  0  0
 19 36  1  0  0  0  0
 21 22  1  0  0  0  0
 21 23  1  0  0  0  0
 21 27  1  0  0  0  0
 22 24  1  0  0  0  0
 22 28  1  0  0  0  0
 22 29  1  0  0  0  0
 23 30  1  0  0  0  0
 23 31  1  0  0  0  0
 23 32  1  0  0  0  0
 24 33  1  0  0  0  0
 24 34  1  0  0  0  0
 24 35  1  0  0  0  0
 36 37  1  0  0  0  0
 36 41  1  0  0  0  0
 37 38  1  0  0  0  0
 37 40  1  0  0  0  0
 37 42  1  0  0  0  0
 38 39  2  0  0  0  0
 38 46  1  0  0  0  0
 40 43  1  0  0  0  0
 40 44  1  0  0  0  0
 40 45  1  0  0  0  0
 46 47  1  0  0  0  0
 46 48  1  0  0  0  0
 47 49  1  0  0  0  0
 47 50  1  0  0  0  0
 47 51  1  0  0  0  0
M  END
$$$$

  -OEChem-05262216503D

 51 50  0     1  0  0  0  0  0999 V2000
   -2.0986   -4.2008   -0.4463 C   0  0  0  0  0  0  0  0  0  0  0  0
   -2.5357   -3.0652   -0.3315 O   0  0  0  0  0  0  0  0  0  0  0  0
   -2.4303   -5.0298   -1.6723 C   0  0  0  0  0  0  0  0  0  0  0  0
   -3.1433   -4.4949   -2.3064 H   0  0  0  0  0  0  0  0  0  0  0  0
   -1.5223   -5.2240   -2.2488 H   0  0  0  0  0  0  0  0  0  0  0  0
   -2.8738   -5.9822   -1.3714 H   0  0  0  0  0  0  0  0  0  0  0  0
   -1.2504   -4.6989    0.5213 N   0  0  0  0  0  0  0  0  0  0  0  0
   -0.8424   -3.9480    1.7190 C   0  0  2  0  0  0  0  0  0  0  0  0
    0.2519   -2.8969    1.4117 C   0  0  0  0  0  0  0  0  0  0  0  0
    1.4009   -3.0511    1.8007 O   0  0  0  0  0  0  0  0  0  0  0  0
   -0.4119   -4.9673    2.7810 C   0  0  0  0  0  0  0  0  0  0  0  0
   -0.8169   -5.6009    0.3436 H   0  0  0  0  0  0  0  0  0  0  0  0
   -1.7050   -3.4033    2.1181 H   0  0  0  0  0  0  0  0  0  0  0  0
    0.4586   -5.5373    2.4405 H   0  0  0  0  0  0  0  0  0  0  0  0
   -0.1469   -4.4542    3.7110 H   0  0  0  0  0  0  0  0  0  0  0  0
   -1.2274   -5.6654    2.9929 H   0  0  0  0  0  0  0  0  0  0  0  0
   -0.0494   -1.8612    0.5472 N   0  0  0  0  0  0  0  0  0  0  0  0
    0.5588   -0.5125    0.4380 C   0  0  2  0  0  0  0  0  0  0  0  0
    1.1178    0.0821    1.7738 C   0  0  0  0  0  0  0  0  0  0  0  0
    0.5564    1.0124    2.3402 O   0  0  0  0  0  0  0  0  0  0  0  0
   -0.4593    0.3857   -0.3424 C   0  0  2  0  0  0  0  0  0  0  0  0
   -0.6556   -0.1839   -1.7778 C   0  0  0  0  0  0  0  0  0  0  0  0
    0.0444    1.8433   -0.4995 C   0  0  0  0  0  0  0  0  0  0  0  0
   -1.8244    0.4526   -2.5397 C   0  0  0  0  0  0  0  0  0  0  0  0
   -1.0103   -1.9242    0.1978 H   0  0  0  0  0  0  0  0  0  0  0  0
    1.4442   -0.6131   -0.1970 H   0  0  0  0  0  0  0  0  0  0  0  0
   -1.4152    0.3919    0.1930 H   0  0  0  0  0  0  0  0  0  0  0  0
    0.2657   -0.0592   -2.3563 H   0  0  0  0  0  0  0  0  0  0  0  0
   -0.8631   -1.2562   -1.7308 H   0  0  0  0  0  0  0  0  0  0  0  0
    1.0630    1.8547   -0.8995 H   0  0  0  0  0  0  0  0  0  0  0  0
   -0.5951    2.4178   -1.1719 H   0  0  0  0  0  0  0  0  0  0  0  0
    0.0381    2.3827    0.4486 H   0  0  0  0  0  0  0  0  0  0  0  0
   -2.7279    0.4527   -1.9221 H   0  0  0  0  0  0  0  0  0  0  0  0
   -2.0285   -0.1214   -3.4485 H   0  0  0  0  0  0  0  0  0  0  0  0
   -1.5991    1.4794   -2.8381 H   0  0  0  0  0  0  0  0  0  0  0  0
    2.1192   -0.5404    2.4923 N   0  0  0  0  0  0  0  0  0  0  0  0
    2.5834   -0.1499    3.8303 C   0  0  2  0  0  0  0  0  0  0  0  0
    4.0928   -0.3971    4.0383 C   0  0  0  0  0  0  0  0  0  0  0  0
    4.7157   -1.1752    3.3257 O   0  0  0  0  0  0  0  0  0  0  0  0
    1.7642   -0.9372    4.8568 C   0  0  0  0  0  0  0  0  0  0  0  0
    2.4094   -1.4611    2.1469 H   0  0  0  0  0  0  0  0  0  0  0  0
    2.4141    0.9210    3.9816 H   0  0  0  0  0  0  0  0  0  0  0  0
    1.9183   -2.0130    4.7229 H   0  0  0  0  0  0  0  0  0  0  0  0
    2.0587   -0.6653    5.8745 H   0  0  0  0  0  0  0  0  0  0  0  0
    0.6982   -0.7201    4.7361 H   0  0  0  0  0  0  0  0  0  0  0  0
    4.7648    0.2638    5.0511 N   0  0  0  0  0  0  0  0  0  0  0  0
    6.1897    0.0953    5.3083 C   0  0  0  0  0  0  0  0  0  0  0  0
    4.2362    0.9250    5.6120 H   0  0  0  0  0  0  0  0  0  0  0  0
    6.4148   -0.9502    5.5440 H   0  0  0  0  0  0  0  0  0  0  0  0
    6.7754    0.3929    4.4319 H   0  0  0  0  0  0  0  0  0  0  0  0
    6.4974    0.7144    6.1565 H   0  0  0  0  0  0  0  0  0  0  0  0
  1  2  2  0  0  0  0
  1  3  1  0  0  0  0
  1  7  1  0  0  0  0
  3  4  1  0  0  0  0
  3  5  1  0  0  0  0
  3  6  1  0  0  0  0
  7  8  1  0  0  0  0
  7 12  1  0  0  0  0
  8  9  1  0  0  0  0
  8 11  1  0  0  0  0
  8 13  1  0  0  0  0
  9 10  2  0  0  0  0
  9 17  1  0  0  0  0
 11 14  1  0  0  0  0
 11 15  1  0  0  0  0
 11 16  1  0  0  0  0
 17 18  1  0  0  0  0
 17 25  1  0  0  0  0
 18 19  1  0  0  0  0
 18 21  1  0  0  0  0
 18 26  1  0  0  0  0
 19 20  2  0  0  0  0
 19 36  1  0  0  0  0
 21 22  1  0  0  0  0
 21 23  1  0  0  0  0
 21 27  1  0  0  0  0
 22 24  1  0  0  0  0
 22 28  1  0  0  0  0
 22 29  1  0  0  0  0
 23 30  1  0  0  0  0
 23 31  1  0  0  0  0
 23 32  1  0  0  0  0
 24 33  1  0  0  0  0
 24 34  1  0  0  0  0
 24 35  1  0  0  0  0
 36 37  1  0  0  0  0
 36 41  1  0  0  0  0
 37 38  1  0  0  0  0
 37 40  1  0  0  0  0
 37 42  1  0  0  0  0
 38 39  2  0  0  0  0
 38 46  1  0  0  0  0
 40 43  1  0  0  0  0
 40 44  1  0  0  0  0
 40 45  1  0  0  0  0
 46 47  1  0  0  0  0
 46 48  1  0  0  0  0
 47 49  1  0  0  0  0
 47 50  1  0  0  0  0
 47 51  1  0  0  0  0
M  END
$$$$

  -OEChem-05262216503D

 51 50  0     1  0  0  0  0  0999 V2000
   -1.9098   -4.4429   -0.0920 C   0  0  0  0  0  0  0  0  0  0  0  0
   -2.4287   -3.3479    0.0652 O   0  0  0  0  0  0  0  0  0  0  0  0
   -2.3545   -5.3438   -1.2280 C   0  0  0  0  0  0  0  0  0  0  0  0
   -3.1904   -4.8869   -1.7655 H   0  0  0  0  0  0  0  0  0  0  0  0
   -1.5292   -5.4990   -1.9271 H   0  0  0  0  0  0  0  0  0  0  0  0
   -2.6772   -6.3110   -0.8347 H   0  0  0  0  0  0  0  0  0  0  0  0
   -0.8744   -4.8265    0.7358 N   0  0  0  0  0  0  0  0  0  0  0  0
   -0.3681   -4.0121    1.8527 C   0  0  2  0  0  0  0  0  0  0  0  0
    0.5472   -2.8549    1.3827 C   0  0  0  0  0  0  0  0  0  0  0  0
    1.7345   -2.8228    1.6768 O   0  0  0  0  0  0  0  0  0  0  0  0
    0.3297   -4.9610    2.8353 C   0  0  0  0  0  0  0  0  0  0  0  0
   -0.4044   -5.7018    0.5219 H   0  0  0  0  0  0  0  0  0  0  0  0
   -1.2128   -3.5546    2.3799 H   0  0  0  0  0  0  0  0  0  0  0  0
    1.1861   -5.4490    2.3587 H   0  0  0  0  0  0  0  0  0  0  0  0
    0.6899   -4.4048    3.7068 H   0  0  0  0  0  0  0  0  0  0  0  0
   -0.3658   -5.7312    3.1822 H   0  0  0  0  0  0  0  0  0  0  0  0
    0.0367   -1.9150    0.5078 N   0  0  0  0  0  0  0  0  0  0  0  0
    0.4682   -0.5105    0.3333 C   0  0  2  0  0  0  0  0  0  0  0  0
    1.0330    0.1490    1.6291 C   0  0  0  0  0  0  0  0  0  0  0  0
    0.3228    0.8467    2.3456 O   0  0  0  0  0  0  0  0  0  0  0  0
   -0.7096    0.2636   -0.3387 C   0  0  2  0  0  0  0  0  0  0  0  0
   -0.9916   -0.3303   -1.7477 C   0  0  0  0  0  0  0  0  0  0  0  0
   -0.3792    1.7650   -0.5212 C   0  0  0  0  0  0  0  0  0  0  0  0
   -2.2935    0.1796   -2.3755 C   0  0  0  0  0  0  0  0  0  0  0  0
   -0.9469   -2.0924    0.2841 H   0  0  0  0  0  0  0  0  0  0  0  0
    1.3037   -0.5076   -0.3736 H   0  0  0  0  0  0  0  0  0  0  0  0
   -1.6009    0.1682    0.2920 H   0  0  0  0  0  0  0  0  0  0  0  0
   -0.1544   -0.1092   -2.4180 H   0  0  0  0  0  0  0  0  0  0  0  0
   -1.0769   -1.4187   -1.6860 H   0  0  0  0  0  0  0  0  0  0  0  0
    0.5278    1.8873   -1.1214 H   0  0  0  0  0  0  0  0  0  0  0  0
   -1.1979    2.2899   -1.0186 H   0  0  0  0  0  0  0  0  0  0  0  0
   -0.2283    2.2701    0.4346 H   0  0  0  0  0  0  0  0  0  0  0  0
   -3.1302    0.0457   -1.6826 H   0  0  0  0  0  0  0  0  0  0  0  0
   -2.5085   -0.3839   -3.2884 H   0  0  0  0  0  0  0  0  0  0  0  0
   -2.2219    1.2369   -2.6437 H   0  0  0  0  0  0  0  0  0  0  0  0
    2.2941   -0.1621    2.0981 N   0  0  0  0  0  0  0  0  0  0  0  0
    2.8384    0.2701    3.3918 C   0  0  2  0  0  0  0  0  0  0  0  0
    4.3769    0.3925    3.3824 C   0  0  0  0  0  0  0  0  0  0  0  0
    5.0541   -0.1568    2.5212 O   0  0  0  0  0  0  0  0  0  0  0  0
    2.3924   -0.7381    4.4558 C   0  0  0  0  0  0  0  0  0  0  0  0
    2.7295   -0.9815    1.6663 H   0  0  0  0  0  0  0  0  0  0  0  0
    2.4407    1.2586    3.6423 H   0  0  0  0  0  0  0  0  0  0  0  0
    2.7913   -1.7323    4.2291 H   0  0  0  0  0  0  0  0  0  0  0  0
    2.7477   -0.4359    5.4450 H   0  0  0  0  0  0  0  0  0  0  0  0
    1.3002   -0.8007    4.4859 H   0  0  0  0  0  0  0  0  0  0  0  0
    5.0141    1.1285    4.3652 N   0  0  0  0  0  0  0  0  0  0  0  0
    6.4612    1.2865    4.4346 C   0  0  0  0  0  0  0  0  0  0  0  0
    4.4330    1.5819    5.0638 H   0  0  0  0  0  0  0  0  0  0  0  0
    6.9454    0.3142    4.5734 H   0  0  0  0  0  0  0  0  0  0  0  0
    6.8419    1.7423    3.5144 H   0  0  0  0  0  0  0  0  0  0  0  0
    6.7312    1.9311    5.2762 H   0  0  0  0  0  0  0  0  0  0  0  0
  1  2  2  0  0  0  0
  1  3  1  0  0  0  0
  1  7  1  0  0  0  0
  3  4  1  0  0  0  0
  3  5  1  0  0  0  0
  3  6  1  0  0  0  0
  7  8  1  0  0  0  0
  7 12  1  0  0  0  0
  8  9  1  0  0  0  0
  8 11  1  0  0  0  0
  8 13  1  0  0  0  0
  9 10  2  0  0  0  0
  9 17  1  0  0  0  0
 11 14  1  0  0  0  0
 11 15  1  0  0  0  0
 11 16  1  0  0  0  0
 17 18  1  0  0  0  0
 17 25  1  0  0  0  0
 18 19  1  0  0  0  0
 18 21  1  0  0  0  0
 18 26  1  0  0  0  0
 19 20  2  0  0  0  0
 19 36  1  0  0  0  0
 21 22  1  0  0  0  0
 21 23  1  0  0  0  0
 21 27  1  0  0  0  0
 22 24  1  0  0  0  0
 22 28  1  0  0  0  0
 22 29  1  0  0  0  0
 23 30  1  0  0  0  0
 23 31  1  0  0  0  0
 23 32  1  0  0  0  0
 24 33  1  0  0  0  0
 24 34  1  0  0  0  0
 24 35  1  0  0  0  0
 36 37  1  0  0  0  0
 36 41  1  0  0  0  0
 37 38  1  0  0  0  0
 37 40  1  0  0  0  0
 37 42  1  0  0  0  0
 38 39  2  0  0  0  0
 38 46  1  0  0  0  0
 40 43  1  0  0  0  0
 40 44  1  0  0  0  0
 40 45  1  0  0  0  0
 46 47  1  0  0  0  0
 46 48  1  0  0  0  0
 47 49  1  0  0  0  0
 47 50  1  0  0  0  0
 47 51  1  0  0  0  0
M  END
$$$$

  -OEChem-05262216503D

 51 50  0     1  0  0  0  0  0999 V2000
   -0.4242   -5.9391    0.3276 C   0  0  0  0  0  0  0  0  0  0  0  0
   -1.3895   -5.7593   -0.3986 O   0  0  0  0  0  0  0  0  0  0  0  0
    0.4747   -7.1424    0.1116 C   0  0  0  0  0  0  0  0  0  0  0  0
    0.1152   -7.7353   -0.7342 H   0  0  0  0  0  0  0  0  0  0  0  0
    1.4953   -6.8131   -0.0989 H   0  0  0  0  0  0  0  0  0  0  0  0
    0.4791   -7.7707    1.0057 H   0  0  0  0  0  0  0  0  0  0  0  0
   -0.1322   -5.0410    1.3335 N   0  0  0  0  0  0  0  0  0  0  0  0
   -0.7735   -3.7232    1.4426 C   0  0  2  0  0  0  0  0  0  0  0  0
    0.1108   -2.6043    0.8581 C   0  0  0  0  0  0  0  0  0  0  0  0
    1.3299   -2.6714    0.9627 O   0  0  0  0  0  0  0  0  0  0  0  0
   -1.0449   -3.4507    2.9236 C   0  0  0  0  0  0  0  0  0  0  0  0
    0.7943   -5.1295    1.7442 H   0  0  0  0  0  0  0  0  0  0  0  0
   -1.7311   -3.7159    0.9115 H   0  0  0  0  0  0  0  0  0  0  0  0
   -0.1082   -3.4404    3.4904 H   0  0  0  0  0  0  0  0  0  0  0  0
   -1.5350   -2.4799    3.0492 H   0  0  0  0  0  0  0  0  0  0  0  0
   -1.6969   -4.2250    3.3394 H   0  0  0  0  0  0  0  0  0  0  0  0
   -0.4635   -1.5343    0.1951 N   0  0  0  0  0  0  0  0  0  0  0  0
    0.0768   -0.1576    0.1739 C   0  0  2  0  0  0  0  0  0  0  0  0
    0.8605    0.2135    1.4655 C   0  0  0  0  0  0  0  0  0  0  0  0
    0.2614    0.6218    2.4557 O   0  0  0  0  0  0  0  0  0  0  0  0
   -1.0852    0.8287   -0.1478 C   0  0  2  0  0  0  0  0  0  0  0  0
   -1.6534    0.5346   -1.5615 C   0  0  0  0  0  0  0  0  0  0  0  0
   -0.5990    2.2962   -0.1107 C   0  0  0  0  0  0  0  0  0  0  0  0
   -2.9640    1.2742   -1.8513 C   0  0  0  0  0  0  0  0  0  0  0  0
   -1.4744   -1.5984    0.1180 H   0  0  0  0  0  0  0  0  0  0  0  0
    0.8011   -0.0938   -0.6445 H   0  0  0  0  0  0  0  0  0  0  0  0
   -1.8741    0.6998    0.6018 H   0  0  0  0  0  0  0  0  0  0  0  0
   -0.9107    0.7973   -2.3222 H   0  0  0  0  0  0  0  0  0  0  0  0
   -1.8591   -0.5343   -1.6666 H   0  0  0  0  0  0  0  0  0  0  0  0
    0.2095    2.4507   -0.8321 H   0  0  0  0  0  0  0  0  0  0  0  0
   -1.4122    2.9860   -0.3484 H   0  0  0  0  0  0  0  0  0  0  0  0
   -0.2335    2.5747    0.8809 H   0  0  0  0  0  0  0  0  0  0  0  0
   -3.6921    1.0917   -1.0547 H   0  0  0  0  0  0  0  0  0  0  0  0
   -3.3890    0.9190   -2.7951 H   0  0  0  0  0  0  0  0  0  0  0  0
   -2.8017    2.3517   -1.9408 H   0  0  0  0  0  0  0  0  0  0  0  0
    2.2190   -0.0131    1.5647 N   0  0  0  0  0  0  0  0  0  0  0  0
    3.0111    0.1782    2.7856 C   0  0  2  0  0  0  0  0  0  0  0  0
    4.4864    0.5139    2.4827 C   0  0  0  0  0  0  0  0  0  0  0  0
    4.9846    0.2376    1.3974 O   0  0  0  0  0  0  0  0  0  0  0  0
    2.9179   -1.1023    3.6215 C   0  0  0  0  0  0  0  0  0  0  0  0
    2.6345   -0.5855    0.8294 H   0  0  0  0  0  0  0  0  0  0  0  0
    2.5995    1.0144    3.3599 H   0  0  0  0  0  0  0  0  0  0  0  0
    3.3264   -1.9517    3.0641 H   0  0  0  0  0  0  0  0  0  0  0  0
    3.4787   -0.9941    4.5544 H   0  0  0  0  0  0  0  0  0  0  0  0
    1.8743   -1.3204    3.8689 H   0  0  0  0  0  0  0  0  0  0  0  0
    5.2684    1.1283    3.4442 N   0  0  0  0  0  0  0  0  0  0  0  0
    6.6668    1.4816    3.2316 C   0  0  0  0  0  0  0  0  0  0  0  0
    4.8279    1.3650    4.3283 H   0  0  0  0  0  0  0  0  0  0  0  0
    7.2590    0.5863    3.0139 H   0  0  0  0  0  0  0  0  0  0  0  0
    6.7622    2.1797    2.3932 H   0  0  0  0  0  0  0  0  0  0  0  0
    7.0773    1.9581    4.1271 H   0  0  0  0  0  0  0  0  0  0  0  0
  1  2  2  0  0  0  0
  1  3  1  0  0  0  0
  1  7  1  0  0  0  0
  3  4  1  0  0  0  0
  3  5  1  0  0  0  0
  3  6  1  0  0  0  0
  7  8  1  0  0  0  0
  7 12  1  0  0  0  0
  8  9  1  0  0  0  0
  8 11  1  0  0  0  0
  8 13  1  0  0  0  0
  9 10  2  0  0  0  0
  9 17  1  0  0  0  0
 11 14  1  0  0  0  0
 11 15  1  0  0  0  0
 11 16  1  0  0  0  0
 17 18  1  0  0  0  0
 17 25  1  0  0  0  0
 18 19  1  0  0  0  0
 18 21  1  0  0  0  0
 18 26  1  0  0  0  0
 19 20  2  0  0  0  0
 19 36  1  0  0  0  0
 21 22  1  0  0  0  0
 21 23  1  0  0  0  0
 21 27  1  0  0  0  0
 22 24  1  0  0  0  0
 22 28  1  0  0  0  0
 22 29  1  0  0  0  0
 23 30  1  0  0  0  0
 23 31  1  0  0  0  0
 23 32  1  0  0  0  0
 24 33  1  0  0  0  0
 24 34  1  0  0  0  0
 24 35  1  0  0  0  0
 36 37  1  0  0  0  0
 36 41  1  0  0  0  0
 37 38  1  0  0  0  0
 37 40  1  0  0  0  0
 37 42  1  0  0  0  0
 38 39  2  0  0  0  0
 38 46  1  0  0  0  0
 40 43  1  0  0  0  0
 40 44  1  0  0  0  0
 40 45  1  0  0  0  0
 46 47  1  0  0  0  0
 46 48  1  0  0  0  0
 47 49  1  0  0  0  0
 47 50  1  0  0  0  0
 47 51  1  0  0  0  0
M  END
$$$$

  -OEChem-05262216503D

 51 50  0     1  0  0  0  0  0999 V2000
   -0.0626   -6.0206    0.6127 C   0  0  0  0  0  0  0  0  0  0  0  0
   -1.0516   -6.0993   -0.0990 O   0  0  0  0  0  0  0  0  0  0  0  0
    0.9962   -7.1060    0.5616 C   0  0  0  0  0  0  0  0  0  0  0  0
    0.7200   -7.8681   -0.1725 H   0  0  0  0  0  0  0  0  0  0  0  0
    1.9587   -6.6749    0.2754 H   0  0  0  0  0  0  0  0  0  0  0  0
    1.0931   -7.5789    1.5419 H   0  0  0  0  0  0  0  0  0  0  0  0
    0.1121   -4.9394    1.4515 N   0  0  0  0  0  0  0  0  0  0  0  0
   -0.6834   -3.7064    1.3594 C   0  0  2  0  0  0  0  0  0  0  0  0
    0.1400   -2.5404    0.7774 C   0  0  0  0  0  0  0  0  0  0  0  0
    1.3627   -2.5474    0.8734 O   0  0  0  0  0  0  0  0  0  0  0  0
   -1.1671   -3.3536    2.7677 C   0  0  0  0  0  0  0  0  0  0  0  0
    1.0462   -4.8387    1.8435 H   0  0  0  0  0  0  0  0  0  0  0  0
   -1.5584   -3.8542    0.7180 H   0  0  0  0  0  0  0  0  0  0  0  0
   -0.3159   -3.1811    3.4345 H   0  0  0  0  0  0  0  0  0  0  0  0
   -1.7786   -2.4460    2.7472 H   0  0  0  0  0  0  0  0  0  0  0  0
   -1.7719   -4.1693    3.1760 H   0  0  0  0  0  0  0  0  0  0  0  0
   -0.4917   -1.4916    0.1306 N   0  0  0  0  0  0  0  0  0  0  0  0
    0.0246   -0.1068    0.1003 C   0  0  2  0  0  0  0  0  0  0  0  0
    0.8390    0.2575    1.3713 C   0  0  0  0  0  0  0  0  0  0  0  0
    0.2599    0.4518    2.4360 O   0  0  0  0  0  0  0  0  0  0  0  0
   -1.1650    0.8665   -0.1434 C   0  0  2  0  0  0  0  0  0  0  0  0
   -1.8088    0.5916   -1.5274 C   0  0  0  0  0  0  0  0  0  0  0  0
   -0.7001    2.3385   -0.0841 C   0  0  0  0  0  0  0  0  0  0  0  0
   -3.1418    1.3204   -1.7277 C   0  0  0  0  0  0  0  0  0  0  0  0
   -1.5032   -1.5767    0.0993 H   0  0  0  0  0  0  0  0  0  0  0  0
    0.7123   -0.0199   -0.7470 H   0  0  0  0  0  0  0  0  0  0  0  0
   -1.9115    0.7064    0.6427 H   0  0  0  0  0  0  0  0  0  0  0  0
   -1.1142    0.8811   -2.3231 H   0  0  0  0  0  0  0  0  0  0  0  0
   -2.0054   -0.4780   -1.6426 H   0  0  0  0  0  0  0  0  0  0  0  0
    0.0674    2.5304   -0.8406 H   0  0  0  0  0  0  0  0  0  0  0  0
   -1.5356    3.0212   -0.2567 H   0  0  0  0  0  0  0  0  0  0  0  0
   -0.2884    2.5873    0.8979 H   0  0  0  0  0  0  0  0  0  0  0  0
   -3.8232    1.1090   -0.8979 H   0  0  0  0  0  0  0  0  0  0  0  0
   -3.6127    0.9826   -2.6558 H   0  0  0  0  0  0  0  0  0  0  0  0
   -2.9975    2.4017   -1.7990 H   0  0  0  0  0  0  0  0  0  0  0  0
    2.2172    0.3383    1.3304 N   0  0  0  0  0  0  0  0  0  0  0  0
    3.0752    0.5418    2.5030 C   0  0  2  0  0  0  0  0  0  0  0  0
    4.4629    1.0938    2.1153 C   0  0  0  0  0  0  0  0  0  0  0  0
    4.8697    1.0100    0.9617 O   0  0  0  0  0  0  0  0  0  0  0  0
    3.2259   -0.7973    3.2342 C   0  0  0  0  0  0  0  0  0  0  0  0
    2.6739    0.0206    0.4767 H   0  0  0  0  0  0  0  0  0  0  0  0
    2.6066    1.2701    3.1728 H   0  0  0  0  0  0  0  0  0  0  0  0
    3.6835   -1.5421    2.5748 H   0  0  0  0  0  0  0  0  0  0  0  0
    3.8543   -0.6833    4.1222 H   0  0  0  0  0  0  0  0  0  0  0  0
    2.2475   -1.1716    3.5509 H   0  0  0  0  0  0  0  0  0  0  0  0
    5.2653    1.6890    3.0718 N   0  0  0  0  0  0  0  0  0  0  0  0
    6.5916    2.2219    2.7859 C   0  0  0  0  0  0  0  0  0  0  0  0
    4.9050    1.7442    4.0198 H   0  0  0  0  0  0  0  0  0  0  0  0
    7.2636    1.4204    2.4619 H   0  0  0  0  0  0  0  0  0  0  0  0
    6.5395    2.9793    1.9966 H   0  0  0  0  0  0  0  0  0  0  0  0
    7.0138    2.6870    3.6818 H   0  0  0  0  0  0  0  0  0  0  0  0
  1  2  2  0  0  0  0
  1  3  1  0  0  0  0
  1  7  1  0  0  0  0
  3  4  1  0  0  0  0
  3  5  1  0  0  0  0
  3  6  1  0  0  0  0
  7  8  1  0  0  0  0
  7 12  1  0  0  0  0
  8  9  1  0  0  0  0
  8 11  1  0  0  0  0
  8 13  1  0  0  0  0
  9 10  2  0  0  0  0
  9 17  1  0  0  0  0
 11 14  1  0  0  0  0
 11 15  1  0  0  0  0
 11 16  1  0  0  0  0
 17 18  1  0  0  0  0
 17 25  1  0  0  0  0
 18 19  1  0  0  0  0
 18 21  1  0  0  0  0
 18 26  1  0  0  0  0
 19 20  2  0  0  0  0
 19 36  1  0  0  0  0
 21 22  1  0  0  0  0
 21 23  1  0  0  0  0
 21 27  1  0  0  0  0
 22 24  1  0  0  0  0
 22 28  1  0  0  0  0
 22 29  1  0  0  0  0
 23 30  1  0  0  0  0
 23 31  1  0  0  0  0
 23 32  1  0  0  0  0
 24 33  1  0  0  0  0
 24 34  1  0  0  0  0
 24 35  1  0  0  0  0
 36 37  1  0  0  0  0
 36 41  1  0  0  0  0
 37 38  1  0  0  0  0
 37 40  1  0  0  0  0
 37 42  1  0  0  0  0
 38 39  2  0  0  0  0
 38 46  1  0  0  0  0
 40 43  1  0  0  0  0
 40 44  1  0  0  0  0
 40 45  1  0  0  0  0
 46 47  1  0  0  0  0
 46 48  1  0  0  0  0
 47 49  1  0  0  0  0
 47 50  1  0  0  0  0
 47 51  1  0  0  0  0
M  END
$$$$

  -OEChem-05262216503D

 51 50  0     1  0  0  0  0  0999 V2000
   -0.0335   -6.0834    0.7695 C   0  0  0  0  0  0  0  0  0  0  0  0
   -1.0942   -6.2412    0.1857 O   0  0  0  0  0  0  0  0  0  0  0  0
    1.0248   -7.1692    0.7249 C   0  0  0  0  0  0  0  0  0  0  0  0
    0.6484   -8.0416    0.1832 H   0  0  0  0  0  0  0  0  0  0  0  0
    1.9181   -6.7969    0.2171 H   0  0  0  0  0  0  0  0  0  0  0  0
    1.2911   -7.4730    1.7402 H   0  0  0  0  0  0  0  0  0  0  0  0
    0.2217   -4.9156    1.4573 N   0  0  0  0  0  0  0  0  0  0  0  0
   -0.5987   -3.7017    1.3412 C   0  0  2  0  0  0  0  0  0  0  0  0
    0.1986   -2.5352    0.7254 C   0  0  0  0  0  0  0  0  0  0  0  0
    1.4246   -2.5293    0.7842 O   0  0  0  0  0  0  0  0  0  0  0  0
   -1.0795   -3.3223    2.7434 C   0  0  0  0  0  0  0  0  0  0  0  0
    1.1893   -4.7729    1.7413 H   0  0  0  0  0  0  0  0  0  0  0  0
   -1.4722   -3.8812    0.7064 H   0  0  0  0  0  0  0  0  0  0  0  0
   -0.2264   -3.1073    3.3956 H   0  0  0  0  0  0  0  0  0  0  0  0
   -1.7158   -2.4325    2.7035 H   0  0  0  0  0  0  0  0  0  0  0  0
   -1.6571   -4.1425    3.1812 H   0  0  0  0  0  0  0  0  0  0  0  0
   -0.4600   -1.5007    0.0823 N   0  0  0  0  0  0  0  0  0  0  0  0
    0.0470   -0.1133    0.0531 C   0  0  2  0  0  0  0  0  0  0  0  0
    0.8690    0.2527    1.3175 C   0  0  0  0  0  0  0  0  0  0  0  0
    0.3282    0.2478    2.4197 O   0  0  0  0  0  0  0  0  0  0  0  0
   -1.1507    0.8551   -0.1616 C   0  0  2  0  0  0  0  0  0  0  0  0
   -1.8178    0.5888   -1.5358 C   0  0  0  0  0  0  0  0  0  0  0  0
   -0.6924    2.3277   -0.0859 C   0  0  0  0  0  0  0  0  0  0  0  0
   -3.1576    1.3128   -1.7058 C   0  0  0  0  0  0  0  0  0  0  0  0
   -1.4713   -1.5905    0.0945 H   0  0  0  0  0  0  0  0  0  0  0  0
    0.7233   -0.0191   -0.8022 H   0  0  0  0  0  0  0  0  0  0  0  0
   -1.8837    0.6810    0.6345 H   0  0  0  0  0  0  0  0  0  0  0  0
   -1.1388    0.8892   -2.3408 H   0  0  0  0  0  0  0  0  0  0  0  0
   -2.0107   -0.4811   -1.6567 H   0  0  0  0  0  0  0  0  0  0  0  0
    0.0729    2.5314   -0.8416 H   0  0  0  0  0  0  0  0  0  0  0  0
   -1.5304    3.0099   -0.2478 H   0  0  0  0  0  0  0  0  0  0  0  0
   -0.2795    2.5633    0.8994 H   0  0  0  0  0  0  0  0  0  0  0  0
   -3.8238    1.0910   -0.8664 H   0  0  0  0  0  0  0  0  0  0  0  0
   -3.6435    0.9811   -2.6285 H   0  0  0  0  0  0  0  0  0  0  0  0
   -3.0186    2.3955   -1.7697 H   0  0  0  0  0  0  0  0  0  0  0  0
    2.1902    0.6419    1.2154 N   0  0  0  0  0  0  0  0  0  0  0  0
    3.0614    0.9500    2.3546 C   0  0  2  0  0  0  0  0  0  0  0  0
    4.2592    1.8308    1.9413 C   0  0  0  0  0  0  0  0  0  0  0  0
    4.5383    1.9871    0.7573 O   0  0  0  0  0  0  0  0  0  0  0  0
    3.5560   -0.3711    2.9553 C   0  0  0  0  0  0  0  0  0  0  0  0
    2.6256    0.6052    0.2953 H   0  0  0  0  0  0  0  0  0  0  0  0
    2.4909    1.5016    3.1091 H   0  0  0  0  0  0  0  0  0  0  0  0
    4.1368   -0.9328    2.2164 H   0  0  0  0  0  0  0  0  0  0  0  0
    4.1881   -0.1854    3.8284 H   0  0  0  0  0  0  0  0  0  0  0  0
    2.7089   -0.9891    3.2697 H   0  0  0  0  0  0  0  0  0  0  0  0
    5.0305    2.4549    2.9047 N   0  0  0  0  0  0  0  0  0  0  0  0
    6.1858    3.2871    2.5916 C   0  0  0  0  0  0  0  0  0  0  0  0
    4.7813    2.3031    3.8776 H   0  0  0  0  0  0  0  0  0  0  0  0
    6.9535    2.6989    2.0779 H   0  0  0  0  0  0  0  0  0  0  0  0
    5.8936    4.1239    1.9486 H   0  0  0  0  0  0  0  0  0  0  0  0
    6.6189    3.6939    3.5103 H   0  0  0  0  0  0  0  0  0  0  0  0
  1  2  2  0  0  0  0
  1  3  1  0  0  0  0
  1  7  1  0  0  0  0
  3  4  1  0  0  0  0
  3  5  1  0  0  0  0
  3  6  1  0  0  0  0
  7  8  1  0  0  0  0
  7 12  1  0  0  0  0
  8  9  1  0  0  0  0
  8 11  1  0  0  0  0
  8 13  1  0  0  0  0
  9 10  2  0  0  0  0
  9 17  1  0  0  0  0
 11 14  1  0  0  0  0
 11 15  1  0  0  0  0
 11 16  1  0  0  0  0
 17 18  1  0  0  0  0
 17 25  1  0  0  0  0
 18 19  1  0  0  0  0
 18 21  1  0  0  0  0
 18 26  1  0  0  0  0
 19 20  2  0  0  0  0
 19 36  1  0  0  0  0
 21 22  1  0  0  0  0
 21 23  1  0  0  0  0
 21 27  1  0  0  0  0
 22 24  1  0  0  0  0
 22 28  1  0  0  0  0
 22 29  1  0  0  0  0
 23 30  1  0  0  0  0
 23 31  1  0  0  0  0
 23 32  1  0  0  0  0
 24 33  1  0  0  0  0
 24 34  1  0  0  0  0
 24 35  1  0  0  0  0
 36 37  1  0  0  0  0
 36 41  1  0  0  0  0
 37 38  1  0  0  0  0
 37 40  1  0  0  0  0
 37 42  1  0  0  0  0
 38 39  2  0  0  0  0
 38 46  1  0  0  0  0
 40 43  1  0  0  0  0
 40 44  1  0  0  0  0
 40 45  1  0  0  0  0
 46 47  1  0  0  0  0
 46 48  1  0  0  0  0
 47 49  1  0  0  0  0
 47 50  1  0  0  0  0
 47 51  1  0  0  0  0
M  END
$$$$

  -OEChem-05262216503D

 51 50  0     1  0  0  0  0  0999 V2000
   -0.0362   -6.1390    0.8395 C   0  0  0  0  0  0  0  0  0  0  0  0
   -1.1324   -6.3167    0.3317 O   0  0  0  0  0  0  0  0  0  0  0  0
    1.0031   -7.2436    0.8019 C   0  0  0  0  0  0  0  0  0  0  0  0
    0.6008   -8.1230    0.2912 H   0  0  0  0  0  0  0  0  0  0  0  0
    1.8919   -6.9012    0.2660 H   0  0  0  0  0  0  0  0  0  0  0  0
    1.2850   -7.5252    1.8194 H   0  0  0  0  0  0  0  0  0  0  0  0
    0.2722   -4.9353    1.4380 N   0  0  0  0  0  0  0  0  0  0  0  0
   -0.5442   -3.7205    1.3071 C   0  0  2  0  0  0  0  0  0  0  0  0
    0.2522   -2.5667    0.6663 C   0  0  0  0  0  0  0  0  0  0  0  0
    1.4798   -2.5812    0.6768 O   0  0  0  0  0  0  0  0  0  0  0  0
   -1.0171   -3.3159    2.7047 C   0  0  0  0  0  0  0  0  0  0  0  0
    1.2543   -4.7893    1.6658 H   0  0  0  0  0  0  0  0  0  0  0  0
   -1.4204   -3.9072    0.6781 H   0  0  0  0  0  0  0  0  0  0  0  0
   -0.1604   -3.0984    3.3510 H   0  0  0  0  0  0  0  0  0  0  0  0
   -1.6449   -2.4210    2.6529 H   0  0  0  0  0  0  0  0  0  0  0  0
   -1.6002   -4.1246    3.1561 H   0  0  0  0  0  0  0  0  0  0  0  0
   -0.4090   -1.5221    0.0423 N   0  0  0  0  0  0  0  0  0  0  0  0
    0.1136   -0.1400    0.0286 C   0  0  2  0  0  0  0  0  0  0  0  0
    0.9534    0.2067    1.2874 C   0  0  0  0  0  0  0  0  0  0  0  0
    0.4785    0.0311    2.4062 O   0  0  0  0  0  0  0  0  0  0  0  0
   -1.0821    0.8382   -0.1549 C   0  0  2  0  0  0  0  0  0  0  0  0
   -1.7692    0.5966   -1.5239 C   0  0  0  0  0  0  0  0  0  0  0  0
   -0.6247    2.3100   -0.0593 C   0  0  0  0  0  0  0  0  0  0  0  0
   -3.1070    1.3304   -1.6640 C   0  0  0  0  0  0  0  0  0  0  0  0
   -1.4204   -1.5983    0.0874 H   0  0  0  0  0  0  0  0  0  0  0  0
    0.7811   -0.0411   -0.8331 H   0  0  0  0  0  0  0  0  0  0  0  0
   -1.8046    0.6518    0.6479 H   0  0  0  0  0  0  0  0  0  0  0  0
   -1.0992    0.9047   -2.3333 H   0  0  0  0  0  0  0  0  0  0  0  0
   -1.9703   -0.4699   -1.6584 H   0  0  0  0  0  0  0  0  0  0  0  0
    0.1336    2.5281   -0.8182 H   0  0  0  0  0  0  0  0  0  0  0  0
   -1.4649    2.9936   -0.2029 H   0  0  0  0  0  0  0  0  0  0  0  0
   -0.2051    2.5305    0.9267 H   0  0  0  0  0  0  0  0  0  0  0  0
   -3.7607    1.1029   -0.8165 H   0  0  0  0  0  0  0  0  0  0  0  0
   -3.6095    1.0131   -2.5826 H   0  0  0  0  0  0  0  0  0  0  0  0
   -2.9623    2.4127   -1.7175 H   0  0  0  0  0  0  0  0  0  0  0  0
    2.1589    0.8707    1.1687 N   0  0  0  0  0  0  0  0  0  0  0  0
    2.9681    1.3501    2.2938 C   0  0  2  0  0  0  0  0  0  0  0  0
    3.8854    2.5181    1.8744 C   0  0  0  0  0  0  0  0  0  0  0  0
    3.9964    2.8262    0.6921 O   0  0  0  0  0  0  0  0  0  0  0  0
    3.7943    0.1752    2.8292 C   0  0  0  0  0  0  0  0  0  0  0  0
    2.5018    1.0762    0.2316 H   0  0  0  0  0  0  0  0  0  0  0  0
    2.3091    1.7203    3.0862 H   0  0  0  0  0  0  0  0  0  0  0  0
    4.4603   -0.2097    2.0502 H   0  0  0  0  0  0  0  0  0  0  0  0
    4.3998    0.4866    3.6852 H   0  0  0  0  0  0  0  0  0  0  0  0
    3.1348   -0.6366    3.1528 H   0  0  0  0  0  0  0  0  0  0  0  0
    4.5747    3.2430    2.8291 N   0  0  0  0  0  0  0  0  0  0  0  0
    5.4535    4.3606    2.5064 C   0  0  0  0  0  0  0  0  0  0  0  0
    4.4608    2.9694    3.8008 H   0  0  0  0  0  0  0  0  0  0  0  0
    6.2677    4.0313    1.8524 H   0  0  0  0  0  0  0  0  0  0  0  0
    4.8940    5.1545    2.0001 H   0  0  0  0  0  0  0  0  0  0  0  0
    5.8907    4.7740    3.4205 H   0  0  0  0  0  0  0  0  0  0  0  0
  1  2  2  0  0  0  0
  1  3  1  0  0  0  0
  1  7  1  0  0  0  0
  3  4  1  0  0  0  0
  3  5  1  0  0  0  0
  3  6  1  0  0  0  0
  7  8  1  0  0  0  0
  7 12  1  0  0  0  0
  8  9  1  0  0  0  0
  8 11  1  0  0  0  0
  8 13  1  0  0  0  0
  9 10  2  0  0  0  0
  9 17  1  0  0  0  0
 11 14  1  0  0  0  0
 11 15  1  0  0  0  0
 11 16  1  0  0  0  0
 17 18  1  0  0  0  0
 17 25  1  0  0  0  0
 18 19  1  0  0  0  0
 18 21  1  0  0  0  0
 18 26  1  0  0  0  0
 19 20  2  0  0  0  0
 19 36  1  0  0  0  0
 21 22  1  0  0  0  0
 21 23  1  0  0  0  0
 21 27  1  0  0  0  0
 22 24  1  0  0  0  0
 22 28  1  0  0  0  0
 22 29  1  0  0  0  0
 23 30  1  0  0  0  0
 23 31  1  0  0  0  0
 23 32  1  0  0  0  0
 24 33  1  0  0  0  0
 24 34  1  0  0  0  0
 24 35  1  0  0  0  0
 36 37  1  0  0  0  0
 36 41  1  0  0  0  0
 37 38  1  0  0  0  0
 37 40  1  0  0  0  0
 37 42  1  0  0  0  0
 38 39  2  0  0  0  0
 38 46  1  0  0  0  0
 40 43  1  0  0  0  0
 40 44  1  0  0  0  0
 40 45  1  0  0  0  0
 46 47  1  0  0  0  0
 46 48  1  0  0  0  0
 47 49  1  0  0  0  0
 47 50  1  0  0  0  0
 47 51  1  0  0  0  0
M  END
$$$$

  -OEChem-05262216503D

 51 50  0     1  0  0  0  0  0999 V2000
   -0.1147   -6.1762    0.9071 C   0  0  0  0  0  0  0  0  0  0  0  0
   -1.2565   -6.3353    0.5043 O   0  0  0  0  0  0  0  0  0  0  0  0
    0.8718   -7.3278    0.8619 C   0  0  0  0  0  0  0  0  0  0  0  0
    0.3843   -8.2274    0.4761 H   0  0  0  0  0  0  0  0  0  0  0  0
    1.7111   -7.0741    0.2099 H   0  0  0  0  0  0  0  0  0  0  0  0
    1.2493   -7.5355    1.8660 H   0  0  0  0  0  0  0  0  0  0  0  0
    0.2896   -4.9524    1.3972 N   0  0  0  0  0  0  0  0  0  0  0  0
   -0.4962   -3.7164    1.2802 C   0  0  2  0  0  0  0  0  0  0  0  0
    0.3104   -2.5901    0.6039 C   0  0  0  0  0  0  0  0  0  0  0  0
    1.5351   -2.6516    0.5429 O   0  0  0  0  0  0  0  0  0  0  0  0
   -0.9145   -3.2879    2.6885 C   0  0  0  0  0  0  0  0  0  0  0  0
    1.2906   -4.8333    1.5455 H   0  0  0  0  0  0  0  0  0  0  0  0
   -1.3944   -3.8856    0.6776 H   0  0  0  0  0  0  0  0  0  0  0  0
   -0.0318   -3.0945    3.3072 H   0  0  0  0  0  0  0  0  0  0  0  0
   -1.5146   -2.3735    2.6500 H   0  0  0  0  0  0  0  0  0  0  0  0
   -1.5100   -4.0739    3.1631 H   0  0  0  0  0  0  0  0  0  0  0  0
   -0.3396   -1.5203    0.0118 N   0  0  0  0  0  0  0  0  0  0  0  0
    0.2244   -0.1540    0.0075 C   0  0  2  0  0  0  0  0  0  0  0  0
    1.1082    0.1616    1.2472 C   0  0  0  0  0  0  0  0  0  0  0  0
    0.7308   -0.1647    2.3695 O   0  0  0  0  0  0  0  0  0  0  0  0
   -0.9640    0.8434   -0.1402 C   0  0  2  0  0  0  0  0  0  0  0  0
   -1.6798    0.6273   -1.5006 C   0  0  0  0  0  0  0  0  0  0  0  0
   -0.5025    2.3117   -0.0229 C   0  0  0  0  0  0  0  0  0  0  0  0
   -3.0121    1.3761   -1.6132 C   0  0  0  0  0  0  0  0  0  0  0  0
   -1.3496   -1.5643    0.1031 H   0  0  0  0  0  0  0  0  0  0  0  0
    0.8730   -0.0606   -0.8694 H   0  0  0  0  0  0  0  0  0  0  0  0
   -1.6755    0.6490    0.6705 H   0  0  0  0  0  0  0  0  0  0  0  0
   -1.0199    0.9416   -2.3161 H   0  0  0  0  0  0  0  0  0  0  0  0
   -1.8943   -0.4346   -1.6496 H   0  0  0  0  0  0  0  0  0  0  0  0
    0.2672    2.5351   -0.7686 H   0  0  0  0  0  0  0  0  0  0  0  0
   -1.3362    3.0025   -0.1688 H   0  0  0  0  0  0  0  0  0  0  0  0
   -0.0981    2.5169    0.9725 H   0  0  0  0  0  0  0  0  0  0  0  0
   -3.6572    1.1424   -0.7606 H   0  0  0  0  0  0  0  0  0  0  0  0
   -3.5290    1.0760   -2.5301 H   0  0  0  0  0  0  0  0  0  0  0  0
   -2.8591    2.4577   -1.6548 H   0  0  0  0  0  0  0  0  0  0  0  0
    2.1599    1.0525    1.1420 N   0  0  0  0  0  0  0  0  0  0  0  0
    2.8539    1.6715    2.2768 C   0  0  2  0  0  0  0  0  0  0  0  0
    3.3403    3.0936    1.9270 C   0  0  0  0  0  0  0  0  0  0  0  0
    3.2466    3.5121    0.7774 O   0  0  0  0  0  0  0  0  0  0  0  0
    4.0282    0.7692    2.6673 C   0  0  0  0  0  0  0  0  0  0  0  0
    2.3380    1.4587    0.2246 H   0  0  0  0  0  0  0  0  0  0  0  0
    2.1701    1.7633    3.1272 H   0  0  0  0  0  0  0  0  0  0  0  0
    4.7327    0.6769    1.8344 H   0  0  0  0  0  0  0  0  0  0  0  0
    4.5597    1.1786    3.5314 H   0  0  0  0  0  0  0  0  0  0  0  0
    3.6659   -0.2307    2.9281 H   0  0  0  0  0  0  0  0  0  0  0  0
    3.8627    3.9181    2.9064 N   0  0  0  0  0  0  0  0  0  0  0  0
    4.3300    5.2742    2.6460 C   0  0  0  0  0  0  0  0  0  0  0  0
    3.9174    3.5504    3.8518 H   0  0  0  0  0  0  0  0  0  0  0  0
    5.1342    5.2670    1.9027 H   0  0  0  0  0  0  0  0  0  0  0  0
    3.5102    5.8965    2.2720 H   0  0  0  0  0  0  0  0  0  0  0  0
    4.7147    5.7252    3.5657 H   0  0  0  0  0  0  0  0  0  0  0  0
  1  2  2  0  0  0  0
  1  3  1  0  0  0  0
  1  7  1  0  0  0  0
  3  4  1  0  0  0  0
  3  5  1  0  0  0  0
  3  6  1  0  0  0  0
  7  8  1  0  0  0  0
  7 12  1  0  0  0  0
  8  9  1  0  0  0  0
  8 11  1  0  0  0  0
  8 13  1  0  0  0  0
  9 10  2  0  0  0  0
  9 17  1  0  0  0  0
 11 14  1  0  0  0  0
 11 15  1  0  0  0  0
 11 16  1  0  0  0  0
 17 18  1  0  0  0  0
 17 25  1  0  0  0  0
 18 19  1  0  0  0  0
 18 21  1  0  0  0  0
 18 26  1  0  0  0  0
 19 20  2  0  0  0  0
 19 36  1  0  0  0  0
 21 22  1  0  0  0  0
 21 23  1  0  0  0  0
 21 27  1  0  0  0  0
 22 24  1  0  0  0  0
 22 28  1  0  0  0  0
 22 29  1  0  0  0  0
 23 30  1  0  0  0  0
 23 31  1  0  0  0  0
 23 32  1  0  0  0  0
 24 33  1  0  0  0  0
 24 34  1  0  0  0  0
 24 35  1  0  0  0  0
 36 37  1  0  0  0  0
 36 41  1  0  0  0  0
 37 38  1  0  0  0  0
 37 40  1  0  0  0  0
 37 42  1  0  0  0  0
 38 39  2  0  0  0  0
 38 46  1  0  0  0  0
 40 43  1  0  0  0  0
 40 44  1  0  0  0  0
 40 45  1  0  0  0  0
 46 47  1  0  0  0  0
 46 48  1  0  0  0  0
 47 49  1  0  0  0  0
 47 50  1  0  0  0  0
 47 51  1  0  0  0  0
M  END
$$$$

  -OEChem-05262216503D

 51 50  0     1  0  0  0  0  0999 V2000
   -0.0611   -6.1376    0.9766 C   0  0  0  0  0  0  0  0  0  0  0  0
   -1.2274   -6.3191    0.6629 O   0  0  0  0  0  0  0  0  0  0  0  0
    0.9307   -7.2829    0.9008 C   0  0  0  0  0  0  0  0  0  0  0  0
    0.4333   -8.1897    0.5456 H   0  0  0  0  0  0  0  0  0  0  0  0
    1.7393   -7.0312    0.2101 H   0  0  0  0  0  0  0  0  0  0  0  0
    1.3528   -7.4768    1.8898 H   0  0  0  0  0  0  0  0  0  0  0  0
    0.3653   -4.8929    1.3886 N   0  0  0  0  0  0  0  0  0  0  0  0
   -0.4343   -3.6665    1.2690 C   0  0  2  0  0  0  0  0  0  0  0  0
    0.3612   -2.5355    0.5864 C   0  0  0  0  0  0  0  0  0  0  0  0
    1.5806   -2.6156    0.4671 O   0  0  0  0  0  0  0  0  0  0  0  0
   -0.8610   -3.2382    2.6754 C   0  0  0  0  0  0  0  0  0  0  0  0
    1.3728   -4.7619    1.4692 H   0  0  0  0  0  0  0  0  0  0  0  0
   -1.3277   -3.8492    0.6632 H   0  0  0  0  0  0  0  0  0  0  0  0
    0.0177   -3.0288    3.2947 H   0  0  0  0  0  0  0  0  0  0  0  0
   -1.4753   -2.3333    2.6329 H   0  0  0  0  0  0  0  0  0  0  0  0
   -1.4447   -4.0316    3.1527 H   0  0  0  0  0  0  0  0  0  0  0  0
   -0.2944   -1.4620    0.0075 N   0  0  0  0  0  0  0  0  0  0  0  0
    0.2736   -0.0953   -0.0146 C   0  0  2  0  0  0  0  0  0  0  0  0
    1.1909    0.2389    1.2023 C   0  0  0  0  0  0  0  0  0  0  0  0
    0.9377   -0.2255    2.3109 O   0  0  0  0  0  0  0  0  0  0  0  0
   -0.9470    0.8722   -0.1572 C   0  0  2  0  0  0  0  0  0  0  0  0
   -1.6726    0.6196   -1.5088 C   0  0  0  0  0  0  0  0  0  0  0  0
   -0.5540    2.3614   -0.0538 C   0  0  0  0  0  0  0  0  0  0  0  0
   -3.0275    1.3271   -1.6218 C   0  0  0  0  0  0  0  0  0  0  0  0
   -1.3019   -1.5015    0.1229 H   0  0  0  0  0  0  0  0  0  0  0  0
    0.9037   -0.0040   -0.9049 H   0  0  0  0  0  0  0  0  0  0  0  0
   -1.6437    0.6580    0.6611 H   0  0  0  0  0  0  0  0  0  0  0  0
   -1.0292    0.9401   -2.3350 H   0  0  0  0  0  0  0  0  0  0  0  0
   -1.8619   -0.4487   -1.6441 H   0  0  0  0  0  0  0  0  0  0  0  0
    0.2349    2.6053   -0.7724 H   0  0  0  0  0  0  0  0  0  0  0  0
   -1.4073    3.0152   -0.2462 H   0  0  0  0  0  0  0  0  0  0  0  0
   -0.2052    2.6020    0.9543 H   0  0  0  0  0  0  0  0  0  0  0  0
   -3.6504    1.1057   -0.7498 H   0  0  0  0  0  0  0  0  0  0  0  0
   -3.5516    0.9796   -2.5173 H   0  0  0  0  0  0  0  0  0  0  0  0
   -2.9074    2.4102   -1.7054 H   0  0  0  0  0  0  0  0  0  0  0  0
    2.0324    1.3366    1.1623 N   0  0  0  0  0  0  0  0  0  0  0  0
    2.6397    1.9819    2.3335 C   0  0  2  0  0  0  0  0  0  0  0  0
    2.8014    3.5004    2.1120 C   0  0  0  0  0  0  0  0  0  0  0  0
    2.5783    3.9888    1.0086 O   0  0  0  0  0  0  0  0  0  0  0  0
    3.9940    1.3180    2.5988 C   0  0  0  0  0  0  0  0  0  0  0  0
    2.0596    1.8671    0.2923 H   0  0  0  0  0  0  0  0  0  0  0  0
    1.9959    1.8509    3.2095 H   0  0  0  0  0  0  0  0  0  0  0  0
    4.6608    1.4508    1.7408 H   0  0  0  0  0  0  0  0  0  0  0  0
    4.4703    1.7528    3.4822 H   0  0  0  0  0  0  0  0  0  0  0  0
    3.8605    0.2454    2.7727 H   0  0  0  0  0  0  0  0  0  0  0  0
    3.1710    4.3288    3.1558 N   0  0  0  0  0  0  0  0  0  0  0  0
    3.3355    5.7703    3.0122 C   0  0  0  0  0  0  0  0  0  0  0  0
    3.3486    3.8990    4.0591 H   0  0  0  0  0  0  0  0  0  0  0  0
    4.1201    5.9945    2.2819 H   0  0  0  0  0  0  0  0  0  0  0  0
    2.4003    6.2317    2.6775 H   0  0  0  0  0  0  0  0  0  0  0  0
    3.6169    6.2173    3.9706 H   0  0  0  0  0  0  0  0  0  0  0  0
  1  2  2  0  0  0  0
  1  3  1  0  0  0  0
  1  7  1  0  0  0  0
  3  4  1  0  0  0  0
  3  5  1  0  0  0  0
  3  6  1  0  0  0  0
  7  8  1  0  0  0  0
  7 12  1  0  0  0  0
  8  9  1  0  0  0  0
  8 11  1  0  0  0  0
  8 13  1  0  0  0  0
  9 10  2  0  0  0  0
  9 17  1  0  0  0  0
 11 14  1  0  0  0  0
 11 15  1  0  0  0  0
 11 16  1  0  0  0  0
 17 18  1  0  0  0  0
 17 25  1  0  0  0  0
 18 19  1  0  0  0  0
 18 21  1  0  0  0  0
 18 26  1  0  0  0  0
 19 20  2  0  0  0  0
 19 36  1  0  0  0  0
 21 22  1  0  0  0  0
 21 23  1  0  0  0  0
 21 27  1  0  0  0  0
 22 24  1  0  0  0  0
 22 28  1  0  0  0  0
 22 29  1  0  0  0  0
 23 30  1  0  0  0  0
 23 31  1  0  0  0  0
 23 32  1  0  0  0  0
 24 33  1  0  0  0  0
 24 34  1  0  0  0  0
 24 35  1  0  0  0  0
 36 37  1  0  0  0  0
 36 41  1  0  0  0  0
 37 38  1  0  0  0  0
 37 40  1  0  0  0  0
 37 42  1  0  0  0  0
 38 39  2  0  0  0  0
 38 46  1  0  0  0  0
 40 43  1  0  0  0  0
 40 44  1  0  0  0  0
 40 45  1  0  0  0  0
 46 47  1  0  0  0  0
 46 48  1  0  0  0  0
 47 49  1  0  0  0  0
 47 50  1  0  0  0  0
 47 51  1  0  0  0  0
M  END
$$$$

  -OEChem-05262216503D

 51 50  0     1  0  0  0  0  0999 V2000
   -0.1699   -6.0362    1.0968 C   0  0  0  0  0  0  0  0  0  0  0  0
   -1.3581   -6.1453    0.8353 O   0  0  0  0  0  0  0  0  0  0  0  0
    0.7480   -7.2375    0.9697 C   0  0  0  0  0  0  0  0  0  0  0  0
    0.1839   -8.1105    0.6300 H   0  0  0  0  0  0  0  0  0  0  0  0
    1.5395   -7.0270    0.2462 H   0  0  0  0  0  0  0  0  0  0  0  0
    1.1999   -7.4652    1.9382 H   0  0  0  0  0  0  0  0  0  0  0  0
    0.3505   -4.8249    1.4999 N   0  0  0  0  0  0  0  0  0  0  0  0
   -0.3678   -3.5480    1.3937 C   0  0  2  0  0  0  0  0  0  0  0  0
    0.4231   -2.5233    0.5558 C   0  0  0  0  0  0  0  0  0  0  0  0
    1.6004   -2.7250    0.2739 O   0  0  0  0  0  0  0  0  0  0  0  0
   -0.5903   -3.0114    2.8087 C   0  0  0  0  0  0  0  0  0  0  0  0
    1.3675   -4.7579    1.5071 H   0  0  0  0  0  0  0  0  0  0  0  0
   -1.3394   -3.6898    0.9100 H   0  0  0  0  0  0  0  0  0  0  0  0
    0.3695   -2.8378    3.3065 H   0  0  0  0  0  0  0  0  0  0  0  0
   -1.1394   -2.0655    2.7786 H   0  0  0  0  0  0  0  0  0  0  0  0
   -1.1669   -3.7296    3.3997 H   0  0  0  0  0  0  0  0  0  0  0  0
   -0.2173   -1.4560   -0.0487 N   0  0  0  0  0  0  0  0  0  0  0  0
    0.3175   -0.0715   -0.0961 C   0  0  2  0  0  0  0  0  0  0  0  0
    1.4894    0.2656    0.8923 C   0  0  0  0  0  0  0  0  0  0  0  0
    1.6152   -0.3466    1.9483 O   0  0  0  0  0  0  0  0  0  0  0  0
   -0.9665    0.8235    0.0610 C   0  0  2  0  0  0  0  0  0  0  0  0
   -1.9270    0.5943   -1.1451 C   0  0  0  0  0  0  0  0  0  0  0  0
   -0.6798    2.3351    0.1874 C   0  0  0  0  0  0  0  0  0  0  0  0
   -3.3191    1.2108   -0.9607 C   0  0  0  0  0  0  0  0  0  0  0  0
   -1.2225   -1.4949    0.0838 H   0  0  0  0  0  0  0  0  0  0  0  0
    0.7347    0.0892   -1.0953 H   0  0  0  0  0  0  0  0  0  0  0  0
   -1.4788    0.5160    0.9798 H   0  0  0  0  0  0  0  0  0  0  0  0
   -1.4721    1.0030   -2.0536 H   0  0  0  0  0  0  0  0  0  0  0  0
   -2.0820   -0.4737   -1.3182 H   0  0  0  0  0  0  0  0  0  0  0  0
   -0.0301    2.6767   -0.6244 H   0  0  0  0  0  0  0  0  0  0  0  0
   -1.5978    2.9252    0.1596 H   0  0  0  0  0  0  0  0  0  0  0  0
   -0.2094    2.5600    1.1481 H   0  0  0  0  0  0  0  0  0  0  0  0
   -3.7390    0.9277    0.0095 H   0  0  0  0  0  0  0  0  0  0  0  0
   -3.9895    0.8481   -1.7461 H   0  0  0  0  0  0  0  0  0  0  0  0
   -3.2886    2.3012   -1.0293 H   0  0  0  0  0  0  0  0  0  0  0  0
    2.0577    1.5278    0.9071 N   0  0  0  0  0  0  0  0  0  0  0  0
    2.8463    2.1117    2.0011 C   0  0  2  0  0  0  0  0  0  0  0  0
    2.7794    3.6528    1.9641 C   0  0  0  0  0  0  0  0  0  0  0  0
    2.2664    4.2238    1.0064 O   0  0  0  0  0  0  0  0  0  0  0  0
    4.2940    1.6252    1.8730 C   0  0  0  0  0  0  0  0  0  0  0  0
    1.7809    2.1696    0.1652 H   0  0  0  0  0  0  0  0  0  0  0  0
    2.4395    1.7916    2.9662 H   0  0  0  0  0  0  0  0  0  0  0  0
    4.7200    1.9403    0.9152 H   0  0  0  0  0  0  0  0  0  0  0  0
    4.9112    2.0306    2.6801 H   0  0  0  0  0  0  0  0  0  0  0  0
    4.3327    0.5323    1.9272 H   0  0  0  0  0  0  0  0  0  0  0  0
    3.2673    4.4050    3.0164 N   0  0  0  0  0  0  0  0  0  0  0  0
    3.2220    5.8618    3.0454 C   0  0  0  0  0  0  0  0  0  0  0  0
    3.6783    3.9076    3.8012 H   0  0  0  0  0  0  0  0  0  0  0  0
    3.7990    6.2788    2.2132 H   0  0  0  0  0  0  0  0  0  0  0  0
    2.1880    6.2146    2.9692 H   0  0  0  0  0  0  0  0  0  0  0  0
    3.6457    6.2353    3.9826 H   0  0  0  0  0  0  0  0  0  0  0  0
  1  2  2  0  0  0  0
  1  3  1  0  0  0  0
  1  7  1  0  0  0  0
  3  4  1  0  0  0  0
  3  5  1  0  0  0  0
  3  6  1  0  0  0  0
  7  8  1  0  0  0  0
  7 12  1  0  0  0  0
  8  9  1  0  0  0  0
  8 11  1  0  0  0  0
  8 13  1  0  0  0  0
  9 10  2  0  0  0  0
  9 17  1  0  0  0  0
 11 14  1  0  0  0  0
 11 15  1  0  0  0  0
 11 16  1  0  0  0  0
 17 18  1  0  0  0  0
 17 25  1  0  0  0  0
 18 19  1  0  0  0  0
 18 21  1  0  0  0  0
 18 26  1  0  0  0  0
 19 20  2  0  0  0  0
 19 36  1  0  0  0  0
 21 22  1  0  0  0  0
 21 23  1  0  0  0  0
 21 27  1  0  0  0  0
 22 24  1  0  0  0  0
 22 28  1  0  0  0  0
 22 29  1  0  0  0  0
 23 30  1  0  0  0  0
 23 31  1  0  0  0  0
 23 32  1  0  0  0  0
 24 33  1  0  0  0  0
 24 34  1  0  0  0  0
 24 35  1  0  0  0  0
 36 37  1  0  0  0  0
 36 41  1  0  0  0  0
 37 38  1  0  0  0  0
 37 40  1  0  0  0  0
 37 42  1  0  0  0  0
 38 39  2  0  0  0  0
 38 46  1  0  0  0  0
 40 43  1  0  0  0  0
 40 44  1  0  0  0  0
 40 45  1  0  0  0  0
 46 47  1  0  0  0  0
 46 48  1  0  0  0  0
 47 49  1  0  0  0  0
 47 50  1  0  0  0  0
 47 51  1  0  0  0  0
M  END
$$$$

  -OEChem-05262216503D

 51 50  0     1  0  0  0  0  0999 V2000
    0.5344   -3.6441    0.0729 C   0  0  0  0  0  0  0  0  0  0  0  0
   -0.3946   -3.4890   -0.7087 O   0  0  0  0  0  0  0  0  0  0  0  0
    1.9668   -3.5360   -0.4131 C   0  0  0  0  0  0  0  0  0  0  0  0
    1.9909   -3.4338   -1.5016 H   0  0  0  0  0  0  0  0  0  0  0  0
    2.4468   -2.6623    0.0361 H   0  0  0  0  0  0  0  0  0  0  0  0
    2.5242   -4.4327   -0.1317 H   0  0  0  0  0  0  0  0  0  0  0  0
    0.2826   -3.7856    1.4208 N   0  0  0  0  0  0  0  0  0  0  0  0
   -1.0537   -3.5979    2.0005 C   0  0  2  0  0  0  0  0  0  0  0  0
   -1.3721   -2.0926    2.1388 C   0  0  0  0  0  0  0  0  0  0  0  0
   -1.5782   -1.5621    3.2229 O   0  0  0  0  0  0  0  0  0  0  0  0
   -1.0845   -4.3400    3.3415 C   0  0  0  0  0  0  0  0  0  0  0  0
    1.0731   -3.5839    2.0311 H   0  0  0  0  0  0  0  0  0  0  0  0
   -1.8148   -4.0446    1.3523 H   0  0  0  0  0  0  0  0  0  0  0  0
   -0.3443   -3.9197    4.0307 H   0  0  0  0  0  0  0  0  0  0  0  0
   -2.0742   -4.2512    3.8007 H   0  0  0  0  0  0  0  0  0  0  0  0
   -0.8649   -5.4018    3.1947 H   0  0  0  0  0  0  0  0  0  0  0  0
   -1.4768   -1.2935    1.0167 N   0  0  0  0  0  0  0  0  0  0  0  0
   -0.4330   -0.3201    0.5991 C   0  0  2  0  0  0  0  0  0  0  0  0
    0.6587    0.0314    1.6716 C   0  0  0  0  0  0  0  0  0  0  0  0
    1.1661   -0.8789    2.3232 O   0  0  0  0  0  0  0  0  0  0  0  0
   -1.2786    0.8734    0.0143 C   0  0  2  0  0  0  0  0  0  0  0  0
   -2.0822    0.3865   -1.2326 C   0  0  0  0  0  0  0  0  0  0  0  0
   -0.4542    2.1168   -0.3854 C   0  0  0  0  0  0  0  0  0  0  0  0
   -3.1422    1.3788   -1.7282 C   0  0  0  0  0  0  0  0  0  0  0  0
   -1.7086   -1.8932    0.2248 H   0  0  0  0  0  0  0  0  0  0  0  0
    0.1351   -0.7559   -0.2278 H   0  0  0  0  0  0  0  0  0  0  0  0
   -1.9933    1.1866    0.7843 H   0  0  0  0  0  0  0  0  0  0  0  0
   -1.3875    0.1641   -2.0494 H   0  0  0  0  0  0  0  0  0  0  0  0
   -2.6176   -0.5389   -1.0056 H   0  0  0  0  0  0  0  0  0  0  0  0
    0.4553    1.8241   -0.9197 H   0  0  0  0  0  0  0  0  0  0  0  0
   -1.0165    2.7948   -1.0285 H   0  0  0  0  0  0  0  0  0  0  0  0
   -0.1927    2.7012    0.5006 H   0  0  0  0  0  0  0  0  0  0  0  0
   -3.7524    1.7361   -0.8929 H   0  0  0  0  0  0  0  0  0  0  0  0
   -3.8006    0.8836   -2.4483 H   0  0  0  0  0  0  0  0  0  0  0  0
   -2.6904    2.2374   -2.2308 H   0  0  0  0  0  0  0  0  0  0  0  0
    1.4986    1.1244    1.5527 N   0  0  0  0  0  0  0  0  0  0  0  0
    2.5819    1.4628    2.4865 C   0  0  2  0  0  0  0  0  0  0  0  0
    2.6634    2.9873    2.7080 C   0  0  0  0  0  0  0  0  0  0  0  0
    2.0902    3.7506    1.9373 O   0  0  0  0  0  0  0  0  0  0  0  0
    3.8991    0.9333    1.9121 C   0  0  0  0  0  0  0  0  0  0  0  0
    1.1546    1.8989    0.9897 H   0  0  0  0  0  0  0  0  0  0  0  0
    2.3956    0.9992    3.4616 H   0  0  0  0  0  0  0  0  0  0  0  0
    4.1063    1.3966    0.9420 H   0  0  0  0  0  0  0  0  0  0  0  0
    4.7300    1.1535    2.5889 H   0  0  0  0  0  0  0  0  0  0  0  0
    3.8436   -0.1513    1.7761 H   0  0  0  0  0  0  0  0  0  0  0  0
    3.3792    3.5064    3.7707 N   0  0  0  0  0  0  0  0  0  0  0  0
    3.4668    4.9338    4.0534 C   0  0  0  0  0  0  0  0  0  0  0  0
    3.8129    2.8492    4.4127 H   0  0  0  0  0  0  0  0  0  0  0  0
    3.8895    5.4684    3.1960 H   0  0  0  0  0  0  0  0  0  0  0  0
    2.4741    5.3427    4.2700 H   0  0  0  0  0  0  0  0  0  0  0  0
    4.1110    5.1094    4.9205 H   0  0  0  0  0  0  0  0  0  0  0  0
  1  2  2  0  0  0  0
  1  3  1  0  0  0  0
  1  7  1  0  0  0  0
  3  4  1  0  0  0  0
  3  5  1  0  0  0  0
  3  6  1  0  0  0  0
  7  8  1  0  0  0  0
  7 12  1  0  0  0  0
  8  9  1  0  0  0  0
  8 11  1  0  0  0  0
  8 13  1  0  0  0  0
  9 10  2  0  0  0  0
  9 17  1  0  0  0  0
 11 14  1  0  0  0  0
 11 15  1  0  0  0  0
 11 16  1  0  0  0  0
 17 18  1  0  0  0  0
 17 25  1  0  0  0  0
 18 19  1  0  0  0  0
 18 21  1  0  0  0  0
 18 26  1  0  0  0  0
 19 20  2  0  0  0  0
 19 36  1  0  0  0  0
 21 22  1  0  0  0  0
 21 23  1  0  0  0  0
 21 27  1  0  0  0  0
 22 24  1  0  0  0  0
 22 28  1  0  0  0  0
 22 29  1  0  0  0  0
 23 30  1  0  0  0  0
 23 31  1  0  0  0  0
 23 32  1  0  0  0  0
 24 33  1  0  0  0  0
 24 34  1  0  0  0  0
 24 35  1  0  0  0  0
 36 37  1  0  0  0  0
 36 41  1  0  0  0  0
 37 38  1  0  0  0  0
 37 40  1  0  0  0  0
 37 42  1  0  0  0  0
 38 39  2  0  0  0  0
 38 46  1  0  0  0  0
 40 43  1  0  0  0  0
 40 44  1  0  0  0  0
 40 45  1  0  0  0  0
 46 47  1  0  0  0  0
 46 48  1  0  0  0  0
 47 49  1  0  0  0  0
 47 50  1  0  0  0  0
 47 51  1  0  0  0  0
M  END
$$$$

  -OEChem-05262216503D

 51 50  0     1  0  0  0  0  0999 V2000
    1.0920   -5.6230    0.5774 C   0  0  0  0  0  0  0  0  0  0  0  0
    0.4047   -5.9770   -0.3681 O   0  0  0  0  0  0  0  0  0  0  0  0
    2.3853   -6.3489    0.8964 C   0  0  0  0  0  0  0  0  0  0  0  0
    2.5708   -7.1328    0.1568 H   0  0  0  0  0  0  0  0  0  0  0  0
    3.2211   -5.6448    0.8800 H   0  0  0  0  0  0  0  0  0  0  0  0
    2.3212   -6.8055    1.8872 H   0  0  0  0  0  0  0  0  0  0  0  0
    0.6974   -4.5582    1.3587 N   0  0  0  0  0  0  0  0  0  0  0  0
   -0.4101   -3.6552    1.0247 C   0  0  2  0  0  0  0  0  0  0  0  0
   -0.0586   -2.1999    1.3917 C   0  0  0  0  0  0  0  0  0  0  0  0
    0.6858   -1.9821    2.3420 O   0  0  0  0  0  0  0  0  0  0  0  0
   -1.6574   -4.1249    1.7776 C   0  0  0  0  0  0  0  0  0  0  0  0
    1.3658   -4.2183    2.0500 H   0  0  0  0  0  0  0  0  0  0  0  0
   -0.6046   -3.6839   -0.0529 H   0  0  0  0  0  0  0  0  0  0  0  0
   -1.4828   -4.1015    2.8581 H   0  0  0  0  0  0  0  0  0  0  0  0
   -2.5113   -3.4809    1.5482 H   0  0  0  0  0  0  0  0  0  0  0  0
   -1.9089   -5.1499    1.4866 H   0  0  0  0  0  0  0  0  0  0  0  0
   -0.7346   -1.1453    0.7978 N   0  0  0  0  0  0  0  0  0  0  0  0
   -0.1193    0.1120    0.2928 C   0  0  2  0  0  0  0  0  0  0  0  0
    1.3436    0.3228    0.8080 C   0  0  0  0  0  0  0  0  0  0  0  0
    2.1792   -0.4307    0.3268 O   0  0  0  0  0  0  0  0  0  0  0  0
   -1.1673    1.2523    0.5363 C   0  0  2  0  0  0  0  0  0  0  0  0
   -2.4513    0.9533   -0.2963 C   0  0  0  0  0  0  0  0  0  0  0  0
   -0.6539    2.6345    0.0615 C   0  0  0  0  0  0  0  0  0  0  0  0
   -3.6491    1.8458    0.0569 C   0  0  0  0  0  0  0  0  0  0  0  0
   -1.4936   -1.4755    0.2105 H   0  0  0  0  0  0  0  0  0  0  0  0
   -0.0015    0.0172   -0.7915 H   0  0  0  0  0  0  0  0  0  0  0  0
   -1.4150    1.2971    1.6022 H   0  0  0  0  0  0  0  0  0  0  0  0
   -2.2316    1.0487   -1.3652 H   0  0  0  0  0  0  0  0  0  0  0  0
   -2.7781   -0.0752   -0.1246 H   0  0  0  0  0  0  0  0  0  0  0  0
   -0.1478    2.5427   -0.9049 H   0  0  0  0  0  0  0  0  0  0  0  0
    0.0354    3.0776    0.7766 H   0  0  0  0  0  0  0  0  0  0  0  0
   -1.4626    3.3578   -0.0488 H   0  0  0  0  0  0  0  0  0  0  0  0
   -3.7964    1.8776    1.1409 H   0  0  0  0  0  0  0  0  0  0  0  0
   -4.5567    1.4412   -0.4014 H   0  0  0  0  0  0  0  0  0  0  0  0
   -3.5197    2.8661   -0.3126 H   0  0  0  0  0  0  0  0  0  0  0  0
    1.9798    1.5132    1.0469 N   0  0  0  0  0  0  0  0  0  0  0  0
    1.8697    2.1094    2.3884 C   0  0  2  0  0  0  0  0  0  0  0  0
    2.3827    3.5662    2.4415 C   0  0  0  0  0  0  0  0  0  0  0  0
    3.1466    3.9961    1.5869 O   0  0  0  0  0  0  0  0  0  0  0  0
    2.6698    1.2513    3.3786 C   0  0  0  0  0  0  0  0  0  0  0  0
    2.9359    1.4725    0.6979 H   0  0  0  0  0  0  0  0  0  0  0  0
    0.8209    2.1156    2.7004 H   0  0  0  0  0  0  0  0  0  0  0  0
    3.7215    1.2035    3.0771 H   0  0  0  0  0  0  0  0  0  0  0  0
    2.6161    1.6743    4.3862 H   0  0  0  0  0  0  0  0  0  0  0  0
    2.2736    0.2313    3.4170 H   0  0  0  0  0  0  0  0  0  0  0  0
    1.9919    4.4039    3.4711 N   0  0  0  0  0  0  0  0  0  0  0  0
    2.4644    5.7773    3.6034 C   0  0  0  0  0  0  0  0  0  0  0  0
    1.3834    4.0219    4.1888 H   0  0  0  0  0  0  0  0  0  0  0  0
    3.5559    5.8000    3.6903 H   0  0  0  0  0  0  0  0  0  0  0  0
    2.1686    6.3698    2.7310 H   0  0  0  0  0  0  0  0  0  0  0  0
    2.0372    6.2415    4.4976 H   0  0  0  0  0  0  0  0  0  0  0  0
  1  2  2  0  0  0  0
  1  3  1  0  0  0  0
  1  7  1  0  0  0  0
  3  4  1  0  0  0  0
  3  5  1  0  0  0  0
  3  6  1  0  0  0  0
  7  8  1  0  0  0  0
  7 12  1  0  0  0  0
  8  9  1  0  0  0  0
  8 11  1  0  0  0  0
  8 13  1  0  0  0  0
  9 10  2  0  0  0  0
  9 17  1  0  0  0  0
 11 14  1  0  0  0  0
 11 15  1  0  0  0  0
 11 16  1  0  0  0  0
 17 18  1  0  0  0  0
 17 25  1  0  0  0  0
 18 19  1  0  0  0  0
 18 21  1  0  0  0  0
 18 26  1  0  0  0  0
 19 20  2  0  0  0  0
 19 36  1  0  0  0  0
 21 22  1  0  0  0  0
 21 23  1  0  0  0  0
 21 27  1  0  0  0  0
 22 24  1  0  0  0  0
 22 28  1  0  0  0  0
 22 29  1  0  0  0  0
 23 30  1  0  0  0  0
 23 31  1  0  0  0  0
 23 32  1  0  0  0  0
 24 33  1  0  0  0  0
 24 34  1  0  0  0  0
 24 35  1  0  0  0  0
 36 37  1  0  0  0  0
 36 41  1  0  0  0  0
 37 38  1  0  0  0  0
 37 40  1  0  0  0  0
 37 42  1  0  0  0  0
 38 39  2  0  0  0  0
 38 46  1  0  0  0  0
 40 43  1  0  0  0  0
 40 44  1  0  0  0  0
 40 45  1  0  0  0  0
 46 47  1  0  0  0  0
 46 48  1  0  0  0  0
 47 49  1  0  0  0  0
 47 50  1  0  0  0  0
 47 51  1  0  0  0  0
M  END
$$$$

  -OEChem-05262216503D

 51 50  0     1  0  0  0  0  0999 V2000
    1.2295   -5.1110    0.9032 C   0  0  0  0  0  0  0  0  0  0  0  0
    0.9673   -5.1899   -0.2873 O   0  0  0  0  0  0  0  0  0  0  0  0
    2.5436   -5.6575    1.4286 C   0  0  0  0  0  0  0  0  0  0  0  0
    3.1375   -6.0683    0.6073 H   0  0  0  0  0  0  0  0  0  0  0  0
    3.1136   -4.8588    1.9098 H   0  0  0  0  0  0  0  0  0  0  0  0
    2.3529   -6.4494    2.1567 H   0  0  0  0  0  0  0  0  0  0  0  0
    0.3390   -4.5227    1.7777 N   0  0  0  0  0  0  0  0  0  0  0  0
   -0.8045   -3.7110    1.3421 C   0  0  2  0  0  0  0  0  0  0  0  0
   -0.5467   -2.2184    1.6277 C   0  0  0  0  0  0  0  0  0  0  0  0
   -0.1296   -1.8944    2.7326 O   0  0  0  0  0  0  0  0  0  0  0  0
   -2.0473   -4.2047    2.0867 C   0  0  0  0  0  0  0  0  0  0  0  0
    0.7085   -4.3096    2.7026 H   0  0  0  0  0  0  0  0  0  0  0  0
   -0.9778   -3.8269    0.2674 H   0  0  0  0  0  0  0  0  0  0  0  0
   -1.9151   -4.0989    3.1685 H   0  0  0  0  0  0  0  0  0  0  0  0
   -2.9270   -3.6275    1.7862 H   0  0  0  0  0  0  0  0  0  0  0  0
   -2.2297   -5.2594    1.8590 H   0  0  0  0  0  0  0  0  0  0  0  0
   -0.9886   -1.2570    0.7323 N   0  0  0  0  0  0  0  0  0  0  0  0
   -0.2991    0.0106    0.3724 C   0  0  2  0  0  0  0  0  0  0  0  0
    0.8563    0.4176    1.3459 C   0  0  0  0  0  0  0  0  0  0  0  0
    1.8560   -0.2941    1.3555 O   0  0  0  0  0  0  0  0  0  0  0  0
   -1.4372    1.0642    0.1236 C   0  0  2  0  0  0  0  0  0  0  0  0
   -2.3135    0.6077   -1.0822 C   0  0  0  0  0  0  0  0  0  0  0  0
   -0.8779    2.4707   -0.2134 C   0  0  0  0  0  0  0  0  0  0  0  0
   -3.6113    1.4107   -1.2535 C   0  0  0  0  0  0  0  0  0  0  0  0
   -1.4906   -1.6730   -0.0451 H   0  0  0  0  0  0  0  0  0  0  0  0
    0.2112   -0.1470   -0.5835 H   0  0  0  0  0  0  0  0  0  0  0  0
   -2.0637    1.1338    1.0202 H   0  0  0  0  0  0  0  0  0  0  0  0
   -1.7279    0.6663   -2.0061 H   0  0  0  0  0  0  0  0  0  0  0  0
   -2.6146   -0.4348   -0.9554 H   0  0  0  0  0  0  0  0  0  0  0  0
    0.0725    2.3886   -0.7508 H   0  0  0  0  0  0  0  0  0  0  0  0
   -0.7257    3.0572    0.6958 H   0  0  0  0  0  0  0  0  0  0  0  0
   -1.5558    3.0549   -0.8366 H   0  0  0  0  0  0  0  0  0  0  0  0
   -4.1535    1.4652   -0.3044 H   0  0  0  0  0  0  0  0  0  0  0  0
   -4.2540    0.9166   -1.9884 H   0  0  0  0  0  0  0  0  0  0  0  0
   -3.4236    2.4261   -1.6097 H   0  0  0  0  0  0  0  0  0  0  0  0
    1.0413    1.6934    1.8443 N   0  0  0  0  0  0  0  0  0  0  0  0
    2.1562    2.1029    2.7067 C   0  0  2  0  0  0  0  0  0  0  0  0
    1.7085    3.1899    3.7058 C   0  0  0  0  0  0  0  0  0  0  0  0
    0.6483    3.7845    3.5350 O   0  0  0  0  0  0  0  0  0  0  0  0
    3.2935    2.6246    1.8227 C   0  0  0  0  0  0  0  0  0  0  0  0
    0.2087    2.2775    1.8978 H   0  0  0  0  0  0  0  0  0  0  0  0
    2.5094    1.2441    3.2880 H   0  0  0  0  0  0  0  0  0  0  0  0
    2.9572    3.4864    1.2376 H   0  0  0  0  0  0  0  0  0  0  0  0
    4.1479    2.9288    2.4345 H   0  0  0  0  0  0  0  0  0  0  0  0
    3.6263    1.8433    1.1322 H   0  0  0  0  0  0  0  0  0  0  0  0
    2.4953    3.5074    4.7977 N   0  0  0  0  0  0  0  0  0  0  0  0
    2.1300    4.5201    5.7805 C   0  0  0  0  0  0  0  0  0  0  0  0
    3.3578    2.9855    4.9238 H   0  0  0  0  0  0  0  0  0  0  0  0
    2.0476    5.5028    5.3041 H   0  0  0  0  0  0  0  0  0  0  0  0
    1.1711    4.2727    6.2481 H   0  0  0  0  0  0  0  0  0  0  0  0
    2.8910    4.5787    6.5645 H   0  0  0  0  0  0  0  0  0  0  0  0
  1  2  2  0  0  0  0
  1  3  1  0  0  0  0
  1  7  1  0  0  0  0
  3  4  1  0  0  0  0
  3  5  1  0  0  0  0
  3  6  1  0  0  0  0
  7  8  1  0  0  0  0
  7 12  1  0  0  0  0
  8  9  1  0  0  0  0
  8 11  1  0  0  0  0
  8 13  1  0  0  0  0
  9 10  2  0  0  0  0
  9 17  1  0  0  0  0
 11 14  1  0  0  0  0
 11 15  1  0  0  0  0
 11 16  1  0  0  0  0
 17 18  1  0  0  0  0
 17 25  1  0  0  0  0
 18 19  1  0  0  0  0
 18 21  1  0  0  0  0
 18 26  1  0  0  0  0
 19 20  2  0  0  0  0
 19 36  1  0  0  0  0
 21 22  1  0  0  0  0
 21 23  1  0  0  0  0
 21 27  1  0  0  0  0
 22 24  1  0  0  0  0
 22 28  1  0  0  0  0
 22 29  1  0  0  0  0
 23 30  1  0  0  0  0
 23 31  1  0  0  0  0
 23 32  1  0  0  0  0
 24 33  1  0  0  0  0
 24 34  1  0  0  0  0
 24 35  1  0  0  0  0
 36 37  1  0  0  0  0
 36 41  1  0  0  0  0
 37 38  1  0  0  0  0
 37 40  1  0  0  0  0
 37 42  1  0  0  0  0
 38 39  2  0  0  0  0
 38 46  1  0  0  0  0
 40 43  1  0  0  0  0
 40 44  1  0  0  0  0
 40 45  1  0  0  0  0
 46 47  1  0  0  0  0
 46 48  1  0  0  0  0
 47 49  1  0  0  0  0
 47 50  1  0  0  0  0
 47 51  1  0  0  0  0
M  END
$$$$

  -OEChem-05262216503D

 51 50  0     1  0  0  0  0  0999 V2000
    1.1204   -5.2386    0.8499 C   0  0  0  0  0  0  0  0  0  0  0  0
    0.8114   -5.2879   -0.3309 O   0  0  0  0  0  0  0  0  0  0  0  0
    2.4174   -5.8682    1.3220 C   0  0  0  0  0  0  0  0  0  0  0  0
    2.9590   -6.2969    0.4742 H   0  0  0  0  0  0  0  0  0  0  0  0
    3.0485   -5.1116    1.7954 H   0  0  0  0  0  0  0  0  0  0  0  0
    2.2063   -6.6613    2.0435 H   0  0  0  0  0  0  0  0  0  0  0  0
    0.3036   -4.5989    1.7595 N   0  0  0  0  0  0  0  0  0  0  0  0
   -0.7932   -3.7051    1.3657 C   0  0  2  0  0  0  0  0  0  0  0  0
   -0.4043   -2.2299    1.5883 C   0  0  0  0  0  0  0  0  0  0  0  0
    0.1682   -1.9277    2.6271 O   0  0  0  0  0  0  0  0  0  0  0  0
   -2.0258   -4.0750    2.1932 C   0  0  0  0  0  0  0  0  0  0  0  0
    0.7217   -4.4158    2.6698 H   0  0  0  0  0  0  0  0  0  0  0  0
   -1.0392   -3.8357    0.3072 H   0  0  0  0  0  0  0  0  0  0  0  0
   -1.8233   -3.9478    3.2616 H   0  0  0  0  0  0  0  0  0  0  0  0
   -2.8732   -3.4380    1.9219 H   0  0  0  0  0  0  0  0  0  0  0  0
   -2.3036   -5.1180    2.0119 H   0  0  0  0  0  0  0  0  0  0  0  0
   -0.8646   -1.2654    0.7040 N   0  0  0  0  0  0  0  0  0  0  0  0
   -0.2359    0.0369    0.3616 C   0  0  2  0  0  0  0  0  0  0  0  0
    0.8870    0.4864    1.3478 C   0  0  0  0  0  0  0  0  0  0  0  0
    1.9870   -0.0431    1.2270 O   0  0  0  0  0  0  0  0  0  0  0  0
   -1.4044    1.0518    0.1124 C   0  0  2  0  0  0  0  0  0  0  0  0
   -2.2507    0.5755   -1.1059 C   0  0  0  0  0  0  0  0  0  0  0  0
   -0.8773    2.4725   -0.2170 C   0  0  0  0  0  0  0  0  0  0  0  0
   -3.5730    1.3348   -1.2828 C   0  0  0  0  0  0  0  0  0  0  0  0
   -1.4166   -1.6651   -0.0479 H   0  0  0  0  0  0  0  0  0  0  0  0
    0.2889   -0.0909   -0.5910 H   0  0  0  0  0  0  0  0  0  0  0  0
   -2.0402    1.0992    1.0035 H   0  0  0  0  0  0  0  0  0  0  0  0
   -1.6587    0.6613   -2.0234 H   0  0  0  0  0  0  0  0  0  0  0  0
   -2.5162   -0.4780   -0.9900 H   0  0  0  0  0  0  0  0  0  0  0  0
    0.0091    2.4129   -0.8568 H   0  0  0  0  0  0  0  0  0  0  0  0
   -1.6216    3.0799   -0.7335 H   0  0  0  0  0  0  0  0  0  0  0  0
   -0.6229    3.0250    0.6891 H   0  0  0  0  0  0  0  0  0  0  0  0
   -4.1284    1.3591   -0.3400 H   0  0  0  0  0  0  0  0  0  0  0  0
   -4.1901    0.8295   -2.0322 H   0  0  0  0  0  0  0  0  0  0  0  0
   -3.4131    2.3602   -1.6239 H   0  0  0  0  0  0  0  0  0  0  0  0
    0.8459    1.6528    2.0880 N   0  0  0  0  0  0  0  0  0  0  0  0
    1.8999    2.0848    3.0130 C   0  0  2  0  0  0  0  0  0  0  0  0
    1.3083    2.8466    4.2165 C   0  0  0  0  0  0  0  0  0  0  0  0
    0.1596    3.2761    4.1711 O   0  0  0  0  0  0  0  0  0  0  0  0
    2.8856    2.9737    2.2482 C   0  0  0  0  0  0  0  0  0  0  0  0
   -0.0784    2.0507    2.2490 H   0  0  0  0  0  0  0  0  0  0  0  0
    2.4275    1.2082    3.4049 H   0  0  0  0  0  0  0  0  0  0  0  0
    2.3749    3.8561    1.8496 H   0  0  0  0  0  0  0  0  0  0  0  0
    3.6942    3.3050    2.9062 H   0  0  0  0  0  0  0  0  0  0  0  0
    3.3268    2.4199    1.4135 H   0  0  0  0  0  0  0  0  0  0  0  0
    2.0684    3.0609    5.3515 N   0  0  0  0  0  0  0  0  0  0  0  0
    1.5681    3.7563    6.5308 C   0  0  0  0  0  0  0  0  0  0  0  0
    3.0033    2.6640    5.3723 H   0  0  0  0  0  0  0  0  0  0  0  0
    1.2417    4.7686    6.2691 H   0  0  0  0  0  0  0  0  0  0  0  0
    0.7216    3.2136    6.9644 H   0  0  0  0  0  0  0  0  0  0  0  0
    2.3550    3.8327    7.2877 H   0  0  0  0  0  0  0  0  0  0  0  0
  1  2  2  0  0  0  0
  1  3  1  0  0  0  0
  1  7  1  0  0  0  0
  3  4  1  0  0  0  0
  3  5  1  0  0  0  0
  3  6  1  0  0  0  0
  7  8  1  0  0  0  0
  7 12  1  0  0  0  0
  8  9  1  0  0  0  0
  8 11  1  0  0  0  0
  8 13  1  0  0  0  0
  9 10  2  0  0  0  0
  9 17  1  0  0  0  0
 11 14  1  0  0  0  0
 11 15  1  0  0  0  0
 11 16  1  0  0  0  0
 17 18  1  0  0  0  0
 17 25  1  0  0  0  0
 18 19  1  0  0  0  0
 18 21  1  0  0  0  0
 18 26  1  0  0  0  0
 19 20  2  0  0  0  0
 19 36  1  0  0  0  0
 21 22  1  0  0  0  0
 21 23  1  0  0  0  0
 21 27  1  0  0  0  0
 22 24  1  0  0  0  0
 22 28  1  0  0  0  0
 22 29  1  0  0  0  0
 23 30  1  0  0  0  0
 23 31  1  0  0  0  0
 23 32  1  0  0  0  0
 24 33  1  0  0  0  0
 24 34  1  0  0  0  0
 24 35  1  0  0  0  0
 36 37  1  0  0  0  0
 36 41  1  0  0  0  0
 37 38  1  0  0  0  0
 37 40  1  0  0  0  0
 37 42  1  0  0  0  0
 38 39  2  0  0  0  0
 38 46  1  0  0  0  0
 40 43  1  0  0  0  0
 40 44  1  0  0  0  0
 40 45  1  0  0  0  0
 46 47  1  0  0  0  0
 46 48  1  0  0  0  0
 47 49  1  0  0  0  0
 47 50  1  0  0  0  0
 47 51  1  0  0  0  0
M  END
$$$$

  -OEChem-05262216503D

 51 50  0     1  0  0  0  0  0999 V2000
    0.9755   -5.3701    0.7752 C   0  0  0  0  0  0  0  0  0  0  0  0
    0.5764   -5.3908   -0.3790 O   0  0  0  0  0  0  0  0  0  0  0  0
    2.2295   -6.1336    1.1584 C   0  0  0  0  0  0  0  0  0  0  0  0
    2.7063   -6.5485    0.2659 H   0  0  0  0  0  0  0  0  0  0  0  0
    2.9366   -5.4646    1.6549 H   0  0  0  0  0  0  0  0  0  0  0  0
    1.9758   -6.9526    1.8358 H   0  0  0  0  0  0  0  0  0  0  0  0
    0.2988   -4.6447    1.7342 N   0  0  0  0  0  0  0  0  0  0  0  0
   -0.7456   -3.6624    1.4136 C   0  0  2  0  0  0  0  0  0  0  0  0
   -0.2119   -2.2198    1.5289 C   0  0  0  0  0  0  0  0  0  0  0  0
    0.5260   -1.9486    2.4663 O   0  0  0  0  0  0  0  0  0  0  0  0
   -1.9124   -3.8860    2.3779 C   0  0  0  0  0  0  0  0  0  0  0  0
    0.8031   -4.4928    2.6055 H   0  0  0  0  0  0  0  0  0  0  0  0
   -1.1128   -3.8083    0.3927 H   0  0  0  0  0  0  0  0  0  0  0  0
   -1.5898   -3.7350    3.4133 H   0  0  0  0  0  0  0  0  0  0  0  0
   -2.7260   -3.1866    2.1623 H   0  0  0  0  0  0  0  0  0  0  0  0
   -2.2961   -4.9060    2.2767 H   0  0  0  0  0  0  0  0  0  0  0  0
   -0.6846   -1.2561    0.6478 N   0  0  0  0  0  0  0  0  0  0  0  0
   -0.1230    0.0823    0.3297 C   0  0  2  0  0  0  0  0  0  0  0  0
    0.9451    0.5773    1.3476 C   0  0  0  0  0  0  0  0  0  0  0  0
    2.1197    0.2971    1.1344 O   0  0  0  0  0  0  0  0  0  0  0  0
   -1.3179    1.0600    0.0804 C   0  0  2  0  0  0  0  0  0  0  0  0
   -2.1339    0.5771   -1.1529 C   0  0  0  0  0  0  0  0  0  0  0  0
   -0.8363    2.4981   -0.2425 C   0  0  0  0  0  0  0  0  0  0  0  0
   -3.4730    1.3035   -1.3259 C   0  0  0  0  0  0  0  0  0  0  0  0
   -1.3096   -1.6337   -0.0572 H   0  0  0  0  0  0  0  0  0  0  0  0
    0.4251   -0.0086   -0.6143 H   0  0  0  0  0  0  0  0  0  0  0  0
   -1.9576    1.0798    0.9697 H   0  0  0  0  0  0  0  0  0  0  0  0
   -1.5377    0.6928   -2.0645 H   0  0  0  0  0  0  0  0  0  0  0  0
   -2.3685   -0.4856   -1.0530 H   0  0  0  0  0  0  0  0  0  0  0  0
   -0.1478    2.4873   -1.0936 H   0  0  0  0  0  0  0  0  0  0  0  0
   -1.6773    3.1499   -0.4877 H   0  0  0  0  0  0  0  0  0  0  0  0
   -0.3289    2.9696    0.5988 H   0  0  0  0  0  0  0  0  0  0  0  0
   -4.0400    1.2906   -0.3898 H   0  0  0  0  0  0  0  0  0  0  0  0
   -4.0676    0.8028   -2.0962 H   0  0  0  0  0  0  0  0  0  0  0  0
   -3.3296    2.3412   -1.6382 H   0  0  0  0  0  0  0  0  0  0  0  0
    0.6828    1.5474    2.2970 N   0  0  0  0  0  0  0  0  0  0  0  0
    1.6456    1.9687    3.3198 C   0  0  2  0  0  0  0  0  0  0  0  0
    0.9374    2.2985    4.6496 C   0  0  0  0  0  0  0  0  0  0  0  0
   -0.2746    2.4916    4.6734 O   0  0  0  0  0  0  0  0  0  0  0  0
    2.4059    3.1900    2.7954 C   0  0  0  0  0  0  0  0  0  0  0  0
   -0.2995    1.6945    2.5250 H   0  0  0  0  0  0  0  0  0  0  0  0
    2.3530    1.1562    3.5184 H   0  0  0  0  0  0  0  0  0  0  0  0
    1.7132    4.0141    2.5972 H   0  0  0  0  0  0  0  0  0  0  0  0
    3.1479    3.5244    3.5266 H   0  0  0  0  0  0  0  0  0  0  0  0
    2.9264    2.9407    1.8652 H   0  0  0  0  0  0  0  0  0  0  0  0
    1.6615    2.3872    5.8243 N   0  0  0  0  0  0  0  0  0  0  0  0
    1.0544    2.6729    7.1181 C   0  0  0  0  0  0  0  0  0  0  0  0
    2.6560    2.1849    5.7793 H   0  0  0  0  0  0  0  0  0  0  0  0
    0.5496    3.6447    7.0977 H   0  0  0  0  0  0  0  0  0  0  0  0
    0.3227    1.8998    7.3762 H   0  0  0  0  0  0  0  0  0  0  0  0
    1.8208    2.6991    7.8988 H   0  0  0  0  0  0  0  0  0  0  0  0
  1  2  2  0  0  0  0
  1  3  1  0  0  0  0
  1  7  1  0  0  0  0
  3  4  1  0  0  0  0
  3  5  1  0  0  0  0
  3  6  1  0  0  0  0
  7  8  1  0  0  0  0
  7 12  1  0  0  0  0
  8  9  1  0  0  0  0
  8 11  1  0  0  0  0
  8 13  1  0  0  0  0
  9 10  2  0  0  0  0
  9 17  1  0  0  0  0
 11 14  1  0  0  0  0
 11 15  1  0  0  0  0
 11 16  1  0  0  0  0
 17 18  1  0  0  0  0
 17 25  1  0  0  0  0
 18 19  1  0  0  0  0
 18 21  1  0  0  0  0
 18 26  1  0  0  0  0
 19 20  2  0  0  0  0
 19 36  1  0  0  0  0
 21 22  1  0  0  0  0
 21 23  1  0  0  0  0
 21 27  1  0  0  0  0
 22 24  1  0  0  0  0
 22 28  1  0  0  0  0
 22 29  1  0  0  0  0
 23 30  1  0  0  0  0
 23 31  1  0  0  0  0
 23 32  1  0  0  0  0
 24 33  1  0  0  0  0
 24 34  1  0  0  0  0
 24 35  1  0  0  0  0
 36 37  1  0  0  0  0
 36 41  1  0  0  0  0
 37 38  1  0  0  0  0
 37 40  1  0  0  0  0
 37 42  1  0  0  0  0
 38 39  2  0  0  0  0
 38 46  1  0  0  0  0
 40 43  1  0  0  0  0
 40 44  1  0  0  0  0
 40 45  1  0  0  0  0
 46 47  1  0  0  0  0
 46 48  1  0  0  0  0
 47 49  1  0  0  0  0
 47 50  1  0  0  0  0
 47 51  1  0  0  0  0
M  END
$$$$

  -OEChem-05262216503D

 51 50  0     1  0  0  0  0  0999 V2000
    0.8252   -5.4541    0.7052 C   0  0  0  0  0  0  0  0  0  0  0  0
    0.3161   -5.4595   -0.4049 O   0  0  0  0  0  0  0  0  0  0  0  0
    2.0545   -6.3001    0.9799 C   0  0  0  0  0  0  0  0  0  0  0  0
    2.4076   -6.7642    0.0546 H   0  0  0  0  0  0  0  0  0  0  0  0
    2.8546   -5.6764    1.3862 H   0  0  0  0  0  0  0  0  0  0  0  0
    1.8126   -7.0860    1.6994 H   0  0  0  0  0  0  0  0  0  0  0  0
    0.2967   -4.6689    1.7094 N   0  0  0  0  0  0  0  0  0  0  0  0
   -0.7051   -3.6205    1.4696 C   0  0  2  0  0  0  0  0  0  0  0  0
   -0.0633   -2.2175    1.4739 C   0  0  0  0  0  0  0  0  0  0  0  0
    0.7975   -1.9756    2.3086 O   0  0  0  0  0  0  0  0  0  0  0  0
   -1.7695   -3.7246    2.5644 C   0  0  0  0  0  0  0  0  0  0  0  0
    0.8888   -4.5451    2.5282 H   0  0  0  0  0  0  0  0  0  0  0  0
   -1.1954   -3.7695    0.5022 H   0  0  0  0  0  0  0  0  0  0  0  0
   -1.3226   -3.5676    3.5515 H   0  0  0  0  0  0  0  0  0  0  0  0
   -2.5483   -2.9707    2.4129 H   0  0  0  0  0  0  0  0  0  0  0  0
   -2.2367   -4.7142    2.5455 H   0  0  0  0  0  0  0  0  0  0  0  0
   -0.5388   -1.2574    0.5909 N   0  0  0  0  0  0  0  0  0  0  0  0
   -0.0250    0.1079    0.3145 C   0  0  2  0  0  0  0  0  0  0  0  0
    0.9781    0.6490    1.3701 C   0  0  0  0  0  0  0  0  0  0  0  0
    2.1763    0.6458    1.1117 O   0  0  0  0  0  0  0  0  0  0  0  0
   -1.2448    1.0506    0.0702 C   0  0  2  0  0  0  0  0  0  0  0  0
   -2.0322    0.5855   -1.1854 C   0  0  0  0  0  0  0  0  0  0  0  0
   -0.7946    2.5119   -0.1748 C   0  0  0  0  0  0  0  0  0  0  0  0
   -3.3871    1.2843   -1.3459 C   0  0  0  0  0  0  0  0  0  0  0  0
   -1.2240   -1.6103   -0.0700 H   0  0  0  0  0  0  0  0  0  0  0  0
    0.5496    0.0590   -0.6168 H   0  0  0  0  0  0  0  0  0  0  0  0
   -1.8994    1.0190    0.9485 H   0  0  0  0  0  0  0  0  0  0  0  0
   -1.4295    0.7489   -2.0851 H   0  0  0  0  0  0  0  0  0  0  0  0
   -2.2367   -0.4863   -1.1229 H   0  0  0  0  0  0  0  0  0  0  0  0
   -0.1298    2.5665   -1.0430 H   0  0  0  0  0  0  0  0  0  0  0  0
   -1.6540    3.1619   -0.3551 H   0  0  0  0  0  0  0  0  0  0  0  0
   -0.2663    2.9312    0.6835 H   0  0  0  0  0  0  0  0  0  0  0  0
   -3.9713    1.2053   -0.4238 H   0  0  0  0  0  0  0  0  0  0  0  0
   -3.9532    0.8121   -2.1546 H   0  0  0  0  0  0  0  0  0  0  0  0
   -3.2647    2.3414   -1.5966 H   0  0  0  0  0  0  0  0  0  0  0  0
    0.5455    1.3557    2.4778 N   0  0  0  0  0  0  0  0  0  0  0  0
    1.4277    1.7500    3.5802 C   0  0  2  0  0  0  0  0  0  0  0  0
    0.7045    1.6380    4.9376 C   0  0  0  0  0  0  0  0  0  0  0  0
   -0.5208    1.5808    4.9837 O   0  0  0  0  0  0  0  0  0  0  0  0
    1.8992    3.1860    3.3348 C   0  0  0  0  0  0  0  0  0  0  0  0
   -0.4380    1.2427    2.7188 H   0  0  0  0  0  0  0  0  0  0  0  0
    2.2957    1.0827    3.6161 H   0  0  0  0  0  0  0  0  0  0  0  0
    1.0435    3.8674    3.2931 H   0  0  0  0  0  0  0  0  0  0  0  0
    2.5681    3.5135    4.1364 H   0  0  0  0  0  0  0  0  0  0  0  0
    2.4416    3.2484    2.3859 H   0  0  0  0  0  0  0  0  0  0  0  0
    1.4300    1.6082    6.1142 N   0  0  0  0  0  0  0  0  0  0  0  0
    0.8176    1.4726    7.4298 C   0  0  0  0  0  0  0  0  0  0  0  0
    2.4431    1.6041    6.0392 H   0  0  0  0  0  0  0  0  0  0  0  0
    0.1302    2.3037    7.6204 H   0  0  0  0  0  0  0  0  0  0  0  0
    0.2613    0.5317    7.4983 H   0  0  0  0  0  0  0  0  0  0  0  0
    1.5874    1.4767    8.2077 H   0  0  0  0  0  0  0  0  0  0  0  0
  1  2  2  0  0  0  0
  1  3  1  0  0  0  0
  1  7  1  0  0  0  0
  3  4  1  0  0  0  0
  3  5  1  0  0  0  0
  3  6  1  0  0  0  0
  7  8  1  0  0  0  0
  7 12  1  0  0  0  0
  8  9  1  0  0  0  0
  8 11  1  0  0  0  0
  8 13  1  0  0  0  0
  9 10  2  0  0  0  0
  9 17  1  0  0  0  0
 11 14  1  0  0  0  0
 11 15  1  0  0  0  0
 11 16  1  0  0  0  0
 17 18  1  0  0  0  0
 17 25  1  0  0  0  0
 18 19  1  0  0  0  0
 18 21  1  0  0  0  0
 18 26  1  0  0  0  0
 19 20  2  0  0  0  0
 19 36  1  0  0  0  0
 21 22  1  0  0  0  0
 21 23  1  0  0  0  0
 21 27  1  0  0  0  0
 22 24  1  0  0  0  0
 22 28  1  0  0  0  0
 22 29  1  0  0  0  0
 23 30  1  0  0  0  0
 23 31  1  0  0  0  0
 23 32  1  0  0  0  0
 24 33  1  0  0  0  0
 24 34  1  0  0  0  0
 24 35  1  0  0  0  0
 36 37  1  0  0  0  0
 36 41  1  0  0  0  0
 37 38  1  0  0  0  0
 37 40  1  0  0  0  0
 37 42  1  0  0  0  0
 38 39  2  0  0  0  0
 38 46  1  0  0  0  0
 40 43  1  0  0  0  0
 40 44  1  0  0  0  0
 40 45  1  0  0  0  0
 46 47  1  0  0  0  0
 46 48  1  0  0  0  0
 47 49  1  0  0  0  0
 47 50  1  0  0  0  0
 47 51  1  0  0  0  0
M  END
$$$$

  -OEChem-05262216503D

 51 50  0     1  0  0  0  0  0999 V2000
    0.6820   -5.4041    0.7082 C   0  0  0  0  0  0  0  0  0  0  0  0
    0.0739   -5.3462   -0.3496 O   0  0  0  0  0  0  0  0  0  0  0  0
    1.8709   -6.3348    0.8522 C   0  0  0  0  0  0  0  0  0  0  0  0
    1.9836   -6.9445   -0.0485 H   0  0  0  0  0  0  0  0  0  0  0  0
    2.7834   -5.7521    1.0010 H   0  0  0  0  0  0  0  0  0  0  0  0
    1.7254   -6.9971    1.7090 H   0  0  0  0  0  0  0  0  0  0  0  0
    0.3078   -4.6062    1.7693 N   0  0  0  0  0  0  0  0  0  0  0  0
   -0.6452   -3.4965    1.6386 C   0  0  2  0  0  0  0  0  0  0  0  0
    0.0795   -2.1451    1.4748 C   0  0  0  0  0  0  0  0  0  0  0  0
    1.0441   -1.9102    2.1898 O   0  0  0  0  0  0  0  0  0  0  0  0
   -1.5251   -3.4839    2.8906 C   0  0  0  0  0  0  0  0  0  0  0  0
    0.9802   -4.5388    2.5301 H   0  0  0  0  0  0  0  0  0  0  0  0
   -1.2940   -3.6474    0.7698 H   0  0  0  0  0  0  0  0  0  0  0  0
   -0.9174   -3.3220    3.7870 H   0  0  0  0  0  0  0  0  0  0  0  0
   -2.2677   -2.6826    2.8270 H   0  0  0  0  0  0  0  0  0  0  0  0
   -2.0517   -4.4378    2.9926 H   0  0  0  0  0  0  0  0  0  0  0  0
   -0.4084   -1.2214    0.5601 N   0  0  0  0  0  0  0  0  0  0  0  0
    0.0484    0.1647    0.2917 C   0  0  2  0  0  0  0  0  0  0  0  0
    0.9727    0.7679    1.3794 C   0  0  0  0  0  0  0  0  0  0  0  0
    2.1402    1.0334    1.1178 O   0  0  0  0  0  0  0  0  0  0  0  0
   -1.2040    1.0516    0.0181 C   0  0  2  0  0  0  0  0  0  0  0  0
   -1.9452    0.5590   -1.2532 C   0  0  0  0  0  0  0  0  0  0  0  0
   -0.8117    2.5345   -0.1756 C   0  0  0  0  0  0  0  0  0  0  0  0
   -3.3233    1.2041   -1.4366 C   0  0  0  0  0  0  0  0  0  0  0  0
   -1.1641   -1.5660   -0.0238 H   0  0  0  0  0  0  0  0  0  0  0  0
    0.6547    0.1417   -0.6204 H   0  0  0  0  0  0  0  0  0  0  0  0
   -1.8784    0.9785    0.8783 H   0  0  0  0  0  0  0  0  0  0  0  0
   -1.3315    0.7554   -2.1390 H   0  0  0  0  0  0  0  0  0  0  0  0
   -2.1040   -0.5213   -1.2010 H   0  0  0  0  0  0  0  0  0  0  0  0
   -0.1115    2.6391   -1.0107 H   0  0  0  0  0  0  0  0  0  0  0  0
   -1.6900    3.1513   -0.3802 H   0  0  0  0  0  0  0  0  0  0  0  0
   -0.3415    2.9471    0.7210 H   0  0  0  0  0  0  0  0  0  0  0  0
   -3.9221    1.0950   -0.5271 H   0  0  0  0  0  0  0  0  0  0  0  0
   -3.8536    0.7159   -2.2599 H   0  0  0  0  0  0  0  0  0  0  0  0
   -3.2373    2.2670   -1.6774 H   0  0  0  0  0  0  0  0  0  0  0  0
    0.4383    1.1814    2.5853 N   0  0  0  0  0  0  0  0  0  0  0  0
    1.2644    1.4390    3.7674 C   0  0  2  0  0  0  0  0  0  0  0  0
    0.6215    0.8187    5.0254 C   0  0  0  0  0  0  0  0  0  0  0  0
   -0.5619    0.4897    5.0177 O   0  0  0  0  0  0  0  0  0  0  0  0
    1.4265    2.9525    3.9215 C   0  0  0  0  0  0  0  0  0  0  0  0
   -0.4926    0.8191    2.7864 H   0  0  0  0  0  0  0  0  0  0  0  0
    2.2506    0.9782    3.6438 H   0  0  0  0  0  0  0  0  0  0  0  0
    0.4502    3.4301    4.0511 H   0  0  0  0  0  0  0  0  0  0  0  0
    2.0486    3.1864    4.7904 H   0  0  0  0  0  0  0  0  0  0  0  0
    1.9048    3.3720    3.0306 H   0  0  0  0  0  0  0  0  0  0  0  0
    1.3669    0.6374    6.1760 N   0  0  0  0  0  0  0  0  0  0  0  0
    0.8304    0.0351    7.3899 C   0  0  0  0  0  0  0  0  0  0  0  0
    2.3556    0.8674    6.1347 H   0  0  0  0  0  0  0  0  0  0  0  0
   -0.0141    0.6214    7.7674 H   0  0  0  0  0  0  0  0  0  0  0  0
    0.4903   -0.9869    7.1924 H   0  0  0  0  0  0  0  0  0  0  0  0
    1.5998   -0.0003    8.1671 H   0  0  0  0  0  0  0  0  0  0  0  0
  1  2  2  0  0  0  0
  1  3  1  0  0  0  0
  1  7  1  0  0  0  0
  3  4  1  0  0  0  0
  3  5  1  0  0  0  0
  3  6  1  0  0  0  0
  7  8  1  0  0  0  0
  7 12  1  0  0  0  0
  8  9  1  0  0  0  0
  8 11  1  0  0  0  0
  8 13  1  0  0  0  0
  9 10  2  0  0  0  0
  9 17  1  0  0  0  0
 11 14  1  0  0  0  0
 11 15  1  0  0  0  0
 11 16  1  0  0  0  0
 17 18  1  0  0  0  0
 17 25  1  0  0  0  0
 18 19  1  0  0  0  0
 18 21  1  0  0  0  0
 18 26  1  0  0  0  0
 19 20  2  0  0  0  0
 19 36  1  0  0  0  0
 21 22  1  0  0  0  0
 21 23  1  0  0  0  0
 21 27  1  0  0  0  0
 22 24  1  0  0  0  0
 22 28  1  0  0  0  0
 22 29  1  0  0  0  0
 23 30  1  0  0  0  0
 23 31  1  0  0  0  0
 23 32  1  0  0  0  0
 24 33  1  0  0  0  0
 24 34  1  0  0  0  0
 24 35  1  0  0  0  0
 36 37  1  0  0  0  0
 36 41  1  0  0  0  0
 37 38  1  0  0  0  0
 37 40  1  0  0  0  0
 37 42  1  0  0  0  0
 38 39  2  0  0  0  0
 38 46  1  0  0  0  0
 40 43  1  0  0  0  0
 40 44  1  0  0  0  0
 40 45  1  0  0  0  0
 46 47  1  0  0  0  0
 46 48  1  0  0  0  0
 47 49  1  0  0  0  0
 47 50  1  0  0  0  0
 47 51  1  0  0  0  0
M  END
$$$$

  -OEChem-05262216503D

 51 50  0     1  0  0  0  0  0999 V2000
   -0.7648   -4.3577    0.3985 C   0  0  0  0  0  0  0  0  0  0  0  0
   -1.5276   -3.4329    0.1606 O   0  0  0  0  0  0  0  0  0  0  0  0
   -0.6126   -5.4994   -0.5887 C   0  0  0  0  0  0  0  0  0  0  0  0
    0.4084   -5.5237   -0.9781 H   0  0  0  0  0  0  0  0  0  0  0  0
   -0.8307   -6.4508   -0.0976 H   0  0  0  0  0  0  0  0  0  0  0  0
   -1.3055   -5.3691   -1.4249 H   0  0  0  0  0  0  0  0  0  0  0  0
    0.0042   -4.3228    1.5431 N   0  0  0  0  0  0  0  0  0  0  0  0
   -0.0697   -3.2544    2.5525 C   0  0  2  0  0  0  0  0  0  0  0  0
    0.6910   -1.9743    2.1257 C   0  0  0  0  0  0  0  0  0  0  0  0
    1.6445   -1.5632    2.7734 O   0  0  0  0  0  0  0  0  0  0  0  0
    0.4331   -3.8399    3.8776 C   0  0  0  0  0  0  0  0  0  0  0  0
    0.6865   -5.0645    1.6723 H   0  0  0  0  0  0  0  0  0  0  0  0
   -1.1159   -2.9653    2.7014 H   0  0  0  0  0  0  0  0  0  0  0  0
    1.4861   -4.1282    3.7993 H   0  0  0  0  0  0  0  0  0  0  0  0
    0.3353   -3.0981    4.6764 H   0  0  0  0  0  0  0  0  0  0  0  0
   -0.1542   -4.7210    4.1536 H   0  0  0  0  0  0  0  0  0  0  0  0
    0.2970   -1.3240    0.9649 N   0  0  0  0  0  0  0  0  0  0  0  0
    0.5396    0.0894    0.5839 C   0  0  2  0  0  0  0  0  0  0  0  0
    0.9900    1.0042    1.7480 C   0  0  0  0  0  0  0  0  0  0  0  0
    2.0268    1.6531    1.6737 O   0  0  0  0  0  0  0  0  0  0  0  0
   -0.7344    0.6349   -0.1244 C   0  0  2  0  0  0  0  0  0  0  0  0
   -0.9986   -0.1520   -1.4345 C   0  0  0  0  0  0  0  0  0  0  0  0
   -0.5963    2.1393   -0.4460 C   0  0  0  0  0  0  0  0  0  0  0  0
   -2.3715    0.1404   -2.0480 C   0  0  0  0  0  0  0  0  0  0  0  0
   -0.4766   -1.7946    0.4871 H   0  0  0  0  0  0  0  0  0  0  0  0
    1.3650    0.1012   -0.1356 H   0  0  0  0  0  0  0  0  0  0  0  0
   -1.5890    0.5022    0.5482 H   0  0  0  0  0  0  0  0  0  0  0  0
   -0.2181    0.0804   -2.1665 H   0  0  0  0  0  0  0  0  0  0  0  0
   -0.9533   -1.2269   -1.2454 H   0  0  0  0  0  0  0  0  0  0  0  0
    0.2788    2.3159   -1.0797 H   0  0  0  0  0  0  0  0  0  0  0  0
   -1.4815    2.5159   -0.9637 H   0  0  0  0  0  0  0  0  0  0  0  0
   -0.4882    2.7321    0.4669 H   0  0  0  0  0  0  0  0  0  0  0  0
   -3.1617   -0.0078   -1.3053 H   0  0  0  0  0  0  0  0  0  0  0  0
   -2.5542   -0.5395   -2.8858 H   0  0  0  0  0  0  0  0  0  0  0  0
   -2.4289    1.1642   -2.4268 H   0  0  0  0  0  0  0  0  0  0  0  0
    0.1565    1.1568    2.8404 N   0  0  0  0  0  0  0  0  0  0  0  0
    0.6780    1.4932    4.1673 C   0  0  2  0  0  0  0  0  0  0  0  0
    0.3989    0.3390    5.1529 C   0  0  0  0  0  0  0  0  0  0  0  0
   -0.5817   -0.3851    4.9913 O   0  0  0  0  0  0  0  0  0  0  0  0
    0.0079    2.7866    4.6315 C   0  0  0  0  0  0  0  0  0  0  0  0
   -0.6219    0.5003    2.8539 H   0  0  0  0  0  0  0  0  0  0  0  0
    1.7618    1.6454    4.1311 H   0  0  0  0  0  0  0  0  0  0  0  0
   -1.0775    2.6561    4.6903 H   0  0  0  0  0  0  0  0  0  0  0  0
    0.3794    3.0763    5.6189 H   0  0  0  0  0  0  0  0  0  0  0  0
    0.2254    3.5959    3.9274 H   0  0  0  0  0  0  0  0  0  0  0  0
    1.2377    0.1241    6.2310 N   0  0  0  0  0  0  0  0  0  0  0  0
    1.1125   -1.0263    7.1169 C   0  0  0  0  0  0  0  0  0  0  0  0
    2.1033    0.6559    6.2471 H   0  0  0  0  0  0  0  0  0  0  0  0
    0.0820   -1.1317    7.4726 H   0  0  0  0  0  0  0  0  0  0  0  0
    1.4009   -1.9432    6.5930 H   0  0  0  0  0  0  0  0  0  0  0  0
    1.7627   -0.9037    7.9882 H   0  0  0  0  0  0  0  0  0  0  0  0
  1  2  2  0  0  0  0
  1  3  1  0  0  0  0
  1  7  1  0  0  0  0
  3  4  1  0  0  0  0
  3  5  1  0  0  0  0
  3  6  1  0  0  0  0
  7  8  1  0  0  0  0
  7 12  1  0  0  0  0
  8  9  1  0  0  0  0
  8 11  1  0  0  0  0
  8 13  1  0  0  0  0
  9 10  2  0  0  0  0
  9 17  1  0  0  0  0
 11 14  1  0  0  0  0
 11 15  1  0  0  0  0
 11 16  1  0  0  0  0
 17 18  1  0  0  0  0
 17 25  1  0  0  0  0
 18 19  1  0  0  0  0
 18 21  1  0  0  0  0
 18 26  1  0  0  0  0
 19 20  2  0  0  0  0
 19 36  1  0  0  0  0
 21 22  1  0  0  0  0
 21 23  1  0  0  0  0
 21 27  1  0  0  0  0
 22 24  1  0  0  0  0
 22 28  1  0  0  0  0
 22 29  1  0  0  0  0
 23 30  1  0  0  0  0
 23 31  1  0  0  0  0
 23 32  1  0  0  0  0
 24 33  1  0  0  0  0
 24 34  1  0  0  0  0
 24 35  1  0  0  0  0
 36 37  1  0  0  0  0
 36 41  1  0  0  0  0
 37 38  1  0  0  0  0
 37 40  1  0  0  0  0
 37 42  1  0  0  0  0
 38 39  2  0  0  0  0
 38 46  1  0  0  0  0
 40 43  1  0  0  0  0
 40 44  1  0  0  0  0
 40 45  1  0  0  0  0
 46 47  1  0  0  0  0
 46 48  1  0  0  0  0
 47 49  1  0  0  0  0
 47 50  1  0  0  0  0
 47 51  1  0  0  0  0
M  END
$$$$

  -OEChem-05262216503D

 51 50  0     1  0  0  0  0  0999 V2000
    0.5762   -5.5560    0.5445 C   0  0  0  0  0  0  0  0  0  0  0  0
   -0.0246   -5.4860   -0.5166 O   0  0  0  0  0  0  0  0  0  0  0  0
    1.7022   -6.5576    0.7171 C   0  0  0  0  0  0  0  0  0  0  0  0
    1.8040   -7.1697   -0.1834 H   0  0  0  0  0  0  0  0  0  0  0  0
    2.6437   -6.0318    0.8949 H   0  0  0  0  0  0  0  0  0  0  0  0
    1.4921   -7.2130    1.5660 H   0  0  0  0  0  0  0  0  0  0  0  0
    0.2491   -4.7133    1.5863 N   0  0  0  0  0  0  0  0  0  0  0  0
   -0.6339   -3.5499    1.4319 C   0  0  2  0  0  0  0  0  0  0  0  0
    0.1667   -2.2428    1.2635 C   0  0  0  0  0  0  0  0  0  0  0  0
    1.2198   -2.1029    1.8698 O   0  0  0  0  0  0  0  0  0  0  0  0
   -1.5221   -3.4711    2.6753 C   0  0  0  0  0  0  0  0  0  0  0  0
    0.9228   -4.6709    2.3478 H   0  0  0  0  0  0  0  0  0  0  0  0
   -1.2803   -3.6715    0.5567 H   0  0  0  0  0  0  0  0  0  0  0  0
   -0.9120   -3.3543    3.5773 H   0  0  0  0  0  0  0  0  0  0  0  0
   -2.2044   -2.6183    2.6064 H   0  0  0  0  0  0  0  0  0  0  0  0
   -2.1174   -4.3842    2.7731 H   0  0  0  0  0  0  0  0  0  0  0  0
   -0.3052   -1.2494    0.4191 N   0  0  0  0  0  0  0  0  0  0  0  0
    0.0679    0.1879    0.3760 C   0  0  2  0  0  0  0  0  0  0  0  0
    0.8296    0.7542    1.6053 C   0  0  0  0  0  0  0  0  0  0  0  0
    1.7686    1.5255    1.4459 O   0  0  0  0  0  0  0  0  0  0  0  0
   -1.2374    0.9962    0.0999 C   0  0  2  0  0  0  0  0  0  0  0  0
   -1.8242    0.6202   -1.2877 C   0  0  0  0  0  0  0  0  0  0  0  0
   -0.9873    2.5201    0.1503 C   0  0  0  0  0  0  0  0  0  0  0  0
   -3.2378    1.1663   -1.5172 C   0  0  0  0  0  0  0  0  0  0  0  0
   -1.1351   -1.5073   -0.1060 H   0  0  0  0  0  0  0  0  0  0  0  0
    0.7475    0.3258   -0.4719 H   0  0  0  0  0  0  0  0  0  0  0  0
   -1.9680    0.7455    0.8769 H   0  0  0  0  0  0  0  0  0  0  0  0
   -1.1617    0.9886   -2.0783 H   0  0  0  0  0  0  0  0  0  0  0  0
   -1.8813   -0.4661   -1.3948 H   0  0  0  0  0  0  0  0  0  0  0  0
   -0.2127    2.8047   -0.5692 H   0  0  0  0  0  0  0  0  0  0  0  0
   -1.8963    3.0804   -0.0795 H   0  0  0  0  0  0  0  0  0  0  0  0
   -0.6682    2.8365    1.1477 H   0  0  0  0  0  0  0  0  0  0  0  0
   -3.8981    0.8828   -0.6917 H   0  0  0  0  0  0  0  0  0  0  0  0
   -3.6479    0.7538   -2.4442 H   0  0  0  0  0  0  0  0  0  0  0  0
   -3.2344    2.2556   -1.6088 H   0  0  0  0  0  0  0  0  0  0  0  0
    0.4117    0.4559    2.8888 N   0  0  0  0  0  0  0  0  0  0  0  0
    1.2349    0.6755    4.0796 C   0  0  2  0  0  0  0  0  0  0  0  0
    1.0104   -0.4504    5.1107 C   0  0  0  0  0  0  0  0  0  0  0  0
    0.0013   -1.1496    5.0595 O   0  0  0  0  0  0  0  0  0  0  0  0
    0.8809    2.0392    4.6774 C   0  0  0  0  0  0  0  0  0  0  0  0
   -0.2352   -0.3277    2.9560 H   0  0  0  0  0  0  0  0  0  0  0  0
    2.2948    0.6629    3.8037 H   0  0  0  0  0  0  0  0  0  0  0  0
   -0.1771    2.0723    4.9562 H   0  0  0  0  0  0  0  0  0  0  0  0
    1.4838    2.2350    5.5690 H   0  0  0  0  0  0  0  0  0  0  0  0
    1.0749    2.8322    3.9484 H   0  0  0  0  0  0  0  0  0  0  0  0
    1.9399   -0.6755    6.1094 N   0  0  0  0  0  0  0  0  0  0  0  0
    1.8213   -1.7527    7.0841 C   0  0  0  0  0  0  0  0  0  0  0  0
    2.7917   -0.1222    6.0875 H   0  0  0  0  0  0  0  0  0  0  0  0
    0.8899   -1.6560    7.6518 H   0  0  0  0  0  0  0  0  0  0  0  0
    1.8291   -2.7258    6.5820 H   0  0  0  0  0  0  0  0  0  0  0  0
    2.6583   -1.7190    7.7880 H   0  0  0  0  0  0  0  0  0  0  0  0
  1  2  2  0  0  0  0
  1  3  1  0  0  0  0
  1  7  1  0  0  0  0
  3  4  1  0  0  0  0
  3  5  1  0  0  0  0
  3  6  1  0  0  0  0
  7  8  1  0  0  0  0
  7 12  1  0  0  0  0
  8  9  1  0  0  0  0
  8 11  1  0  0  0  0
  8 13  1  0  0  0  0
  9 10  2  0  0  0  0
  9 17  1  0  0  0  0
 11 14  1  0  0  0  0
 11 15  1  0  0  0  0
 11 16  1  0  0  0  0
 17 18  1  0  0  0  0
 17 25  1  0  0  0  0
 18 19  1  0  0  0  0
 18 21  1  0  0  0  0
 18 26  1  0  0  0  0
 19 20  2  0  0  0  0
 19 36  1  0  0  0  0
 21 22  1  0  0  0  0
 21 23  1  0  0  0  0
 21 27  1  0  0  0  0
 22 24  1  0  0  0  0
 22 28  1  0  0  0  0
 22 29  1  0  0  0  0
 23 30  1  0  0  0  0
 23 31  1  0  0  0  0
 23 32  1  0  0  0  0
 24 33  1  0  0  0  0
 24 34  1  0  0  0  0
 24 35  1  0  0  0  0
 36 37  1  0  0  0  0
 36 41  1  0  0  0  0
 37 38  1  0  0  0  0
 37 40  1  0  0  0  0
 37 42  1  0  0  0  0
 38 39  2  0  0  0  0
 38 46  1  0  0  0  0
 40 43  1  0  0  0  0
 40 44  1  0  0  0  0
 40 45  1  0  0  0  0
 46 47  1  0  0  0  0
 46 48  1  0  0  0  0
 47 49  1  0  0  0  0
 47 50  1  0  0  0  0
 47 51  1  0  0  0  0
M  END
$$$$

  -OEChem-05262216503D

 51 50  0     1  0  0  0  0  0999 V2000
    0.4429   -5.7497    0.4066 C   0  0  0  0  0  0  0  0  0  0  0  0
   -0.1286   -5.7290   -0.6726 O   0  0  0  0  0  0  0  0  0  0  0  0
    1.5380   -6.7667    0.6671 C   0  0  0  0  0  0  0  0  0  0  0  0
    1.6707   -7.4113   -0.2063 H   0  0  0  0  0  0  0  0  0  0  0  0
    2.4807   -6.2536    0.8729 H   0  0  0  0  0  0  0  0  0  0  0  0
    1.2740   -7.3876    1.5265 H   0  0  0  0  0  0  0  0  0  0  0  0
    0.1143   -4.8370    1.3870 N   0  0  0  0  0  0  0  0  0  0  0  0
   -0.7002   -3.6414    1.1319 C   0  0  2  0  0  0  0  0  0  0  0  0
    0.1693   -2.3752    0.9901 C   0  0  0  0  0  0  0  0  0  0  0  0
    1.2648   -2.3295    1.5309 O   0  0  0  0  0  0  0  0  0  0  0  0
   -1.6686   -3.4860    2.3064 C   0  0  0  0  0  0  0  0  0  0  0  0
    0.7680   -4.7762    2.1654 H   0  0  0  0  0  0  0  0  0  0  0  0
   -1.2855   -3.7596    0.2142 H   0  0  0  0  0  0  0  0  0  0  0  0
   -1.1181   -3.3513    3.2439 H   0  0  0  0  0  0  0  0  0  0  0  0
   -2.3181   -2.6180    2.1574 H   0  0  0  0  0  0  0  0  0  0  0  0
   -2.2974   -4.3771    2.3973 H   0  0  0  0  0  0  0  0  0  0  0  0
   -0.2950   -1.2887    0.2680 N   0  0  0  0  0  0  0  0  0  0  0  0
    0.0778    0.1458    0.3967 C   0  0  2  0  0  0  0  0  0  0  0  0
    0.8346    0.6117    1.6784 C   0  0  0  0  0  0  0  0  0  0  0  0
    1.5924    1.5735    1.6177 O   0  0  0  0  0  0  0  0  0  0  0  0
   -1.2496    0.9478    0.1911 C   0  0  2  0  0  0  0  0  0  0  0  0
   -1.8102    0.7148   -1.2403 C   0  0  0  0  0  0  0  0  0  0  0  0
   -1.0677    2.4638    0.4247 C   0  0  0  0  0  0  0  0  0  0  0  0
   -3.2355    1.2456   -1.4311 C   0  0  0  0  0  0  0  0  0  0  0  0
   -1.1706   -1.4644   -0.2150 H   0  0  0  0  0  0  0  0  0  0  0  0
    0.7577    0.3810   -0.4290 H   0  0  0  0  0  0  0  0  0  0  0  0
   -1.9812    0.5844    0.9212 H   0  0  0  0  0  0  0  0  0  0  0  0
   -1.1477    1.1880   -1.9730 H   0  0  0  0  0  0  0  0  0  0  0  0
   -1.8366   -0.3528   -1.4728 H   0  0  0  0  0  0  0  0  0  0  0  0
   -0.2832    2.8609   -0.2275 H   0  0  0  0  0  0  0  0  0  0  0  0
   -1.9913    3.0124    0.2292 H   0  0  0  0  0  0  0  0  0  0  0  0
   -0.7975    2.6712    1.4640 H   0  0  0  0  0  0  0  0  0  0  0  0
   -3.8947    0.8664   -0.6443 H   0  0  0  0  0  0  0  0  0  0  0  0
   -3.6266    0.9154   -2.3982 H   0  0  0  0  0  0  0  0  0  0  0  0
   -3.2603    2.3383   -1.4171 H   0  0  0  0  0  0  0  0  0  0  0  0
    0.6572   -0.0038    2.9030 N   0  0  0  0  0  0  0  0  0  0  0  0
    1.4559    0.2787    4.0981 C   0  0  2  0  0  0  0  0  0  0  0  0
    1.5212   -0.9564    5.0219 C   0  0  0  0  0  0  0  0  0  0  0  0
    0.6923   -1.8572    4.9213 O   0  0  0  0  0  0  0  0  0  0  0  0
    0.8305    1.4653    4.8378 C   0  0  0  0  0  0  0  0  0  0  0  0
    0.2927   -0.9547    2.8470 H   0  0  0  0  0  0  0  0  0  0  0  0
    2.4811    0.5279    3.8042 H   0  0  0  0  0  0  0  0  0  0  0  0
   -0.1960    1.2294    5.1361 H   0  0  0  0  0  0  0  0  0  0  0  0
    1.4085    1.7070    5.7346 H   0  0  0  0  0  0  0  0  0  0  0  0
    0.8116    2.3488    4.1922 H   0  0  0  0  0  0  0  0  0  0  0  0
    2.5065   -1.0513    5.9876 N   0  0  0  0  0  0  0  0  0  0  0  0
    2.6368   -2.1888    6.8892 C   0  0  0  0  0  0  0  0  0  0  0  0
    3.1963   -0.3068    6.0294 H   0  0  0  0  0  0  0  0  0  0  0  0
    1.7373   -2.2933    7.5051 H   0  0  0  0  0  0  0  0  0  0  0  0
    2.7851   -3.1130    6.3207 H   0  0  0  0  0  0  0  0  0  0  0  0
    3.4956   -2.0496    7.5529 H   0  0  0  0  0  0  0  0  0  0  0  0
  1  2  2  0  0  0  0
  1  3  1  0  0  0  0
  1  7  1  0  0  0  0
  3  4  1  0  0  0  0
  3  5  1  0  0  0  0
  3  6  1  0  0  0  0
  7  8  1  0  0  0  0
  7 12  1  0  0  0  0
  8  9  1  0  0  0  0
  8 11  1  0  0  0  0
  8 13  1  0  0  0  0
  9 10  2  0  0  0  0
  9 17  1  0  0  0  0
 11 14  1  0  0  0  0
 11 15  1  0  0  0  0
 11 16  1  0  0  0  0
 17 18  1  0  0  0  0
 17 25  1  0  0  0  0
 18 19  1  0  0  0  0
 18 21  1  0  0  0  0
 18 26  1  0  0  0  0
 19 20  2  0  0  0  0
 19 36  1  0  0  0  0
 21 22  1  0  0  0  0
 21 23  1  0  0  0  0
 21 27  1  0  0  0  0
 22 24  1  0  0  0  0
 22 28  1  0  0  0  0
 22 29  1  0  0  0  0
 23 30  1  0  0  0  0
 23 31  1  0  0  0  0
 23 32  1  0  0  0  0
 24 33  1  0  0  0  0
 24 34  1  0  0  0  0
 24 35  1  0  0  0  0
 36 37  1  0  0  0  0
 36 41  1  0  0  0  0
 37 38  1  0  0  0  0
 37 40  1  0  0  0  0
 37 42  1  0  0  0  0
 38 39  2  0  0  0  0
 38 46  1  0  0  0  0
 40 43  1  0  0  0  0
 40 44  1  0  0  0  0
 40 45  1  0  0  0  0
 46 47  1  0  0  0  0
 46 48  1  0  0  0  0
 47 49  1  0  0  0  0
 47 50  1  0  0  0  0
 47 51  1  0  0  0  0
M  END
$$$$

  -OEChem-05262216503D

 51 50  0     1  0  0  0  0  0999 V2000
    0.2497   -5.9027    0.3049 C   0  0  0  0  0  0  0  0  0  0  0  0
   -0.3530   -5.9184   -0.7574 O   0  0  0  0  0  0  0  0  0  0  0  0
    1.2932   -6.9637    0.6004 C   0  0  0  0  0  0  0  0  0  0  0  0
    1.3422   -7.6840   -0.2209 H   0  0  0  0  0  0  0  0  0  0  0  0
    2.2748   -6.4980    0.7192 H   0  0  0  0  0  0  0  0  0  0  0  0
    1.0360   -7.4952    1.5198 H   0  0  0  0  0  0  0  0  0  0  0  0
   -0.0006   -4.9162    1.2361 N   0  0  0  0  0  0  0  0  0  0  0  0
   -0.7653   -3.6963    0.9396 C   0  0  2  0  0  0  0  0  0  0  0  0
    0.1456   -2.4554    0.8356 C   0  0  0  0  0  0  0  0  0  0  0  0
    1.2729   -2.4873    1.3069 O   0  0  0  0  0  0  0  0  0  0  0  0
   -1.7825   -3.5073    2.0674 C   0  0  0  0  0  0  0  0  0  0  0  0
    0.6778   -4.8470    1.9933 H   0  0  0  0  0  0  0  0  0  0  0  0
   -1.3071   -3.7978   -0.0064 H   0  0  0  0  0  0  0  0  0  0  0  0
   -1.2716   -3.3800    3.0282 H   0  0  0  0  0  0  0  0  0  0  0  0
   -2.4019   -2.6244    1.8828 H   0  0  0  0  0  0  0  0  0  0  0  0
   -2.4381   -4.3812    2.1348 H   0  0  0  0  0  0  0  0  0  0  0  0
   -0.3008   -1.3100    0.2005 N   0  0  0  0  0  0  0  0  0  0  0  0
    0.0769    0.1107    0.4392 C   0  0  2  0  0  0  0  0  0  0  0  0
    0.8274    0.5123    1.7532 C   0  0  0  0  0  0  0  0  0  0  0  0
    1.4371    1.5755    1.7913 O   0  0  0  0  0  0  0  0  0  0  0  0
   -1.2634    0.9055    0.2539 C   0  0  2  0  0  0  0  0  0  0  0  0
   -1.7861    0.7595   -1.2053 C   0  0  0  0  0  0  0  0  0  0  0  0
   -1.1390    2.4065    0.5969 C   0  0  0  0  0  0  0  0  0  0  0  0
   -3.2158    1.2775   -1.4018 C   0  0  0  0  0  0  0  0  0  0  0  0
   -1.2016   -1.4332   -0.2513 H   0  0  0  0  0  0  0  0  0  0  0  0
    0.7643    0.4005   -0.3626 H   0  0  0  0  0  0  0  0  0  0  0  0
   -2.0047    0.4763    0.9373 H   0  0  0  0  0  0  0  0  0  0  0  0
   -1.1139    1.2918   -1.8870 H   0  0  0  0  0  0  0  0  0  0  0  0
   -1.7880   -0.2894   -1.5116 H   0  0  0  0  0  0  0  0  0  0  0  0
   -0.3404    2.8702    0.0089 H   0  0  0  0  0  0  0  0  0  0  0  0
   -2.0695    2.9428    0.3998 H   0  0  0  0  0  0  0  0  0  0  0  0
   -0.9212    2.5475    1.6595 H   0  0  0  0  0  0  0  0  0  0  0  0
   -3.8874    0.8466   -0.6529 H   0  0  0  0  0  0  0  0  0  0  0  0
   -3.5784    0.9939   -2.3946 H   0  0  0  0  0  0  0  0  0  0  0  0
   -3.2594    2.3674   -1.3311 H   0  0  0  0  0  0  0  0  0  0  0  0
    0.9139   -0.2977    2.8696 N   0  0  0  0  0  0  0  0  0  0  0  0
    1.7326   -0.0183    4.0539 C   0  0  2  0  0  0  0  0  0  0  0  0
    2.0676   -1.3169    4.8188 C   0  0  0  0  0  0  0  0  0  0  0  0
    1.3454   -2.3051    4.7238 O   0  0  0  0  0  0  0  0  0  0  0  0
    0.9734    0.9489    4.9690 C   0  0  0  0  0  0  0  0  0  0  0  0
    0.7348   -1.2880    2.6905 H   0  0  0  0  0  0  0  0  0  0  0  0
    2.6781    0.4382    3.7432 H   0  0  0  0  0  0  0  0  0  0  0  0
    0.0225    0.5079    5.2843 H   0  0  0  0  0  0  0  0  0  0  0  0
    1.5651    1.1770    5.8605 H   0  0  0  0  0  0  0  0  0  0  0  0
    0.7654    1.8872    4.4455 H   0  0  0  0  0  0  0  0  0  0  0  0
    3.1795   -1.3700    5.6394 N   0  0  0  0  0  0  0  0  0  0  0  0
    3.5736   -2.5629    6.3782 C   0  0  0  0  0  0  0  0  0  0  0  0
    3.7792   -0.5506    5.6697 H   0  0  0  0  0  0  0  0  0  0  0  0
    2.7882   -2.8528    7.0841 H   0  0  0  0  0  0  0  0  0  0  0  0
    3.7565   -3.3963    5.6916 H   0  0  0  0  0  0  0  0  0  0  0  0
    4.4916   -2.3721    6.9421 H   0  0  0  0  0  0  0  0  0  0  0  0
  1  2  2  0  0  0  0
  1  3  1  0  0  0  0
  1  7  1  0  0  0  0
  3  4  1  0  0  0  0
  3  5  1  0  0  0  0
  3  6  1  0  0  0  0
  7  8  1  0  0  0  0
  7 12  1  0  0  0  0
  8  9  1  0  0  0  0
  8 11  1  0  0  0  0
  8 13  1  0  0  0  0
  9 10  2  0  0  0  0
  9 17  1  0  0  0  0
 11 14  1  0  0  0  0
 11 15  1  0  0  0  0
 11 16  1  0  0  0  0
 17 18  1  0  0  0  0
 17 25  1  0  0  0  0
 18 19  1  0  0  0  0
 18 21  1  0  0  0  0
 18 26  1  0  0  0  0
 19 20  2  0  0  0  0
 19 36  1  0  0  0  0
 21 22  1  0  0  0  0
 21 23  1  0  0  0  0
 21 27  1  0  0  0  0
 22 24  1  0  0  0  0
 22 28  1  0  0  0  0
 22 29  1  0  0  0  0
 23 30  1  0  0  0  0
 23 31  1  0  0  0  0
 23 32  1  0  0  0  0
 24 33  1  0  0  0  0
 24 34  1  0  0  0  0
 24 35  1  0  0  0  0
 36 37  1  0  0  0  0
 36 41  1  0  0  0  0
 37 38  1  0  0  0  0
 37 40  1  0  0  0  0
 37 42  1  0  0  0  0
 38 39  2  0  0  0  0
 38 46  1  0  0  0  0
 40 43  1  0  0  0  0
 40 44  1  0  0  0  0
 40 45  1  0  0  0  0
 46 47  1  0  0  0  0
 46 48  1  0  0  0  0
 47 49  1  0  0  0  0
 47 50  1  0  0  0  0
 47 51  1  0  0  0  0
M  END
$$$$

  -OEChem-05262216503D

 51 50  0     1  0  0  0  0  0999 V2000
    1.7446   -4.9482    1.5909 C   0  0  0  0  0  0  0  0  0  0  0  0
    1.8561   -4.0310    2.3903 O   0  0  0  0  0  0  0  0  0  0  0  0
    2.8100   -6.0274    1.5471 C   0  0  0  0  0  0  0  0  0  0  0  0
    3.6016   -5.8072    2.2687 H   0  0  0  0  0  0  0  0  0  0  0  0
    2.3698   -6.9971    1.7920 H   0  0  0  0  0  0  0  0  0  0  0  0
    3.2506   -6.0751    0.5481 H   0  0  0  0  0  0  0  0  0  0  0  0
    0.6792   -5.0215    0.7104 N   0  0  0  0  0  0  0  0  0  0  0  0
   -0.3088   -3.9472    0.4847 C   0  0  2  0  0  0  0  0  0  0  0  0
    0.3184   -2.6160   -0.0006 C   0  0  0  0  0  0  0  0  0  0  0  0
    1.4361   -2.6113   -0.4997 O   0  0  0  0  0  0  0  0  0  0  0  0
   -1.1812   -3.7574    1.7363 C   0  0  0  0  0  0  0  0  0  0  0  0
    0.7689   -5.7282   -0.0132 H   0  0  0  0  0  0  0  0  0  0  0  0
   -0.9709   -4.2775   -0.3213 H   0  0  0  0  0  0  0  0  0  0  0  0
   -0.6040   -3.3242    2.5573 H   0  0  0  0  0  0  0  0  0  0  0  0
   -2.0228   -3.0917    1.5246 H   0  0  0  0  0  0  0  0  0  0  0  0
   -1.5811   -4.7201    2.0681 H   0  0  0  0  0  0  0  0  0  0  0  0
   -0.4406   -1.4658   -0.1065 N   0  0  0  0  0  0  0  0  0  0  0  0
   -0.0103   -0.0573    0.1156 C   0  0  2  0  0  0  0  0  0  0  0  0
    1.3378    0.2422    0.8626 C   0  0  0  0  0  0  0  0  0  0  0  0
    1.7544    1.3928    0.9199 O   0  0  0  0  0  0  0  0  0  0  0  0
   -1.2738    0.6078    0.7765 C   0  0  2  0  0  0  0  0  0  0  0  0
   -2.4783    0.5832   -0.2110 C   0  0  0  0  0  0  0  0  0  0  0  0
   -1.0449    2.0552    1.2602 C   0  0  0  0  0  0  0  0  0  0  0  0
   -3.8164    0.9637    0.4342 C   0  0  0  0  0  0  0  0  0  0  0  0
   -1.3951   -1.6228    0.2000 H   0  0  0  0  0  0  0  0  0  0  0  0
    0.1350    0.3948   -0.8705 H   0  0  0  0  0  0  0  0  0  0  0  0
   -1.5393    0.0170    1.6599 H   0  0  0  0  0  0  0  0  0  0  0  0
   -2.2753    1.2635   -1.0449 H   0  0  0  0  0  0  0  0  0  0  0  0
   -2.6090   -0.4147   -0.6364 H   0  0  0  0  0  0  0  0  0  0  0  0
   -0.6586    2.6777    0.4470 H   0  0  0  0  0  0  0  0  0  0  0  0
   -1.9652    2.5064    1.6348 H   0  0  0  0  0  0  0  0  0  0  0  0
   -0.3354    2.0744    2.0923 H   0  0  0  0  0  0  0  0  0  0  0  0
   -3.9832    0.3809    1.3455 H   0  0  0  0  0  0  0  0  0  0  0  0
   -4.6346    0.7572   -0.2624 H   0  0  0  0  0  0  0  0  0  0  0  0
   -3.8529    2.0275    0.6830 H   0  0  0  0  0  0  0  0  0  0  0  0
    2.1902   -0.7306    1.3539 N   0  0  0  0  0  0  0  0  0  0  0  0
    2.5693   -0.8118    2.7764 C   0  0  2  0  0  0  0  0  0  0  0  0
    1.3879   -1.1789    3.7103 C   0  0  0  0  0  0  0  0  0  0  0  0
    0.2229   -0.9256    3.4149 O   0  0  0  0  0  0  0  0  0  0  0  0
    3.2697    0.4574    3.2793 C   0  0  0  0  0  0  0  0  0  0  0  0
    2.0203   -1.6395    0.9234 H   0  0  0  0  0  0  0  0  0  0  0  0
    3.2934   -1.6283    2.8506 H   0  0  0  0  0  0  0  0  0  0  0  0
    2.5574    1.2827    3.3762 H   0  0  0  0  0  0  0  0  0  0  0  0
    3.7221    0.2803    4.2591 H   0  0  0  0  0  0  0  0  0  0  0  0
    4.0578    0.7563    2.5812 H   0  0  0  0  0  0  0  0  0  0  0  0
    1.6381   -1.8380    4.9005 N   0  0  0  0  0  0  0  0  0  0  0  0
    0.5760   -2.3753    5.7412 C   0  0  0  0  0  0  0  0  0  0  0  0
    2.5786   -2.2004    5.0226 H   0  0  0  0  0  0  0  0  0  0  0  0
   -0.1063   -1.5781    6.0546 H   0  0  0  0  0  0  0  0  0  0  0  0
    0.0057   -3.1350    5.1963 H   0  0  0  0  0  0  0  0  0  0  0  0
    1.0005   -2.8363    6.6381 H   0  0  0  0  0  0  0  0  0  0  0  0
  1  2  2  0  0  0  0
  1  3  1  0  0  0  0
  1  7  1  0  0  0  0
  3  4  1  0  0  0  0
  3  5  1  0  0  0  0
  3  6  1  0  0  0  0
  7  8  1  0  0  0  0
  7 12  1  0  0  0  0
  8  9  1  0  0  0  0
  8 11  1  0  0  0  0
  8 13  1  0  0  0  0
  9 10  2  0  0  0  0
  9 17  1  0  0  0  0
 11 14  1  0  0  0  0
 11 15  1  0  0  0  0
 11 16  1  0  0  0  0
 17 18  1  0  0  0  0
 17 25  1  0  0  0  0
 18 19  1  0  0  0  0
 18 21  1  0  0  0  0
 18 26  1  0  0  0  0
 19 20  2  0  0  0  0
 19 36  1  0  0  0  0
 21 22  1  0  0  0  0
 21 23  1  0  0  0  0
 21 27  1  0  0  0  0
 22 24  1  0  0  0  0
 22 28  1  0  0  0  0
 22 29  1  0  0  0  0
 23 30  1  0  0  0  0
 23 31  1  0  0  0  0
 23 32  1  0  0  0  0
 24 33  1  0  0  0  0
 24 34  1  0  0  0  0
 24 35  1  0  0  0  0
 36 37  1  0  0  0  0
 36 41  1  0  0  0  0
 37 38  1  0  0  0  0
 37 40  1  0  0  0  0
 37 42  1  0  0  0  0
 38 39  2  0  0  0  0
 38 46  1  0  0  0  0
 40 43  1  0  0  0  0
 40 44  1  0  0  0  0
 40 45  1  0  0  0  0
 46 47  1  0  0  0  0
 46 48  1  0  0  0  0
 47 49  1  0  0  0  0
 47 50  1  0  0  0  0
 47 51  1  0  0  0  0
M  END
$$$$

  -OEChem-05262216503D

 51 50  0     1  0  0  0  0  0999 V2000
    0.3163   -4.0814    0.4293 C   0  0  0  0  0  0  0  0  0  0  0  0
   -0.4946   -3.8192   -0.4491 O   0  0  0  0  0  0  0  0  0  0  0  0
    1.7864   -4.2330    0.0924 C   0  0  0  0  0  0  0  0  0  0  0  0
    2.3332   -3.3437    0.4152 H   0  0  0  0  0  0  0  0  0  0  0  0
    2.1980   -5.1073    0.6027 H   0  0  0  0  0  0  0  0  0  0  0  0
    1.9170   -4.3594   -0.9858 H   0  0  0  0  0  0  0  0  0  0  0  0
   -0.0933   -4.0917    1.7449 N   0  0  0  0  0  0  0  0  0  0  0  0
   -1.4516   -3.7284    2.1755 C   0  0  2  0  0  0  0  0  0  0  0  0
   -1.6400   -2.1934    2.1869 C   0  0  0  0  0  0  0  0  0  0  0  0
   -1.9758   -1.5932    3.1996 O   0  0  0  0  0  0  0  0  0  0  0  0
   -1.6751   -4.3708    3.5497 C   0  0  0  0  0  0  0  0  0  0  0  0
    0.6602   -4.0284    2.4389 H   0  0  0  0  0  0  0  0  0  0  0  0
   -2.1885   -4.1482    1.4826 H   0  0  0  0  0  0  0  0  0  0  0  0
   -0.9593   -3.9785    4.2796 H   0  0  0  0  0  0  0  0  0  0  0  0
   -2.6877   -4.1602    3.9082 H   0  0  0  0  0  0  0  0  0  0  0  0
   -1.5498   -5.4561    3.4871 H   0  0  0  0  0  0  0  0  0  0  0  0
   -1.3540   -1.4694    1.0462 N   0  0  0  0  0  0  0  0  0  0  0  0
   -0.2207   -0.5222    0.8513 C   0  0  2  0  0  0  0  0  0  0  0  0
    0.5994    0.0162    2.0742 C   0  0  0  0  0  0  0  0  0  0  0  0
    1.6684    0.5721    1.8400 O   0  0  0  0  0  0  0  0  0  0  0  0
   -0.8496    0.6200   -0.0256 C   0  0  2  0  0  0  0  0  0  0  0  0
   -1.2991    0.0560   -1.4066 C   0  0  0  0  0  0  0  0  0  0  0  0
    0.0864    1.8257   -0.2584 C   0  0  0  0  0  0  0  0  0  0  0  0
   -2.1597    1.0285   -2.2213 C   0  0  0  0  0  0  0  0  0  0  0  0
   -1.4127   -2.1032    0.2446 H   0  0  0  0  0  0  0  0  0  0  0  0
    0.5294   -1.0391    0.2441 H   0  0  0  0  0  0  0  0  0  0  0  0
   -1.7343    0.9925    0.5032 H   0  0  0  0  0  0  0  0  0  0  0  0
   -0.4171   -0.2233   -1.9924 H   0  0  0  0  0  0  0  0  0  0  0  0
   -1.8973   -0.8492   -1.2736 H   0  0  0  0  0  0  0  0  0  0  0  0
    1.0312    1.4981   -0.7037 H   0  0  0  0  0  0  0  0  0  0  0  0
   -0.3691    2.5661   -0.9190 H   0  0  0  0  0  0  0  0  0  0  0  0
    0.2969    2.3424    0.6821 H   0  0  0  0  0  0  0  0  0  0  0  0
   -2.9800    1.4184   -1.6110 H   0  0  0  0  0  0  0  0  0  0  0  0
   -2.5880    0.5087   -3.0837 H   0  0  0  0  0  0  0  0  0  0  0  0
   -1.5679    1.8666   -2.5979 H   0  0  0  0  0  0  0  0  0  0  0  0
    0.5408   -0.5482    3.3343 N   0  0  0  0  0  0  0  0  0  0  0  0
    1.7113   -0.8164    4.1749 C   0  0  2  0  0  0  0  0  0  0  0  0
    2.5668   -1.9679    3.6008 C   0  0  0  0  0  0  0  0  0  0  0  0
    2.0633   -3.0601    3.3413 O   0  0  0  0  0  0  0  0  0  0  0  0
    1.2101   -1.1628    5.5783 C   0  0  0  0  0  0  0  0  0  0  0  0
   -0.3223   -1.0487    3.5498 H   0  0  0  0  0  0  0  0  0  0  0  0
    2.3309    0.0838    4.2433 H   0  0  0  0  0  0  0  0  0  0  0  0
    0.5750   -2.0544    5.5517 H   0  0  0  0  0  0  0  0  0  0  0  0
    2.0548   -1.3571    6.2461 H   0  0  0  0  0  0  0  0  0  0  0  0
    0.6266   -0.3325    5.9881 H   0  0  0  0  0  0  0  0  0  0  0  0
    3.9144   -1.7738    3.3668 N   0  0  0  0  0  0  0  0  0  0  0  0
    4.7738   -2.7732    2.7456 C   0  0  0  0  0  0  0  0  0  0  0  0
    4.2481   -0.8145    3.4219 H   0  0  0  0  0  0  0  0  0  0  0  0
    4.7242   -3.7191    3.2954 H   0  0  0  0  0  0  0  0  0  0  0  0
    4.4694   -2.9497    1.7091 H   0  0  0  0  0  0  0  0  0  0  0  0
    5.8130   -2.4302    2.7489 H   0  0  0  0  0  0  0  0  0  0  0  0
  1  2  2  0  0  0  0
  1  3  1  0  0  0  0
  1  7  1  0  0  0  0
  3  4  1  0  0  0  0
  3  5  1  0  0  0  0
  3  6  1  0  0  0  0
  7  8  1  0  0  0  0
  7 12  1  0  0  0  0
  8  9  1  0  0  0  0
  8 11  1  0  0  0  0
  8 13  1  0  0  0  0
  9 10  2  0  0  0  0
  9 17  1  0  0  0  0
 11 14  1  0  0  0  0
 11 15  1  0  0  0  0
 11 16  1  0  0  0  0
 17 18  1  0  0  0  0
 17 25  1  0  0  0  0
 18 19  1  0  0  0  0
 18 21  1  0  0  0  0
 18 26  1  0  0  0  0
 19 20  2  0  0  0  0
 19 36  1  0  0  0  0
 21 22  1  0  0  0  0
 21 23  1  0  0  0  0
 21 27  1  0  0  0  0
 22 24  1  0  0  0  0
 22 28  1  0  0  0  0
 22 29  1  0  0  0  0
 23 30  1  0  0  0  0
 23 31  1  0  0  0  0
 23 32  1  0  0  0  0
 24 33  1  0  0  0  0
 24 34  1  0  0  0  0
 24 35  1  0  0  0  0
 36 37  1  0  0  0  0
 36 41  1  0  0  0  0
 37 38  1  0  0  0  0
 37 40  1  0  0  0  0
 37 42  1  0  0  0  0
 38 39  2  0  0  0  0
 38 46  1  0  0  0  0
 40 43  1  0  0  0  0
 40 44  1  0  0  0  0
 40 45  1  0  0  0  0
 46 47  1  0  0  0  0
 46 48  1  0  0  0  0
 47 49  1  0  0  0  0
 47 50  1  0  0  0  0
 47 51  1  0  0  0  0
M  END
$$$$

  -OEChem-05262216503D

 51 50  0     1  0  0  0  0  0999 V2000
    0.1614   -3.9902    0.0697 C   0  0  0  0  0  0  0  0  0  0  0  0
   -0.7864   -3.6594   -0.6303 O   0  0  0  0  0  0  0  0  0  0  0  0
    1.5396   -4.1622   -0.5390 C   0  0  0  0  0  0  0  0  0  0  0  0
    1.4877   -4.0646   -1.6270 H   0  0  0  0  0  0  0  0  0  0  0  0
    2.2177   -3.3997   -0.1471 H   0  0  0  0  0  0  0  0  0  0  0  0
    1.9351   -5.1503   -0.2914 H   0  0  0  0  0  0  0  0  0  0  0  0
   -0.0069   -4.0773    1.4349 N   0  0  0  0  0  0  0  0  0  0  0  0
   -1.2600   -3.7271    2.1226 C   0  0  2  0  0  0  0  0  0  0  0  0
   -1.4017   -2.1942    2.2704 C   0  0  0  0  0  0  0  0  0  0  0  0
   -1.4935   -1.6646    3.3696 O   0  0  0  0  0  0  0  0  0  0  0  0
   -1.2541   -4.4636    3.4674 C   0  0  0  0  0  0  0  0  0  0  0  0
    0.8599   -4.0530    1.9834 H   0  0  0  0  0  0  0  0  0  0  0  0
   -2.1187   -4.0861    1.5449 H   0  0  0  0  0  0  0  0  0  0  0  0
   -0.4109   -4.1333    4.0831 H   0  0  0  0  0  0  0  0  0  0  0  0
   -2.1820   -4.2666    4.0138 H   0  0  0  0  0  0  0  0  0  0  0  0
   -1.1689   -5.5431    3.3095 H   0  0  0  0  0  0  0  0  0  0  0  0
   -1.2847   -1.4059    1.1425 N   0  0  0  0  0  0  0  0  0  0  0  0
   -0.2311   -0.3939    0.8514 C   0  0  2  0  0  0  0  0  0  0  0  0
    0.7028    0.1269    2.0018 C   0  0  0  0  0  0  0  0  0  0  0  0
    1.5764    0.9426    1.7320 O   0  0  0  0  0  0  0  0  0  0  0  0
   -1.0290    0.7241    0.0798 C   0  0  2  0  0  0  0  0  0  0  0  0
   -1.5988    0.1544   -1.2560 C   0  0  0  0  0  0  0  0  0  0  0  0
   -0.2178    2.0000   -0.2319 C   0  0  0  0  0  0  0  0  0  0  0  0
   -2.6084    1.0774   -1.9493 C   0  0  0  0  0  0  0  0  0  0  0  0
   -1.4582   -1.9877    0.3182 H   0  0  0  0  0  0  0  0  0  0  0  0
    0.4698   -0.8514    0.1462 H   0  0  0  0  0  0  0  0  0  0  0  0
   -1.8703    1.0253    0.7147 H   0  0  0  0  0  0  0  0  0  0  0  0
   -0.7729   -0.0568   -1.9429 H   0  0  0  0  0  0  0  0  0  0  0  0
   -2.1197   -0.7900   -1.0795 H   0  0  0  0  0  0  0  0  0  0  0  0
    0.7134    1.7472   -0.7486 H   0  0  0  0  0  0  0  0  0  0  0  0
   -0.7806    2.6963   -0.8558 H   0  0  0  0  0  0  0  0  0  0  0  0
    0.0186    2.5411    0.6883 H   0  0  0  0  0  0  0  0  0  0  0  0
   -3.3704    1.4150   -1.2400 H   0  0  0  0  0  0  0  0  0  0  0  0
   -3.1068    0.5361   -2.7592 H   0  0  0  0  0  0  0  0  0  0  0  0
   -2.1179    1.9510   -2.3867 H   0  0  0  0  0  0  0  0  0  0  0  0
    1.0244   -0.6754    3.0809 N   0  0  0  0  0  0  0  0  0  0  0  0
    2.3578   -0.8689    3.6626 C   0  0  2  0  0  0  0  0  0  0  0  0
    3.0526   -2.1290    3.0995 C   0  0  0  0  0  0  0  0  0  0  0  0
    2.3980   -3.0831    2.6805 O   0  0  0  0  0  0  0  0  0  0  0  0
    2.1780   -0.9896    5.1767 C   0  0  0  0  0  0  0  0  0  0  0  0
    0.2969   -1.3361    3.3537 H   0  0  0  0  0  0  0  0  0  0  0  0
    2.9976   -0.0041    3.4594 H   0  0  0  0  0  0  0  0  0  0  0  0
    1.5503   -1.8530    5.4209 H   0  0  0  0  0  0  0  0  0  0  0  0
    3.1473   -1.1118    5.6696 H   0  0  0  0  0  0  0  0  0  0  0  0
    1.6988   -0.0886    5.5729 H   0  0  0  0  0  0  0  0  0  0  0  0
    4.4324   -2.2131    3.0912 N   0  0  0  0  0  0  0  0  0  0  0  0
    5.1671   -3.3609    2.5736 C   0  0  0  0  0  0  0  0  0  0  0  0
    4.9519   -1.3941    3.3959 H   0  0  0  0  0  0  0  0  0  0  0  0
    4.8646   -4.2766    3.0925 H   0  0  0  0  0  0  0  0  0  0  0  0
    4.9805   -3.4837    1.5017 H   0  0  0  0  0  0  0  0  0  0  0  0
    6.2417   -3.2203    2.7244 H   0  0  0  0  0  0  0  0  0  0  0  0
  1  2  2  0  0  0  0
  1  3  1  0  0  0  0
  1  7  1  0  0  0  0
  3  4  1  0  0  0  0
  3  5  1  0  0  0  0
  3  6  1  0  0  0  0
  7  8  1  0  0  0  0
  7 12  1  0  0  0  0
  8  9  1  0  0  0  0
  8 11  1  0  0  0  0
  8 13  1  0  0  0  0
  9 10  2  0  0  0  0
  9 17  1  0  0  0  0
 11 14  1  0  0  0  0
 11 15  1  0  0  0  0
 11 16  1  0  0  0  0
 17 18  1  0  0  0  0
 17 25  1  0  0  0  0
 18 19  1  0  0  0  0
 18 21  1  0  0  0  0
 18 26  1  0  0  0  0
 19 20  2  0  0  0  0
 19 36  1  0  0  0  0
 21 22  1  0  0  0  0
 21 23  1  0  0  0  0
 21 27  1  0  0  0  0
 22 24  1  0  0  0  0
 22 28  1  0  0  0  0
 22 29  1  0  0  0  0
 23 30  1  0  0  0  0
 23 31  1  0  0  0  0
 23 32  1  0  0  0  0
 24 33  1  0  0  0  0
 24 34  1  0  0  0  0
 24 35  1  0  0  0  0
 36 37  1  0  0  0  0
 36 41  1  0  0  0  0
 37 38  1  0  0  0  0
 37 40  1  0  0  0  0
 37 42  1  0  0  0  0
 38 39  2  0  0  0  0
 38 46  1  0  0  0  0
 40 43  1  0  0  0  0
 40 44  1  0  0  0  0
 40 45  1  0  0  0  0
 46 47  1  0  0  0  0
 46 48  1  0  0  0  0
 47 49  1  0  0  0  0
 47 50  1  0  0  0  0
 47 51  1  0  0  0  0
M  END
$$$$

  -OEChem-05262216503D

 51 50  0     1  0  0  0  0  0999 V2000
    0.3963   -3.8331   -0.1469 C   0  0  0  0  0  0  0  0  0  0  0  0
   -0.5636   -3.4818   -0.8201 O   0  0  0  0  0  0  0  0  0  0  0  0
    1.7720   -3.9505   -0.7728 C   0  0  0  0  0  0  0  0  0  0  0  0
    2.2079   -4.9237   -0.5340 H   0  0  0  0  0  0  0  0  0  0  0  0
    1.7038   -3.8513   -1.8596 H   0  0  0  0  0  0  0  0  0  0  0  0
    2.4248   -3.1645   -0.3846 H   0  0  0  0  0  0  0  0  0  0  0  0
    0.2386   -4.0119    1.2106 N   0  0  0  0  0  0  0  0  0  0  0  0
   -1.0213   -3.7457    1.9229 C   0  0  2  0  0  0  0  0  0  0  0  0
   -1.2034   -2.2300    2.1680 C   0  0  0  0  0  0  0  0  0  0  0  0
   -1.0784   -1.7591    3.2893 O   0  0  0  0  0  0  0  0  0  0  0  0
   -0.9899   -4.5671    3.2177 C   0  0  0  0  0  0  0  0  0  0  0  0
    1.1056   -4.0655    1.7571 H   0  0  0  0  0  0  0  0  0  0  0  0
   -1.8726   -4.0917    1.3268 H   0  0  0  0  0  0  0  0  0  0  0  0
   -0.1399   -4.2719    3.8420 H   0  0  0  0  0  0  0  0  0  0  0  0
   -1.9105   -4.4114    3.7890 H   0  0  0  0  0  0  0  0  0  0  0  0
   -0.9001   -5.6335    2.9894 H   0  0  0  0  0  0  0  0  0  0  0  0
   -1.2787   -1.3768    1.0823 N   0  0  0  0  0  0  0  0  0  0  0  0
   -0.2874   -0.3279    0.7066 C   0  0  2  0  0  0  0  0  0  0  0  0
    0.7791    0.0938    1.7797 C   0  0  0  0  0  0  0  0  0  0  0  0
    1.4097    1.1405    1.7171 O   0  0  0  0  0  0  0  0  0  0  0  0
   -1.1723    0.8180    0.0881 C   0  0  2  0  0  0  0  0  0  0  0  0
   -1.8904    0.2922   -1.1936 C   0  0  0  0  0  0  0  0  0  0  0  0
   -0.3896    2.0969   -0.2865 C   0  0  0  0  0  0  0  0  0  0  0  0
   -2.9813    1.2271   -1.7314 C   0  0  0  0  0  0  0  0  0  0  0  0
   -1.5457   -1.9180    0.2569 H   0  0  0  0  0  0  0  0  0  0  0  0
    0.3244   -0.7353   -0.1039 H   0  0  0  0  0  0  0  0  0  0  0  0
   -1.9303    1.0973    0.8285 H   0  0  0  0  0  0  0  0  0  0  0  0
   -1.1495    0.1139   -1.9799 H   0  0  0  0  0  0  0  0  0  0  0  0
   -2.3806   -0.6636   -0.9920 H   0  0  0  0  0  0  0  0  0  0  0  0
    0.5203    1.8432   -0.8394 H   0  0  0  0  0  0  0  0  0  0  0  0
   -0.9829    2.7776   -0.8983 H   0  0  0  0  0  0  0  0  0  0  0  0
   -0.1188    2.6600    0.6104 H   0  0  0  0  0  0  0  0  0  0  0  0
   -3.6516    1.5374   -0.9240 H   0  0  0  0  0  0  0  0  0  0  0  0
   -3.5732    0.7047   -2.4892 H   0  0  0  0  0  0  0  0  0  0  0  0
   -2.5548    2.1172   -2.2006 H   0  0  0  0  0  0  0  0  0  0  0  0
    1.4119   -0.9090    2.4881 N   0  0  0  0  0  0  0  0  0  0  0  0
    2.7688   -0.9114    3.0369 C   0  0  2  0  0  0  0  0  0  0  0  0
    3.4303   -2.2958    2.8492 C   0  0  0  0  0  0  0  0  0  0  0  0
    2.7698   -3.2705    2.4876 O   0  0  0  0  0  0  0  0  0  0  0  0
    2.6825   -0.5357    4.5177 C   0  0  0  0  0  0  0  0  0  0  0  0
    0.8219   -1.7063    2.7201 H   0  0  0  0  0  0  0  0  0  0  0  0
    3.3875   -0.1751    2.5138 H   0  0  0  0  0  0  0  0  0  0  0  0
    2.0711   -1.2624    5.0623 H   0  0  0  0  0  0  0  0  0  0  0  0
    3.6788   -0.5089    4.9683 H   0  0  0  0  0  0  0  0  0  0  0  0
    2.2265    0.4535    4.6283 H   0  0  0  0  0  0  0  0  0  0  0  0
    4.7887   -2.4483    3.0538 N   0  0  0  0  0  0  0  0  0  0  0  0
    5.4963   -3.7083    2.8620 C   0  0  0  0  0  0  0  0  0  0  0  0
    5.3148   -1.6262    3.3376 H   0  0  0  0  0  0  0  0  0  0  0  0
    5.0882   -4.4822    3.5207 H   0  0  0  0  0  0  0  0  0  0  0  0
    5.4064   -4.0448    1.8238 H   0  0  0  0  0  0  0  0  0  0  0  0
    6.5586   -3.5835    3.0934 H   0  0  0  0  0  0  0  0  0  0  0  0
  1  2  2  0  0  0  0
  1  3  1  0  0  0  0
  1  7  1  0  0  0  0
  3  4  1  0  0  0  0
  3  5  1  0  0  0  0
  3  6  1  0  0  0  0
  7  8  1  0  0  0  0
  7 12  1  0  0  0  0
  8  9  1  0  0  0  0
  8 11  1  0  0  0  0
  8 13  1  0  0  0  0
  9 10  2  0  0  0  0
  9 17  1  0  0  0  0
 11 14  1  0  0  0  0
 11 15  1  0  0  0  0
 11 16  1  0  0  0  0
 17 18  1  0  0  0  0
 17 25  1  0  0  0  0
 18 19  1  0  0  0  0
 18 21  1  0  0  0  0
 18 26  1  0  0  0  0
 19 20  2  0  0  0  0
 19 36  1  0  0  0  0
 21 22  1  0  0  0  0
 21 23  1  0  0  0  0
 21 27  1  0  0  0  0
 22 24  1  0  0  0  0
 22 28  1  0  0  0  0
 22 29  1  0  0  0  0
 23 30  1  0  0  0  0
 23 31  1  0  0  0  0
 23 32  1  0  0  0  0
 24 33  1  0  0  0  0
 24 34  1  0  0  0  0
 24 35  1  0  0  0  0
 36 37  1  0  0  0  0
 36 41  1  0  0  0  0
 37 38  1  0  0  0  0
 37 40  1  0  0  0  0
 37 42  1  0  0  0  0
 38 39  2  0  0  0  0
 38 46  1  0  0  0  0
 40 43  1  0  0  0  0
 40 44  1  0  0  0  0
 40 45  1  0  0  0  0
 46 47  1  0  0  0  0
 46 48  1  0  0  0  0
 47 49  1  0  0  0  0
 47 50  1  0  0  0  0
 47 51  1  0  0  0  0
M  END
$$$$

  -OEChem-05262216503D

 51 50  0     1  0  0  0  0  0999 V2000
    0.4275   -3.8244   -0.2163 C   0  0  0  0  0  0  0  0  0  0  0  0
   -0.6411   -3.4925   -0.7100 O   0  0  0  0  0  0  0  0  0  0  0  0
    1.6372   -4.0827   -1.0931 C   0  0  0  0  0  0  0  0  0  0  0  0
    1.3637   -4.0052   -2.1489 H   0  0  0  0  0  0  0  0  0  0  0  0
    2.4197   -3.3513   -0.8753 H   0  0  0  0  0  0  0  0  0  0  0  0
    2.0270   -5.0856   -0.9027 H   0  0  0  0  0  0  0  0  0  0  0  0
    0.5488   -3.8584    1.1562 N   0  0  0  0  0  0  0  0  0  0  0  0
   -0.5559   -3.5745    2.0866 C   0  0  2  0  0  0  0  0  0  0  0  0
   -0.7799   -2.0532    2.2555 C   0  0  0  0  0  0  0  0  0  0  0  0
   -0.4823   -1.4866    3.2964 O   0  0  0  0  0  0  0  0  0  0  0  0
   -0.2199   -4.2779    3.4070 C   0  0  0  0  0  0  0  0  0  0  0  0
    1.4927   -3.9928    1.5357 H   0  0  0  0  0  0  0  0  0  0  0  0
   -1.4871   -4.0055    1.7039 H   0  0  0  0  0  0  0  0  0  0  0  0
    0.7174   -3.8924    3.8218 H   0  0  0  0  0  0  0  0  0  0  0  0
   -1.0168   -4.1111    4.1386 H   0  0  0  0  0  0  0  0  0  0  0  0
   -0.1143   -5.3555    3.2492 H   0  0  0  0  0  0  0  0  0  0  0  0
   -1.1721   -1.2874    1.1706 N   0  0  0  0  0  0  0  0  0  0  0  0
   -0.3112   -0.2763    0.4967 C   0  0  2  0  0  0  0  0  0  0  0  0
    0.9617    0.1386    1.3048 C   0  0  0  0  0  0  0  0  0  0  0  0
    1.2895    1.2817    1.5911 O   0  0  0  0  0  0  0  0  0  0  0  0
   -1.2670    0.8798    0.0437 C   0  0  2  0  0  0  0  0  0  0  0  0
   -2.2927    0.3277   -0.9905 C   0  0  0  0  0  0  0  0  0  0  0  0
   -0.5087    2.0507   -0.6274 C   0  0  0  0  0  0  0  0  0  0  0  0
   -3.4425    1.2935   -1.3046 C   0  0  0  0  0  0  0  0  0  0  0  0
   -1.6093   -1.8938    0.4747 H   0  0  0  0  0  0  0  0  0  0  0  0
    0.0875   -0.7331   -0.4141 H   0  0  0  0  0  0  0  0  0  0  0  0
   -1.8001    1.2609    0.9220 H   0  0  0  0  0  0  0  0  0  0  0  0
   -1.7756    0.0667   -1.9198 H   0  0  0  0  0  0  0  0  0  0  0  0
   -2.7539   -0.5872   -0.6098 H   0  0  0  0  0  0  0  0  0  0  0  0
    0.2272    1.6711   -1.3430 H   0  0  0  0  0  0  0  0  0  0  0  0
   -1.1842    2.7236   -1.1574 H   0  0  0  0  0  0  0  0  0  0  0  0
    0.0034    2.6678    0.1134 H   0  0  0  0  0  0  0  0  0  0  0  0
   -3.8910    1.6670   -0.3789 H   0  0  0  0  0  0  0  0  0  0  0  0
   -4.2158    0.7714   -1.8760 H   0  0  0  0  0  0  0  0  0  0  0  0
   -3.1060    2.1439   -1.9025 H   0  0  0  0  0  0  0  0  0  0  0  0
    1.8515   -0.8785    1.5999 N   0  0  0  0  0  0  0  0  0  0  0  0
    3.0649   -0.7920    2.4158 C   0  0  2  0  0  0  0  0  0  0  0  0
    3.8267   -2.1354    2.3561 C   0  0  0  0  0  0  0  0  0  0  0  0
    3.2771   -3.1461    1.9135 O   0  0  0  0  0  0  0  0  0  0  0  0
    2.7020   -0.4784    3.8740 C   0  0  0  0  0  0  0  0  0  0  0  0
    1.4970   -1.8182    1.4427 H   0  0  0  0  0  0  0  0  0  0  0  0
    3.7115   -0.0016    2.0213 H   0  0  0  0  0  0  0  0  0  0  0  0
    2.0607   -1.2639    4.2862 H   0  0  0  0  0  0  0  0  0  0  0  0
    3.6042   -0.4083    4.4882 H   0  0  0  0  0  0  0  0  0  0  0  0
    2.1679    0.4738    3.9452 H   0  0  0  0  0  0  0  0  0  0  0  0
    5.1320   -2.2209    2.8020 N   0  0  0  0  0  0  0  0  0  0  0  0
    5.8981   -3.4613    2.8151 C   0  0  0  0  0  0  0  0  0  0  0  0
    5.5534   -1.3782    3.1838 H   0  0  0  0  0  0  0  0  0  0  0  0
    5.3930   -4.2177    3.4253 H   0  0  0  0  0  0  0  0  0  0  0  0
    6.0166   -3.8494    1.7980 H   0  0  0  0  0  0  0  0  0  0  0  0
    6.8931   -3.2873    3.2364 H   0  0  0  0  0  0  0  0  0  0  0  0
  1  2  2  0  0  0  0
  1  3  1  0  0  0  0
  1  7  1  0  0  0  0
  3  4  1  0  0  0  0
  3  5  1  0  0  0  0
  3  6  1  0  0  0  0
  7  8  1  0  0  0  0
  7 12  1  0  0  0  0
  8  9  1  0  0  0  0
  8 11  1  0  0  0  0
  8 13  1  0  0  0  0
  9 10  2  0  0  0  0
  9 17  1  0  0  0  0
 11 14  1  0  0  0  0
 11 15  1  0  0  0  0
 11 16  1  0  0  0  0
 17 18  1  0  0  0  0
 17 25  1  0  0  0  0
 18 19  1  0  0  0  0
 18 21  1  0  0  0  0
 18 26  1  0  0  0  0
 19 20  2  0  0  0  0
 19 36  1  0  0  0  0
 21 22  1  0  0  0  0
 21 23  1  0  0  0  0
 21 27  1  0  0  0  0
 22 24  1  0  0  0  0
 22 28  1  0  0  0  0
 22 29  1  0  0  0  0
 23 30  1  0  0  0  0
 23 31  1  0  0  0  0
 23 32  1  0  0  0  0
 24 33  1  0  0  0  0
 24 34  1  0  0  0  0
 24 35  1  0  0  0  0
 36 37  1  0  0  0  0
 36 41  1  0  0  0  0
 37 38  1  0  0  0  0
 37 40  1  0  0  0  0
 37 42  1  0  0  0  0
 38 39  2  0  0  0  0
 38 46  1  0  0  0  0
 40 43  1  0  0  0  0
 40 44  1  0  0  0  0
 40 45  1  0  0  0  0
 46 47  1  0  0  0  0
 46 48  1  0  0  0  0
 47 49  1  0  0  0  0
 47 50  1  0  0  0  0
 47 51  1  0  0  0  0
M  END
$$$$

  -OEChem-05262216503D

 51 50  0     1  0  0  0  0  0999 V2000
   -2.1603   -4.3865    0.1442 C   0  0  0  0  0  0  0  0  0  0  0  0
   -2.6061   -3.2489    0.1232 O   0  0  0  0  0  0  0  0  0  0  0  0
   -2.6097   -5.4073   -0.8836 C   0  0  0  0  0  0  0  0  0  0  0  0
   -3.3672   -4.9720   -1.5415 H   0  0  0  0  0  0  0  0  0  0  0  0
   -1.7584   -5.7267   -1.4898 H   0  0  0  0  0  0  0  0  0  0  0  0
   -3.0389   -6.2785   -0.3829 H   0  0  0  0  0  0  0  0  0  0  0  0
   -1.1986   -4.7174    1.0759 N   0  0  0  0  0  0  0  0  0  0  0  0
   -0.6758   -3.7812    2.0828 C   0  0  2  0  0  0  0  0  0  0  0  0
    0.3571   -2.7902    1.4925 C   0  0  0  0  0  0  0  0  0  0  0  0
    1.5426   -2.8797    1.7761 O   0  0  0  0  0  0  0  0  0  0  0  0
   -0.1086   -4.6168    3.2373 C   0  0  0  0  0  0  0  0  0  0  0  0
   -0.7767   -5.6393    1.0058 H   0  0  0  0  0  0  0  0  0  0  0  0
   -1.4992   -3.1810    2.4856 H   0  0  0  0  0  0  0  0  0  0  0  0
    0.7223   -5.2407    2.8922 H   0  0  0  0  0  0  0  0  0  0  0  0
    0.2595   -3.9607    4.0327 H   0  0  0  0  0  0  0  0  0  0  0  0
   -0.8839   -5.2654    3.6562 H   0  0  0  0  0  0  0  0  0  0  0  0
   -0.0582   -1.8922    0.5254 N   0  0  0  0  0  0  0  0  0  0  0  0
    0.4868   -0.5472    0.2180 C   0  0  2  0  0  0  0  0  0  0  0  0
    1.4164    0.0648    1.3127 C   0  0  0  0  0  0  0  0  0  0  0  0
    0.9899    0.8721    2.1321 O   0  0  0  0  0  0  0  0  0  0  0  0
   -0.7110    0.3619   -0.2095 C   0  0  2  0  0  0  0  0  0  0  0  0
   -1.3602   -0.1986   -1.5064 C   0  0  0  0  0  0  0  0  0  0  0  0
   -0.2566    1.8115   -0.5126 C   0  0  0  0  0  0  0  0  0  0  0  0
   -2.6987    0.4627   -1.8547 C   0  0  0  0  0  0  0  0  0  0  0  0
   -1.0487   -2.0136    0.2955 H   0  0  0  0  0  0  0  0  0  0  0  0
    1.1333   -0.6565   -0.6579 H   0  0  0  0  0  0  0  0  0  0  0  0
   -1.4489    0.3802    0.6004 H   0  0  0  0  0  0  0  0  0  0  0  0
   -0.6689   -0.0818   -2.3476 H   0  0  0  0  0  0  0  0  0  0  0  0
   -1.5558   -1.2679   -1.3980 H   0  0  0  0  0  0  0  0  0  0  0  0
    0.5270    1.8145   -1.2766 H   0  0  0  0  0  0  0  0  0  0  0  0
   -1.0896    2.4209   -0.8696 H   0  0  0  0  0  0  0  0  0  0  0  0
    0.1276    2.3152    0.3760 H   0  0  0  0  0  0  0  0  0  0  0  0
   -3.3681    0.4466   -0.9890 H   0  0  0  0  0  0  0  0  0  0  0  0
   -3.1789   -0.0846   -2.6714 H   0  0  0  0  0  0  0  0  0  0  0  0
   -2.5647    1.4977   -2.1791 H   0  0  0  0  0  0  0  0  0  0  0  0
    2.7117   -0.3863    1.4788 N   0  0  0  0  0  0  0  0  0  0  0  0
    3.6099    0.0232    2.5666 C   0  0  2  0  0  0  0  0  0  0  0  0
    5.1003   -0.1048    2.1863 C   0  0  0  0  0  0  0  0  0  0  0  0
    5.4556   -0.7666    1.2174 O   0  0  0  0  0  0  0  0  0  0  0  0
    3.3054   -0.8378    3.7978 C   0  0  0  0  0  0  0  0  0  0  0  0
    2.9305   -1.2683    1.0134 H   0  0  0  0  0  0  0  0  0  0  0  0
    3.4280    1.0751    2.8091 H   0  0  0  0  0  0  0  0  0  0  0  0
    3.5013   -1.8933    3.5823 H   0  0  0  0  0  0  0  0  0  0  0  0
    3.9271   -0.5333    4.6448 H   0  0  0  0  0  0  0  0  0  0  0  0
    2.2548   -0.7325    4.0862 H   0  0  0  0  0  0  0  0  0  0  0  0
    6.0622    0.5296    2.9517 N   0  0  0  0  0  0  0  0  0  0  0  0
    7.4908    0.4477    2.6739 C   0  0  0  0  0  0  0  0  0  0  0  0
    5.7438    1.0722    3.7488 H   0  0  0  0  0  0  0  0  0  0  0  0
    7.8297   -0.5930    2.7138 H   0  0  0  0  0  0  0  0  0  0  0  0
    7.7116    0.8523    1.6806 H   0  0  0  0  0  0  0  0  0  0  0  0
    8.0540    1.0230    3.4150 H   0  0  0  0  0  0  0  0  0  0  0  0
  1  2  2  0  0  0  0
  1  3  1  0  0  0  0
  1  7  1  0  0  0  0
  3  4  1  0  0  0  0
  3  5  1  0  0  0  0
  3  6  1  0  0  0  0
  7  8  1  0  0  0  0
  7 12  1  0  0  0  0
  8  9  1  0  0  0  0
  8 11  1  0  0  0  0
  8 13  1  0  0  0  0
  9 10  2  0  0  0  0
  9 17  1  0  0  0  0
 11 14  1  0  0  0  0
 11 15  1  0  0  0  0
 11 16  1  0  0  0  0
 17 18  1  0  0  0  0
 17 25  1  0  0  0  0
 18 19  1  0  0  0  0
 18 21  1  0  0  0  0
 18 26  1  0  0  0  0
 19 20  2  0  0  0  0
 19 36  1  0  0  0  0
 21 22  1  0  0  0  0
 21 23  1  0  0  0  0
 21 27  1  0  0  0  0
 22 24  1  0  0  0  0
 22 28  1  0  0  0  0
 22 29  1  0  0  0  0
 23 30  1  0  0  0  0
 23 31  1  0  0  0  0
 23 32  1  0  0  0  0
 24 33  1  0  0  0  0
 24 34  1  0  0  0  0
 24 35  1  0  0  0  0
 36 37  1  0  0  0  0
 36 41  1  0  0  0  0
 37 38  1  0  0  0  0
 37 40  1  0  0  0  0
 37 42  1  0  0  0  0
 38 39  2  0  0  0  0
 38 46  1  0  0  0  0
 40 43  1  0  0  0  0
 40 44  1  0  0  0  0
 40 45  1  0  0  0  0
 46 47  1  0  0  0  0
 46 48  1  0  0  0  0
 47 49  1  0  0  0  0
 47 50  1  0  0  0  0
 47 51  1  0  0  0  0
M  END
$$$$

  -OEChem-05262216503D

 51 50  0     1  0  0  0  0  0999 V2000
   -0.5028   -5.9196    0.5062 C   0  0  0  0  0  0  0  0  0  0  0  0
   -1.3736   -5.6904   -0.3191 O   0  0  0  0  0  0  0  0  0  0  0  0
    0.3922   -7.1346    0.3489 C   0  0  0  0  0  0  0  0  0  0  0  0
    0.1149   -7.6929   -0.5497 H   0  0  0  0  0  0  0  0  0  0  0  0
    1.4358   -6.8216    0.2612 H   0  0  0  0  0  0  0  0  0  0  0  0
    0.2871   -7.7899    1.2169 H   0  0  0  0  0  0  0  0  0  0  0  0
   -0.3081   -5.0613    1.5688 N   0  0  0  0  0  0  0  0  0  0  0  0
   -0.9182   -3.7262    1.6306 C   0  0  2  0  0  0  0  0  0  0  0  0
    0.0308   -2.6382    1.0880 C   0  0  0  0  0  0  0  0  0  0  0  0
    1.2362   -2.7453    1.2730 O   0  0  0  0  0  0  0  0  0  0  0  0
   -1.2756   -3.4332    3.0891 C   0  0  0  0  0  0  0  0  0  0  0  0
    0.5697   -5.1797    2.0689 H   0  0  0  0  0  0  0  0  0  0  0  0
   -1.8423   -3.7019    1.0437 H   0  0  0  0  0  0  0  0  0  0  0  0
   -0.3760   -3.4334    3.7132 H   0  0  0  0  0  0  0  0  0  0  0  0
   -1.7550   -2.4527    3.1741 H   0  0  0  0  0  0  0  0  0  0  0  0
   -1.9665   -4.1915    3.4707 H   0  0  0  0  0  0  0  0  0  0  0  0
   -0.4865   -1.5858    0.3516 N   0  0  0  0  0  0  0  0  0  0  0  0
    0.0822   -0.2266    0.1999 C   0  0  2  0  0  0  0  0  0  0  0  0
    1.1839    0.1384    1.2370 C   0  0  0  0  0  0  0  0  0  0  0  0
    0.8862    0.6174    2.3272 O   0  0  0  0  0  0  0  0  0  0  0  0
   -1.1007    0.7893    0.1667 C   0  0  2  0  0  0  0  0  0  0  0  0
   -2.0017    0.5175   -1.0692 C   0  0  0  0  0  0  0  0  0  0  0  0
   -0.5929    2.2482    0.0767 C   0  0  0  0  0  0  0  0  0  0  0  0
   -3.3254    1.2890   -1.0349 C   0  0  0  0  0  0  0  0  0  0  0  0
   -1.4899   -1.6478    0.2086 H   0  0  0  0  0  0  0  0  0  0  0  0
    0.5779   -0.1844   -0.7748 H   0  0  0  0  0  0  0  0  0  0  0  0
   -1.6862    0.6754    1.0861 H   0  0  0  0  0  0  0  0  0  0  0  0
   -1.4590    0.7700   -1.9864 H   0  0  0  0  0  0  0  0  0  0  0  0
   -2.2535   -0.5449   -1.1260 H   0  0  0  0  0  0  0  0  0  0  0  0
    0.0110    2.3891   -0.8253 H   0  0  0  0  0  0  0  0  0  0  0  0
   -1.4272    2.9530    0.0494 H   0  0  0  0  0  0  0  0  0  0  0  0
    0.0144    2.5216    0.9427 H   0  0  0  0  0  0  0  0  0  0  0  0
   -3.8436    1.1204   -0.0858 H   0  0  0  0  0  0  0  0  0  0  0  0
   -3.9736    0.9475   -1.8478 H   0  0  0  0  0  0  0  0  0  0  0  0
   -3.1646    2.3626   -1.1635 H   0  0  0  0  0  0  0  0  0  0  0  0
    2.5140   -0.1239    0.9705 N   0  0  0  0  0  0  0  0  0  0  0  0
    3.6220    0.1161    1.9020 C   0  0  2  0  0  0  0  0  0  0  0  0
    4.9591    0.3373    1.1639 C   0  0  0  0  0  0  0  0  0  0  0  0
    5.0915    0.0001   -0.0077 O   0  0  0  0  0  0  0  0  0  0  0  0
    3.7277   -1.0837    2.8490 C   0  0  0  0  0  0  0  0  0  0  0  0
    2.7176   -0.6868    0.1464 H   0  0  0  0  0  0  0  0  0  0  0  0
    3.4160    1.0194    2.4852 H   0  0  0  0  0  0  0  0  0  0  0  0
    3.9439   -1.9965    2.2843 H   0  0  0  0  0  0  0  0  0  0  0  0
    4.5243   -0.9279    3.5822 H   0  0  0  0  0  0  0  0  0  0  0  0
    2.7859   -1.2268    3.3882 H   0  0  0  0  0  0  0  0  0  0  0  0
    6.0252    0.9286    1.8175 N   0  0  0  0  0  0  0  0  0  0  0  0
    7.3126    1.1835    1.1827 C   0  0  0  0  0  0  0  0  0  0  0  0
    5.8888    1.2049    2.7852 H   0  0  0  0  0  0  0  0  0  0  0  0
    7.7690    0.2446    0.8524 H   0  0  0  0  0  0  0  0  0  0  0  0
    7.1890    1.8401    0.3150 H   0  0  0  0  0  0  0  0  0  0  0  0
    7.9931    1.6693    1.8885 H   0  0  0  0  0  0  0  0  0  0  0  0
  1  2  2  0  0  0  0
  1  3  1  0  0  0  0
  1  7  1  0  0  0  0
  3  4  1  0  0  0  0
  3  5  1  0  0  0  0
  3  6  1  0  0  0  0
  7  8  1  0  0  0  0
  7 12  1  0  0  0  0
  8  9  1  0  0  0  0
  8 11  1  0  0  0  0
  8 13  1  0  0  0  0
  9 10  2  0  0  0  0
  9 17  1  0  0  0  0
 11 14  1  0  0  0  0
 11 15  1  0  0  0  0
 11 16  1  0  0  0  0
 17 18  1  0  0  0  0
 17 25  1  0  0  0  0
 18 19  1  0  0  0  0
 18 21  1  0  0  0  0
 18 26  1  0  0  0  0
 19 20  2  0  0  0  0
 19 36  1  0  0  0  0
 21 22  1  0  0  0  0
 21 23  1  0  0  0  0
 21 27  1  0  0  0  0
 22 24  1  0  0  0  0
 22 28  1  0  0  0  0
 22 29  1  0  0  0  0
 23 30  1  0  0  0  0
 23 31  1  0  0  0  0
 23 32  1  0  0  0  0
 24 33  1  0  0  0  0
 24 34  1  0  0  0  0
 24 35  1  0  0  0  0
 36 37  1  0  0  0  0
 36 41  1  0  0  0  0
 37 38  1  0  0  0  0
 37 40  1  0  0  0  0
 37 42  1  0  0  0  0
 38 39  2  0  0  0  0
 38 46  1  0  0  0  0
 40 43  1  0  0  0  0
 40 44  1  0  0  0  0
 40 45  1  0  0  0  0
 46 47  1  0  0  0  0
 46 48  1  0  0  0  0
 47 49  1  0  0  0  0
 47 50  1  0  0  0  0
 47 51  1  0  0  0  0
M  END
$$$$

  -OEChem-05262216503D

 51 50  0     1  0  0  0  0  0999 V2000
   -0.2845   -6.0580    0.7714 C   0  0  0  0  0  0  0  0  0  0  0  0
   -1.3047   -6.0904    0.1009 O   0  0  0  0  0  0  0  0  0  0  0  0
    0.7129   -7.1982    0.6894 C   0  0  0  0  0  0  0  0  0  0  0  0
    0.3338   -7.9846    0.0310 H   0  0  0  0  0  0  0  0  0  0  0  0
    1.6631   -6.8335    0.2916 H   0  0  0  0  0  0  0  0  0  0  0  0
    0.8791   -7.6209    1.6830 H   0  0  0  0  0  0  0  0  0  0  0  0
   -0.0172   -4.9797    1.5892 N   0  0  0  0  0  0  0  0  0  0  0  0
   -0.7470   -3.7062    1.5148 C   0  0  2  0  0  0  0  0  0  0  0  0
    0.1230   -2.5911    0.9010 C   0  0  0  0  0  0  0  0  0  0  0  0
    1.3445   -2.6661    0.9743 O   0  0  0  0  0  0  0  0  0  0  0  0
   -1.1718   -3.3225    2.9338 C   0  0  0  0  0  0  0  0  0  0  0  0
    0.9377   -4.9231    1.9378 H   0  0  0  0  0  0  0  0  0  0  0  0
   -1.6466   -3.8088    0.8995 H   0  0  0  0  0  0  0  0  0  0  0  0
   -0.2940   -3.1883    3.5744 H   0  0  0  0  0  0  0  0  0  0  0  0
   -1.7388   -2.3863    2.9241 H   0  0  0  0  0  0  0  0  0  0  0  0
   -1.8029   -4.1062    3.3649 H   0  0  0  0  0  0  0  0  0  0  0  0
   -0.4748   -1.5517    0.2071 N   0  0  0  0  0  0  0  0  0  0  0  0
    0.0503   -0.1719    0.0999 C   0  0  2  0  0  0  0  0  0  0  0  0
    1.1596    0.1681    1.1333 C   0  0  0  0  0  0  0  0  0  0  0  0
    0.8652    0.3957    2.3032 O   0  0  0  0  0  0  0  0  0  0  0  0
   -1.1529    0.8143    0.1694 C   0  0  2  0  0  0  0  0  0  0  0  0
   -2.1037    0.5872   -1.0358 C   0  0  0  0  0  0  0  0  0  0  0  0
   -0.6722    2.2831    0.1568 C   0  0  0  0  0  0  0  0  0  0  0  0
   -3.4376    1.3279   -0.8969 C   0  0  0  0  0  0  0  0  0  0  0  0
   -1.4863   -1.6267    0.1622 H   0  0  0  0  0  0  0  0  0  0  0  0
    0.5130   -0.0671   -0.8863 H   0  0  0  0  0  0  0  0  0  0  0  0
   -1.6973    0.6342    1.1034 H   0  0  0  0  0  0  0  0  0  0  0  0
   -1.6094    0.8994   -1.9619 H   0  0  0  0  0  0  0  0  0  0  0  0
   -2.3364   -0.4764   -1.1367 H   0  0  0  0  0  0  0  0  0  0  0  0
   -0.0978    2.4913   -0.7514 H   0  0  0  0  0  0  0  0  0  0  0  0
   -1.5176    2.9739    0.1988 H   0  0  0  0  0  0  0  0  0  0  0  0
   -0.0432    2.5056    1.0229 H   0  0  0  0  0  0  0  0  0  0  0  0
   -3.9074    1.0953    0.0638 H   0  0  0  0  0  0  0  0  0  0  0  0
   -4.1175    1.0200   -1.6971 H   0  0  0  0  0  0  0  0  0  0  0  0
   -3.3010    2.4101   -0.9701 H   0  0  0  0  0  0  0  0  0  0  0  0
    2.4832    0.2453    0.7456 N   0  0  0  0  0  0  0  0  0  0  0  0
    3.6092    0.4820    1.6560 C   0  0  2  0  0  0  0  0  0  0  0  0
    4.8504    1.0085    0.9054 C   0  0  0  0  0  0  0  0  0  0  0  0
    4.9217    0.9271   -0.3164 O   0  0  0  0  0  0  0  0  0  0  0  0
    3.9407   -0.8312    2.3744 C   0  0  0  0  0  0  0  0  0  0  0  0
    2.7118   -0.0414   -0.2046 H   0  0  0  0  0  0  0  0  0  0  0  0
    3.3247    1.2369    2.3962 H   0  0  0  0  0  0  0  0  0  0  0  0
    4.2192   -1.6024    1.6490 H   0  0  0  0  0  0  0  0  0  0  0  0
    4.7706   -0.6906    3.0730 H   0  0  0  0  0  0  0  0  0  0  0  0
    3.0732   -1.1870    2.9394 H   0  0  0  0  0  0  0  0  0  0  0  0
    5.8958    1.5856    1.6032 N   0  0  0  0  0  0  0  0  0  0  0  0
    7.1003    2.0980    0.9611 C   0  0  0  0  0  0  0  0  0  0  0  0
    5.8126    1.6422    2.6140 H   0  0  0  0  0  0  0  0  0  0  0  0
    7.6265    1.2932    0.4369 H   0  0  0  0  0  0  0  0  0  0  0  0
    6.8466    2.8819    0.2397 H   0  0  0  0  0  0  0  0  0  0  0  0
    7.7761    2.5235    1.7091 H   0  0  0  0  0  0  0  0  0  0  0  0
  1  2  2  0  0  0  0
  1  3  1  0  0  0  0
  1  7  1  0  0  0  0
  3  4  1  0  0  0  0
  3  5  1  0  0  0  0
  3  6  1  0  0  0  0
  7  8  1  0  0  0  0
  7 12  1  0  0  0  0
  8  9  1  0  0  0  0
  8 11  1  0  0  0  0
  8 13  1  0  0  0  0
  9 10  2  0  0  0  0
  9 17  1  0  0  0  0
 11 14  1  0  0  0  0
 11 15  1  0  0  0  0
 11 16  1  0  0  0  0
 17 18  1  0  0  0  0
 17 25  1  0  0  0  0
 18 19  1  0  0  0  0
 18 21  1  0  0  0  0
 18 26  1  0  0  0  0
 19 20  2  0  0  0  0
 19 36  1  0  0  0  0
 21 22  1  0  0  0  0
 21 23  1  0  0  0  0
 21 27  1  0  0  0  0
 22 24  1  0  0  0  0
 22 28  1  0  0  0  0
 22 29  1  0  0  0  0
 23 30  1  0  0  0  0
 23 31  1  0  0  0  0
 23 32  1  0  0  0  0
 24 33  1  0  0  0  0
 24 34  1  0  0  0  0
 24 35  1  0  0  0  0
 36 37  1  0  0  0  0
 36 41  1  0  0  0  0
 37 38  1  0  0  0  0
 37 40  1  0  0  0  0
 37 42  1  0  0  0  0
 38 39  2  0  0  0  0
 38 46  1  0  0  0  0
 40 43  1  0  0  0  0
 40 44  1  0  0  0  0
 40 45  1  0  0  0  0
 46 47  1  0  0  0  0
 46 48  1  0  0  0  0
 47 49  1  0  0  0  0
 47 50  1  0  0  0  0
 47 51  1  0  0  0  0
M  END
$$$$

  -OEChem-05262216503D

 51 50  0     1  0  0  0  0  0999 V2000
   -0.2173   -6.0727    0.9200 C   0  0  0  0  0  0  0  0  0  0  0  0
   -1.2930   -6.1462    0.3468 O   0  0  0  0  0  0  0  0  0  0  0  0
    0.7581   -7.2325    0.8519 C   0  0  0  0  0  0  0  0  0  0  0  0
    0.3175   -8.0635    0.2943 H   0  0  0  0  0  0  0  0  0  0  0  0
    1.6763   -6.9183    0.3496 H   0  0  0  0  0  0  0  0  0  0  0  0
    1.0015   -7.5754    1.8603 H   0  0  0  0  0  0  0  0  0  0  0  0
    0.1288   -4.9342    1.6173 N   0  0  0  0  0  0  0  0  0  0  0  0
   -0.6038   -3.6643    1.5133 C   0  0  2  0  0  0  0  0  0  0  0  0
    0.2044   -2.5993    0.7458 C   0  0  0  0  0  0  0  0  0  0  0  0
    1.4277   -2.6787    0.6920 O   0  0  0  0  0  0  0  0  0  0  0  0
   -0.8947   -3.1729    2.9329 C   0  0  0  0  0  0  0  0  0  0  0  0
    1.1095   -4.8622    1.8807 H   0  0  0  0  0  0  0  0  0  0  0  0
   -1.5555   -3.8056    0.9913 H   0  0  0  0  0  0  0  0  0  0  0  0
    0.0396   -3.0061    3.4794 H   0  0  0  0  0  0  0  0  0  0  0  0
   -1.4504   -2.2302    2.9053 H   0  0  0  0  0  0  0  0  0  0  0  0
   -1.4918   -3.9122    3.4759 H   0  0  0  0  0  0  0  0  0  0  0  0
   -0.4474   -1.5748    0.0777 N   0  0  0  0  0  0  0  0  0  0  0  0
    0.0547   -0.1841    0.0079 C   0  0  2  0  0  0  0  0  0  0  0  0
    1.1663    0.1378    1.0423 C   0  0  0  0  0  0  0  0  0  0  0  0
    0.9060    0.1278    2.2425 O   0  0  0  0  0  0  0  0  0  0  0  0
   -1.1545    0.7874    0.1325 C   0  0  2  0  0  0  0  0  0  0  0  0
   -2.1243    0.5917   -1.0624 C   0  0  0  0  0  0  0  0  0  0  0  0
   -0.6888    2.2598    0.1800 C   0  0  0  0  0  0  0  0  0  0  0  0
   -3.4628    1.3136   -0.8782 C   0  0  0  0  0  0  0  0  0  0  0  0
   -1.4585   -1.6543    0.1204 H   0  0  0  0  0  0  0  0  0  0  0  0
    0.5033   -0.0436   -0.9802 H   0  0  0  0  0  0  0  0  0  0  0  0
   -1.6819    0.5632    1.0669 H   0  0  0  0  0  0  0  0  0  0  0  0
   -1.6486    0.9396   -1.9853 H   0  0  0  0  0  0  0  0  0  0  0  0
   -2.3476   -0.4705   -1.1946 H   0  0  0  0  0  0  0  0  0  0  0  0
   -0.1261    2.5158   -0.7232 H   0  0  0  0  0  0  0  0  0  0  0  0
   -1.5407    2.9389    0.2621 H   0  0  0  0  0  0  0  0  0  0  0  0
   -0.0528    2.4475    1.0499 H   0  0  0  0  0  0  0  0  0  0  0  0
   -3.9172    1.0401    0.0789 H   0  0  0  0  0  0  0  0  0  0  0  0
   -4.1502    1.0289   -1.6807 H   0  0  0  0  0  0  0  0  0  0  0  0
   -3.3376    2.3992   -0.9124 H   0  0  0  0  0  0  0  0  0  0  0  0
    2.4186    0.5467    0.6280 N   0  0  0  0  0  0  0  0  0  0  0  0
    3.5419    0.8311    1.5268 C   0  0  2  0  0  0  0  0  0  0  0  0
    4.6011    1.7276    0.8521 C   0  0  0  0  0  0  0  0  0  0  0  0
    4.5867    1.9013   -0.3621 O   0  0  0  0  0  0  0  0  0  0  0  0
    4.1641   -0.5028    1.9561 C   0  0  0  0  0  0  0  0  0  0  0  0
    2.6163    0.5382   -0.3710 H   0  0  0  0  0  0  0  0  0  0  0  0
    3.1749    1.3620    2.4113 H   0  0  0  0  0  0  0  0  0  0  0  0
    4.5232   -1.0555    1.0819 H   0  0  0  0  0  0  0  0  0  0  0  0
    5.0055   -0.3355    2.6345 H   0  0  0  0  0  0  0  0  0  0  0  0
    3.4228   -1.1206    2.4735 H   0  0  0  0  0  0  0  0  0  0  0  0
    5.5745    2.3506    1.6116 N   0  0  0  0  0  0  0  0  0  0  0  0
    6.6106    3.2037    1.0426 C   0  0  0  0  0  0  0  0  0  0  0  0
    5.5654    2.1873    2.6141 H   0  0  0  0  0  0  0  0  0  0  0  0
    7.2341    2.6347    0.3450 H   0  0  0  0  0  0  0  0  0  0  0  0
    6.1622    4.0475    0.5075 H   0  0  0  0  0  0  0  0  0  0  0  0
    7.2521    3.6001    1.8355 H   0  0  0  0  0  0  0  0  0  0  0  0
  1  2  2  0  0  0  0
  1  3  1  0  0  0  0
  1  7  1  0  0  0  0
  3  4  1  0  0  0  0
  3  5  1  0  0  0  0
  3  6  1  0  0  0  0
  7  8  1  0  0  0  0
  7 12  1  0  0  0  0
  8  9  1  0  0  0  0
  8 11  1  0  0  0  0
  8 13  1  0  0  0  0
  9 10  2  0  0  0  0
  9 17  1  0  0  0  0
 11 14  1  0  0  0  0
 11 15  1  0  0  0  0
 11 16  1  0  0  0  0
 17 18  1  0  0  0  0
 17 25  1  0  0  0  0
 18 19  1  0  0  0  0
 18 21  1  0  0  0  0
 18 26  1  0  0  0  0
 19 20  2  0  0  0  0
 19 36  1  0  0  0  0
 21 22  1  0  0  0  0
 21 23  1  0  0  0  0
 21 27  1  0  0  0  0
 22 24  1  0  0  0  0
 22 28  1  0  0  0  0
 22 29  1  0  0  0  0
 23 30  1  0  0  0  0
 23 31  1  0  0  0  0
 23 32  1  0  0  0  0
 24 33  1  0  0  0  0
 24 34  1  0  0  0  0
 24 35  1  0  0  0  0
 36 37  1  0  0  0  0
 36 41  1  0  0  0  0
 37 38  1  0  0  0  0
 37 40  1  0  0  0  0
 37 42  1  0  0  0  0
 38 39  2  0  0  0  0
 38 46  1  0  0  0  0
 40 43  1  0  0  0  0
 40 44  1  0  0  0  0
 40 45  1  0  0  0  0
 46 47  1  0  0  0  0
 46 48  1  0  0  0  0
 47 49  1  0  0  0  0
 47 50  1  0  0  0  0
 47 51  1  0  0  0  0
M  END
$$$$

  -OEChem-05262216503D

 51 50  0     1  0  0  0  0  0999 V2000
   -0.2618   -6.1464    0.9979 C   0  0  0  0  0  0  0  0  0  0  0  0
   -1.3952   -6.2462    0.5543 O   0  0  0  0  0  0  0  0  0  0  0  0
    0.6931   -7.3217    0.9058 C   0  0  0  0  0  0  0  0  0  0  0  0
    0.1786   -8.1941    0.4935 H   0  0  0  0  0  0  0  0  0  0  0  0
    1.5345   -7.0685    0.2558 H   0  0  0  0  0  0  0  0  0  0  0  0
    1.0720   -7.5736    1.8993 H   0  0  0  0  0  0  0  0  0  0  0  0
    0.1656   -4.9671    1.5709 N   0  0  0  0  0  0  0  0  0  0  0  0
   -0.5610   -3.6943    1.4607 C   0  0  2  0  0  0  0  0  0  0  0  0
    0.2525   -2.6446    0.6783 C   0  0  0  0  0  0  0  0  0  0  0  0
    1.4700   -2.7595    0.5748 O   0  0  0  0  0  0  0  0  0  0  0  0
   -0.8418   -3.1848    2.8756 C   0  0  0  0  0  0  0  0  0  0  0  0
    1.1690   -4.8916    1.7290 H   0  0  0  0  0  0  0  0  0  0  0  0
   -1.5149   -3.8339    0.9420 H   0  0  0  0  0  0  0  0  0  0  0  0
    0.0962   -3.0111    3.4133 H   0  0  0  0  0  0  0  0  0  0  0  0
   -1.3978   -2.2427    2.8411 H   0  0  0  0  0  0  0  0  0  0  0  0
   -1.4343   -3.9180    3.4313 H   0  0  0  0  0  0  0  0  0  0  0  0
   -0.3880   -1.6040    0.0264 N   0  0  0  0  0  0  0  0  0  0  0  0
    0.1435   -0.2238   -0.0262 C   0  0  2  0  0  0  0  0  0  0  0  0
    1.2680    0.0740    1.0024 C   0  0  0  0  0  0  0  0  0  0  0  0
    1.0546   -0.0843    2.2015 O   0  0  0  0  0  0  0  0  0  0  0  0
   -1.0508    0.7637    0.1242 C   0  0  2  0  0  0  0  0  0  0  0  0
   -2.0332    0.6029   -1.0656 C   0  0  0  0  0  0  0  0  0  0  0  0
   -0.5689    2.2294    0.1998 C   0  0  0  0  0  0  0  0  0  0  0  0
   -3.3591    1.3419   -0.8573 C   0  0  0  0  0  0  0  0  0  0  0  0
   -1.3989   -1.6579    0.1002 H   0  0  0  0  0  0  0  0  0  0  0  0
    0.5882   -0.0814   -1.0158 H   0  0  0  0  0  0  0  0  0  0  0  0
   -1.5745    0.5289    1.0579 H   0  0  0  0  0  0  0  0  0  0  0  0
   -1.5595    0.9597   -1.9863 H   0  0  0  0  0  0  0  0  0  0  0  0
   -2.2738   -0.4532   -1.2149 H   0  0  0  0  0  0  0  0  0  0  0  0
    0.0069    2.4922   -0.6934 H   0  0  0  0  0  0  0  0  0  0  0  0
   -1.4127    2.9184    0.2833 H   0  0  0  0  0  0  0  0  0  0  0  0
    0.0582    2.3940    1.0808 H   0  0  0  0  0  0  0  0  0  0  0  0
   -3.8084    1.0617    0.1006 H   0  0  0  0  0  0  0  0  0  0  0  0
   -4.0590    1.0804   -1.6569 H   0  0  0  0  0  0  0  0  0  0  0  0
   -3.2173    2.4257   -0.8772 H   0  0  0  0  0  0  0  0  0  0  0  0
    2.4081    0.7519    0.6160 N   0  0  0  0  0  0  0  0  0  0  0  0
    3.4429    1.2435    1.5319 C   0  0  2  0  0  0  0  0  0  0  0  0
    4.2185    2.4301    0.9231 C   0  0  0  0  0  0  0  0  0  0  0  0
    4.0589    2.7353   -0.2544 O   0  0  0  0  0  0  0  0  0  0  0  0
    4.3905    0.0839    1.8583 C   0  0  0  0  0  0  0  0  0  0  0  0
    2.5193    0.9771   -0.3714 H   0  0  0  0  0  0  0  0  0  0  0  0
    2.9745    1.5985    2.4559 H   0  0  0  0  0  0  0  0  0  0  0  0
    4.8778   -0.2788    0.9477 H   0  0  0  0  0  0  0  0  0  0  0  0
    5.1620    0.4020    2.5654 H   0  0  0  0  0  0  0  0  0  0  0  0
    3.8346   -0.7453    2.3080 H   0  0  0  0  0  0  0  0  0  0  0  0
    5.0812    3.1767    1.7043 N   0  0  0  0  0  0  0  0  0  0  0  0
    5.8419    4.3119    1.1969 C   0  0  0  0  0  0  0  0  0  0  0  0
    5.1938    2.9022    2.6758 H   0  0  0  0  0  0  0  0  0  0  0  0
    6.5290    3.9893    0.4075 H   0  0  0  0  0  0  0  0  0  0  0  0
    5.1691    5.0741    0.7894 H   0  0  0  0  0  0  0  0  0  0  0  0
    6.4280    4.7650    2.0022 H   0  0  0  0  0  0  0  0  0  0  0  0
  1  2  2  0  0  0  0
  1  3  1  0  0  0  0
  1  7  1  0  0  0  0
  3  4  1  0  0  0  0
  3  5  1  0  0  0  0
  3  6  1  0  0  0  0
  7  8  1  0  0  0  0
  7 12  1  0  0  0  0
  8  9  1  0  0  0  0
  8 11  1  0  0  0  0
  8 13  1  0  0  0  0
  9 10  2  0  0  0  0
  9 17  1  0  0  0  0
 11 14  1  0  0  0  0
 11 15  1  0  0  0  0
 11 16  1  0  0  0  0
 17 18  1  0  0  0  0
 17 25  1  0  0  0  0
 18 19  1  0  0  0  0
 18 21  1  0  0  0  0
 18 26  1  0  0  0  0
 19 20  2  0  0  0  0
 19 36  1  0  0  0  0
 21 22  1  0  0  0  0
 21 23  1  0  0  0  0
 21 27  1  0  0  0  0
 22 24  1  0  0  0  0
 22 28  1  0  0  0  0
 22 29  1  0  0  0  0
 23 30  1  0  0  0  0
 23 31  1  0  0  0  0
 23 32  1  0  0  0  0
 24 33  1  0  0  0  0
 24 34  1  0  0  0  0
 24 35  1  0  0  0  0
 36 37  1  0  0  0  0
 36 41  1  0  0  0  0
 37 38  1  0  0  0  0
 37 40  1  0  0  0  0
 37 42  1  0  0  0  0
 38 39  2  0  0  0  0
 38 46  1  0  0  0  0
 40 43  1  0  0  0  0
 40 44  1  0  0  0  0
 40 45  1  0  0  0  0
 46 47  1  0  0  0  0
 46 48  1  0  0  0  0
 47 49  1  0  0  0  0
 47 50  1  0  0  0  0
 47 51  1  0  0  0  0
M  END
$$$$

  -OEChem-05262216503D

 51 50  0     1  0  0  0  0  0999 V2000
   -0.2806   -6.1263    1.0080 C   0  0  0  0  0  0  0  0  0  0  0  0
   -1.4198   -6.1958    0.5731 O   0  0  0  0  0  0  0  0  0  0  0  0
    0.6489   -7.3197    0.8884 C   0  0  0  0  0  0  0  0  0  0  0  0
    0.1120   -8.1759    0.4704 H   0  0  0  0  0  0  0  0  0  0  0  0
    1.4867   -7.0729    0.2314 H   0  0  0  0  0  0  0  0  0  0  0  0
    1.0360   -7.5947    1.8725 H   0  0  0  0  0  0  0  0  0  0  0  0
    0.1798   -4.9614    1.5855 N   0  0  0  0  0  0  0  0  0  0  0  0
   -0.5138   -3.6701    1.4802 C   0  0  2  0  0  0  0  0  0  0  0  0
    0.3042   -2.6530    0.6599 C   0  0  0  0  0  0  0  0  0  0  0  0
    1.5124   -2.8078    0.5087 O   0  0  0  0  0  0  0  0  0  0  0  0
   -0.7356   -3.1361    2.8966 C   0  0  0  0  0  0  0  0  0  0  0  0
    1.1868   -4.9101    1.7296 H   0  0  0  0  0  0  0  0  0  0  0  0
   -1.4871   -3.7891    0.9937 H   0  0  0  0  0  0  0  0  0  0  0  0
    0.2242   -2.9706    3.3974 H   0  0  0  0  0  0  0  0  0  0  0  0
   -1.2765   -2.1850    2.8674 H   0  0  0  0  0  0  0  0  0  0  0  0
   -1.3197   -3.8503    3.4851 H   0  0  0  0  0  0  0  0  0  0  0  0
   -0.3224   -1.6032    0.0095 N   0  0  0  0  0  0  0  0  0  0  0  0
    0.2373   -0.2333   -0.0531 C   0  0  2  0  0  0  0  0  0  0  0  0
    1.3800    0.0608    0.9615 C   0  0  0  0  0  0  0  0  0  0  0  0
    1.2344   -0.2297    2.1462 O   0  0  0  0  0  0  0  0  0  0  0  0
   -0.9574    0.7572    0.1052 C   0  0  2  0  0  0  0  0  0  0  0  0
   -1.9504    0.5960   -1.0780 C   0  0  0  0  0  0  0  0  0  0  0  0
   -0.4882    2.2258    0.1893 C   0  0  0  0  0  0  0  0  0  0  0  0
   -3.2763    1.3348   -0.8648 C   0  0  0  0  0  0  0  0  0  0  0  0
   -1.3324   -1.6336    0.1033 H   0  0  0  0  0  0  0  0  0  0  0  0
    0.6731   -0.0995   -1.0480 H   0  0  0  0  0  0  0  0  0  0  0  0
   -1.4758    0.5169    1.0405 H   0  0  0  0  0  0  0  0  0  0  0  0
   -1.4823    0.9530   -2.0017 H   0  0  0  0  0  0  0  0  0  0  0  0
   -2.1939   -0.4595   -1.2265 H   0  0  0  0  0  0  0  0  0  0  0  0
    0.1041    2.4932   -0.6915 H   0  0  0  0  0  0  0  0  0  0  0  0
   -1.3370    2.9099    0.2561 H   0  0  0  0  0  0  0  0  0  0  0  0
    0.1171    2.3932    1.0847 H   0  0  0  0  0  0  0  0  0  0  0  0
   -3.7164    1.0637    0.0999 H   0  0  0  0  0  0  0  0  0  0  0  0
   -3.9829    1.0624   -1.6549 H   0  0  0  0  0  0  0  0  0  0  0  0
   -3.1381    2.4186   -0.8986 H   0  0  0  0  0  0  0  0  0  0  0  0
    2.3704    0.9716    0.6419 N   0  0  0  0  0  0  0  0  0  0  0  0
    3.2941    1.5852    1.6029 C   0  0  2  0  0  0  0  0  0  0  0  0
    3.7323    2.9903    1.1405 C   0  0  0  0  0  0  0  0  0  0  0  0
    3.4212    3.3988    0.0261 O   0  0  0  0  0  0  0  0  0  0  0  0
    4.5024    0.6573    1.7643 C   0  0  0  0  0  0  0  0  0  0  0  0
    2.3609    1.3676   -0.2970 H   0  0  0  0  0  0  0  0  0  0  0  0
    2.7977    1.7043    2.5717 H   0  0  0  0  0  0  0  0  0  0  0  0
    5.0141    0.5261    0.8055 H   0  0  0  0  0  0  0  0  0  0  0  0
    5.2134    1.0688    2.4867 H   0  0  0  0  0  0  0  0  0  0  0  0
    4.1785   -0.3253    2.1228 H   0  0  0  0  0  0  0  0  0  0  0  0
    4.4544    3.8123    1.9858 N   0  0  0  0  0  0  0  0  0  0  0  0
    4.9006    5.1498    1.6151 C   0  0  0  0  0  0  0  0  0  0  0  0
    4.7006    3.4462    2.9010 H   0  0  0  0  0  0  0  0  0  0  0  0
    5.5831    5.1014    0.7599 H   0  0  0  0  0  0  0  0  0  0  0  0
    4.0457    5.7809    1.3492 H   0  0  0  0  0  0  0  0  0  0  0  0
    5.4269    5.6185    2.4523 H   0  0  0  0  0  0  0  0  0  0  0  0
  1  2  2  0  0  0  0
  1  3  1  0  0  0  0
  1  7  1  0  0  0  0
  3  4  1  0  0  0  0
  3  5  1  0  0  0  0
  3  6  1  0  0  0  0
  7  8  1  0  0  0  0
  7 12  1  0  0  0  0
  8  9  1  0  0  0  0
  8 11  1  0  0  0  0
  8 13  1  0  0  0  0
  9 10  2  0  0  0  0
  9 17  1  0  0  0  0
 11 14  1  0  0  0  0
 11 15  1  0  0  0  0
 11 16  1  0  0  0  0
 17 18  1  0  0  0  0
 17 25  1  0  0  0  0
 18 19  1  0  0  0  0
 18 21  1  0  0  0  0
 18 26  1  0  0  0  0
 19 20  2  0  0  0  0
 19 36  1  0  0  0  0
 21 22  1  0  0  0  0
 21 23  1  0  0  0  0
 21 27  1  0  0  0  0
 22 24  1  0  0  0  0
 22 28  1  0  0  0  0
 22 29  1  0  0  0  0
 23 30  1  0  0  0  0
 23 31  1  0  0  0  0
 23 32  1  0  0  0  0
 24 33  1  0  0  0  0
 24 34  1  0  0  0  0
 24 35  1  0  0  0  0
 36 37  1  0  0  0  0
 36 41  1  0  0  0  0
 37 38  1  0  0  0  0
 37 40  1  0  0  0  0
 37 42  1  0  0  0  0
 38 39  2  0  0  0  0
 38 46  1  0  0  0  0
 40 43  1  0  0  0  0
 40 44  1  0  0  0  0
 40 45  1  0  0  0  0
 46 47  1  0  0  0  0
 46 48  1  0  0  0  0
 47 49  1  0  0  0  0
 47 50  1  0  0  0  0
 47 51  1  0  0  0  0
M  END
$$$$

  -OEChem-05262216503D

 51 50  0     1  0  0  0  0  0999 V2000
   -0.2609   -6.1398    1.1037 C   0  0  0  0  0  0  0  0  0  0  0  0
   -1.4516   -6.2440    0.8519 O   0  0  0  0  0  0  0  0  0  0  0  0
    0.6456   -7.3516    0.9961 C   0  0  0  0  0  0  0  0  0  0  0  0
    0.0552   -8.2469    0.7823 H   0  0  0  0  0  0  0  0  0  0  0  0
    1.3689   -7.2046    0.1901 H   0  0  0  0  0  0  0  0  0  0  0  0
    1.1829   -7.5010    1.9358 H   0  0  0  0  0  0  0  0  0  0  0  0
    0.2720   -4.9228    1.4724 N   0  0  0  0  0  0  0  0  0  0  0  0
   -0.4434   -3.6444    1.3633 C   0  0  2  0  0  0  0  0  0  0  0  0
    0.3783   -2.6017    0.5791 C   0  0  0  0  0  0  0  0  0  0  0  0
    1.5730   -2.7849    0.3662 O   0  0  0  0  0  0  0  0  0  0  0  0
   -0.7271   -3.1358    2.7780 C   0  0  0  0  0  0  0  0  0  0  0  0
    1.2894   -4.8621    1.4866 H   0  0  0  0  0  0  0  0  0  0  0  0
   -1.3929   -3.7796    0.8356 H   0  0  0  0  0  0  0  0  0  0  0  0
    0.2103   -2.9686    3.3188 H   0  0  0  0  0  0  0  0  0  0  0  0
   -1.2783   -2.1912    2.7434 H   0  0  0  0  0  0  0  0  0  0  0  0
   -1.3253   -3.8669    3.3307 H   0  0  0  0  0  0  0  0  0  0  0  0
   -0.2461   -1.5282   -0.0323 N   0  0  0  0  0  0  0  0  0  0  0  0
    0.3224   -0.1601   -0.0880 C   0  0  2  0  0  0  0  0  0  0  0  0
    1.4993    0.1292    0.8972 C   0  0  0  0  0  0  0  0  0  0  0  0
    1.4694   -0.3236    2.0384 O   0  0  0  0  0  0  0  0  0  0  0  0
   -0.8990    0.8005    0.1077 C   0  0  2  0  0  0  0  0  0  0  0  0
   -1.9074    0.6315   -1.0643 C   0  0  0  0  0  0  0  0  0  0  0  0
   -0.4956    2.2864    0.2211 C   0  0  0  0  0  0  0  0  0  0  0  0
   -3.2511    1.3292   -0.8250 C   0  0  0  0  0  0  0  0  0  0  0  0
   -1.2533   -1.5492    0.0885 H   0  0  0  0  0  0  0  0  0  0  0  0
    0.7316   -0.0095   -1.0917 H   0  0  0  0  0  0  0  0  0  0  0  0
   -1.3968    0.5247    1.0444 H   0  0  0  0  0  0  0  0  0  0  0  0
   -1.4614    1.0142   -1.9884 H   0  0  0  0  0  0  0  0  0  0  0  0
   -2.1279   -0.4264   -1.2289 H   0  0  0  0  0  0  0  0  0  0  0  0
    0.1049    2.5920   -0.6417 H   0  0  0  0  0  0  0  0  0  0  0  0
   -1.3717    2.9361    0.2771 H   0  0  0  0  0  0  0  0  0  0  0  0
    0.0757    2.4655    1.1360 H   0  0  0  0  0  0  0  0  0  0  0  0
   -3.6600    1.0523    0.1517 H   0  0  0  0  0  0  0  0  0  0  0  0
   -3.9660    1.0275   -1.5965 H   0  0  0  0  0  0  0  0  0  0  0  0
   -3.1502    2.4168   -0.8711 H   0  0  0  0  0  0  0  0  0  0  0  0
    2.2997    1.2427    0.7090 N   0  0  0  0  0  0  0  0  0  0  0  0
    3.1203    1.8876    1.7426 C   0  0  2  0  0  0  0  0  0  0  0  0
    3.2427    3.4040    1.4829 C   0  0  0  0  0  0  0  0  0  0  0  0
    2.8006    3.8886    0.4457 O   0  0  0  0  0  0  0  0  0  0  0  0
    4.4978    1.2178    1.7538 C   0  0  0  0  0  0  0  0  0  0  0  0
    2.1424    1.7855   -0.1392 H   0  0  0  0  0  0  0  0  0  0  0  0
    2.6514    1.7651    2.7246 H   0  0  0  0  0  0  0  0  0  0  0  0
    4.9915    1.3420    0.7848 H   0  0  0  0  0  0  0  0  0  0  0  0
    5.1333    1.6555    2.5290 H   0  0  0  0  0  0  0  0  0  0  0  0
    4.3958    0.1468    1.9574 H   0  0  0  0  0  0  0  0  0  0  0  0
    3.8221    4.2357    2.4234 N   0  0  0  0  0  0  0  0  0  0  0  0
    3.9538    5.6768    2.2455 C   0  0  0  0  0  0  0  0  0  0  0  0
    4.1726    3.8098    3.2766 H   0  0  0  0  0  0  0  0  0  0  0  0
    4.5643    5.9000    1.3641 H   0  0  0  0  0  0  0  0  0  0  0  0
    2.9692    6.1392    2.1185 H   0  0  0  0  0  0  0  0  0  0  0  0
    4.4346    6.1238    3.1210 H   0  0  0  0  0  0  0  0  0  0  0  0
  1  2  2  0  0  0  0
  1  3  1  0  0  0  0
  1  7  1  0  0  0  0
  3  4  1  0  0  0  0
  3  5  1  0  0  0  0
  3  6  1  0  0  0  0
  7  8  1  0  0  0  0
  7 12  1  0  0  0  0
  8  9  1  0  0  0  0
  8 11  1  0  0  0  0
  8 13  1  0  0  0  0
  9 10  2  0  0  0  0
  9 17  1  0  0  0  0
 11 14  1  0  0  0  0
 11 15  1  0  0  0  0
 11 16  1  0  0  0  0
 17 18  1  0  0  0  0
 17 25  1  0  0  0  0
 18 19  1  0  0  0  0
 18 21  1  0  0  0  0
 18 26  1  0  0  0  0
 19 20  2  0  0  0  0
 19 36  1  0  0  0  0
 21 22  1  0  0  0  0
 21 23  1  0  0  0  0
 21 27  1  0  0  0  0
 22 24  1  0  0  0  0
 22 28  1  0  0  0  0
 22 29  1  0  0  0  0
 23 30  1  0  0  0  0
 23 31  1  0  0  0  0
 23 32  1  0  0  0  0
 24 33  1  0  0  0  0
 24 34  1  0  0  0  0
 24 35  1  0  0  0  0
 36 37  1  0  0  0  0
 36 41  1  0  0  0  0
 37 38  1  0  0  0  0
 37 40  1  0  0  0  0
 37 42  1  0  0  0  0
 38 39  2  0  0  0  0
 38 46  1  0  0  0  0
 40 43  1  0  0  0  0
 40 44  1  0  0  0  0
 40 45  1  0  0  0  0
 46 47  1  0  0  0  0
 46 48  1  0  0  0  0
 47 49  1  0  0  0  0
 47 50  1  0  0  0  0
 47 51  1  0  0  0  0
M  END
$$$$

  -OEChem-05262216503D

 51 50  0     1  0  0  0  0  0999 V2000
    0.4998   -3.7855    0.0179 C   0  0  0  0  0  0  0  0  0  0  0  0
   -0.5096   -3.6231   -0.6551 O   0  0  0  0  0  0  0  0  0  0  0  0
    1.8674   -3.7339   -0.6352 C   0  0  0  0  0  0  0  0  0  0  0  0
    1.7661   -3.6421   -1.7201 H   0  0  0  0  0  0  0  0  0  0  0  0
    2.4267   -2.8738   -0.2579 H   0  0  0  0  0  0  0  0  0  0  0  0
    2.4229   -4.6472   -0.4090 H   0  0  0  0  0  0  0  0  0  0  0  0
    0.4024   -3.8831    1.3899 N   0  0  0  0  0  0  0  0  0  0  0  0
   -0.8484   -3.6196    2.1146 C   0  0  2  0  0  0  0  0  0  0  0  0
   -1.1028   -2.0981    2.2044 C   0  0  0  0  0  0  0  0  0  0  0  0
   -1.1447   -1.4991    3.2719 O   0  0  0  0  0  0  0  0  0  0  0  0
   -0.7361   -4.2874    3.4901 C   0  0  0  0  0  0  0  0  0  0  0  0
    1.2640   -3.6780    1.8938 H   0  0  0  0  0  0  0  0  0  0  0  0
   -1.6954   -4.0721    1.5882 H   0  0  0  0  0  0  0  0  0  0  0  0
    0.0930   -3.8555    4.0602 H   0  0  0  0  0  0  0  0  0  0  0  0
   -1.6596   -4.1407    4.0591 H   0  0  0  0  0  0  0  0  0  0  0  0
   -0.5638   -5.3622    3.3802 H   0  0  0  0  0  0  0  0  0  0  0  0
   -1.3080   -1.3611    1.0541 N   0  0  0  0  0  0  0  0  0  0  0  0
   -0.3465   -0.3499    0.5406 C   0  0  2  0  0  0  0  0  0  0  0  0
    0.9793   -0.1246    1.3518 C   0  0  0  0  0  0  0  0  0  0  0  0
    1.4858   -1.0339    2.0043 O   0  0  0  0  0  0  0  0  0  0  0  0
   -1.2465    0.9272    0.3510 C   0  0  2  0  0  0  0  0  0  0  0  0
   -2.3448    0.6510   -0.7212 C   0  0  0  0  0  0  0  0  0  0  0  0
   -0.4838    2.2124   -0.0356 C   0  0  0  0  0  0  0  0  0  0  0  0
   -3.4343    1.7277   -0.7923 C   0  0  0  0  0  0  0  0  0  0  0  0
   -1.5661   -2.0056    0.3049 H   0  0  0  0  0  0  0  0  0  0  0  0
   -0.0090   -0.6754   -0.4480 H   0  0  0  0  0  0  0  0  0  0  0  0
   -1.7424    1.1226    1.3094 H   0  0  0  0  0  0  0  0  0  0  0  0
   -1.8766    0.5461   -1.7054 H   0  0  0  0  0  0  0  0  0  0  0  0
   -2.8586   -0.2899   -0.5073 H   0  0  0  0  0  0  0  0  0  0  0  0
    0.1603    2.0361   -0.9029 H   0  0  0  0  0  0  0  0  0  0  0  0
   -1.1660    3.0289   -0.2795 H   0  0  0  0  0  0  0  0  0  0  0  0
    0.1181    2.5703    0.8037 H   0  0  0  0  0  0  0  0  0  0  0  0
   -3.8188    1.9503    0.2079 H   0  0  0  0  0  0  0  0  0  0  0  0
   -4.2645    1.3720   -1.4098 H   0  0  0  0  0  0  0  0  0  0  0  0
   -3.0583    2.6500   -1.2420 H   0  0  0  0  0  0  0  0  0  0  0  0
    1.9135    0.8048    0.9272 N   0  0  0  0  0  0  0  0  0  0  0  0
    3.2002    1.0650    1.5895 C   0  0  2  0  0  0  0  0  0  0  0  0
    3.4986    2.5776    1.6486 C   0  0  0  0  0  0  0  0  0  0  0  0
    2.8689    3.3545    0.9379 O   0  0  0  0  0  0  0  0  0  0  0  0
    4.2973    0.3282    0.8163 C   0  0  0  0  0  0  0  0  0  0  0  0
    1.5557    1.5703    0.3578 H   0  0  0  0  0  0  0  0  0  0  0  0
    3.1739    0.6981    2.6214 H   0  0  0  0  0  0  0  0  0  0  0  0
    4.3526    0.6963   -0.2131 H   0  0  0  0  0  0  0  0  0  0  0  0
    5.2704    0.4776    1.2935 H   0  0  0  0  0  0  0  0  0  0  0  0
    4.0866   -0.7455    0.7923 H   0  0  0  0  0  0  0  0  0  0  0  0
    4.4676    3.0707    2.5029 N   0  0  0  0  0  0  0  0  0  0  0  0
    4.7681    4.4912    2.6357 C   0  0  0  0  0  0  0  0  0  0  0  0
    4.9396    2.4087    3.1122 H   0  0  0  0  0  0  0  0  0  0  0  0
    5.0778    4.9097    1.6723 H   0  0  0  0  0  0  0  0  0  0  0  0
    3.8877    5.0372    2.9903 H   0  0  0  0  0  0  0  0  0  0  0  0
    5.5802    4.6408    3.3536 H   0  0  0  0  0  0  0  0  0  0  0  0
  1  2  2  0  0  0  0
  1  3  1  0  0  0  0
  1  7  1  0  0  0  0
  3  4  1  0  0  0  0
  3  5  1  0  0  0  0
  3  6  1  0  0  0  0
  7  8  1  0  0  0  0
  7 12  1  0  0  0  0
  8  9  1  0  0  0  0
  8 11  1  0  0  0  0
  8 13  1  0  0  0  0
  9 10  2  0  0  0  0
  9 17  1  0  0  0  0
 11 14  1  0  0  0  0
 11 15  1  0  0  0  0
 11 16  1  0  0  0  0
 17 18  1  0  0  0  0
 17 25  1  0  0  0  0
 18 19  1  0  0  0  0
 18 21  1  0  0  0  0
 18 26  1  0  0  0  0
 19 20  2  0  0  0  0
 19 36  1  0  0  0  0
 21 22  1  0  0  0  0
 21 23  1  0  0  0  0
 21 27  1  0  0  0  0
 22 24  1  0  0  0  0
 22 28  1  0  0  0  0
 22 29  1  0  0  0  0
 23 30  1  0  0  0  0
 23 31  1  0  0  0  0
 23 32  1  0  0  0  0
 24 33  1  0  0  0  0
 24 34  1  0  0  0  0
 24 35  1  0  0  0  0
 36 37  1  0  0  0  0
 36 41  1  0  0  0  0
 37 38  1  0  0  0  0
 37 40  1  0  0  0  0
 37 42  1  0  0  0  0
 38 39  2  0  0  0  0
 38 46  1  0  0  0  0
 40 43  1  0  0  0  0
 40 44  1  0  0  0  0
 40 45  1  0  0  0  0
 46 47  1  0  0  0  0
 46 48  1  0  0  0  0
 47 49  1  0  0  0  0
 47 50  1  0  0  0  0
 47 51  1  0  0  0  0
M  END
$$$$

  -OEChem-05262216503D

 51 50  0     1  0  0  0  0  0999 V2000
    1.3686   -5.1150    1.0404 C   0  0  0  0  0  0  0  0  0  0  0  0
    1.0245   -5.3803   -0.1014 O   0  0  0  0  0  0  0  0  0  0  0  0
    2.7355   -5.5430    1.5398 C   0  0  0  0  0  0  0  0  0  0  0  0
    3.2555   -6.1193    0.7698 H   0  0  0  0  0  0  0  0  0  0  0  0
    3.3338   -4.6617    1.7846 H   0  0  0  0  0  0  0  0  0  0  0  0
    2.6295   -6.1632    2.4331 H   0  0  0  0  0  0  0  0  0  0  0  0
    0.5227   -4.4259    1.8843 N   0  0  0  0  0  0  0  0  0  0  0  0
   -0.6689   -3.7014    1.4252 C   0  0  2  0  0  0  0  0  0  0  0  0
   -0.5003   -2.1909    1.6769 C   0  0  0  0  0  0  0  0  0  0  0  0
   -0.0924   -1.8037    2.7664 O   0  0  0  0  0  0  0  0  0  0  0  0
   -1.8820   -4.2523    2.1776 C   0  0  0  0  0  0  0  0  0  0  0  0
    0.9451   -4.0808    2.7451 H   0  0  0  0  0  0  0  0  0  0  0  0
   -0.8263   -3.8478    0.3518 H   0  0  0  0  0  0  0  0  0  0  0  0
   -1.7592   -4.1152    3.2567 H   0  0  0  0  0  0  0  0  0  0  0  0
   -2.7934   -3.7356    1.8629 H   0  0  0  0  0  0  0  0  0  0  0  0
   -1.9997   -5.3208    1.9730 H   0  0  0  0  0  0  0  0  0  0  0  0
   -1.0128   -1.2628    0.7870 N   0  0  0  0  0  0  0  0  0  0  0  0
   -0.3234   -0.0237    0.3345 C   0  0  2  0  0  0  0  0  0  0  0  0
    1.1127    0.2294    0.9195 C   0  0  0  0  0  0  0  0  0  0  0  0
    1.8918   -0.7135    1.0195 O   0  0  0  0  0  0  0  0  0  0  0  0
   -1.4054    1.0968    0.5771 C   0  0  2  0  0  0  0  0  0  0  0  0
   -2.6540    0.8288   -0.3198 C   0  0  0  0  0  0  0  0  0  0  0  0
   -0.9159    2.5389    0.3204 C   0  0  0  0  0  0  0  0  0  0  0  0
   -3.8736    1.6951    0.0211 C   0  0  0  0  0  0  0  0  0  0  0  0
   -1.5442   -1.7120    0.0486 H   0  0  0  0  0  0  0  0  0  0  0  0
   -0.1563   -0.0996   -0.7439 H   0  0  0  0  0  0  0  0  0  0  0  0
   -1.7162    1.0397    1.6272 H   0  0  0  0  0  0  0  0  0  0  0  0
   -2.3877    0.9806   -1.3710 H   0  0  0  0  0  0  0  0  0  0  0  0
   -2.9817   -0.2085   -0.2161 H   0  0  0  0  0  0  0  0  0  0  0  0
   -0.3316    2.5924   -0.6035 H   0  0  0  0  0  0  0  0  0  0  0  0
   -1.7424    3.2456    0.2351 H   0  0  0  0  0  0  0  0  0  0  0  0
   -0.3133    2.8918    1.1615 H   0  0  0  0  0  0  0  0  0  0  0  0
   -4.0563    1.6926    1.1001 H   0  0  0  0  0  0  0  0  0  0  0  0
   -4.7607    1.2952   -0.4795 H   0  0  0  0  0  0  0  0  0  0  0  0
   -3.7433    2.7270   -0.3144 H   0  0  0  0  0  0  0  0  0  0  0  0
    1.7497    1.4555    0.8442 N   0  0  0  0  0  0  0  0  0  0  0  0
    3.1172    1.7296    1.3066 C   0  0  2  0  0  0  0  0  0  0  0  0
    3.2178    3.1354    1.9333 C   0  0  0  0  0  0  0  0  0  0  0  0
    2.3321    3.9613    1.7351 O   0  0  0  0  0  0  0  0  0  0  0  0
    4.0689    1.6068    0.1128 C   0  0  0  0  0  0  0  0  0  0  0  0
    1.1553    2.2725    0.7283 H   0  0  0  0  0  0  0  0  0  0  0  0
    3.4030    1.0051    2.0767 H   0  0  0  0  0  0  0  0  0  0  0  0
    3.7979    2.3251   -0.6675 H   0  0  0  0  0  0  0  0  0  0  0  0
    5.1008    1.7992    0.4212 H   0  0  0  0  0  0  0  0  0  0  0  0
    4.0182    0.5983   -0.3096 H   0  0  0  0  0  0  0  0  0  0  0  0
    4.3024    3.4778    2.7196 N   0  0  0  0  0  0  0  0  0  0  0  0
    4.4498    4.7804    3.3575 C   0  0  0  0  0  0  0  0  0  0  0  0
    4.9995    2.7603    2.8972 H   0  0  0  0  0  0  0  0  0  0  0  0
    4.4053    5.5808    2.6113 H   0  0  0  0  0  0  0  0  0  0  0  0
    3.6538    4.9390    4.0926 H   0  0  0  0  0  0  0  0  0  0  0  0
    5.4139    4.8431    3.8715 H   0  0  0  0  0  0  0  0  0  0  0  0
  1  2  2  0  0  0  0
  1  3  1  0  0  0  0
  1  7  1  0  0  0  0
  3  4  1  0  0  0  0
  3  5  1  0  0  0  0
  3  6  1  0  0  0  0
  7  8  1  0  0  0  0
  7 12  1  0  0  0  0
  8  9  1  0  0  0  0
  8 11  1  0  0  0  0
  8 13  1  0  0  0  0
  9 10  2  0  0  0  0
  9 17  1  0  0  0  0
 11 14  1  0  0  0  0
 11 15  1  0  0  0  0
 11 16  1  0  0  0  0
 17 18  1  0  0  0  0
 17 25  1  0  0  0  0
 18 19  1  0  0  0  0
 18 21  1  0  0  0  0
 18 26  1  0  0  0  0
 19 20  2  0  0  0  0
 19 36  1  0  0  0  0
 21 22  1  0  0  0  0
 21 23  1  0  0  0  0
 21 27  1  0  0  0  0
 22 24  1  0  0  0  0
 22 28  1  0  0  0  0
 22 29  1  0  0  0  0
 23 30  1  0  0  0  0
 23 31  1  0  0  0  0
 23 32  1  0  0  0  0
 24 33  1  0  0  0  0
 24 34  1  0  0  0  0
 24 35  1  0  0  0  0
 36 37  1  0  0  0  0
 36 41  1  0  0  0  0
 37 38  1  0  0  0  0
 37 40  1  0  0  0  0
 37 42  1  0  0  0  0
 38 39  2  0  0  0  0
 38 46  1  0  0  0  0
 40 43  1  0  0  0  0
 40 44  1  0  0  0  0
 40 45  1  0  0  0  0
 46 47  1  0  0  0  0
 46 48  1  0  0  0  0
 47 49  1  0  0  0  0
 47 50  1  0  0  0  0
 47 51  1  0  0  0  0
M  END
$$$$

  -OEChem-05262216503D

 51 50  0     1  0  0  0  0  0999 V2000
    1.0795   -5.7063    0.7338 C   0  0  0  0  0  0  0  0  0  0  0  0
    0.3046   -6.1498   -0.0996 O   0  0  0  0  0  0  0  0  0  0  0  0
    2.3622   -6.4496    1.0558 C   0  0  0  0  0  0  0  0  0  0  0  0
    2.4195   -7.3740    0.4740 H   0  0  0  0  0  0  0  0  0  0  0  0
    3.2255   -5.8250    0.8123 H   0  0  0  0  0  0  0  0  0  0  0  0
    2.3913   -6.6998    2.1191 H   0  0  0  0  0  0  0  0  0  0  0  0
    0.7917   -4.5267    1.3862 N   0  0  0  0  0  0  0  0  0  0  0  0
   -0.3146   -3.6322    1.0264 C   0  0  2  0  0  0  0  0  0  0  0  0
    0.0591   -2.1569    1.2759 C   0  0  0  0  0  0  0  0  0  0  0  0
    0.9248   -1.8819    2.1018 O   0  0  0  0  0  0  0  0  0  0  0  0
   -1.5452   -4.0292    1.8469 C   0  0  0  0  0  0  0  0  0  0  0  0
    1.5208   -4.1318    1.9795 H   0  0  0  0  0  0  0  0  0  0  0  0
   -0.5400   -3.7360   -0.0404 H   0  0  0  0  0  0  0  0  0  0  0  0
   -1.3372   -3.9344    2.9175 H   0  0  0  0  0  0  0  0  0  0  0  0
   -2.3972   -3.3893    1.5995 H   0  0  0  0  0  0  0  0  0  0  0  0
   -1.8203   -5.0676    1.6355 H   0  0  0  0  0  0  0  0  0  0  0  0
   -0.7011   -1.1411    0.7164 N   0  0  0  0  0  0  0  0  0  0  0  0
   -0.1858    0.1535    0.1960 C   0  0  2  0  0  0  0  0  0  0  0  0
    1.3693    0.2750    0.3309 C   0  0  0  0  0  0  0  0  0  0  0  0
    2.0212   -0.4892   -0.3680 O   0  0  0  0  0  0  0  0  0  0  0  0
   -1.0818    1.2766    0.8220 C   0  0  2  0  0  0  0  0  0  0  0  0
   -2.5508    1.0904    0.3350 C   0  0  0  0  0  0  0  0  0  0  0  0
   -0.6454    2.6909    0.3662 C   0  0  0  0  0  0  0  0  0  0  0  0
   -3.5734    1.9581    1.0816 C   0  0  0  0  0  0  0  0  0  0  0  0
   -1.4907   -1.5026    0.1909 H   0  0  0  0  0  0  0  0  0  0  0  0
   -0.3569    0.1763   -0.8853 H   0  0  0  0  0  0  0  0  0  0  0  0
   -1.0399    1.2098    1.9144 H   0  0  0  0  0  0  0  0  0  0  0  0
   -2.6159    1.2972   -0.7386 H   0  0  0  0  0  0  0  0  0  0  0  0
   -2.8644    0.0542    0.4842 H   0  0  0  0  0  0  0  0  0  0  0  0
   -0.3993    2.6904   -0.7006 H   0  0  0  0  0  0  0  0  0  0  0  0
    0.2183    3.0452    0.9238 H   0  0  0  0  0  0  0  0  0  0  0  0
   -1.4250    3.4352    0.5310 H   0  0  0  0  0  0  0  0  0  0  0  0
   -3.4356    1.8663    2.1633 H   0  0  0  0  0  0  0  0  0  0  0  0
   -4.5870    1.6271    0.8352 H   0  0  0  0  0  0  0  0  0  0  0  0
   -3.4941    3.0117    0.8035 H   0  0  0  0  0  0  0  0  0  0  0  0
    2.1099    1.4147    0.5136 N   0  0  0  0  0  0  0  0  0  0  0  0
    2.3563    1.8760    1.8898 C   0  0  2  0  0  0  0  0  0  0  0  0
    2.8783    3.3292    1.9566 C   0  0  0  0  0  0  0  0  0  0  0  0
    3.3851    3.8639    0.9787 O   0  0  0  0  0  0  0  0  0  0  0  0
    3.3775    0.9388    2.5495 C   0  0  0  0  0  0  0  0  0  0  0  0
    2.9532    1.3762   -0.0559 H   0  0  0  0  0  0  0  0  0  0  0  0
    1.4242    1.8327    2.4613 H   0  0  0  0  0  0  0  0  0  0  0  0
    4.3205    0.9489    1.9932 H   0  0  0  0  0  0  0  0  0  0  0  0
    3.5782    1.2515    3.5786 H   0  0  0  0  0  0  0  0  0  0  0  0
    3.0020   -0.0890    2.5740 H   0  0  0  0  0  0  0  0  0  0  0  0
    2.7920    4.0418    3.1394 N   0  0  0  0  0  0  0  0  0  0  0  0
    3.3023    5.3993    3.2917 C   0  0  0  0  0  0  0  0  0  0  0  0
    2.4014    3.5695    3.9490 H   0  0  0  0  0  0  0  0  0  0  0  0
    4.3800    5.4272    3.0979 H   0  0  0  0  0  0  0  0  0  0  0  0
    2.8012    6.0779    2.5931 H   0  0  0  0  0  0  0  0  0  0  0  0
    3.1251    5.7594    4.3098 H   0  0  0  0  0  0  0  0  0  0  0  0
  1  2  2  0  0  0  0
  1  3  1  0  0  0  0
  1  7  1  0  0  0  0
  3  4  1  0  0  0  0
  3  5  1  0  0  0  0
  3  6  1  0  0  0  0
  7  8  1  0  0  0  0
  7 12  1  0  0  0  0
  8  9  1  0  0  0  0
  8 11  1  0  0  0  0
  8 13  1  0  0  0  0
  9 10  2  0  0  0  0
  9 17  1  0  0  0  0
 11 14  1  0  0  0  0
 11 15  1  0  0  0  0
 11 16  1  0  0  0  0
 17 18  1  0  0  0  0
 17 25  1  0  0  0  0
 18 19  1  0  0  0  0
 18 21  1  0  0  0  0
 18 26  1  0  0  0  0
 19 20  2  0  0  0  0
 19 36  1  0  0  0  0
 21 22  1  0  0  0  0
 21 23  1  0  0  0  0
 21 27  1  0  0  0  0
 22 24  1  0  0  0  0
 22 28  1  0  0  0  0
 22 29  1  0  0  0  0
 23 30  1  0  0  0  0
 23 31  1  0  0  0  0
 23 32  1  0  0  0  0
 24 33  1  0  0  0  0
 24 34  1  0  0  0  0
 24 35  1  0  0  0  0
 36 37  1  0  0  0  0
 36 41  1  0  0  0  0
 37 38  1  0  0  0  0
 37 40  1  0  0  0  0
 37 42  1  0  0  0  0
 38 39  2  0  0  0  0
 38 46  1  0  0  0  0
 40 43  1  0  0  0  0
 40 44  1  0  0  0  0
 40 45  1  0  0  0  0
 46 47  1  0  0  0  0
 46 48  1  0  0  0  0
 47 49  1  0  0  0  0
 47 50  1  0  0  0  0
 47 51  1  0  0  0  0
M  END
$$$$

  -OEChem-05262216503D

 51 50  0     1  0  0  0  0  0999 V2000
    1.2399   -5.3119    1.0413 C   0  0  0  0  0  0  0  0  0  0  0  0
    0.8092   -5.6184   -0.0598 O   0  0  0  0  0  0  0  0  0  0  0  0
    2.5743   -5.8587    1.5124 C   0  0  0  0  0  0  0  0  0  0  0  0
    3.0078   -6.5075    0.7462 H   0  0  0  0  0  0  0  0  0  0  0  0
    3.2656   -5.0352    1.7079 H   0  0  0  0  0  0  0  0  0  0  0  0
    2.4383   -6.4372    2.4292 H   0  0  0  0  0  0  0  0  0  0  0  0
    0.5234   -4.4648    1.8609 N   0  0  0  0  0  0  0  0  0  0  0  0
   -0.6145   -3.6568    1.4039 C   0  0  2  0  0  0  0  0  0  0  0  0
   -0.3199   -2.1541    1.5798 C   0  0  0  0  0  0  0  0  0  0  0  0
    0.2540   -1.7781    2.5957 O   0  0  0  0  0  0  0  0  0  0  0  0
   -1.8461   -4.0687    2.2138 C   0  0  0  0  0  0  0  0  0  0  0  0
    1.0179   -4.1125    2.6792 H   0  0  0  0  0  0  0  0  0  0  0  0
   -0.8162   -3.8349    0.3427 H   0  0  0  0  0  0  0  0  0  0  0  0
   -1.6826   -3.8855    3.2809 H   0  0  0  0  0  0  0  0  0  0  0  0
   -2.7234   -3.4983    1.8935 H   0  0  0  0  0  0  0  0  0  0  0  0
   -2.0536   -5.1339    2.0702 H   0  0  0  0  0  0  0  0  0  0  0  0
   -0.8717   -1.2360    0.6989 N   0  0  0  0  0  0  0  0  0  0  0  0
   -0.2907    0.0701    0.2894 C   0  0  2  0  0  0  0  0  0  0  0  0
    1.0926    0.3794    0.9498 C   0  0  0  0  0  0  0  0  0  0  0  0
    2.0250   -0.3700    0.6744 O   0  0  0  0  0  0  0  0  0  0  0  0
   -1.4323    1.1318    0.4711 C   0  0  2  0  0  0  0  0  0  0  0  0
   -2.6140    0.7861   -0.4837 C   0  0  0  0  0  0  0  0  0  0  0  0
   -0.9654    2.5712    0.1344 C   0  0  0  0  0  0  0  0  0  0  0  0
   -3.8944    1.5884   -0.2103 C   0  0  0  0  0  0  0  0  0  0  0  0
   -1.4319   -1.6813   -0.0209 H   0  0  0  0  0  0  0  0  0  0  0  0
   -0.0632    0.0169   -0.7800 H   0  0  0  0  0  0  0  0  0  0  0  0
   -1.7846    1.1035    1.5085 H   0  0  0  0  0  0  0  0  0  0  0  0
   -2.3058    0.9402   -1.5233 H   0  0  0  0  0  0  0  0  0  0  0  0
   -2.8852   -0.2675   -0.3787 H   0  0  0  0  0  0  0  0  0  0  0  0
   -0.2242    2.5575   -0.6711 H   0  0  0  0  0  0  0  0  0  0  0  0
   -0.5333    3.0571    1.0119 H   0  0  0  0  0  0  0  0  0  0  0  0
   -1.7864    3.2130   -0.1863 H   0  0  0  0  0  0  0  0  0  0  0  0
   -4.1440    1.5582    0.8550 H   0  0  0  0  0  0  0  0  0  0  0  0
   -4.7272    1.1539   -0.7718 H   0  0  0  0  0  0  0  0  0  0  0  0
   -3.7980    2.6317   -0.5195 H   0  0  0  0  0  0  0  0  0  0  0  0
    1.4401    1.5937    1.5095 N   0  0  0  0  0  0  0  0  0  0  0  0
    2.7327    1.8748    2.1452 C   0  0  2  0  0  0  0  0  0  0  0  0
    2.5619    2.8417    3.3350 C   0  0  0  0  0  0  0  0  0  0  0  0
    1.5205    3.4777    3.4671 O   0  0  0  0  0  0  0  0  0  0  0  0
    3.6741    2.4741    1.0961 C   0  0  0  0  0  0  0  0  0  0  0  0
    0.6653    2.1765    1.8215 H   0  0  0  0  0  0  0  0  0  0  0  0
    3.1642    0.9462    2.5346 H   0  0  0  0  0  0  0  0  0  0  0  0
    3.2577    3.4041    0.6961 H   0  0  0  0  0  0  0  0  0  0  0  0
    4.6525    2.6895    1.5356 H   0  0  0  0  0  0  0  0  0  0  0  0
    3.8158    1.7717    0.2687 H   0  0  0  0  0  0  0  0  0  0  0  0
    3.5753    3.0001    4.2621 N   0  0  0  0  0  0  0  0  0  0  0  0
    3.4695    3.8770    5.4220 C   0  0  0  0  0  0  0  0  0  0  0  0
    4.4112    2.4347    4.1456 H   0  0  0  0  0  0  0  0  0  0  0  0
    3.3186    4.9146    5.1057 H   0  0  0  0  0  0  0  0  0  0  0  0
    2.6283    3.5754    6.0551 H   0  0  0  0  0  0  0  0  0  0  0  0
    4.3854    3.8276    6.0186 H   0  0  0  0  0  0  0  0  0  0  0  0
  1  2  2  0  0  0  0
  1  3  1  0  0  0  0
  1  7  1  0  0  0  0
  3  4  1  0  0  0  0
  3  5  1  0  0  0  0
  3  6  1  0  0  0  0
  7  8  1  0  0  0  0
  7 12  1  0  0  0  0
  8  9  1  0  0  0  0
  8 11  1  0  0  0  0
  8 13  1  0  0  0  0
  9 10  2  0  0  0  0
  9 17  1  0  0  0  0
 11 14  1  0  0  0  0
 11 15  1  0  0  0  0
 11 16  1  0  0  0  0
 17 18  1  0  0  0  0
 17 25  1  0  0  0  0
 18 19  1  0  0  0  0
 18 21  1  0  0  0  0
 18 26  1  0  0  0  0
 19 20  2  0  0  0  0
 19 36  1  0  0  0  0
 21 22  1  0  0  0  0
 21 23  1  0  0  0  0
 21 27  1  0  0  0  0
 22 24  1  0  0  0  0
 22 28  1  0  0  0  0
 22 29  1  0  0  0  0
 23 30  1  0  0  0  0
 23 31  1  0  0  0  0
 23 32  1  0  0  0  0
 24 33  1  0  0  0  0
 24 34  1  0  0  0  0
 24 35  1  0  0  0  0
 36 37  1  0  0  0  0
 36 41  1  0  0  0  0
 37 38  1  0  0  0  0
 37 40  1  0  0  0  0
 37 42  1  0  0  0  0
 38 39  2  0  0  0  0
 38 46  1  0  0  0  0
 40 43  1  0  0  0  0
 40 44  1  0  0  0  0
 40 45  1  0  0  0  0
 46 47  1  0  0  0  0
 46 48  1  0  0  0  0
 47 49  1  0  0  0  0
 47 50  1  0  0  0  0
 47 51  1  0  0  0  0
M  END
$$$$

  -OEChem-05262216503D

 51 50  0     1  0  0  0  0  0999 V2000
    1.1671   -5.4105    1.0217 C   0  0  0  0  0  0  0  0  0  0  0  0
    0.6827   -5.7204   -0.0557 O   0  0  0  0  0  0  0  0  0  0  0  0
    2.4808   -6.0246    1.4672 C   0  0  0  0  0  0  0  0  0  0  0  0
    2.8907   -6.6561    0.6738 H   0  0  0  0  0  0  0  0  0  0  0  0
    3.2022   -5.2363    1.6966 H   0  0  0  0  0  0  0  0  0  0  0  0
    2.3233   -6.6358    2.3591 H   0  0  0  0  0  0  0  0  0  0  0  0
    0.5288   -4.5004    1.8382 N   0  0  0  0  0  0  0  0  0  0  0  0
   -0.5851   -3.6496    1.4000 C   0  0  2  0  0  0  0  0  0  0  0  0
   -0.2261   -2.1571    1.5409 C   0  0  0  0  0  0  0  0  0  0  0  0
    0.4366   -1.8010    2.5083 O   0  0  0  0  0  0  0  0  0  0  0  0
   -1.8089   -3.9950    2.2512 C   0  0  0  0  0  0  0  0  0  0  0  0
    1.0686   -4.1543    2.6302 H   0  0  0  0  0  0  0  0  0  0  0  0
   -0.8237   -3.8361    0.3481 H   0  0  0  0  0  0  0  0  0  0  0  0
   -1.6047   -3.8067    3.3104 H   0  0  0  0  0  0  0  0  0  0  0  0
   -2.6689   -3.3895    1.9495 H   0  0  0  0  0  0  0  0  0  0  0  0
   -2.0688   -5.0509    2.1273 H   0  0  0  0  0  0  0  0  0  0  0  0
   -0.7944   -1.2341    0.6741 N   0  0  0  0  0  0  0  0  0  0  0  0
   -0.2619    0.0997    0.2914 C   0  0  2  0  0  0  0  0  0  0  0  0
    1.0998    0.4448    0.9692 C   0  0  0  0  0  0  0  0  0  0  0  0
    2.0981   -0.1392    0.5593 O   0  0  0  0  0  0  0  0  0  0  0  0
   -1.4267    1.1317    0.4729 C   0  0  2  0  0  0  0  0  0  0  0  0
   -2.5882    0.7685   -0.4990 C   0  0  0  0  0  0  0  0  0  0  0  0
   -0.9842    2.5800    0.1405 C   0  0  0  0  0  0  0  0  0  0  0  0
   -3.8883    1.5384   -0.2307 C   0  0  0  0  0  0  0  0  0  0  0  0
   -1.3878   -1.6667   -0.0268 H   0  0  0  0  0  0  0  0  0  0  0  0
   -0.0226    0.0680   -0.7765 H   0  0  0  0  0  0  0  0  0  0  0  0
   -1.7871    1.0910    1.5069 H   0  0  0  0  0  0  0  0  0  0  0  0
   -2.2730    0.9399   -1.5339 H   0  0  0  0  0  0  0  0  0  0  0  0
   -2.8341   -0.2925   -0.4065 H   0  0  0  0  0  0  0  0  0  0  0  0
   -0.3572    2.5918   -0.7566 H   0  0  0  0  0  0  0  0  0  0  0  0
   -1.8363    3.2374   -0.0369 H   0  0  0  0  0  0  0  0  0  0  0  0
   -0.4310    3.0332    0.9642 H   0  0  0  0  0  0  0  0  0  0  0  0
   -4.1521    1.4844    0.8300 H   0  0  0  0  0  0  0  0  0  0  0  0
   -4.7040    1.0970   -0.8110 H   0  0  0  0  0  0  0  0  0  0  0  0
   -3.8068    2.5885   -0.5212 H   0  0  0  0  0  0  0  0  0  0  0  0
    1.3006    1.5275    1.8032 N   0  0  0  0  0  0  0  0  0  0  0  0
    2.5556    1.7982    2.5128 C   0  0  2  0  0  0  0  0  0  0  0  0
    2.2889    2.4545    3.8835 C   0  0  0  0  0  0  0  0  0  0  0  0
    1.1905    2.9424    4.1313 O   0  0  0  0  0  0  0  0  0  0  0  0
    3.4227    2.7101    1.6395 C   0  0  0  0  0  0  0  0  0  0  0  0
    0.4621    1.9282    2.2221 H   0  0  0  0  0  0  0  0  0  0  0  0
    3.0847    0.8568    2.6965 H   0  0  0  0  0  0  0  0  0  0  0  0
    2.9090    3.6579    1.4502 H   0  0  0  0  0  0  0  0  0  0  0  0
    4.3760    2.9216    2.1325 H   0  0  0  0  0  0  0  0  0  0  0  0
    3.6311    2.2286    0.6789 H   0  0  0  0  0  0  0  0  0  0  0  0
    3.2854    2.5071    4.8409 N   0  0  0  0  0  0  0  0  0  0  0  0
    3.1013    3.1050    6.1578 C   0  0  0  0  0  0  0  0  0  0  0  0
    4.1744    2.0696    4.6177 H   0  0  0  0  0  0  0  0  0  0  0  0
    2.8327    4.1624    6.0638 H   0  0  0  0  0  0  0  0  0  0  0  0
    2.3077    2.5876    6.7073 H   0  0  0  0  0  0  0  0  0  0  0  0
    4.0264    3.0346    6.7381 H   0  0  0  0  0  0  0  0  0  0  0  0
  1  2  2  0  0  0  0
  1  3  1  0  0  0  0
  1  7  1  0  0  0  0
  3  4  1  0  0  0  0
  3  5  1  0  0  0  0
  3  6  1  0  0  0  0
  7  8  1  0  0  0  0
  7 12  1  0  0  0  0
  8  9  1  0  0  0  0
  8 11  1  0  0  0  0
  8 13  1  0  0  0  0
  9 10  2  0  0  0  0
  9 17  1  0  0  0  0
 11 14  1  0  0  0  0
 11 15  1  0  0  0  0
 11 16  1  0  0  0  0
 17 18  1  0  0  0  0
 17 25  1  0  0  0  0
 18 19  1  0  0  0  0
 18 21  1  0  0  0  0
 18 26  1  0  0  0  0
 19 20  2  0  0  0  0
 19 36  1  0  0  0  0
 21 22  1  0  0  0  0
 21 23  1  0  0  0  0
 21 27  1  0  0  0  0
 22 24  1  0  0  0  0
 22 28  1  0  0  0  0
 22 29  1  0  0  0  0
 23 30  1  0  0  0  0
 23 31  1  0  0  0  0
 23 32  1  0  0  0  0
 24 33  1  0  0  0  0
 24 34  1  0  0  0  0
 24 35  1  0  0  0  0
 36 37  1  0  0  0  0
 36 41  1  0  0  0  0
 37 38  1  0  0  0  0
 37 40  1  0  0  0  0
 37 42  1  0  0  0  0
 38 39  2  0  0  0  0
 38 46  1  0  0  0  0
 40 43  1  0  0  0  0
 40 44  1  0  0  0  0
 40 45  1  0  0  0  0
 46 47  1  0  0  0  0
 46 48  1  0  0  0  0
 47 49  1  0  0  0  0
 47 50  1  0  0  0  0
 47 51  1  0  0  0  0
M  END
$$$$

  -OEChem-05262216503D

 51 50  0     1  0  0  0  0  0999 V2000
    1.0680   -5.5094    0.9646 C   0  0  0  0  0  0  0  0  0  0  0  0
    0.5521   -5.7878   -0.1067 O   0  0  0  0  0  0  0  0  0  0  0  0
    2.3501   -6.2002    1.3901 C   0  0  0  0  0  0  0  0  0  0  0  0
    2.7069   -6.8576    0.5921 H   0  0  0  0  0  0  0  0  0  0  0  0
    3.1220   -5.4566    1.6037 H   0  0  0  0  0  0  0  0  0  0  0  0
    2.1720   -6.7985    2.2868 H   0  0  0  0  0  0  0  0  0  0  0  0
    0.4963   -4.5625    1.7890 N   0  0  0  0  0  0  0  0  0  0  0  0
   -0.5722   -3.6477    1.3651 C   0  0  2  0  0  0  0  0  0  0  0  0
   -0.1239   -2.1763    1.4784 C   0  0  0  0  0  0  0  0  0  0  0  0
    0.6230   -1.8596    2.3959 O   0  0  0  0  0  0  0  0  0  0  0  0
   -1.7967   -3.9084    2.2453 C   0  0  0  0  0  0  0  0  0  0  0  0
    1.0667   -4.2491    2.5730 H   0  0  0  0  0  0  0  0  0  0  0  0
   -0.8458   -3.8310    0.3211 H   0  0  0  0  0  0  0  0  0  0  0  0
   -1.5590   -3.7226    3.2979 H   0  0  0  0  0  0  0  0  0  0  0  0
   -2.6238   -3.2536    1.9539 H   0  0  0  0  0  0  0  0  0  0  0  0
   -2.1241   -4.9475    2.1393 H   0  0  0  0  0  0  0  0  0  0  0  0
   -0.6804   -1.2356    0.6225 N   0  0  0  0  0  0  0  0  0  0  0  0
   -0.1834    0.1229    0.2843 C   0  0  2  0  0  0  0  0  0  0  0  0
    1.1437    0.5003    1.0041 C   0  0  0  0  0  0  0  0  0  0  0  0
    2.1994    0.1296    0.5021 O   0  0  0  0  0  0  0  0  0  0  0  0
   -1.3667    1.1257    0.4790 C   0  0  2  0  0  0  0  0  0  0  0  0
   -2.5129    0.7716   -0.5110 C   0  0  0  0  0  0  0  0  0  0  0  0
   -0.9492    2.5872    0.1738 C   0  0  0  0  0  0  0  0  0  0  0  0
   -3.8219    1.5173   -0.2264 C   0  0  0  0  0  0  0  0  0  0  0  0
   -1.3145   -1.6402   -0.0590 H   0  0  0  0  0  0  0  0  0  0  0  0
    0.0759    0.1269   -0.7797 H   0  0  0  0  0  0  0  0  0  0  0  0
   -1.7288    1.0568    1.5109 H   0  0  0  0  0  0  0  0  0  0  0  0
   -2.1947    0.9756   -1.5391 H   0  0  0  0  0  0  0  0  0  0  0  0
   -2.7423   -0.2951   -0.4493 H   0  0  0  0  0  0  0  0  0  0  0  0
   -0.5375    2.6628   -0.8377 H   0  0  0  0  0  0  0  0  0  0  0  0
   -1.8023    3.2648    0.2495 H   0  0  0  0  0  0  0  0  0  0  0  0
   -0.2040    2.9655    0.8731 H   0  0  0  0  0  0  0  0  0  0  0  0
   -4.1008    1.4128    0.8266 H   0  0  0  0  0  0  0  0  0  0  0  0
   -4.6261    1.0986   -0.8387 H   0  0  0  0  0  0  0  0  0  0  0  0
   -3.7388    2.5802   -0.4664 H   0  0  0  0  0  0  0  0  0  0  0  0
    1.2003    1.3720    2.0752 N   0  0  0  0  0  0  0  0  0  0  0  0
    2.4094    1.6214    2.8654 C   0  0  2  0  0  0  0  0  0  0  0  0
    2.0562    1.9432    4.3321 C   0  0  0  0  0  0  0  0  0  0  0  0
    0.9155    2.2810    4.6337 O   0  0  0  0  0  0  0  0  0  0  0  0
    3.1792    2.7843    2.2315 C   0  0  0  0  0  0  0  0  0  0  0  0
    0.3165    1.5578    2.5476 H   0  0  0  0  0  0  0  0  0  0  0  0
    3.0369    0.7236    2.8667 H   0  0  0  0  0  0  0  0  0  0  0  0
    2.5635    3.6892    2.2229 H   0  0  0  0  0  0  0  0  0  0  0  0
    4.0954    2.9909    2.7926 H   0  0  0  0  0  0  0  0  0  0  0  0
    3.4543    2.5401    1.2005 H   0  0  0  0  0  0  0  0  0  0  0  0
    3.0222    1.8672    5.3186 N   0  0  0  0  0  0  0  0  0  0  0  0
    2.7537    2.1476    6.7235 C   0  0  0  0  0  0  0  0  0  0  0  0
    3.9485    1.5519    5.0457 H   0  0  0  0  0  0  0  0  0  0  0  0
    2.4014    3.1768    6.8477 H   0  0  0  0  0  0  0  0  0  0  0  0
    1.9910    1.4645    7.1119 H   0  0  0  0  0  0  0  0  0  0  0  0
    3.6649    2.0220    7.3156 H   0  0  0  0  0  0  0  0  0  0  0  0
  1  2  2  0  0  0  0
  1  3  1  0  0  0  0
  1  7  1  0  0  0  0
  3  4  1  0  0  0  0
  3  5  1  0  0  0  0
  3  6  1  0  0  0  0
  7  8  1  0  0  0  0
  7 12  1  0  0  0  0
  8  9  1  0  0  0  0
  8 11  1  0  0  0  0
  8 13  1  0  0  0  0
  9 10  2  0  0  0  0
  9 17  1  0  0  0  0
 11 14  1  0  0  0  0
 11 15  1  0  0  0  0
 11 16  1  0  0  0  0
 17 18  1  0  0  0  0
 17 25  1  0  0  0  0
 18 19  1  0  0  0  0
 18 21  1  0  0  0  0
 18 26  1  0  0  0  0
 19 20  2  0  0  0  0
 19 36  1  0  0  0  0
 21 22  1  0  0  0  0
 21 23  1  0  0  0  0
 21 27  1  0  0  0  0
 22 24  1  0  0  0  0
 22 28  1  0  0  0  0
 22 29  1  0  0  0  0
 23 30  1  0  0  0  0
 23 31  1  0  0  0  0
 23 32  1  0  0  0  0
 24 33  1  0  0  0  0
 24 34  1  0  0  0  0
 24 35  1  0  0  0  0
 36 37  1  0  0  0  0
 36 41  1  0  0  0  0
 37 38  1  0  0  0  0
 37 40  1  0  0  0  0
 37 42  1  0  0  0  0
 38 39  2  0  0  0  0
 38 46  1  0  0  0  0
 40 43  1  0  0  0  0
 40 44  1  0  0  0  0
 40 45  1  0  0  0  0
 46 47  1  0  0  0  0
 46 48  1  0  0  0  0
 47 49  1  0  0  0  0
 47 50  1  0  0  0  0
 47 51  1  0  0  0  0
M  END
$$$$

  -OEChem-05262216503D

 51 50  0     1  0  0  0  0  0999 V2000
    0.9532   -5.5342    0.8476 C   0  0  0  0  0  0  0  0  0  0  0  0
    0.4162   -5.6988   -0.2367 O   0  0  0  0  0  0  0  0  0  0  0  0
    2.2060   -6.3141    1.1994 C   0  0  0  0  0  0  0  0  0  0  0  0
    2.5293   -6.9149    0.3446 H   0  0  0  0  0  0  0  0  0  0  0  0
    3.0112   -5.6262    1.4690 H   0  0  0  0  0  0  0  0  0  0  0  0
    2.0060   -6.9793    2.0428 H   0  0  0  0  0  0  0  0  0  0  0  0
    0.4326   -4.6344    1.7546 N   0  0  0  0  0  0  0  0  0  0  0  0
   -0.6030   -3.6462    1.4218 C   0  0  2  0  0  0  0  0  0  0  0  0
   -0.0397   -2.2098    1.4476 C   0  0  0  0  0  0  0  0  0  0  0  0
    0.8041   -1.9311    2.2894 O   0  0  0  0  0  0  0  0  0  0  0  0
   -1.7363   -3.7985    2.4389 C   0  0  0  0  0  0  0  0  0  0  0  0
    1.0322   -4.4045    2.5450 H   0  0  0  0  0  0  0  0  0  0  0  0
   -1.0080   -3.8305    0.4216 H   0  0  0  0  0  0  0  0  0  0  0  0
   -1.3712   -3.6032    3.4526 H   0  0  0  0  0  0  0  0  0  0  0  0
   -2.5452   -3.0950    2.2192 H   0  0  0  0  0  0  0  0  0  0  0  0
   -2.1415   -4.8148    2.4038 H   0  0  0  0  0  0  0  0  0  0  0  0
   -0.5700   -1.2623    0.5817 N   0  0  0  0  0  0  0  0  0  0  0  0
   -0.0941    0.1125    0.2826 C   0  0  2  0  0  0  0  0  0  0  0  0
    1.1840    0.5421    1.0536 C   0  0  0  0  0  0  0  0  0  0  0  0
    2.2730    0.4516    0.4983 O   0  0  0  0  0  0  0  0  0  0  0  0
   -1.2933    1.0964    0.4575 C   0  0  2  0  0  0  0  0  0  0  0  0
   -2.4108    0.7566   -0.5661 C   0  0  0  0  0  0  0  0  0  0  0  0
   -0.8681    2.5657    0.2167 C   0  0  0  0  0  0  0  0  0  0  0  0
   -3.7284    1.4918   -0.2952 C   0  0  0  0  0  0  0  0  0  0  0  0
   -1.2497   -1.6398   -0.0712 H   0  0  0  0  0  0  0  0  0  0  0  0
    0.2006    0.1349   -0.7719 H   0  0  0  0  0  0  0  0  0  0  0  0
   -1.6849    0.9988    1.4761 H   0  0  0  0  0  0  0  0  0  0  0  0
   -2.0693    0.9844   -1.5814 H   0  0  0  0  0  0  0  0  0  0  0  0
   -2.6340   -0.3127   -0.5313 H   0  0  0  0  0  0  0  0  0  0  0  0
   -0.4698    2.6869   -0.7959 H   0  0  0  0  0  0  0  0  0  0  0  0
   -1.7160    3.2440    0.3394 H   0  0  0  0  0  0  0  0  0  0  0  0
   -0.1049    2.8964    0.9238 H   0  0  0  0  0  0  0  0  0  0  0  0
   -4.0409    1.3499    0.7441 H   0  0  0  0  0  0  0  0  0  0  0  0
   -4.5134    1.0980   -0.9482 H   0  0  0  0  0  0  0  0  0  0  0  0
   -3.6350    2.5630   -0.4928 H   0  0  0  0  0  0  0  0  0  0  0  0
    1.1108    1.1598    2.2889 N   0  0  0  0  0  0  0  0  0  0  0  0
    2.2751    1.3967    3.1467 C   0  0  2  0  0  0  0  0  0  0  0  0
    1.8965    1.2855    4.6377 C   0  0  0  0  0  0  0  0  0  0  0  0
    0.7238    1.3762    4.9885 O   0  0  0  0  0  0  0  0  0  0  0  0
    2.8361    2.7873    2.8372 C   0  0  0  0  0  0  0  0  0  0  0  0
    0.2199    1.0659    2.7749 H   0  0  0  0  0  0  0  0  0  0  0  0
    3.0410    0.6401    2.9446 H   0  0  0  0  0  0  0  0  0  0  0  0
    2.0836    3.5562    3.0399 H   0  0  0  0  0  0  0  0  0  0  0  0
    3.7184    2.9908    3.4513 H   0  0  0  0  0  0  0  0  0  0  0  0
    3.1266    2.8523    1.7840 H   0  0  0  0  0  0  0  0  0  0  0  0
    2.8774    1.1052    5.5956 N   0  0  0  0  0  0  0  0  0  0  0  0
    2.5919    0.9889    7.0199 C   0  0  0  0  0  0  0  0  0  0  0  0
    3.8350    1.0023    5.2730 H   0  0  0  0  0  0  0  0  0  0  0  0
    2.1152    1.9026    7.3901 H   0  0  0  0  0  0  0  0  0  0  0  0
    1.9245    0.1414    7.2083 H   0  0  0  0  0  0  0  0  0  0  0  0
    3.5183    0.8310    7.5803 H   0  0  0  0  0  0  0  0  0  0  0  0
  1  2  2  0  0  0  0
  1  3  1  0  0  0  0
  1  7  1  0  0  0  0
  3  4  1  0  0  0  0
  3  5  1  0  0  0  0
  3  6  1  0  0  0  0
  7  8  1  0  0  0  0
  7 12  1  0  0  0  0
  8  9  1  0  0  0  0
  8 11  1  0  0  0  0
  8 13  1  0  0  0  0
  9 10  2  0  0  0  0
  9 17  1  0  0  0  0
 11 14  1  0  0  0  0
 11 15  1  0  0  0  0
 11 16  1  0  0  0  0
 17 18  1  0  0  0  0
 17 25  1  0  0  0  0
 18 19  1  0  0  0  0
 18 21  1  0  0  0  0
 18 26  1  0  0  0  0
 19 20  2  0  0  0  0
 19 36  1  0  0  0  0
 21 22  1  0  0  0  0
 21 23  1  0  0  0  0
 21 27  1  0  0  0  0
 22 24  1  0  0  0  0
 22 28  1  0  0  0  0
 22 29  1  0  0  0  0
 23 30  1  0  0  0  0
 23 31  1  0  0  0  0
 23 32  1  0  0  0  0
 24 33  1  0  0  0  0
 24 34  1  0  0  0  0
 24 35  1  0  0  0  0
 36 37  1  0  0  0  0
 36 41  1  0  0  0  0
 37 38  1  0  0  0  0
 37 40  1  0  0  0  0
 37 42  1  0  0  0  0
 38 39  2  0  0  0  0
 38 46  1  0  0  0  0
 40 43  1  0  0  0  0
 40 44  1  0  0  0  0
 40 45  1  0  0  0  0
 46 47  1  0  0  0  0
 46 48  1  0  0  0  0
 47 49  1  0  0  0  0
 47 50  1  0  0  0  0
 47 51  1  0  0  0  0
M  END
$$$$

  -OEChem-05262216503D

 51 50  0     1  0  0  0  0  0999 V2000
    0.8244   -5.5955    0.7243 C   0  0  0  0  0  0  0  0  0  0  0  0
    0.3139   -5.6520   -0.3836 O   0  0  0  0  0  0  0  0  0  0  0  0
    2.0172   -6.4726    1.0559 C   0  0  0  0  0  0  0  0  0  0  0  0
    2.3079   -7.0618    0.1814 H   0  0  0  0  0  0  0  0  0  0  0  0
    2.8643   -5.8524    1.3590 H   0  0  0  0  0  0  0  0  0  0  0  0
    1.7631   -7.1539    1.8716 H   0  0  0  0  0  0  0  0  0  0  0  0
    0.3301   -4.7280    1.6766 N   0  0  0  0  0  0  0  0  0  0  0  0
   -0.6295   -3.6571    1.3740 C   0  0  2  0  0  0  0  0  0  0  0  0
    0.0511   -2.2729    1.3517 C   0  0  0  0  0  0  0  0  0  0  0  0
    0.9762   -2.0625    2.1236 O   0  0  0  0  0  0  0  0  0  0  0  0
   -1.7239   -3.6931    2.4431 C   0  0  0  0  0  0  0  0  0  0  0  0
    0.9279   -4.5777    2.4867 H   0  0  0  0  0  0  0  0  0  0  0  0
   -1.0965   -3.8214    0.3974 H   0  0  0  0  0  0  0  0  0  0  0  0
   -1.2974   -3.5160    3.4361 H   0  0  0  0  0  0  0  0  0  0  0  0
   -2.4764   -2.9233    2.2462 H   0  0  0  0  0  0  0  0  0  0  0  0
   -2.2196   -4.6688    2.4446 H   0  0  0  0  0  0  0  0  0  0  0  0
   -0.4474   -1.2939    0.5039 N   0  0  0  0  0  0  0  0  0  0  0  0
    0.0010    0.1064    0.2980 C   0  0  2  0  0  0  0  0  0  0  0  0
    1.2113    0.5730    1.1493 C   0  0  0  0  0  0  0  0  0  0  0  0
    2.2763    0.8248    0.5975 O   0  0  0  0  0  0  0  0  0  0  0  0
   -1.2355    1.0402    0.4738 C   0  0  2  0  0  0  0  0  0  0  0  0
   -2.3020    0.7299   -0.6108 C   0  0  0  0  0  0  0  0  0  0  0  0
   -0.8393    2.5317    0.3668 C   0  0  0  0  0  0  0  0  0  0  0  0
   -3.6487    1.4123   -0.3482 C   0  0  0  0  0  0  0  0  0  0  0  0
   -1.1864   -1.6163   -0.1133 H   0  0  0  0  0  0  0  0  0  0  0  0
    0.3416    0.1896   -0.7396 H   0  0  0  0  0  0  0  0  0  0  0  0
   -1.6672    0.8634    1.4652 H   0  0  0  0  0  0  0  0  0  0  0  0
   -1.9283    1.0309   -1.5953 H   0  0  0  0  0  0  0  0  0  0  0  0
   -2.4942   -0.3456   -0.6509 H   0  0  0  0  0  0  0  0  0  0  0  0
   -0.3715    2.7351   -0.6018 H   0  0  0  0  0  0  0  0  0  0  0  0
   -1.7122    3.1801    0.4731 H   0  0  0  0  0  0  0  0  0  0  0  0
   -0.1388    2.8211    1.1544 H   0  0  0  0  0  0  0  0  0  0  0  0
   -3.9948    1.2010    0.6683 H   0  0  0  0  0  0  0  0  0  0  0  0
   -4.3973    1.0377   -1.0530 H   0  0  0  0  0  0  0  0  0  0  0  0
   -3.5776    2.4953   -0.4795 H   0  0  0  0  0  0  0  0  0  0  0  0
    1.0622    0.8568    2.4951 N   0  0  0  0  0  0  0  0  0  0  0  0
    2.1898    1.1168    3.3937 C   0  0  2  0  0  0  0  0  0  0  0  0
    1.8939    0.6128    4.8215 C   0  0  0  0  0  0  0  0  0  0  0  0
    0.7395    0.4029    5.1817 O   0  0  0  0  0  0  0  0  0  0  0  0
    2.4724    2.6219    3.4017 C   0  0  0  0  0  0  0  0  0  0  0  0
    0.2367    0.4517    2.9355 H   0  0  0  0  0  0  0  0  0  0  0  0
    3.0742    0.5807    3.0332 H   0  0  0  0  0  0  0  0  0  0  0  0
    1.5993    3.1721    3.7664 H   0  0  0  0  0  0  0  0  0  0  0  0
    3.3246    2.8486    4.0491 H   0  0  0  0  0  0  0  0  0  0  0  0
    2.7056    2.9695    2.3903 H   0  0  0  0  0  0  0  0  0  0  0  0
    2.9281    0.4140    5.7178 N   0  0  0  0  0  0  0  0  0  0  0  0
    2.7277   -0.0673    7.0790 C   0  0  0  0  0  0  0  0  0  0  0  0
    3.8747    0.5606    5.3803 H   0  0  0  0  0  0  0  0  0  0  0  0
    2.1053    0.6338    7.6451 H   0  0  0  0  0  0  0  0  0  0  0  0
    2.2381   -1.0468    7.0717 H   0  0  0  0  0  0  0  0  0  0  0  0
    3.6898   -0.1662    7.5908 H   0  0  0  0  0  0  0  0  0  0  0  0
  1  2  2  0  0  0  0
  1  3  1  0  0  0  0
  1  7  1  0  0  0  0
  3  4  1  0  0  0  0
  3  5  1  0  0  0  0
  3  6  1  0  0  0  0
  7  8  1  0  0  0  0
  7 12  1  0  0  0  0
  8  9  1  0  0  0  0
  8 11  1  0  0  0  0
  8 13  1  0  0  0  0
  9 10  2  0  0  0  0
  9 17  1  0  0  0  0
 11 14  1  0  0  0  0
 11 15  1  0  0  0  0
 11 16  1  0  0  0  0
 17 18  1  0  0  0  0
 17 25  1  0  0  0  0
 18 19  1  0  0  0  0
 18 21  1  0  0  0  0
 18 26  1  0  0  0  0
 19 20  2  0  0  0  0
 19 36  1  0  0  0  0
 21 22  1  0  0  0  0
 21 23  1  0  0  0  0
 21 27  1  0  0  0  0
 22 24  1  0  0  0  0
 22 28  1  0  0  0  0
 22 29  1  0  0  0  0
 23 30  1  0  0  0  0
 23 31  1  0  0  0  0
 23 32  1  0  0  0  0
 24 33  1  0  0  0  0
 24 34  1  0  0  0  0
 24 35  1  0  0  0  0
 36 37  1  0  0  0  0
 36 41  1  0  0  0  0
 37 38  1  0  0  0  0
 37 40  1  0  0  0  0
 37 42  1  0  0  0  0
 38 39  2  0  0  0  0
 38 46  1  0  0  0  0
 40 43  1  0  0  0  0
 40 44  1  0  0  0  0
 40 45  1  0  0  0  0
 46 47  1  0  0  0  0
 46 48  1  0  0  0  0
 47 49  1  0  0  0  0
 47 50  1  0  0  0  0
 47 51  1  0  0  0  0
M  END
$$$$

  -OEChem-05262216503D

 51 50  0     1  0  0  0  0  0999 V2000
    0.6094   -5.6840    0.5962 C   0  0  0  0  0  0  0  0  0  0  0  0
    0.0393   -5.6738   -0.4838 O   0  0  0  0  0  0  0  0  0  0  0  0
    1.7392   -6.6651    0.8481 C   0  0  0  0  0  0  0  0  0  0  0  0
    1.9252   -7.2646   -0.0477 H   0  0  0  0  0  0  0  0  0  0  0  0
    2.6537   -6.1249    1.1057 H   0  0  0  0  0  0  0  0  0  0  0  0
    1.4753   -7.3341    1.6706 H   0  0  0  0  0  0  0  0  0  0  0  0
    0.2418   -4.7967    1.5868 N   0  0  0  0  0  0  0  0  0  0  0  0
   -0.6472   -3.6495    1.3559 C   0  0  2  0  0  0  0  0  0  0  0  0
    0.1389   -2.3252    1.2665 C   0  0  0  0  0  0  0  0  0  0  0  0
    1.1408   -2.1894    1.9530 O   0  0  0  0  0  0  0  0  0  0  0  0
   -1.6439   -3.5923    2.5158 C   0  0  0  0  0  0  0  0  0  0  0  0
    0.8897   -4.7146    2.3678 H   0  0  0  0  0  0  0  0  0  0  0  0
   -1.2084   -3.7780    0.4248 H   0  0  0  0  0  0  0  0  0  0  0  0
   -1.1194   -3.4437    3.4657 H   0  0  0  0  0  0  0  0  0  0  0  0
   -2.3477   -2.7661    2.3757 H   0  0  0  0  0  0  0  0  0  0  0  0
   -2.2128   -4.5256    2.5737 H   0  0  0  0  0  0  0  0  0  0  0  0
   -0.3217   -1.3155    0.4347 N   0  0  0  0  0  0  0  0  0  0  0  0
    0.0986    0.1064    0.3295 C   0  0  2  0  0  0  0  0  0  0  0  0
    1.2259    0.6021    1.2758 C   0  0  0  0  0  0  0  0  0  0  0  0
    2.2012    1.1768    0.8058 O   0  0  0  0  0  0  0  0  0  0  0  0
   -1.1832    0.9845    0.4705 C   0  0  2  0  0  0  0  0  0  0  0  0
   -2.1671    0.6991   -0.6960 C   0  0  0  0  0  0  0  0  0  0  0  0
   -0.8440    2.4927    0.4860 C   0  0  0  0  0  0  0  0  0  0  0  0
   -3.5527    1.3191   -0.4859 C   0  0  0  0  0  0  0  0  0  0  0  0
   -1.1162   -1.5825   -0.1387 H   0  0  0  0  0  0  0  0  0  0  0  0
    0.4997    0.2488   -0.6798 H   0  0  0  0  0  0  0  0  0  0  0  0
   -1.6700    0.7335    1.4195 H   0  0  0  0  0  0  0  0  0  0  0  0
   -1.7427    1.0692   -1.6354 H   0  0  0  0  0  0  0  0  0  0  0  0
   -2.3161   -0.3775   -0.8089 H   0  0  0  0  0  0  0  0  0  0  0  0
   -0.3052    2.7735   -0.4248 H   0  0  0  0  0  0  0  0  0  0  0  0
   -1.7484    3.1017    0.5554 H   0  0  0  0  0  0  0  0  0  0  0  0
   -0.2253    2.7535    1.3496 H   0  0  0  0  0  0  0  0  0  0  0  0
   -3.9559    1.0360    0.4914 H   0  0  0  0  0  0  0  0  0  0  0  0
   -4.2392    0.9617   -1.2595 H   0  0  0  0  0  0  0  0  0  0  0  0
   -3.5152    2.4098   -0.5500 H   0  0  0  0  0  0  0  0  0  0  0  0
    1.0731    0.5470    2.6491 N   0  0  0  0  0  0  0  0  0  0  0  0
    2.1503    0.8386    3.5985 C   0  0  2  0  0  0  0  0  0  0  0  0
    2.0247   -0.0357    4.8640 C   0  0  0  0  0  0  0  0  0  0  0  0
    0.9468   -0.5355    5.1730 O   0  0  0  0  0  0  0  0  0  0  0  0
    2.0935    2.3245    3.9645 C   0  0  0  0  0  0  0  0  0  0  0  0
    0.3872   -0.1349    2.9725 H   0  0  0  0  0  0  0  0  0  0  0  0
    3.1177    0.6130    3.1376 H   0  0  0  0  0  0  0  0  0  0  0  0
    1.1328    2.5664    4.4301 H   0  0  0  0  0  0  0  0  0  0  0  0
    2.8949    2.5783    4.6648 H   0  0  0  0  0  0  0  0  0  0  0  0
    2.2112    2.9406    3.0674 H   0  0  0  0  0  0  0  0  0  0  0  0
    3.1237   -0.2459    5.6768 N   0  0  0  0  0  0  0  0  0  0  0  0
    3.0871   -1.0837    6.8687 C   0  0  0  0  0  0  0  0  0  0  0  0
    4.0124    0.1405    5.3719 H   0  0  0  0  0  0  0  0  0  0  0  0
    2.3464   -0.7046    7.5806 H   0  0  0  0  0  0  0  0  0  0  0  0
    2.8270   -2.1139    6.6038 H   0  0  0  0  0  0  0  0  0  0  0  0
    4.0654   -1.0880    7.3588 H   0  0  0  0  0  0  0  0  0  0  0  0
  1  2  2  0  0  0  0
  1  3  1  0  0  0  0
  1  7  1  0  0  0  0
  3  4  1  0  0  0  0
  3  5  1  0  0  0  0
  3  6  1  0  0  0  0
  7  8  1  0  0  0  0
  7 12  1  0  0  0  0
  8  9  1  0  0  0  0
  8 11  1  0  0  0  0
  8 13  1  0  0  0  0
  9 10  2  0  0  0  0
  9 17  1  0  0  0  0
 11 14  1  0  0  0  0
 11 15  1  0  0  0  0
 11 16  1  0  0  0  0
 17 18  1  0  0  0  0
 17 25  1  0  0  0  0
 18 19  1  0  0  0  0
 18 21  1  0  0  0  0
 18 26  1  0  0  0  0
 19 20  2  0  0  0  0
 19 36  1  0  0  0  0
 21 22  1  0  0  0  0
 21 23  1  0  0  0  0
 21 27  1  0  0  0  0
 22 24  1  0  0  0  0
 22 28  1  0  0  0  0
 22 29  1  0  0  0  0
 23 30  1  0  0  0  0
 23 31  1  0  0  0  0
 23 32  1  0  0  0  0
 24 33  1  0  0  0  0
 24 34  1  0  0  0  0
 24 35  1  0  0  0  0
 36 37  1  0  0  0  0
 36 41  1  0  0  0  0
 37 38  1  0  0  0  0
 37 40  1  0  0  0  0
 37 42  1  0  0  0  0
 38 39  2  0  0  0  0
 38 46  1  0  0  0  0
 40 43  1  0  0  0  0
 40 44  1  0  0  0  0
 40 45  1  0  0  0  0
 46 47  1  0  0  0  0
 46 48  1  0  0  0  0
 47 49  1  0  0  0  0
 47 50  1  0  0  0  0
 47 51  1  0  0  0  0
M  END
$$$$

  -OEChem-05262216503D

 51 50  0     1  0  0  0  0  0999 V2000
    0.4528   -5.7456    0.4196 C   0  0  0  0  0  0  0  0  0  0  0  0
    0.0024   -5.6200   -0.7086 O   0  0  0  0  0  0  0  0  0  0  0  0
    1.5092   -6.7969    0.7021 C   0  0  0  0  0  0  0  0  0  0  0  0
    1.7904   -7.3068   -0.2237 H   0  0  0  0  0  0  0  0  0  0  0  0
    2.3989   -6.3274    1.1292 H   0  0  0  0  0  0  0  0  0  0  0  0
    1.1205   -7.5352    1.4076 H   0  0  0  0  0  0  0  0  0  0  0  0
    0.0152   -4.9248    1.4384 N   0  0  0  0  0  0  0  0  0  0  0  0
   -0.7848   -3.7156    1.2010 C   0  0  2  0  0  0  0  0  0  0  0  0
    0.0857   -2.4422    1.1865 C   0  0  0  0  0  0  0  0  0  0  0  0
    1.0908   -2.4042    1.8788 O   0  0  0  0  0  0  0  0  0  0  0  0
   -1.8345   -3.6251    2.3103 C   0  0  0  0  0  0  0  0  0  0  0  0
    0.5858   -4.9308    2.2813 H   0  0  0  0  0  0  0  0  0  0  0  0
   -1.3065   -3.7842    0.2408 H   0  0  0  0  0  0  0  0  0  0  0  0
   -1.3524   -3.5363    3.2897 H   0  0  0  0  0  0  0  0  0  0  0  0
   -2.4761   -2.7517    2.1591 H   0  0  0  0  0  0  0  0  0  0  0  0
   -2.4633   -4.5209    2.3105 H   0  0  0  0  0  0  0  0  0  0  0  0
   -0.2983   -1.3684    0.3998 N   0  0  0  0  0  0  0  0  0  0  0  0
    0.1502    0.0501    0.3959 C   0  0  2  0  0  0  0  0  0  0  0  0
    1.2316    0.5229    1.4111 C   0  0  0  0  0  0  0  0  0  0  0  0
    2.0950    1.3083    1.0351 O   0  0  0  0  0  0  0  0  0  0  0  0
   -1.1456    0.9144    0.5245 C   0  0  2  0  0  0  0  0  0  0  0  0
   -2.0714    0.6966   -0.7044 C   0  0  0  0  0  0  0  0  0  0  0  0
   -0.8321    2.4222    0.6590 C   0  0  0  0  0  0  0  0  0  0  0  0
   -3.4707    1.2966   -0.5289 C   0  0  0  0  0  0  0  0  0  0  0  0
   -1.1005   -1.5672   -0.1901 H   0  0  0  0  0  0  0  0  0  0  0  0
    0.5963    0.2402   -0.5864 H   0  0  0  0  0  0  0  0  0  0  0  0
   -1.6753    0.5988    1.4303 H   0  0  0  0  0  0  0  0  0  0  0  0
   -1.6027    1.1255   -1.5965 H   0  0  0  0  0  0  0  0  0  0  0  0
   -2.2093   -0.3707   -0.8928 H   0  0  0  0  0  0  0  0  0  0  0  0
   -0.2393    2.7673   -0.1944 H   0  0  0  0  0  0  0  0  0  0  0  0
   -1.7474    3.0160    0.7086 H   0  0  0  0  0  0  0  0  0  0  0  0
   -0.2760    2.6314    1.5776 H   0  0  0  0  0  0  0  0  0  0  0  0
   -3.9196    0.9553    0.4091 H   0  0  0  0  0  0  0  0  0  0  0  0
   -4.1146    0.9796   -1.3549 H   0  0  0  0  0  0  0  0  0  0  0  0
   -3.4401    2.3892   -0.5294 H   0  0  0  0  0  0  0  0  0  0  0  0
    1.1926    0.1755    2.7478 N   0  0  0  0  0  0  0  0  0  0  0  0
    2.2492    0.5000    3.7100 C   0  0  2  0  0  0  0  0  0  0  0  0
    2.3305   -0.5572    4.8312 C   0  0  0  0  0  0  0  0  0  0  0  0
    1.3405   -1.2059    5.1549 O   0  0  0  0  0  0  0  0  0  0  0  0
    1.9685    1.8836    4.3033 C   0  0  0  0  0  0  0  0  0  0  0  0
    0.6809   -0.6882    2.9398 H   0  0  0  0  0  0  0  0  0  0  0  0
    3.2169    0.5127    3.1979 H   0  0  0  0  0  0  0  0  0  0  0  0
    1.0028    1.8886    4.8185 H   0  0  0  0  0  0  0  0  0  0  0  0
    2.7486    2.1585    5.0194 H   0  0  0  0  0  0  0  0  0  0  0  0
    1.9450    2.6387    3.5114 H   0  0  0  0  0  0  0  0  0  0  0  0
    3.5228   -0.7686    5.4992 N   0  0  0  0  0  0  0  0  0  0  0  0
    3.6890   -1.7767    6.5387 C   0  0  0  0  0  0  0  0  0  0  0  0
    4.3374   -0.2557    5.1750 H   0  0  0  0  0  0  0  0  0  0  0  0
    2.9894   -1.5973    7.3620 H   0  0  0  0  0  0  0  0  0  0  0  0
    3.5084   -2.7784    6.1345 H   0  0  0  0  0  0  0  0  0  0  0  0
    4.7073   -1.7431    6.9377 H   0  0  0  0  0  0  0  0  0  0  0  0
  1  2  2  0  0  0  0
  1  3  1  0  0  0  0
  1  7  1  0  0  0  0
  3  4  1  0  0  0  0
  3  5  1  0  0  0  0
  3  6  1  0  0  0  0
  7  8  1  0  0  0  0
  7 12  1  0  0  0  0
  8  9  1  0  0  0  0
  8 11  1  0  0  0  0
  8 13  1  0  0  0  0
  9 10  2  0  0  0  0
  9 17  1  0  0  0  0
 11 14  1  0  0  0  0
 11 15  1  0  0  0  0
 11 16  1  0  0  0  0
 17 18  1  0  0  0  0
 17 25  1  0  0  0  0
 18 19  1  0  0  0  0
 18 21  1  0  0  0  0
 18 26  1  0  0  0  0
 19 20  2  0  0  0  0
 19 36  1  0  0  0  0
 21 22  1  0  0  0  0
 21 23  1  0  0  0  0
 21 27  1  0  0  0  0
 22 24  1  0  0  0  0
 22 28  1  0  0  0  0
 22 29  1  0  0  0  0
 23 30  1  0  0  0  0
 23 31  1  0  0  0  0
 23 32  1  0  0  0  0
 24 33  1  0  0  0  0
 24 34  1  0  0  0  0
 24 35  1  0  0  0  0
 36 37  1  0  0  0  0
 36 41  1  0  0  0  0
 37 38  1  0  0  0  0
 37 40  1  0  0  0  0
 37 42  1  0  0  0  0
 38 39  2  0  0  0  0
 38 46  1  0  0  0  0
 40 43  1  0  0  0  0
 40 44  1  0  0  0  0
 40 45  1  0  0  0  0
 46 47  1  0  0  0  0
 46 48  1  0  0  0  0
 47 49  1  0  0  0  0
 47 50  1  0  0  0  0
 47 51  1  0  0  0  0
M  END
$$$$

  -OEChem-05262216503D

 51 50  0     1  0  0  0  0  0999 V2000
    0.0520   -5.9297    0.2867 C   0  0  0  0  0  0  0  0  0  0  0  0
   -0.5774   -5.8479   -0.7567 O   0  0  0  0  0  0  0  0  0  0  0  0
    1.0638   -7.0438    0.4777 C   0  0  0  0  0  0  0  0  0  0  0  0
    1.0715   -7.7012   -0.3963 H   0  0  0  0  0  0  0  0  0  0  0  0
    2.0630   -6.6210    0.6092 H   0  0  0  0  0  0  0  0  0  0  0  0
    0.8062   -7.6341    1.3605 H   0  0  0  0  0  0  0  0  0  0  0  0
   -0.1355   -5.0014    1.2897 N   0  0  0  0  0  0  0  0  0  0  0  0
   -0.8612   -3.7380    1.0974 C   0  0  2  0  0  0  0  0  0  0  0  0
    0.0995   -2.5329    1.0290 C   0  0  0  0  0  0  0  0  0  0  0  0
    1.1827   -2.6051    1.5879 O   0  0  0  0  0  0  0  0  0  0  0  0
   -1.8269   -3.5729    2.2728 C   0  0  0  0  0  0  0  0  0  0  0  0
    0.5676   -5.0057    2.0267 H   0  0  0  0  0  0  0  0  0  0  0  0
   -1.4434   -3.7624    0.1704 H   0  0  0  0  0  0  0  0  0  0  0  0
   -1.2763   -3.5257    3.2185 H   0  0  0  0  0  0  0  0  0  0  0  0
   -2.4098   -2.6532    2.1641 H   0  0  0  0  0  0  0  0  0  0  0  0
   -2.5200   -4.4189    2.3148 H   0  0  0  0  0  0  0  0  0  0  0  0
   -0.2626   -1.4057    0.3112 N   0  0  0  0  0  0  0  0  0  0  0  0
    0.1915    0.0089    0.4162 C   0  0  2  0  0  0  0  0  0  0  0  0
    1.2522    0.4419    1.4787 C   0  0  0  0  0  0  0  0  0  0  0  0
    1.9911    1.3851    1.2168 O   0  0  0  0  0  0  0  0  0  0  0  0
   -1.1236    0.8505    0.5511 C   0  0  2  0  0  0  0  0  0  0  0  0
   -2.0018    0.7067   -0.7252 C   0  0  0  0  0  0  0  0  0  0  0  0
   -0.8534    2.3502    0.8089 C   0  0  0  0  0  0  0  0  0  0  0  0
   -3.4152    1.2788   -0.5649 C   0  0  0  0  0  0  0  0  0  0  0  0
   -1.1280   -1.5303   -0.2044 H   0  0  0  0  0  0  0  0  0  0  0  0
    0.6610    0.2590   -0.5411 H   0  0  0  0  0  0  0  0  0  0  0  0
   -1.6834    0.4638    1.4101 H   0  0  0  0  0  0  0  0  0  0  0  0
   -1.5057    1.2016   -1.5670 H   0  0  0  0  0  0  0  0  0  0  0  0
   -2.1194   -0.3455   -0.9944 H   0  0  0  0  0  0  0  0  0  0  0  0
   -0.2280    2.7689    0.0139 H   0  0  0  0  0  0  0  0  0  0  0  0
   -1.7824    2.9222    0.8559 H   0  0  0  0  0  0  0  0  0  0  0  0
   -0.3489    2.5006    1.7678 H   0  0  0  0  0  0  0  0  0  0  0  0
   -3.8935    0.8766    0.3334 H   0  0  0  0  0  0  0  0  0  0  0  0
   -4.0249    1.0065   -1.4319 H   0  0  0  0  0  0  0  0  0  0  0  0
   -3.3998    2.3699   -0.4991 H   0  0  0  0  0  0  0  0  0  0  0  0
    1.4093   -0.1678    2.7085 N   0  0  0  0  0  0  0  0  0  0  0  0
    2.4602    0.1596    3.6787 C   0  0  2  0  0  0  0  0  0  0  0  0
    2.7517   -1.0280    4.6207 C   0  0  0  0  0  0  0  0  0  0  0  0
    1.8800   -1.8511    4.8811 O   0  0  0  0  0  0  0  0  0  0  0  0
    2.0177    1.3774    4.4970 C   0  0  0  0  0  0  0  0  0  0  0  0
    1.0399   -1.1205    2.7629 H   0  0  0  0  0  0  0  0  0  0  0  0
    3.3869    0.3950    3.1453 H   0  0  0  0  0  0  0  0  0  0  0  0
    1.0851    1.1605    5.0278 H   0  0  0  0  0  0  0  0  0  0  0  0
    2.7834    1.6440    5.2316 H   0  0  0  0  0  0  0  0  0  0  0  0
    1.8535    2.2392    3.8427 H   0  0  0  0  0  0  0  0  0  0  0  0
    3.9971   -1.1588    5.2082 N   0  0  0  0  0  0  0  0  0  0  0  0
    4.3553   -2.2692    6.0818 C   0  0  0  0  0  0  0  0  0  0  0  0
    4.7119   -0.4863    4.9466 H   0  0  0  0  0  0  0  0  0  0  0  0
    3.6952   -2.2984    6.9550 H   0  0  0  0  0  0  0  0  0  0  0  0
    4.2724   -3.2200    5.5449 H   0  0  0  0  0  0  0  0  0  0  0  0
    5.3858   -2.1584    6.4325 H   0  0  0  0  0  0  0  0  0  0  0  0
  1  2  2  0  0  0  0
  1  3  1  0  0  0  0
  1  7  1  0  0  0  0
  3  4  1  0  0  0  0
  3  5  1  0  0  0  0
  3  6  1  0  0  0  0
  7  8  1  0  0  0  0
  7 12  1  0  0  0  0
  8  9  1  0  0  0  0
  8 11  1  0  0  0  0
  8 13  1  0  0  0  0
  9 10  2  0  0  0  0
  9 17  1  0  0  0  0
 11 14  1  0  0  0  0
 11 15  1  0  0  0  0
 11 16  1  0  0  0  0
 17 18  1  0  0  0  0
 17 25  1  0  0  0  0
 18 19  1  0  0  0  0
 18 21  1  0  0  0  0
 18 26  1  0  0  0  0
 19 20  2  0  0  0  0
 19 36  1  0  0  0  0
 21 22  1  0  0  0  0
 21 23  1  0  0  0  0
 21 27  1  0  0  0  0
 22 24  1  0  0  0  0
 22 28  1  0  0  0  0
 22 29  1  0  0  0  0
 23 30  1  0  0  0  0
 23 31  1  0  0  0  0
 23 32  1  0  0  0  0
 24 33  1  0  0  0  0
 24 34  1  0  0  0  0
 24 35  1  0  0  0  0
 36 37  1  0  0  0  0
 36 41  1  0  0  0  0
 37 38  1  0  0  0  0
 37 40  1  0  0  0  0
 37 42  1  0  0  0  0
 38 39  2  0  0  0  0
 38 46  1  0  0  0  0
 40 43  1  0  0  0  0
 40 44  1  0  0  0  0
 40 45  1  0  0  0  0
 46 47  1  0  0  0  0
 46 48  1  0  0  0  0
 47 49  1  0  0  0  0
 47 50  1  0  0  0  0
 47 51  1  0  0  0  0
M  END
$$$$

  -OEChem-05262216503D

 51 50  0     1  0  0  0  0  0999 V2000
    1.5371   -4.9792    1.3612 C   0  0  0  0  0  0  0  0  0  0  0  0
    1.7700   -4.0274    2.0906 O   0  0  0  0  0  0  0  0  0  0  0  0
    2.5391   -6.1153    1.2806 C   0  0  0  0  0  0  0  0  0  0  0  0
    3.3343   -5.9703    2.0172 H   0  0  0  0  0  0  0  0  0  0  0  0
    2.0433   -7.0680    1.4819 H   0  0  0  0  0  0  0  0  0  0  0  0
    2.9852   -6.1464    0.2833 H   0  0  0  0  0  0  0  0  0  0  0  0
    0.3962   -5.0315    0.5790 N   0  0  0  0  0  0  0  0  0  0  0  0
   -0.5405   -3.9073    0.3805 C   0  0  2  0  0  0  0  0  0  0  0  0
    0.1288   -2.6374   -0.2014 C   0  0  0  0  0  0  0  0  0  0  0  0
    1.2125   -2.7111   -0.7638 O   0  0  0  0  0  0  0  0  0  0  0  0
   -1.2903   -3.6060    1.6894 C   0  0  0  0  0  0  0  0  0  0  0  0
    0.3795   -5.7792   -0.1078 H   0  0  0  0  0  0  0  0  0  0  0  0
   -1.2839   -4.2255   -0.3563 H   0  0  0  0  0  0  0  0  0  0  0  0
   -0.6263   -3.1415    2.4254 H   0  0  0  0  0  0  0  0  0  0  0  0
   -2.1259   -2.9238    1.5076 H   0  0  0  0  0  0  0  0  0  0  0  0
   -1.6899   -4.5296    2.1188 H   0  0  0  0  0  0  0  0  0  0  0  0
   -0.5509   -1.4365   -0.2606 N   0  0  0  0  0  0  0  0  0  0  0  0
   -0.0322   -0.0913    0.1095 C   0  0  2  0  0  0  0  0  0  0  0  0
    1.4314    0.0880    0.6428 C   0  0  0  0  0  0  0  0  0  0  0  0
    1.9192    1.2124    0.6416 O   0  0  0  0  0  0  0  0  0  0  0  0
   -1.1212    0.4782    1.0880 C   0  0  2  0  0  0  0  0  0  0  0  0
   -2.4837    0.6424    0.3530 C   0  0  0  0  0  0  0  0  0  0  0  0
   -0.7322    1.8248    1.7351 C   0  0  0  0  0  0  0  0  0  0  0  0
   -3.6586    0.9365    1.2929 C   0  0  0  0  0  0  0  0  0  0  0  0
   -1.5182   -1.5523    0.0214 H   0  0  0  0  0  0  0  0  0  0  0  0
   -0.0473    0.5139   -0.8024 H   0  0  0  0  0  0  0  0  0  0  0  0
   -1.2493   -0.2435    1.9021 H   0  0  0  0  0  0  0  0  0  0  0  0
   -2.4025    1.4483   -0.3839 H   0  0  0  0  0  0  0  0  0  0  0  0
   -2.7401   -0.2675   -0.1944 H   0  0  0  0  0  0  0  0  0  0  0  0
   -0.5044    2.5698    0.9662 H   0  0  0  0  0  0  0  0  0  0  0  0
   -1.5327    2.2125    2.3681 H   0  0  0  0  0  0  0  0  0  0  0  0
    0.1408    1.7060    2.3834 H   0  0  0  0  0  0  0  0  0  0  0  0
   -3.6850    0.2132    2.1137 H   0  0  0  0  0  0  0  0  0  0  0  0
   -4.6007    0.8675    0.7403 H   0  0  0  0  0  0  0  0  0  0  0  0
   -3.5916    1.9443    1.7115 H   0  0  0  0  0  0  0  0  0  0  0  0
    2.2282   -0.9518    1.0926 N   0  0  0  0  0  0  0  0  0  0  0  0
    2.9329   -0.9638    2.3869 C   0  0  2  0  0  0  0  0  0  0  0  0
    1.9764   -1.1001    3.5986 C   0  0  0  0  0  0  0  0  0  0  0  0
    0.7643   -0.9315    3.4960 O   0  0  0  0  0  0  0  0  0  0  0  0
    3.8830    0.2278    2.5758 C   0  0  0  0  0  0  0  0  0  0  0  0
    1.8874   -1.8674    0.7982 H   0  0  0  0  0  0  0  0  0  0  0  0
    3.5531   -1.8647    2.3804 H   0  0  0  0  0  0  0  0  0  0  0  0
    3.3220    1.1453    2.7795 H   0  0  0  0  0  0  0  0  0  0  0  0
    4.5580    0.0478    3.4173 H   0  0  0  0  0  0  0  0  0  0  0  0
    4.4852    0.3788    1.6745 H   0  0  0  0  0  0  0  0  0  0  0  0
    2.4861   -1.4646    4.8324 N   0  0  0  0  0  0  0  0  0  0  0  0
    1.6470   -1.7459    5.9902 C   0  0  0  0  0  0  0  0  0  0  0  0
    3.4737   -1.6949    4.8742 H   0  0  0  0  0  0  0  0  0  0  0  0
    1.0478   -0.8674    6.2520 H   0  0  0  0  0  0  0  0  0  0  0  0
    0.9732   -2.5829    5.7787 H   0  0  0  0  0  0  0  0  0  0  0  0
    2.2673   -2.0092    6.8522 H   0  0  0  0  0  0  0  0  0  0  0  0
  1  2  2  0  0  0  0
  1  3  1  0  0  0  0
  1  7  1  0  0  0  0
  3  4  1  0  0  0  0
  3  5  1  0  0  0  0
  3  6  1  0  0  0  0
  7  8  1  0  0  0  0
  7 12  1  0  0  0  0
  8  9  1  0  0  0  0
  8 11  1  0  0  0  0
  8 13  1  0  0  0  0
  9 10  2  0  0  0  0
  9 17  1  0  0  0  0
 11 14  1  0  0  0  0
 11 15  1  0  0  0  0
 11 16  1  0  0  0  0
 17 18  1  0  0  0  0
 17 25  1  0  0  0  0
 18 19  1  0  0  0  0
 18 21  1  0  0  0  0
 18 26  1  0  0  0  0
 19 20  2  0  0  0  0
 19 36  1  0  0  0  0
 21 22  1  0  0  0  0
 21 23  1  0  0  0  0
 21 27  1  0  0  0  0
 22 24  1  0  0  0  0
 22 28  1  0  0  0  0
 22 29  1  0  0  0  0
 23 30  1  0  0  0  0
 23 31  1  0  0  0  0
 23 32  1  0  0  0  0
 24 33  1  0  0  0  0
 24 34  1  0  0  0  0
 24 35  1  0  0  0  0
 36 37  1  0  0  0  0
 36 41  1  0  0  0  0
 37 38  1  0  0  0  0
 37 40  1  0  0  0  0
 37 42  1  0  0  0  0
 38 39  2  0  0  0  0
 38 46  1  0  0  0  0
 40 43  1  0  0  0  0
 40 44  1  0  0  0  0
 40 45  1  0  0  0  0
 46 47  1  0  0  0  0
 46 48  1  0  0  0  0
 47 49  1  0  0  0  0
 47 50  1  0  0  0  0
 47 51  1  0  0  0  0
M  END
$$$$

  -OEChem-05262216503D

 51 50  0     1  0  0  0  0  0999 V2000
    0.9554   -5.4911    1.0863 C   0  0  0  0  0  0  0  0  0  0  0  0
    1.1785   -5.0034   -0.0109 O   0  0  0  0  0  0  0  0  0  0  0  0
    1.9025   -6.5193    1.6743 C   0  0  0  0  0  0  0  0  0  0  0  0
    2.7204   -6.7202    0.9767 H   0  0  0  0  0  0  0  0  0  0  0  0
    2.3232   -6.1470    2.6117 H   0  0  0  0  0  0  0  0  0  0  0  0
    1.3672   -7.4520    1.8674 H   0  0  0  0  0  0  0  0  0  0  0  0
   -0.1361   -5.0625    1.8133 N   0  0  0  0  0  0  0  0  0  0  0  0
   -0.9243   -3.8917    1.4044 C   0  0  2  0  0  0  0  0  0  0  0  0
   -0.2038   -2.5592    1.7102 C   0  0  0  0  0  0  0  0  0  0  0  0
    0.4766   -2.4875    2.7217 O   0  0  0  0  0  0  0  0  0  0  0  0
   -2.2714   -3.9493    2.1275 C   0  0  0  0  0  0  0  0  0  0  0  0
   -0.1473   -5.3228    2.7957 H   0  0  0  0  0  0  0  0  0  0  0  0
   -1.1122   -3.9432    0.3262 H   0  0  0  0  0  0  0  0  0  0  0  0
   -2.1292   -3.8978    3.2120 H   0  0  0  0  0  0  0  0  0  0  0  0
   -2.9050   -3.1113    1.8207 H   0  0  0  0  0  0  0  0  0  0  0  0
   -2.7918   -4.8817    1.8870 H   0  0  0  0  0  0  0  0  0  0  0  0
   -0.3741   -1.5003    0.8316 N   0  0  0  0  0  0  0  0  0  0  0  0
    0.1476   -0.1032    0.7420 C   0  0  2  0  0  0  0  0  0  0  0  0
    1.1366    0.5310    1.7809 C   0  0  0  0  0  0  0  0  0  0  0  0
    1.7670    1.5127    1.4101 O   0  0  0  0  0  0  0  0  0  0  0  0
   -1.1707    0.7462    0.5984 C   0  0  2  0  0  0  0  0  0  0  0  0
   -1.9230    0.3823   -0.7170 C   0  0  0  0  0  0  0  0  0  0  0  0
   -0.9454    2.2748    0.6315 C   0  0  0  0  0  0  0  0  0  0  0  0
   -3.3388    0.9647   -0.8010 C   0  0  0  0  0  0  0  0  0  0  0  0
   -0.9150   -1.7749    0.0169 H   0  0  0  0  0  0  0  0  0  0  0  0
    0.7026   -0.0398   -0.2003 H   0  0  0  0  0  0  0  0  0  0  0  0
   -1.8165    0.4995    1.4489 H   0  0  0  0  0  0  0  0  0  0  0  0
   -1.3394    0.7292   -1.5765 H   0  0  0  0  0  0  0  0  0  0  0  0
   -2.0301   -0.7000   -0.8155 H   0  0  0  0  0  0  0  0  0  0  0  0
   -0.2490    2.5780   -0.1572 H   0  0  0  0  0  0  0  0  0  0  0  0
   -1.8806    2.8216    0.4955 H   0  0  0  0  0  0  0  0  0  0  0  0
   -0.5441    2.5917    1.5984 H   0  0  0  0  0  0  0  0  0  0  0  0
   -3.9034    0.7364    0.1082 H   0  0  0  0  0  0  0  0  0  0  0  0
   -3.8675    0.5286   -1.6541 H   0  0  0  0  0  0  0  0  0  0  0  0
   -3.3174    2.0484   -0.9424 H   0  0  0  0  0  0  0  0  0  0  0  0
    1.6409   -0.1036    2.8980 N   0  0  0  0  0  0  0  0  0  0  0  0
    2.9911    0.0868    3.4569 C   0  0  2  0  0  0  0  0  0  0  0  0
    3.9602   -1.0362    3.0249 C   0  0  0  0  0  0  0  0  0  0  0  0
    5.1583   -0.9412    3.2577 O   0  0  0  0  0  0  0  0  0  0  0  0
    2.8575    0.1276    4.9805 C   0  0  0  0  0  0  0  0  0  0  0  0
    1.1530   -0.9582    3.1612 H   0  0  0  0  0  0  0  0  0  0  0  0
    3.4240    1.0362    3.1243 H   0  0  0  0  0  0  0  0  0  0  0  0
    2.4456   -0.8140    5.3565 H   0  0  0  0  0  0  0  0  0  0  0  0
    3.8371    0.2878    5.4420 H   0  0  0  0  0  0  0  0  0  0  0  0
    2.1961    0.9459    5.2812 H   0  0  0  0  0  0  0  0  0  0  0  0
    3.4798   -2.1964    2.4410 N   0  0  0  0  0  0  0  0  0  0  0  0
    4.3247   -3.3095    2.0322 C   0  0  0  0  0  0  0  0  0  0  0  0
    2.4675   -2.2857    2.3552 H   0  0  0  0  0  0  0  0  0  0  0  0
    5.1490   -2.9559    1.4042 H   0  0  0  0  0  0  0  0  0  0  0  0
    4.7407   -3.8152    2.9094 H   0  0  0  0  0  0  0  0  0  0  0  0
    3.7414   -4.0323    1.4541 H   0  0  0  0  0  0  0  0  0  0  0  0
  1  2  2  0  0  0  0
  1  3  1  0  0  0  0
  1  7  1  0  0  0  0
  3  4  1  0  0  0  0
  3  5  1  0  0  0  0
  3  6  1  0  0  0  0
  7  8  1  0  0  0  0
  7 12  1  0  0  0  0
  8  9  1  0  0  0  0
  8 11  1  0  0  0  0
  8 13  1  0  0  0  0
  9 10  2  0  0  0  0
  9 17  1  0  0  0  0
 11 14  1  0  0  0  0
 11 15  1  0  0  0  0
 11 16  1  0  0  0  0
 17 18  1  0  0  0  0
 17 25  1  0  0  0  0
 18 19  1  0  0  0  0
 18 21  1  0  0  0  0
 18 26  1  0  0  0  0
 19 20  2  0  0  0  0
 19 36  1  0  0  0  0
 21 22  1  0  0  0  0
 21 23  1  0  0  0  0
 21 27  1  0  0  0  0
 22 24  1  0  0  0  0
 22 28  1  0  0  0  0
 22 29  1  0  0  0  0
 23 30  1  0  0  0  0
 23 31  1  0  0  0  0
 23 32  1  0  0  0  0
 24 33  1  0  0  0  0
 24 34  1  0  0  0  0
 24 35  1  0  0  0  0
 36 37  1  0  0  0  0
 36 41  1  0  0  0  0
 37 38  1  0  0  0  0
 37 40  1  0  0  0  0
 37 42  1  0  0  0  0
 38 39  2  0  0  0  0
 38 46  1  0  0  0  0
 40 43  1  0  0  0  0
 40 44  1  0  0  0  0
 40 45  1  0  0  0  0
 46 47  1  0  0  0  0
 46 48  1  0  0  0  0
 47 49  1  0  0  0  0
 47 50  1  0  0  0  0
 47 51  1  0  0  0  0
M  END
$$$$

  -OEChem-05262216503D

 51 50  0     1  0  0  0  0  0999 V2000
    0.1827   -4.2145    0.2428 C   0  0  0  0  0  0  0  0  0  0  0  0
   -0.7605   -3.8638   -0.4535 O   0  0  0  0  0  0  0  0  0  0  0  0
    1.5280   -4.5167   -0.3880 C   0  0  0  0  0  0  0  0  0  0  0  0
    1.4099   -4.7038   -1.4587 H   0  0  0  0  0  0  0  0  0  0  0  0
    2.2023   -3.6684   -0.2465 H   0  0  0  0  0  0  0  0  0  0  0  0
    1.9690   -5.4016    0.0775 H   0  0  0  0  0  0  0  0  0  0  0  0
    0.0479   -4.2071    1.6144 N   0  0  0  0  0  0  0  0  0  0  0  0
   -1.1588   -3.7345    2.3117 C   0  0  2  0  0  0  0  0  0  0  0  0
   -1.2021   -2.1898    2.3591 C   0  0  0  0  0  0  0  0  0  0  0  0
   -1.2052   -1.5803    3.4208 O   0  0  0  0  0  0  0  0  0  0  0  0
   -1.1580   -4.3785    3.7032 C   0  0  0  0  0  0  0  0  0  0  0  0
    0.9306   -4.2190    2.1377 H   0  0  0  0  0  0  0  0  0  0  0  0
   -2.0552   -4.0756    1.7827 H   0  0  0  0  0  0  0  0  0  0  0  0
   -0.2758   -4.0661    4.2720 H   0  0  0  0  0  0  0  0  0  0  0  0
   -2.0532   -4.0831    4.2598 H   0  0  0  0  0  0  0  0  0  0  0  0
   -1.1494   -5.4694    3.6174 H   0  0  0  0  0  0  0  0  0  0  0  0
   -1.1084   -1.4852    1.1755 N   0  0  0  0  0  0  0  0  0  0  0  0
   -0.0951   -0.4604    0.7999 C   0  0  2  0  0  0  0  0  0  0  0  0
    1.0483   -0.0673    1.7984 C   0  0  0  0  0  0  0  0  0  0  0  0
    1.9997    0.5640    1.3500 O   0  0  0  0  0  0  0  0  0  0  0  0
   -0.9704    0.7651    0.3543 C   0  0  2  0  0  0  0  0  0  0  0  0
   -1.8247    0.3972   -0.8947 C   0  0  0  0  0  0  0  0  0  0  0  0
   -0.1567    2.0408    0.0478 C   0  0  0  0  0  0  0  0  0  0  0  0
   -2.8994    1.4361   -1.2357 C   0  0  0  0  0  0  0  0  0  0  0  0
   -1.2998   -2.1188    0.3937 H   0  0  0  0  0  0  0  0  0  0  0  0
    0.4378   -0.8379   -0.0786 H   0  0  0  0  0  0  0  0  0  0  0  0
   -1.6489    1.0032    1.1815 H   0  0  0  0  0  0  0  0  0  0  0  0
   -1.1672    0.2607   -1.7595 H   0  0  0  0  0  0  0  0  0  0  0  0
   -2.3482   -0.5491   -0.7348 H   0  0  0  0  0  0  0  0  0  0  0  0
    0.6042    1.8378   -0.7124 H   0  0  0  0  0  0  0  0  0  0  0  0
   -0.7972    2.8490   -0.3106 H   0  0  0  0  0  0  0  0  0  0  0  0
    0.3339    2.4158    0.9502 H   0  0  0  0  0  0  0  0  0  0  0  0
   -3.4950    1.6765   -0.3494 H   0  0  0  0  0  0  0  0  0  0  0  0
   -3.5689    1.0359   -2.0031 H   0  0  0  0  0  0  0  0  0  0  0  0
   -2.4568    2.3560   -1.6263 H   0  0  0  0  0  0  0  0  0  0  0  0
    1.3618   -0.8221    2.9130 N   0  0  0  0  0  0  0  0  0  0  0  0
    2.7107   -1.1166    3.4060 C   0  0  2  0  0  0  0  0  0  0  0  0
    3.2933   -2.3733    2.7242 C   0  0  0  0  0  0  0  0  0  0  0  0
    2.6195   -3.3959    2.6103 O   0  0  0  0  0  0  0  0  0  0  0  0
    2.6150   -1.3164    4.9198 C   0  0  0  0  0  0  0  0  0  0  0  0
    0.5838   -1.3447    3.3165 H   0  0  0  0  0  0  0  0  0  0  0  0
    3.3793   -0.2709    3.2152 H   0  0  0  0  0  0  0  0  0  0  0  0
    1.9474   -2.1515    5.1565 H   0  0  0  0  0  0  0  0  0  0  0  0
    3.6026   -1.5303    5.3397 H   0  0  0  0  0  0  0  0  0  0  0  0
    2.2235   -0.4122    5.3966 H   0  0  0  0  0  0  0  0  0  0  0  0
    4.5886   -2.3673    2.2432 N   0  0  0  0  0  0  0  0  0  0  0  0
    5.1899   -3.4938    1.5401 C   0  0  0  0  0  0  0  0  0  0  0  0
    5.0773   -1.4756    2.2473 H   0  0  0  0  0  0  0  0  0  0  0  0
    5.1593   -4.3952    2.1612 H   0  0  0  0  0  0  0  0  0  0  0  0
    4.6564   -3.6914    0.6049 H   0  0  0  0  0  0  0  0  0  0  0  0
    6.2358   -3.2761    1.3034 H   0  0  0  0  0  0  0  0  0  0  0  0
  1  2  2  0  0  0  0
  1  3  1  0  0  0  0
  1  7  1  0  0  0  0
  3  4  1  0  0  0  0
  3  5  1  0  0  0  0
  3  6  1  0  0  0  0
  7  8  1  0  0  0  0
  7 12  1  0  0  0  0
  8  9  1  0  0  0  0
  8 11  1  0  0  0  0
  8 13  1  0  0  0  0
  9 10  2  0  0  0  0
  9 17  1  0  0  0  0
 11 14  1  0  0  0  0
 11 15  1  0  0  0  0
 11 16  1  0  0  0  0
 17 18  1  0  0  0  0
 17 25  1  0  0  0  0
 18 19  1  0  0  0  0
 18 21  1  0  0  0  0
 18 26  1  0  0  0  0
 19 20  2  0  0  0  0
 19 36  1  0  0  0  0
 21 22  1  0  0  0  0
 21 23  1  0  0  0  0
 21 27  1  0  0  0  0
 22 24  1  0  0  0  0
 22 28  1  0  0  0  0
 22 29  1  0  0  0  0
 23 30  1  0  0  0  0
 23 31  1  0  0  0  0
 23 32  1  0  0  0  0
 24 33  1  0  0  0  0
 24 34  1  0  0  0  0
 24 35  1  0  0  0  0
 36 37  1  0  0  0  0
 36 41  1  0  0  0  0
 37 38  1  0  0  0  0
 37 40  1  0  0  0  0
 37 42  1  0  0  0  0
 38 39  2  0  0  0  0
 38 46  1  0  0  0  0
 40 43  1  0  0  0  0
 40 44  1  0  0  0  0
 40 45  1  0  0  0  0
 46 47  1  0  0  0  0
 46 48  1  0  0  0  0
 47 49  1  0  0  0  0
 47 50  1  0  0  0  0
 47 51  1  0  0  0  0
M  END
$$$$

  -OEChem-05262216503D

 51 50  0     1  0  0  0  0  0999 V2000
    0.1925   -4.1303   -0.0522 C   0  0  0  0  0  0  0  0  0  0  0  0
   -0.7718   -3.7200   -0.6843 O   0  0  0  0  0  0  0  0  0  0  0  0
    1.4984   -4.4355   -0.7602 C   0  0  0  0  0  0  0  0  0  0  0  0
    2.2403   -3.6704   -0.5184 H   0  0  0  0  0  0  0  0  0  0  0  0
    1.3471   -4.4530   -1.8429 H   0  0  0  0  0  0  0  0  0  0  0  0
    1.8763   -5.4100   -0.4411 H   0  0  0  0  0  0  0  0  0  0  0  0
    0.1173   -4.2005    1.3226 N   0  0  0  0  0  0  0  0  0  0  0  0
   -1.0501   -3.7483    2.0972 C   0  0  2  0  0  0  0  0  0  0  0  0
   -1.0517   -2.2093    2.2428 C   0  0  0  0  0  0  0  0  0  0  0  0
   -0.9172   -1.6743    3.3345 O   0  0  0  0  0  0  0  0  0  0  0  0
   -1.0154   -4.4821    3.4432 C   0  0  0  0  0  0  0  0  0  0  0  0
    1.0208   -4.2612    1.8047 H   0  0  0  0  0  0  0  0  0  0  0  0
   -1.9744   -4.0338    1.5834 H   0  0  0  0  0  0  0  0  0  0  0  0
   -0.1063   -4.2284    3.9982 H   0  0  0  0  0  0  0  0  0  0  0  0
   -1.8825   -4.2028    4.0501 H   0  0  0  0  0  0  0  0  0  0  0  0
   -1.0376   -5.5649    3.2863 H   0  0  0  0  0  0  0  0  0  0  0  0
   -1.0274   -1.4402    1.0954 N   0  0  0  0  0  0  0  0  0  0  0  0
   -0.0784   -0.3495    0.7358 C   0  0  2  0  0  0  0  0  0  0  0  0
    1.0706    0.0261    1.7374 C   0  0  0  0  0  0  0  0  0  0  0  0
    1.8633    0.9121    1.4418 O   0  0  0  0  0  0  0  0  0  0  0  0
   -1.0321    0.8361    0.3352 C   0  0  2  0  0  0  0  0  0  0  0  0
   -1.8782    0.4428   -0.9135 C   0  0  0  0  0  0  0  0  0  0  0  0
   -0.3097    2.1691    0.0435 C   0  0  0  0  0  0  0  0  0  0  0  0
   -3.0216    1.4165   -1.2229 C   0  0  0  0  0  0  0  0  0  0  0  0
   -1.2577   -2.0247    0.2864 H   0  0  0  0  0  0  0  0  0  0  0  0
    0.4582   -0.6672   -0.1634 H   0  0  0  0  0  0  0  0  0  0  0  0
   -1.7127    1.0126    1.1760 H   0  0  0  0  0  0  0  0  0  0  0  0
   -1.2233    0.3654   -1.7876 H   0  0  0  0  0  0  0  0  0  0  0  0
   -2.3402   -0.5374   -0.7692 H   0  0  0  0  0  0  0  0  0  0  0  0
    0.4866    2.0219   -0.6929 H   0  0  0  0  0  0  0  0  0  0  0  0
   -0.9960    2.9273   -0.3375 H   0  0  0  0  0  0  0  0  0  0  0  0
    0.1219    2.5835    0.9587 H   0  0  0  0  0  0  0  0  0  0  0  0
   -3.6105    1.6138   -0.3219 H   0  0  0  0  0  0  0  0  0  0  0  0
   -3.6825    0.9806   -1.9782 H   0  0  0  0  0  0  0  0  0  0  0  0
   -2.6464    2.3643   -1.6167 H   0  0  0  0  0  0  0  0  0  0  0  0
    1.6022   -0.9355    2.5767 N   0  0  0  0  0  0  0  0  0  0  0  0
    3.0104   -1.1421    2.9315 C   0  0  2  0  0  0  0  0  0  0  0  0
    3.5271   -2.4944    2.3945 C   0  0  0  0  0  0  0  0  0  0  0  0
    2.7611   -3.4418    2.2208 O   0  0  0  0  0  0  0  0  0  0  0  0
    3.1150   -1.0925    4.4562 C   0  0  0  0  0  0  0  0  0  0  0  0
    0.9308   -1.6246    2.9139 H   0  0  0  0  0  0  0  0  0  0  0  0
    3.6382   -0.3500    2.5114 H   0  0  0  0  0  0  0  0  0  0  0  0
    2.5031   -1.8798    4.9086 H   0  0  0  0  0  0  0  0  0  0  0  0
    4.1527   -1.2303    4.7741 H   0  0  0  0  0  0  0  0  0  0  0  0
    2.7644   -0.1238    4.8262 H   0  0  0  0  0  0  0  0  0  0  0  0
    4.8679   -2.6575    2.1023 N   0  0  0  0  0  0  0  0  0  0  0  0
    5.4283   -3.8853    1.5518 C   0  0  0  0  0  0  0  0  0  0  0  0
    5.4709   -1.8461    2.2082 H   0  0  0  0  0  0  0  0  0  0  0  0
    5.2133   -4.7345    2.2089 H   0  0  0  0  0  0  0  0  0  0  0  0
    6.5142   -3.7936    1.4530 H   0  0  0  0  0  0  0  0  0  0  0  0
    5.0060   -4.0885    0.5622 H   0  0  0  0  0  0  0  0  0  0  0  0
  1  2  2  0  0  0  0
  1  3  1  0  0  0  0
  1  7  1  0  0  0  0
  3  4  1  0  0  0  0
  3  5  1  0  0  0  0
  3  6  1  0  0  0  0
  7  8  1  0  0  0  0
  7 12  1  0  0  0  0
  8  9  1  0  0  0  0
  8 11  1  0  0  0  0
  8 13  1  0  0  0  0
  9 10  2  0  0  0  0
  9 17  1  0  0  0  0
 11 14  1  0  0  0  0
 11 15  1  0  0  0  0
 11 16  1  0  0  0  0
 17 18  1  0  0  0  0
 17 25  1  0  0  0  0
 18 19  1  0  0  0  0
 18 21  1  0  0  0  0
 18 26  1  0  0  0  0
 19 20  2  0  0  0  0
 19 36  1  0  0  0  0
 21 22  1  0  0  0  0
 21 23  1  0  0  0  0
 21 27  1  0  0  0  0
 22 24  1  0  0  0  0
 22 28  1  0  0  0  0
 22 29  1  0  0  0  0
 23 30  1  0  0  0  0
 23 31  1  0  0  0  0
 23 32  1  0  0  0  0
 24 33  1  0  0  0  0
 24 34  1  0  0  0  0
 24 35  1  0  0  0  0
 36 37  1  0  0  0  0
 36 41  1  0  0  0  0
 37 38  1  0  0  0  0
 37 40  1  0  0  0  0
 37 42  1  0  0  0  0
 38 39  2  0  0  0  0
 38 46  1  0  0  0  0
 40 43  1  0  0  0  0
 40 44  1  0  0  0  0
 40 45  1  0  0  0  0
 46 47  1  0  0  0  0
 46 48  1  0  0  0  0
 47 49  1  0  0  0  0
 47 50  1  0  0  0  0
 47 51  1  0  0  0  0
M  END
$$$$

  -OEChem-05262216503D

 51 50  0     1  0  0  0  0  0999 V2000
    0.2018   -4.0178   -0.2690 C   0  0  0  0  0  0  0  0  0  0  0  0
   -0.8600   -3.5926   -0.7029 O   0  0  0  0  0  0  0  0  0  0  0  0
    1.3398   -4.3546   -1.2126 C   0  0  0  0  0  0  0  0  0  0  0  0
    2.1633   -3.6503   -1.0693 H   0  0  0  0  0  0  0  0  0  0  0  0
    1.7006   -5.3671   -1.0149 H   0  0  0  0  0  0  0  0  0  0  0  0
    1.0010   -4.2973   -2.2506 H   0  0  0  0  0  0  0  0  0  0  0  0
    0.3889   -4.0857    1.0954 N   0  0  0  0  0  0  0  0  0  0  0  0
   -0.6243   -3.6784    2.0834 C   0  0  2  0  0  0  0  0  0  0  0  0
   -0.6677   -2.1404    2.2337 C   0  0  0  0  0  0  0  0  0  0  0  0
   -0.2172   -1.5913    3.2286 O   0  0  0  0  0  0  0  0  0  0  0  0
   -0.2973   -4.4003    3.3960 C   0  0  0  0  0  0  0  0  0  0  0  0
    1.3453   -4.2746    1.4165 H   0  0  0  0  0  0  0  0  0  0  0  0
   -1.6169   -4.0083    1.7588 H   0  0  0  0  0  0  0  0  0  0  0  0
    0.6986   -4.1190    3.7540 H   0  0  0  0  0  0  0  0  0  0  0  0
   -1.0295   -4.1371    4.1659 H   0  0  0  0  0  0  0  0  0  0  0  0
   -0.3226   -5.4846    3.2507 H   0  0  0  0  0  0  0  0  0  0  0  0
   -1.0479   -1.3657    1.1517 N   0  0  0  0  0  0  0  0  0  0  0  0
   -0.2319   -0.3018    0.5004 C   0  0  2  0  0  0  0  0  0  0  0  0
    1.1924   -0.0639    1.1121 C   0  0  0  0  0  0  0  0  0  0  0  0
    1.7741    1.0118    1.1480 O   0  0  0  0  0  0  0  0  0  0  0  0
   -1.1898    0.9385    0.3974 C   0  0  2  0  0  0  0  0  0  0  0  0
   -2.3992    0.5862   -0.5210 C   0  0  0  0  0  0  0  0  0  0  0  0
   -0.5038    2.2021   -0.1714 C   0  0  0  0  0  0  0  0  0  0  0  0
   -3.5344    1.6176   -0.4864 C   0  0  0  0  0  0  0  0  0  0  0  0
   -1.5053   -1.9570    0.4536 H   0  0  0  0  0  0  0  0  0  0  0  0
   -0.0200   -0.6309   -0.5215 H   0  0  0  0  0  0  0  0  0  0  0  0
   -1.5598    1.1733    1.4015 H   0  0  0  0  0  0  0  0  0  0  0  0
   -2.0530    0.4648   -1.5528 H   0  0  0  0  0  0  0  0  0  0  0  0
   -2.8413   -0.3652   -0.2144 H   0  0  0  0  0  0  0  0  0  0  0  0
    0.1212    1.9460   -1.0326 H   0  0  0  0  0  0  0  0  0  0  0  0
   -1.2258    2.9564   -0.4866 H   0  0  0  0  0  0  0  0  0  0  0  0
    0.1164    2.6813    0.5901 H   0  0  0  0  0  0  0  0  0  0  0  0
   -3.7994    1.8587    0.5477 H   0  0  0  0  0  0  0  0  0  0  0  0
   -4.4195    1.2068   -0.9818 H   0  0  0  0  0  0  0  0  0  0  0  0
   -3.2613    2.5390   -1.0065 H   0  0  0  0  0  0  0  0  0  0  0  0
    1.9592   -1.1790    1.3988 N   0  0  0  0  0  0  0  0  0  0  0  0
    3.3069   -1.1978    1.9704 C   0  0  2  0  0  0  0  0  0  0  0  0
    3.9250   -2.6074    1.8410 C   0  0  0  0  0  0  0  0  0  0  0  0
    3.2146   -3.5830    1.5938 O   0  0  0  0  0  0  0  0  0  0  0  0
    3.2322   -0.7941    3.4477 C   0  0  0  0  0  0  0  0  0  0  0  0
    1.4457   -2.0543    1.4480 H   0  0  0  0  0  0  0  0  0  0  0  0
    3.9424   -0.4902    1.4282 H   0  0  0  0  0  0  0  0  0  0  0  0
    2.5895   -1.4871    4.0007 H   0  0  0  0  0  0  0  0  0  0  0  0
    4.2278   -0.8034    3.9004 H   0  0  0  0  0  0  0  0  0  0  0  0
    2.8191    0.2143    3.5494 H   0  0  0  0  0  0  0  0  0  0  0  0
    5.2876   -2.7861    1.9878 N   0  0  0  0  0  0  0  0  0  0  0  0
    5.9485   -4.0802    1.8728 C   0  0  0  0  0  0  0  0  0  0  0  0
    5.8488   -1.9636    2.1923 H   0  0  0  0  0  0  0  0  0  0  0  0
    5.5540   -4.7802    2.6168 H   0  0  0  0  0  0  0  0  0  0  0  0
    5.7948   -4.5020    0.8739 H   0  0  0  0  0  0  0  0  0  0  0  0
    7.0245   -3.9708    2.0392 H   0  0  0  0  0  0  0  0  0  0  0  0
  1  2  2  0  0  0  0
  1  3  1  0  0  0  0
  1  7  1  0  0  0  0
  3  4  1  0  0  0  0
  3  5  1  0  0  0  0
  3  6  1  0  0  0  0
  7  8  1  0  0  0  0
  7 12  1  0  0  0  0
  8  9  1  0  0  0  0
  8 11  1  0  0  0  0
  8 13  1  0  0  0  0
  9 10  2  0  0  0  0
  9 17  1  0  0  0  0
 11 14  1  0  0  0  0
 11 15  1  0  0  0  0
 11 16  1  0  0  0  0
 17 18  1  0  0  0  0
 17 25  1  0  0  0  0
 18 19  1  0  0  0  0
 18 21  1  0  0  0  0
 18 26  1  0  0  0  0
 19 20  2  0  0  0  0
 19 36  1  0  0  0  0
 21 22  1  0  0  0  0
 21 23  1  0  0  0  0
 21 27  1  0  0  0  0
 22 24  1  0  0  0  0
 22 28  1  0  0  0  0
 22 29  1  0  0  0  0
 23 30  1  0  0  0  0
 23 31  1  0  0  0  0
 23 32  1  0  0  0  0
 24 33  1  0  0  0  0
 24 34  1  0  0  0  0
 24 35  1  0  0  0  0
 36 37  1  0  0  0  0
 36 41  1  0  0  0  0
 37 38  1  0  0  0  0
 37 40  1  0  0  0  0
 37 42  1  0  0  0  0
 38 39  2  0  0  0  0
 38 46  1  0  0  0  0
 40 43  1  0  0  0  0
 40 44  1  0  0  0  0
 40 45  1  0  0  0  0
 46 47  1  0  0  0  0
 46 48  1  0  0  0  0
 47 49  1  0  0  0  0
 47 50  1  0  0  0  0
 47 51  1  0  0  0  0
M  END
$$$$

  -OEChem-05262216503D

 51 50  0     1  0  0  0  0  0999 V2000
    0.1268   -4.0509   -0.1182 C   0  0  0  0  0  0  0  0  0  0  0  0
   -1.0135   -3.6980   -0.3839 O   0  0  0  0  0  0  0  0  0  0  0  0
    1.0740   -4.4857   -1.2193 C   0  0  0  0  0  0  0  0  0  0  0  0
    0.5277   -4.6221   -2.1567 H   0  0  0  0  0  0  0  0  0  0  0  0
    1.8482   -3.7285   -1.3664 H   0  0  0  0  0  0  0  0  0  0  0  0
    1.5507   -5.4312   -0.9489 H   0  0  0  0  0  0  0  0  0  0  0  0
    0.5762   -3.9400    1.1803 N   0  0  0  0  0  0  0  0  0  0  0  0
   -0.2557   -3.4864    2.3087 C   0  0  2  0  0  0  0  0  0  0  0  0
   -0.3904   -1.9455    2.3345 C   0  0  0  0  0  0  0  0  0  0  0  0
    0.1017   -1.2821    3.2353 O   0  0  0  0  0  0  0  0  0  0  0  0
    0.3715   -4.0553    3.5871 C   0  0  0  0  0  0  0  0  0  0  0  0
    1.5809   -4.0795    1.3319 H   0  0  0  0  0  0  0  0  0  0  0  0
   -1.2649   -3.9022    2.2173 H   0  0  0  0  0  0  0  0  0  0  0  0
    1.3909   -3.6775    3.7176 H   0  0  0  0  0  0  0  0  0  0  0  0
   -0.2199   -3.7656    4.4616 H   0  0  0  0  0  0  0  0  0  0  0  0
    0.4070   -5.1480    3.5406 H   0  0  0  0  0  0  0  0  0  0  0  0
   -0.9414   -1.3060    1.2364 N   0  0  0  0  0  0  0  0  0  0  0  0
   -0.2643   -0.2569    0.4281 C   0  0  2  0  0  0  0  0  0  0  0  0
    1.1781    0.0799    0.9257 C   0  0  0  0  0  0  0  0  0  0  0  0
    1.6090    1.1982    1.1712 O   0  0  0  0  0  0  0  0  0  0  0  0
   -1.2715    0.9366    0.3138 C   0  0  2  0  0  0  0  0  0  0  0  0
   -2.5450    0.4676   -0.4496 C   0  0  0  0  0  0  0  0  0  0  0  0
   -0.6771    2.1419   -0.4538 C   0  0  0  0  0  0  0  0  0  0  0  0
   -3.7082    1.4661   -0.3905 C   0  0  0  0  0  0  0  0  0  0  0  0
   -1.4261   -1.9867    0.6455 H   0  0  0  0  0  0  0  0  0  0  0  0
   -0.1198   -0.6529   -0.5817 H   0  0  0  0  0  0  0  0  0  0  0  0
   -1.5482    1.2613    1.3234 H   0  0  0  0  0  0  0  0  0  0  0  0
   -2.2951    0.2639   -1.4960 H   0  0  0  0  0  0  0  0  0  0  0  0
   -2.9164   -0.4659   -0.0184 H   0  0  0  0  0  0  0  0  0  0  0  0
   -0.1602    1.8044   -1.3573 H   0  0  0  0  0  0  0  0  0  0  0  0
   -1.4460    2.8575   -0.7480 H   0  0  0  0  0  0  0  0  0  0  0  0
    0.0256    2.6996    0.1683 H   0  0  0  0  0  0  0  0  0  0  0  0
   -3.8889    1.7810    0.6419 H   0  0  0  0  0  0  0  0  0  0  0  0
   -4.6188    0.9940   -0.7713 H   0  0  0  0  0  0  0  0  0  0  0  0
   -3.5133    2.3512   -1.0009 H   0  0  0  0  0  0  0  0  0  0  0  0
    2.0780   -0.9716    0.9237 N   0  0  0  0  0  0  0  0  0  0  0  0
    3.4399   -0.9614    1.4686 C   0  0  2  0  0  0  0  0  0  0  0  0
    4.1061   -2.3354    1.2377 C   0  0  0  0  0  0  0  0  0  0  0  0
    3.4166   -3.3298    1.0067 O   0  0  0  0  0  0  0  0  0  0  0  0
    3.4201   -0.6735    2.9775 C   0  0  0  0  0  0  0  0  0  0  0  0
    1.6633   -1.8910    0.7959 H   0  0  0  0  0  0  0  0  0  0  0  0
    4.0266   -0.1920    0.9566 H   0  0  0  0  0  0  0  0  0  0  0  0
    2.8291   -1.4293    3.5040 H   0  0  0  0  0  0  0  0  0  0  0  0
    4.4360   -0.6826    3.3830 H   0  0  0  0  0  0  0  0  0  0  0  0
    2.9835    0.3083    3.1830 H   0  0  0  0  0  0  0  0  0  0  0  0
    5.4801   -2.4680    1.3034 N   0  0  0  0  0  0  0  0  0  0  0  0
    6.1758   -3.7375    1.1319 C   0  0  0  0  0  0  0  0  0  0  0  0
    6.0215   -1.6361    1.5228 H   0  0  0  0  0  0  0  0  0  0  0  0
    7.2564   -3.5918    1.2259 H   0  0  0  0  0  0  0  0  0  0  0  0
    5.8567   -4.4563    1.8938 H   0  0  0  0  0  0  0  0  0  0  0  0
    5.9692   -4.1571    0.1418 H   0  0  0  0  0  0  0  0  0  0  0  0
  1  2  2  0  0  0  0
  1  3  1  0  0  0  0
  1  7  1  0  0  0  0
  3  4  1  0  0  0  0
  3  5  1  0  0  0  0
  3  6  1  0  0  0  0
  7  8  1  0  0  0  0
  7 12  1  0  0  0  0
  8  9  1  0  0  0  0
  8 11  1  0  0  0  0
  8 13  1  0  0  0  0
  9 10  2  0  0  0  0
  9 17  1  0  0  0  0
 11 14  1  0  0  0  0
 11 15  1  0  0  0  0
 11 16  1  0  0  0  0
 17 18  1  0  0  0  0
 17 25  1  0  0  0  0
 18 19  1  0  0  0  0
 18 21  1  0  0  0  0
 18 26  1  0  0  0  0
 19 20  2  0  0  0  0
 19 36  1  0  0  0  0
 21 22  1  0  0  0  0
 21 23  1  0  0  0  0
 21 27  1  0  0  0  0
 22 24  1  0  0  0  0
 22 28  1  0  0  0  0
 22 29  1  0  0  0  0
 23 30  1  0  0  0  0
 23 31  1  0  0  0  0
 23 32  1  0  0  0  0
 24 33  1  0  0  0  0
 24 34  1  0  0  0  0
 24 35  1  0  0  0  0
 36 37  1  0  0  0  0
 36 41  1  0  0  0  0
 37 38  1  0  0  0  0
 37 40  1  0  0  0  0
 37 42  1  0  0  0  0
 38 39  2  0  0  0  0
 38 46  1  0  0  0  0
 40 43  1  0  0  0  0
 40 44  1  0  0  0  0
 40 45  1  0  0  0  0
 46 47  1  0  0  0  0
 46 48  1  0  0  0  0
 47 49  1  0  0  0  0
 47 50  1  0  0  0  0
 47 51  1  0  0  0  0
M  END
$$$$

  -OEChem-05262216503D

 51 50  0     1  0  0  0  0  0999 V2000
   -1.4756   -4.7412    0.3330 C   0  0  0  0  0  0  0  0  0  0  0  0
   -2.1813   -3.7682    0.1112 O   0  0  0  0  0  0  0  0  0  0  0  0
   -1.4077   -5.8840   -0.6618 C   0  0  0  0  0  0  0  0  0  0  0  0
   -2.0488   -5.6736   -1.5225 H   0  0  0  0  0  0  0  0  0  0  0  0
   -0.3808   -6.0148   -1.0124 H   0  0  0  0  0  0  0  0  0  0  0  0
   -1.7449   -6.8100   -0.1900 H   0  0  0  0  0  0  0  0  0  0  0  0
   -0.6966   -4.7675    1.4712 N   0  0  0  0  0  0  0  0  0  0  0  0
   -0.6684   -3.6904    2.4726 C   0  0  2  0  0  0  0  0  0  0  0  0
    0.1822   -2.4800    2.0139 C   0  0  0  0  0  0  0  0  0  0  0  0
    1.2478   -2.2396    2.5583 O   0  0  0  0  0  0  0  0  0  0  0  0
   -0.1807   -4.3053    3.7910 C   0  0  0  0  0  0  0  0  0  0  0  0
   -0.0528   -5.5465    1.5798 H   0  0  0  0  0  0  0  0  0  0  0  0
   -1.6858   -3.3206    2.6402 H   0  0  0  0  0  0  0  0  0  0  0  0
    0.8354   -4.6985    3.6827 H   0  0  0  0  0  0  0  0  0  0  0  0
   -0.1755   -3.5482    4.5818 H   0  0  0  0  0  0  0  0  0  0  0  0
   -0.8414   -5.1213    4.0994 H   0  0  0  0  0  0  0  0  0  0  0  0
   -0.2893   -1.7304    0.9469 N   0  0  0  0  0  0  0  0  0  0  0  0
    0.2081   -0.4703    0.3379 C   0  0  2  0  0  0  0  0  0  0  0  0
    1.4848    0.1358    0.9980 C   0  0  0  0  0  0  0  0  0  0  0  0
    1.4505    1.1060    1.7475 O   0  0  0  0  0  0  0  0  0  0  0  0
   -1.0061    0.5109    0.2232 C   0  0  2  0  0  0  0  0  0  0  0  0
   -2.0812   -0.0888   -0.7281 C   0  0  0  0  0  0  0  0  0  0  0  0
   -0.5953    1.8830   -0.3684 C   0  0  0  0  0  0  0  0  0  0  0  0
   -3.4176    0.6626   -0.7002 C   0  0  0  0  0  0  0  0  0  0  0  0
   -1.1504   -2.1120    0.5465 H   0  0  0  0  0  0  0  0  0  0  0  0
    0.5217   -0.7081   -0.6827 H   0  0  0  0  0  0  0  0  0  0  0  0
   -1.4316    0.6637    1.2212 H   0  0  0  0  0  0  0  0  0  0  0  0
   -1.6999   -0.1141   -1.7542 H   0  0  0  0  0  0  0  0  0  0  0  0
   -2.3016   -1.1190   -0.4398 H   0  0  0  0  0  0  0  0  0  0  0  0
   -0.0874    1.7487   -1.3283 H   0  0  0  0  0  0  0  0  0  0  0  0
   -1.4651    2.5242   -0.5245 H   0  0  0  0  0  0  0  0  0  0  0  0
    0.0678    2.4364    0.2980 H   0  0  0  0  0  0  0  0  0  0  0  0
   -3.7583    0.8009    0.3306 H   0  0  0  0  0  0  0  0  0  0  0  0
   -4.1759    0.0863   -1.2391 H   0  0  0  0  0  0  0  0  0  0  0  0
   -3.3384    1.6410   -1.1811 H   0  0  0  0  0  0  0  0  0  0  0  0
    2.7130   -0.4522    0.7567 N   0  0  0  0  0  0  0  0  0  0  0  0
    3.9886   -0.0236    1.3429 C   0  0  2  0  0  0  0  0  0  0  0  0
    5.1921   -0.4761    0.4895 C   0  0  0  0  0  0  0  0  0  0  0  0
    5.0561   -1.3222   -0.3889 O   0  0  0  0  0  0  0  0  0  0  0  0
    4.1011   -0.5977    2.7598 C   0  0  0  0  0  0  0  0  0  0  0  0
    2.7096   -1.3396    0.2594 H   0  0  0  0  0  0  0  0  0  0  0  0
    4.0129    1.0696    1.3943 H   0  0  0  0  0  0  0  0  0  0  0  0
    4.0745   -1.6918    2.7309 H   0  0  0  0  0  0  0  0  0  0  0  0
    5.0363   -0.2826    3.2317 H   0  0  0  0  0  0  0  0  0  0  0  0
    3.2687   -0.2492    3.3798 H   0  0  0  0  0  0  0  0  0  0  0  0
    6.4432    0.0735    0.7043 N   0  0  0  0  0  0  0  0  0  0  0  0
    7.6245   -0.2949   -0.0665 C   0  0  0  0  0  0  0  0  0  0  0  0
    6.5278    0.7766    1.4326 H   0  0  0  0  0  0  0  0  0  0  0  0
    8.5028    0.2392    0.3086 H   0  0  0  0  0  0  0  0  0  0  0  0
    7.8148   -1.3705    0.0132 H   0  0  0  0  0  0  0  0  0  0  0  0
    7.4879   -0.0383   -1.1223 H   0  0  0  0  0  0  0  0  0  0  0  0
  1  2  2  0  0  0  0
  1  3  1  0  0  0  0
  1  7  1  0  0  0  0
  3  4  1  0  0  0  0
  3  5  1  0  0  0  0
  3  6  1  0  0  0  0
  7  8  1  0  0  0  0
  7 12  1  0  0  0  0
  8  9  1  0  0  0  0
  8 11  1  0  0  0  0
  8 13  1  0  0  0  0
  9 10  2  0  0  0  0
  9 17  1  0  0  0  0
 11 14  1  0  0  0  0
 11 15  1  0  0  0  0
 11 16  1  0  0  0  0
 17 18  1  0  0  0  0
 17 25  1  0  0  0  0
 18 19  1  0  0  0  0
 18 21  1  0  0  0  0
 18 26  1  0  0  0  0
 19 20  2  0  0  0  0
 19 36  1  0  0  0  0
 21 22  1  0  0  0  0
 21 23  1  0  0  0  0
 21 27  1  0  0  0  0
 22 24  1  0  0  0  0
 22 28  1  0  0  0  0
 22 29  1  0  0  0  0
 23 30  1  0  0  0  0
 23 31  1  0  0  0  0
 23 32  1  0  0  0  0
 24 33  1  0  0  0  0
 24 34  1  0  0  0  0
 24 35  1  0  0  0  0
 36 37  1  0  0  0  0
 36 41  1  0  0  0  0
 37 38  1  0  0  0  0
 37 40  1  0  0  0  0
 37 42  1  0  0  0  0
 38 39  2  0  0  0  0
 38 46  1  0  0  0  0
 40 43  1  0  0  0  0
 40 44  1  0  0  0  0
 40 45  1  0  0  0  0
 46 47  1  0  0  0  0
 46 48  1  0  0  0  0
 47 49  1  0  0  0  0
 47 50  1  0  0  0  0
 47 51  1  0  0  0  0
M  END
$$$$

  -OEChem-05262216503D

 51 50  0     1  0  0  0  0  0999 V2000
   -0.3830   -5.9060    0.7699 C   0  0  0  0  0  0  0  0  0  0  0  0
   -1.2449   -5.7265   -0.0769 O   0  0  0  0  0  0  0  0  0  0  0  0
    0.5567   -7.0920    0.6584 C   0  0  0  0  0  0  0  0  0  0  0  0
    0.2973   -7.6987   -0.2137 H   0  0  0  0  0  0  0  0  0  0  0  0
    1.5862   -6.7421    0.5496 H   0  0  0  0  0  0  0  0  0  0  0  0
    0.4826   -7.7135    1.5540 H   0  0  0  0  0  0  0  0  0  0  0  0
   -0.2387   -5.0167    1.8149 N   0  0  0  0  0  0  0  0  0  0  0  0
   -0.8926   -3.7010    1.8340 C   0  0  2  0  0  0  0  0  0  0  0  0
    0.0376   -2.5953    1.2931 C   0  0  0  0  0  0  0  0  0  0  0  0
    1.2335   -2.6566    1.5442 O   0  0  0  0  0  0  0  0  0  0  0  0
   -1.2989   -3.3949    3.2769 C   0  0  0  0  0  0  0  0  0  0  0  0
    0.6312   -5.0945    2.3368 H   0  0  0  0  0  0  0  0  0  0  0  0
   -1.8008   -3.7173    1.2227 H   0  0  0  0  0  0  0  0  0  0  0  0
   -0.4171   -3.3569    3.9251 H   0  0  0  0  0  0  0  0  0  0  0  0
   -1.8107   -2.4289    3.3325 H   0  0  0  0  0  0  0  0  0  0  0  0
   -1.9762   -4.1687    3.6517 H   0  0  0  0  0  0  0  0  0  0  0  0
   -0.4933   -1.5996    0.4868 N   0  0  0  0  0  0  0  0  0  0  0  0
    0.0476   -0.2487    0.1991 C   0  0  2  0  0  0  0  0  0  0  0  0
    1.3919    0.0908    0.9048 C   0  0  0  0  0  0  0  0  0  0  0  0
    1.4176    0.6170    2.0133 O   0  0  0  0  0  0  0  0  0  0  0  0
   -1.0829    0.7925    0.4719 C   0  0  2  0  0  0  0  0  0  0  0  0
   -2.2762    0.5505   -0.4936 C   0  0  0  0  0  0  0  0  0  0  0  0
   -0.5867    2.2425    0.2550 C   0  0  0  0  0  0  0  0  0  0  0  0
   -3.5297    1.3495   -0.1199 C   0  0  0  0  0  0  0  0  0  0  0  0
   -1.4830   -1.7188    0.2963 H   0  0  0  0  0  0  0  0  0  0  0  0
    0.2737   -0.2104   -0.8708 H   0  0  0  0  0  0  0  0  0  0  0  0
   -1.4158    0.6842    1.5103 H   0  0  0  0  0  0  0  0  0  0  0  0
   -1.9808    0.7969   -1.5191 H   0  0  0  0  0  0  0  0  0  0  0  0
   -2.5602   -0.5048   -0.4843 H   0  0  0  0  0  0  0  0  0  0  0  0
   -0.2110    2.3702   -0.7650 H   0  0  0  0  0  0  0  0  0  0  0  0
   -1.3905    2.9631    0.4212 H   0  0  0  0  0  0  0  0  0  0  0  0
    0.2116    2.5081    0.9514 H   0  0  0  0  0  0  0  0  0  0  0  0
   -3.7874    1.1889    0.9315 H   0  0  0  0  0  0  0  0  0  0  0  0
   -4.3735    1.0241   -0.7360 H   0  0  0  0  0  0  0  0  0  0  0  0
   -3.3856    2.4198   -0.2887 H   0  0  0  0  0  0  0  0  0  0  0  0
    2.5895   -0.1984    0.2791 N   0  0  0  0  0  0  0  0  0  0  0  0
    3.9177    0.0351    0.8561 C   0  0  2  0  0  0  0  0  0  0  0  0
    5.0000    0.1566   -0.2369 C   0  0  0  0  0  0  0  0  0  0  0  0
    4.7658   -0.1925   -1.3895 O   0  0  0  0  0  0  0  0  0  0  0  0
    4.2480   -1.1197    1.8080 C   0  0  0  0  0  0  0  0  0  0  0  0
    2.5506   -0.7145   -0.5975 H   0  0  0  0  0  0  0  0  0  0  0  0
    3.9093    0.9752    1.4172 H   0  0  0  0  0  0  0  0  0  0  0  0
    4.2402   -2.0725    1.2689 H   0  0  0  0  0  0  0  0  0  0  0  0
    5.2349   -0.9795    2.2581 H   0  0  0  0  0  0  0  0  0  0  0  0
    3.5073   -1.1727    2.6124 H   0  0  0  0  0  0  0  0  0  0  0  0
    6.2443    0.6776    0.0681 N   0  0  0  0  0  0  0  0  0  0  0  0
    7.3072    0.8395   -0.9164 C   0  0  0  0  0  0  0  0  0  0  0  0
    6.4113    0.9655    1.0278 H   0  0  0  0  0  0  0  0  0  0  0  0
    7.6158   -0.1345   -1.3101 H   0  0  0  0  0  0  0  0  0  0  0  0
    6.9668    1.4641   -1.7491 H   0  0  0  0  0  0  0  0  0  0  0  0
    8.1771    1.3203   -0.4590 H   0  0  0  0  0  0  0  0  0  0  0  0
  1  2  2  0  0  0  0
  1  3  1  0  0  0  0
  1  7  1  0  0  0  0
  3  4  1  0  0  0  0
  3  5  1  0  0  0  0
  3  6  1  0  0  0  0
  7  8  1  0  0  0  0
  7 12  1  0  0  0  0
  8  9  1  0  0  0  0
  8 11  1  0  0  0  0
  8 13  1  0  0  0  0
  9 10  2  0  0  0  0
  9 17  1  0  0  0  0
 11 14  1  0  0  0  0
 11 15  1  0  0  0  0
 11 16  1  0  0  0  0
 17 18  1  0  0  0  0
 17 25  1  0  0  0  0
 18 19  1  0  0  0  0
 18 21  1  0  0  0  0
 18 26  1  0  0  0  0
 19 20  2  0  0  0  0
 19 36  1  0  0  0  0
 21 22  1  0  0  0  0
 21 23  1  0  0  0  0
 21 27  1  0  0  0  0
 22 24  1  0  0  0  0
 22 28  1  0  0  0  0
 22 29  1  0  0  0  0
 23 30  1  0  0  0  0
 23 31  1  0  0  0  0
 23 32  1  0  0  0  0
 24 33  1  0  0  0  0
 24 34  1  0  0  0  0
 24 35  1  0  0  0  0
 36 37  1  0  0  0  0
 36 41  1  0  0  0  0
 37 38  1  0  0  0  0
 37 40  1  0  0  0  0
 37 42  1  0  0  0  0
 38 39  2  0  0  0  0
 38 46  1  0  0  0  0
 40 43  1  0  0  0  0
 40 44  1  0  0  0  0
 40 45  1  0  0  0  0
 46 47  1  0  0  0  0
 46 48  1  0  0  0  0
 47 49  1  0  0  0  0
 47 50  1  0  0  0  0
 47 51  1  0  0  0  0
M  END
$$$$

  -OEChem-05262216503D

 51 50  0     1  0  0  0  0  0999 V2000
   -0.3794   -6.0316    0.9475 C   0  0  0  0  0  0  0  0  0  0  0  0
   -1.3706   -5.9806    0.2356 O   0  0  0  0  0  0  0  0  0  0  0  0
    0.5430   -7.2341    0.8774 C   0  0  0  0  0  0  0  0  0  0  0  0
    0.1491   -7.9714    0.1722 H   0  0  0  0  0  0  0  0  0  0  0  0
    1.5363   -6.9237    0.5438 H   0  0  0  0  0  0  0  0  0  0  0  0
    0.6250   -7.6981    1.8633 H   0  0  0  0  0  0  0  0  0  0  0  0
   -0.0823   -4.9947    1.8080 N   0  0  0  0  0  0  0  0  0  0  0  0
   -0.7436   -3.6835    1.7468 C   0  0  2  0  0  0  0  0  0  0  0  0
    0.1441   -2.6242    1.0619 C   0  0  0  0  0  0  0  0  0  0  0  0
    1.3629   -2.7250    1.1346 O   0  0  0  0  0  0  0  0  0  0  0  0
   -1.0666   -3.2495    3.1779 C   0  0  0  0  0  0  0  0  0  0  0  0
    0.8605   -5.0020    2.1912 H   0  0  0  0  0  0  0  0  0  0  0  0
   -1.6830   -3.7520    1.1888 H   0  0  0  0  0  0  0  0  0  0  0  0
   -0.1481   -3.1510    3.7658 H   0  0  0  0  0  0  0  0  0  0  0  0
   -1.5817   -2.2837    3.1771 H   0  0  0  0  0  0  0  0  0  0  0  0
   -1.7140   -3.9878    3.6610 H   0  0  0  0  0  0  0  0  0  0  0  0
   -0.4472   -1.6274    0.3009 N   0  0  0  0  0  0  0  0  0  0  0  0
    0.0604   -0.2518    0.0843 C   0  0  2  0  0  0  0  0  0  0  0  0
    1.3969    0.0749    0.8068 C   0  0  0  0  0  0  0  0  0  0  0  0
    1.4062    0.3592    2.0014 O   0  0  0  0  0  0  0  0  0  0  0  0
   -1.0776    0.7500    0.4476 C   0  0  2  0  0  0  0  0  0  0  0  0
   -2.2933    0.5525   -0.4973 C   0  0  0  0  0  0  0  0  0  0  0  0
   -0.5965    2.2148    0.3252 C   0  0  0  0  0  0  0  0  0  0  0  0
   -3.5435    1.3096   -0.0365 C   0  0  0  0  0  0  0  0  0  0  0  0
   -1.4558   -1.7213    0.2383 H   0  0  0  0  0  0  0  0  0  0  0  0
    0.2694   -0.1442   -0.9845 H   0  0  0  0  0  0  0  0  0  0  0  0
   -1.3840    0.5679    1.4840 H   0  0  0  0  0  0  0  0  0  0  0  0
   -2.0304    0.8689   -1.5124 H   0  0  0  0  0  0  0  0  0  0  0  0
   -2.5628   -0.5054   -0.5480 H   0  0  0  0  0  0  0  0  0  0  0  0
   -0.2532    2.4223   -0.6934 H   0  0  0  0  0  0  0  0  0  0  0  0
   -1.3988    2.9147    0.5701 H   0  0  0  0  0  0  0  0  0  0  0  0
    0.2233    2.4283    1.0162 H   0  0  0  0  0  0  0  0  0  0  0  0
   -3.7680    1.0768    1.0091 H   0  0  0  0  0  0  0  0  0  0  0  0
   -4.4018    1.0145   -0.6478 H   0  0  0  0  0  0  0  0  0  0  0  0
   -3.4155    2.3906   -0.1377 H   0  0  0  0  0  0  0  0  0  0  0  0
    2.5776    0.1454    0.0925 N   0  0  0  0  0  0  0  0  0  0  0  0
    3.8935    0.4276    0.6761 C   0  0  2  0  0  0  0  0  0  0  0  0
    4.8892    0.9392   -0.3858 C   0  0  0  0  0  0  0  0  0  0  0  0
    4.6417    0.8184   -1.5812 O   0  0  0  0  0  0  0  0  0  0  0  0
    4.4231   -0.8542    1.3294 C   0  0  0  0  0  0  0  0  0  0  0  0
    2.5558   -0.1219   -0.8898 H   0  0  0  0  0  0  0  0  0  0  0  0
    3.7925    1.2070    1.4382 H   0  0  0  0  0  0  0  0  0  0  0  0
    4.5241   -1.6488    0.5831 H   0  0  0  0  0  0  0  0  0  0  0  0
    5.4001   -0.6785    1.7890 H   0  0  0  0  0  0  0  0  0  0  0  0
    3.7347   -1.1981    2.1081 H   0  0  0  0  0  0  0  0  0  0  0  0
    6.0701    1.5469    0.0002 N   0  0  0  0  0  0  0  0  0  0  0  0
    7.0623    2.0446   -0.9452 C   0  0  0  0  0  0  0  0  0  0  0  0
    6.2498    1.6342    0.9961 H   0  0  0  0  0  0  0  0  0  0  0  0
    7.4582    1.2235   -1.5521 H   0  0  0  0  0  0  0  0  0  0  0  0
    6.6184    2.7922   -1.6111 H   0  0  0  0  0  0  0  0  0  0  0  0
    7.8942    2.5115   -0.4092 H   0  0  0  0  0  0  0  0  0  0  0  0
  1  2  2  0  0  0  0
  1  3  1  0  0  0  0
  1  7  1  0  0  0  0
  3  4  1  0  0  0  0
  3  5  1  0  0  0  0
  3  6  1  0  0  0  0
  7  8  1  0  0  0  0
  7 12  1  0  0  0  0
  8  9  1  0  0  0  0
  8 11  1  0  0  0  0
  8 13  1  0  0  0  0
  9 10  2  0  0  0  0
  9 17  1  0  0  0  0
 11 14  1  0  0  0  0
 11 15  1  0  0  0  0
 11 16  1  0  0  0  0
 17 18  1  0  0  0  0
 17 25  1  0  0  0  0
 18 19  1  0  0  0  0
 18 21  1  0  0  0  0
 18 26  1  0  0  0  0
 19 20  2  0  0  0  0
 19 36  1  0  0  0  0
 21 22  1  0  0  0  0
 21 23  1  0  0  0  0
 21 27  1  0  0  0  0
 22 24  1  0  0  0  0
 22 28  1  0  0  0  0
 22 29  1  0  0  0  0
 23 30  1  0  0  0  0
 23 31  1  0  0  0  0
 23 32  1  0  0  0  0
 24 33  1  0  0  0  0
 24 34  1  0  0  0  0
 24 35  1  0  0  0  0
 36 37  1  0  0  0  0
 36 41  1  0  0  0  0
 37 38  1  0  0  0  0
 37 40  1  0  0  0  0
 37 42  1  0  0  0  0
 38 39  2  0  0  0  0
 38 46  1  0  0  0  0
 40 43  1  0  0  0  0
 40 44  1  0  0  0  0
 40 45  1  0  0  0  0
 46 47  1  0  0  0  0
 46 48  1  0  0  0  0
 47 49  1  0  0  0  0
 47 50  1  0  0  0  0
 47 51  1  0  0  0  0
M  END
$$$$

  -OEChem-05262216503D

 51 50  0     1  0  0  0  0  0999 V2000
   -0.2931   -6.0848    1.0805 C   0  0  0  0  0  0  0  0  0  0  0  0
   -1.3626   -6.1374    0.4932 O   0  0  0  0  0  0  0  0  0  0  0  0
    0.6643   -7.2594    1.0161 C   0  0  0  0  0  0  0  0  0  0  0  0
    0.2227   -8.0743    0.4359 H   0  0  0  0  0  0  0  0  0  0  0  0
    1.5979   -6.9521    0.5383 H   0  0  0  0  0  0  0  0  0  0  0  0
    0.8803   -7.6209    2.0244 H   0  0  0  0  0  0  0  0  0  0  0  0
    0.0651   -4.9553    1.7864 N   0  0  0  0  0  0  0  0  0  0  0  0
   -0.6324   -3.6678    1.6584 C   0  0  2  0  0  0  0  0  0  0  0  0
    0.2083   -2.6384    0.8765 C   0  0  0  0  0  0  0  0  0  0  0  0
    1.4263   -2.7668    0.8190 O   0  0  0  0  0  0  0  0  0  0  0  0
   -0.9211   -3.1448    3.0665 C   0  0  0  0  0  0  0  0  0  0  0  0
    1.0453   -4.9036    2.0573 H   0  0  0  0  0  0  0  0  0  0  0  0
   -1.5847   -3.7937    1.1336 H   0  0  0  0  0  0  0  0  0  0  0  0
    0.0130   -2.9867    3.6157 H   0  0  0  0  0  0  0  0  0  0  0  0
   -1.4588   -2.1928    3.0193 H   0  0  0  0  0  0  0  0  0  0  0  0
   -1.5350   -3.8630    3.6186 H   0  0  0  0  0  0  0  0  0  0  0  0
   -0.4225   -1.6380    0.1538 N   0  0  0  0  0  0  0  0  0  0  0  0
    0.0685   -0.2481    0.0025 C   0  0  2  0  0  0  0  0  0  0  0  0
    1.3994    0.0645    0.7396 C   0  0  0  0  0  0  0  0  0  0  0  0
    1.4232    0.1217    1.9662 O   0  0  0  0  0  0  0  0  0  0  0  0
   -1.0764    0.7219    0.4229 C   0  0  2  0  0  0  0  0  0  0  0  0
   -2.2960    0.5589   -0.5232 C   0  0  0  0  0  0  0  0  0  0  0  0
   -0.6070    2.1942    0.3905 C   0  0  0  0  0  0  0  0  0  0  0  0
   -3.5517    1.2780   -0.0191 C   0  0  0  0  0  0  0  0  0  0  0  0
   -1.4336   -1.7207    0.1759 H   0  0  0  0  0  0  0  0  0  0  0  0
    0.2717   -0.0892   -1.0607 H   0  0  0  0  0  0  0  0  0  0  0  0
   -1.3767    0.4785    1.4485 H   0  0  0  0  0  0  0  0  0  0  0  0
   -2.0427    0.9305   -1.5218 H   0  0  0  0  0  0  0  0  0  0  0  0
   -2.5530   -0.4985   -0.6273 H   0  0  0  0  0  0  0  0  0  0  0  0
   -0.2626    2.4662   -0.6123 H   0  0  0  0  0  0  0  0  0  0  0  0
   -1.4153    2.8719    0.6753 H   0  0  0  0  0  0  0  0  0  0  0  0
    0.2096    2.3678    1.0970 H   0  0  0  0  0  0  0  0  0  0  0  0
   -3.7744    0.9849    1.0116 H   0  0  0  0  0  0  0  0  0  0  0  0
   -4.4083    1.0121   -0.6461 H   0  0  0  0  0  0  0  0  0  0  0  0
   -3.4312    2.3638   -0.0592 H   0  0  0  0  0  0  0  0  0  0  0  0
    2.5095    0.4856    0.0330 N   0  0  0  0  0  0  0  0  0  0  0  0
    3.8017    0.8346    0.6336 C   0  0  2  0  0  0  0  0  0  0  0  0
    4.6617    1.6831   -0.3260 C   0  0  0  0  0  0  0  0  0  0  0  0
    4.3368    1.8113   -1.5021 O   0  0  0  0  0  0  0  0  0  0  0  0
    4.5343   -0.4616    1.0013 C   0  0  0  0  0  0  0  0  0  0  0  0
    2.4621    0.4725   -0.9843 H   0  0  0  0  0  0  0  0  0  0  0  0
    3.6337    1.4268    1.5392 H   0  0  0  0  0  0  0  0  0  0  0  0
    4.6965   -1.0744    0.1088 H   0  0  0  0  0  0  0  0  0  0  0  0
    5.5047   -0.2422    1.4557 H   0  0  0  0  0  0  0  0  0  0  0  0
    3.9448   -1.0438    1.7170 H   0  0  0  0  0  0  0  0  0  0  0  0
    5.8037    2.3145    0.1315 N   0  0  0  0  0  0  0  0  0  0  0  0
    6.6691    3.1204   -0.7210 C   0  0  0  0  0  0  0  0  0  0  0  0
    6.0516    2.1883    1.1085 H   0  0  0  0  0  0  0  0  0  0  0  0
    7.0520    2.5214   -1.5540 H   0  0  0  0  0  0  0  0  0  0  0  0
    6.1185    3.9759   -1.1263 H   0  0  0  0  0  0  0  0  0  0  0  0
    7.5210    3.4980   -0.1473 H   0  0  0  0  0  0  0  0  0  0  0  0
  1  2  2  0  0  0  0
  1  3  1  0  0  0  0
  1  7  1  0  0  0  0
  3  4  1  0  0  0  0
  3  5  1  0  0  0  0
  3  6  1  0  0  0  0
  7  8  1  0  0  0  0
  7 12  1  0  0  0  0
  8  9  1  0  0  0  0
  8 11  1  0  0  0  0
  8 13  1  0  0  0  0
  9 10  2  0  0  0  0
  9 17  1  0  0  0  0
 11 14  1  0  0  0  0
 11 15  1  0  0  0  0
 11 16  1  0  0  0  0
 17 18  1  0  0  0  0
 17 25  1  0  0  0  0
 18 19  1  0  0  0  0
 18 21  1  0  0  0  0
 18 26  1  0  0  0  0
 19 20  2  0  0  0  0
 19 36  1  0  0  0  0
 21 22  1  0  0  0  0
 21 23  1  0  0  0  0
 21 27  1  0  0  0  0
 22 24  1  0  0  0  0
 22 28  1  0  0  0  0
 22 29  1  0  0  0  0
 23 30  1  0  0  0  0
 23 31  1  0  0  0  0
 23 32  1  0  0  0  0
 24 33  1  0  0  0  0
 24 34  1  0  0  0  0
 24 35  1  0  0  0  0
 36 37  1  0  0  0  0
 36 41  1  0  0  0  0
 37 38  1  0  0  0  0
 37 40  1  0  0  0  0
 37 42  1  0  0  0  0
 38 39  2  0  0  0  0
 38 46  1  0  0  0  0
 40 43  1  0  0  0  0
 40 44  1  0  0  0  0
 40 45  1  0  0  0  0
 46 47  1  0  0  0  0
 46 48  1  0  0  0  0
 47 49  1  0  0  0  0
 47 50  1  0  0  0  0
 47 51  1  0  0  0  0
M  END
$$$$

  -OEChem-05262216503D

 51 50  0     1  0  0  0  0  0999 V2000
   -0.4961   -6.0196    1.1463 C   0  0  0  0  0  0  0  0  0  0  0  0
   -1.6073   -5.9199    0.6490 O   0  0  0  0  0  0  0  0  0  0  0  0
    0.2811   -7.3155    1.0110 C   0  0  0  0  0  0  0  0  0  0  0  0
   -0.2967   -8.0438    0.4351 H   0  0  0  0  0  0  0  0  0  0  0  0
    1.2274   -7.1306    0.4964 H   0  0  0  0  0  0  0  0  0  0  0  0
    0.4866   -7.7319    2.0001 H   0  0  0  0  0  0  0  0  0  0  0  0
    0.0683   -4.9531    1.8149 N   0  0  0  0  0  0  0  0  0  0  0  0
   -0.4725   -3.5885    1.7513 C   0  0  2  0  0  0  0  0  0  0  0  0
    0.3179   -2.7043    0.7660 C   0  0  0  0  0  0  0  0  0  0  0  0
    1.5142   -2.9037    0.5828 O   0  0  0  0  0  0  0  0  0  0  0  0
   -0.4012   -2.9855    3.1557 C   0  0  0  0  0  0  0  0  0  0  0  0
    1.0659   -5.0301    2.0004 H   0  0  0  0  0  0  0  0  0  0  0  0
   -1.5206   -3.6026    1.4353 H   0  0  0  0  0  0  0  0  0  0  0  0
    0.6370   -2.9384    3.5010 H   0  0  0  0  0  0  0  0  0  0  0  0
   -0.8092   -1.9698    3.1553 H   0  0  0  0  0  0  0  0  0  0  0  0
   -0.9780   -3.5922    3.8602 H   0  0  0  0  0  0  0  0  0  0  0  0
   -0.3254   -1.7262    0.0260 N   0  0  0  0  0  0  0  0  0  0  0  0
    0.1704   -0.3364   -0.1101 C   0  0  2  0  0  0  0  0  0  0  0  0
    1.4870   -0.0201    0.6521 C   0  0  0  0  0  0  0  0  0  0  0  0
    1.5257   -0.1314    1.8749 O   0  0  0  0  0  0  0  0  0  0  0  0
   -0.9825    0.6272    0.3033 C   0  0  2  0  0  0  0  0  0  0  0  0
   -2.1888    0.4696   -0.6602 C   0  0  0  0  0  0  0  0  0  0  0  0
   -0.5191    2.1016    0.3051 C   0  0  0  0  0  0  0  0  0  0  0  0
   -3.4526    1.1813   -0.1662 C   0  0  0  0  0  0  0  0  0  0  0  0
   -1.3350   -1.7909    0.1065 H   0  0  0  0  0  0  0  0  0  0  0  0
    0.3904   -0.1732   -1.1694 H   0  0  0  0  0  0  0  0  0  0  0  0
   -1.2975    0.3676    1.3205 H   0  0  0  0  0  0  0  0  0  0  0  0
   -1.9219    0.8527   -1.6510 H   0  0  0  0  0  0  0  0  0  0  0  0
   -2.4418   -0.5872   -0.7794 H   0  0  0  0  0  0  0  0  0  0  0  0
   -0.1491    2.3907   -0.6839 H   0  0  0  0  0  0  0  0  0  0  0  0
   -1.3372    2.7722    0.5783 H   0  0  0  0  0  0  0  0  0  0  0  0
    0.2770    2.2657    1.0372 H   0  0  0  0  0  0  0  0  0  0  0  0
   -3.6899    0.8745    0.8574 H   0  0  0  0  0  0  0  0  0  0  0  0
   -4.2992    0.9221   -0.8094 H   0  0  0  0  0  0  0  0  0  0  0  0
   -3.3335    2.2677   -0.1908 H   0  0  0  0  0  0  0  0  0  0  0  0
    2.4992    0.6878    0.0315 N   0  0  0  0  0  0  0  0  0  0  0  0
    3.6986    1.1991    0.7038 C   0  0  2  0  0  0  0  0  0  0  0  0
    4.3067    2.3985   -0.0519 C   0  0  0  0  0  0  0  0  0  0  0  0
    3.9232    2.6762   -1.1837 O   0  0  0  0  0  0  0  0  0  0  0  0
    4.7129    0.0551    0.8095 C   0  0  0  0  0  0  0  0  0  0  0  0
    2.4000    0.8993   -0.9600 H   0  0  0  0  0  0  0  0  0  0  0  0
    3.4371    1.5458    1.7092 H   0  0  0  0  0  0  0  0  0  0  0  0
    4.9955   -0.2980   -0.1873 H   0  0  0  0  0  0  0  0  0  0  0  0
    5.6150    0.3857    1.3322 H   0  0  0  0  0  0  0  0  0  0  0  0
    4.2822   -0.7846    1.3648 H   0  0  0  0  0  0  0  0  0  0  0  0
    5.2786    3.1798    0.5456 N   0  0  0  0  0  0  0  0  0  0  0  0
    5.9084    4.3181   -0.1120 C   0  0  0  0  0  0  0  0  0  0  0  0
    5.5777    2.9238    1.4822 H   0  0  0  0  0  0  0  0  0  0  0  0
    6.4469    3.9915   -1.0079 H   0  0  0  0  0  0  0  0  0  0  0  0
    5.1561    5.0592   -0.4025 H   0  0  0  0  0  0  0  0  0  0  0  0
    6.6218    4.7986    0.5647 H   0  0  0  0  0  0  0  0  0  0  0  0
  1  2  2  0  0  0  0
  1  3  1  0  0  0  0
  1  7  1  0  0  0  0
  3  4  1  0  0  0  0
  3  5  1  0  0  0  0
  3  6  1  0  0  0  0
  7  8  1  0  0  0  0
  7 12  1  0  0  0  0
  8  9  1  0  0  0  0
  8 11  1  0  0  0  0
  8 13  1  0  0  0  0
  9 10  2  0  0  0  0
  9 17  1  0  0  0  0
 11 14  1  0  0  0  0
 11 15  1  0  0  0  0
 11 16  1  0  0  0  0
 17 18  1  0  0  0  0
 17 25  1  0  0  0  0
 18 19  1  0  0  0  0
 18 21  1  0  0  0  0
 18 26  1  0  0  0  0
 19 20  2  0  0  0  0
 19 36  1  0  0  0  0
 21 22  1  0  0  0  0
 21 23  1  0  0  0  0
 21 27  1  0  0  0  0
 22 24  1  0  0  0  0
 22 28  1  0  0  0  0
 22 29  1  0  0  0  0
 23 30  1  0  0  0  0
 23 31  1  0  0  0  0
 23 32  1  0  0  0  0
 24 33  1  0  0  0  0
 24 34  1  0  0  0  0
 24 35  1  0  0  0  0
 36 37  1  0  0  0  0
 36 41  1  0  0  0  0
 37 38  1  0  0  0  0
 37 40  1  0  0  0  0
 37 42  1  0  0  0  0
 38 39  2  0  0  0  0
 38 46  1  0  0  0  0
 40 43  1  0  0  0  0
 40 44  1  0  0  0  0
 40 45  1  0  0  0  0
 46 47  1  0  0  0  0
 46 48  1  0  0  0  0
 47 49  1  0  0  0  0
 47 50  1  0  0  0  0
 47 51  1  0  0  0  0
M  END
$$$$

  -OEChem-05262216503D

 51 50  0     1  0  0  0  0  0999 V2000
   -0.5947   -6.1160    1.3261 C   0  0  0  0  0  0  0  0  0  0  0  0
   -1.7724   -6.0740    1.0051 O   0  0  0  0  0  0  0  0  0  0  0  0
    0.1641   -7.4275    1.2534 C   0  0  0  0  0  0  0  0  0  0  0  0
    1.0580   -7.3085    0.6363 H   0  0  0  0  0  0  0  0  0  0  0  0
    0.4611   -7.7403    2.2571 H   0  0  0  0  0  0  0  0  0  0  0  0
   -0.4664   -8.2048    0.8132 H   0  0  0  0  0  0  0  0  0  0  0  0
    0.0572   -4.9777    1.7517 N   0  0  0  0  0  0  0  0  0  0  0  0
   -0.4933   -3.6217    1.6205 C   0  0  2  0  0  0  0  0  0  0  0  0
    0.3454   -2.7560    0.6592 C   0  0  0  0  0  0  0  0  0  0  0  0
    1.5118   -3.0496    0.4194 O   0  0  0  0  0  0  0  0  0  0  0  0
   -0.5102   -2.9843    3.0108 C   0  0  0  0  0  0  0  0  0  0  0  0
    1.0728   -5.0405    1.7999 H   0  0  0  0  0  0  0  0  0  0  0  0
   -1.5177   -3.6537    1.2367 H   0  0  0  0  0  0  0  0  0  0  0  0
    0.5066   -2.9144    3.4118 H   0  0  0  0  0  0  0  0  0  0  0  0
   -0.9323   -1.9757    2.9647 H   0  0  0  0  0  0  0  0  0  0  0  0
   -1.1169   -3.5845    3.6958 H   0  0  0  0  0  0  0  0  0  0  0  0
   -0.2410   -1.7188   -0.0450 N   0  0  0  0  0  0  0  0  0  0  0  0
    0.3479   -0.3647   -0.1745 C   0  0  2  0  0  0  0  0  0  0  0  0
    1.7062   -0.1276    0.5475 C   0  0  0  0  0  0  0  0  0  0  0  0
    1.8166   -0.3903    1.7420 O   0  0  0  0  0  0  0  0  0  0  0  0
   -0.7474    0.6475    0.2889 C   0  0  2  0  0  0  0  0  0  0  0  0
   -1.9825    0.5712   -0.6499 C   0  0  0  0  0  0  0  0  0  0  0  0
   -0.2262    2.1012    0.3337 C   0  0  0  0  0  0  0  0  0  0  0  0
   -3.2008    1.3314   -0.1156 C   0  0  0  0  0  0  0  0  0  0  0  0
   -1.2491   -1.7090    0.0687 H   0  0  0  0  0  0  0  0  0  0  0  0
    0.5464   -0.1982   -1.2375 H   0  0  0  0  0  0  0  0  0  0  0  0
   -1.0543    0.3724    1.3046 H   0  0  0  0  0  0  0  0  0  0  0  0
   -1.7170    0.9632   -1.6376 H   0  0  0  0  0  0  0  0  0  0  0  0
   -2.2919   -0.4680   -0.7877 H   0  0  0  0  0  0  0  0  0  0  0  0
    0.1619    2.4040   -0.6441 H   0  0  0  0  0  0  0  0  0  0  0  0
   -1.0166    2.7978    0.6220 H   0  0  0  0  0  0  0  0  0  0  0  0
    0.5685    2.2105    1.0771 H   0  0  0  0  0  0  0  0  0  0  0  0
   -3.4238    1.0268    0.9117 H   0  0  0  0  0  0  0  0  0  0  0  0
   -4.0744    1.1133   -0.7376 H   0  0  0  0  0  0  0  0  0  0  0  0
   -3.0369    2.4120   -0.1365 H   0  0  0  0  0  0  0  0  0  0  0  0
    2.6014    0.7834    0.0147 N   0  0  0  0  0  0  0  0  0  0  0  0
    3.6519    1.4758    0.7718 C   0  0  2  0  0  0  0  0  0  0  0  0
    3.8093    2.9343    0.2925 C   0  0  0  0  0  0  0  0  0  0  0  0
    3.2069    3.3238   -0.7033 O   0  0  0  0  0  0  0  0  0  0  0  0
    4.9558    0.6920    0.6003 C   0  0  0  0  0  0  0  0  0  0  0  0
    2.3508    1.2015   -0.8801 H   0  0  0  0  0  0  0  0  0  0  0  0
    3.3926    1.5132    1.8351 H   0  0  0  0  0  0  0  0  0  0  0  0
    5.2458    0.6565   -0.4547 H   0  0  0  0  0  0  0  0  0  0  0  0
    5.7647    1.1585    1.1702 H   0  0  0  0  0  0  0  0  0  0  0  0
    4.8278   -0.3342    0.9606 H   0  0  0  0  0  0  0  0  0  0  0  0
    4.6038    3.8230    0.9929 N   0  0  0  0  0  0  0  0  0  0  0  0
    4.7746    5.2195    0.6102 C   0  0  0  0  0  0  0  0  0  0  0  0
    5.0752    3.4783    1.8242 H   0  0  0  0  0  0  0  0  0  0  0  0
    5.2005    5.2928   -0.3960 H   0  0  0  0  0  0  0  0  0  0  0  0
    3.8121    5.7414    0.6246 H   0  0  0  0  0  0  0  0  0  0  0  0
    5.4506    5.7227    1.3081 H   0  0  0  0  0  0  0  0  0  0  0  0
  1  2  2  0  0  0  0
  1  3  1  0  0  0  0
  1  7  1  0  0  0  0
  3  4  1  0  0  0  0
  3  5  1  0  0  0  0
  3  6  1  0  0  0  0
  7  8  1  0  0  0  0
  7 12  1  0  0  0  0
  8  9  1  0  0  0  0
  8 11  1  0  0  0  0
  8 13  1  0  0  0  0
  9 10  2  0  0  0  0
  9 17  1  0  0  0  0
 11 14  1  0  0  0  0
 11 15  1  0  0  0  0
 11 16  1  0  0  0  0
 17 18  1  0  0  0  0
 17 25  1  0  0  0  0
 18 19  1  0  0  0  0
 18 21  1  0  0  0  0
 18 26  1  0  0  0  0
 19 20  2  0  0  0  0
 19 36  1  0  0  0  0
 21 22  1  0  0  0  0
 21 23  1  0  0  0  0
 21 27  1  0  0  0  0
 22 24  1  0  0  0  0
 22 28  1  0  0  0  0
 22 29  1  0  0  0  0
 23 30  1  0  0  0  0
 23 31  1  0  0  0  0
 23 32  1  0  0  0  0
 24 33  1  0  0  0  0
 24 34  1  0  0  0  0
 24 35  1  0  0  0  0
 36 37  1  0  0  0  0
 36 41  1  0  0  0  0
 37 38  1  0  0  0  0
 37 40  1  0  0  0  0
 37 42  1  0  0  0  0
 38 39  2  0  0  0  0
 38 46  1  0  0  0  0
 40 43  1  0  0  0  0
 40 44  1  0  0  0  0
 40 45  1  0  0  0  0
 46 47  1  0  0  0  0
 46 48  1  0  0  0  0
 47 49  1  0  0  0  0
 47 50  1  0  0  0  0
 47 51  1  0  0  0  0
M  END
$$$$

  -OEChem-05262216503D

 51 50  0     1  0  0  0  0  0999 V2000
   -0.8709   -5.6889    1.0273 C   0  0  0  0  0  0  0  0  0  0  0  0
   -1.8566   -5.2354    0.4649 O   0  0  0  0  0  0  0  0  0  0  0  0
   -0.4422   -7.1224    0.7764 C   0  0  0  0  0  0  0  0  0  0  0  0
    0.5499   -7.1398    0.3183 H   0  0  0  0  0  0  0  0  0  0  0  0
   -0.4101   -7.6728    1.7198 H   0  0  0  0  0  0  0  0  0  0  0  0
   -1.1498   -7.6162    0.1045 H   0  0  0  0  0  0  0  0  0  0  0  0
   -0.1258   -4.8913    1.8704 N   0  0  0  0  0  0  0  0  0  0  0  0
   -0.3099   -3.4367    1.9424 C   0  0  2  0  0  0  0  0  0  0  0  0
    0.5766   -2.7037    0.9170 C   0  0  0  0  0  0  0  0  0  0  0  0
    1.7491   -3.0296    0.7669 O   0  0  0  0  0  0  0  0  0  0  0  0
    0.0386   -2.9792    3.3602 C   0  0  0  0  0  0  0  0  0  0  0  0
    0.7983   -5.2437    2.1083 H   0  0  0  0  0  0  0  0  0  0  0  0
   -1.3553   -3.1741    1.7504 H   0  0  0  0  0  0  0  0  0  0  0  0
    1.0845   -3.2067    3.5912 H   0  0  0  0  0  0  0  0  0  0  0  0
   -0.1064   -1.8984    3.4559 H   0  0  0  0  0  0  0  0  0  0  0  0
   -0.6005   -3.4826    4.0918 H   0  0  0  0  0  0  0  0  0  0  0  0
    0.0378   -1.7758    0.0451 N   0  0  0  0  0  0  0  0  0  0  0  0
    0.5689   -0.4032   -0.1423 C   0  0  2  0  0  0  0  0  0  0  0  0
    1.8095    0.0007    0.7183 C   0  0  0  0  0  0  0  0  0  0  0  0
    1.8779   -0.3246    1.8999 O   0  0  0  0  0  0  0  0  0  0  0  0
   -0.6666    0.5383    0.0711 C   0  0  2  0  0  0  0  0  0  0  0  0
   -1.7480    0.2678   -1.0151 C   0  0  0  0  0  0  0  0  0  0  0  0
   -0.3044    2.0389    0.0657 C   0  0  0  0  0  0  0  0  0  0  0  0
   -3.0922    0.9476   -0.7297 C   0  0  0  0  0  0  0  0  0  0  0  0
   -0.9765   -1.8159    0.0451 H   0  0  0  0  0  0  0  0  0  0  0  0
    0.8989   -0.3185   -1.1818 H   0  0  0  0  0  0  0  0  0  0  0  0
   -1.0934    0.3102    1.0546 H   0  0  0  0  0  0  0  0  0  0  0  0
   -1.3766    0.6014   -1.9897 H   0  0  0  0  0  0  0  0  0  0  0  0
   -1.9490   -0.8032   -1.0991 H   0  0  0  0  0  0  0  0  0  0  0  0
    0.2291    2.3064   -0.8521 H   0  0  0  0  0  0  0  0  0  0  0  0
   -1.1947    2.6666    0.1400 H   0  0  0  0  0  0  0  0  0  0  0  0
    0.3187    2.2906    0.9282 H   0  0  0  0  0  0  0  0  0  0  0  0
   -3.4266    0.7255    0.2883 H   0  0  0  0  0  0  0  0  0  0  0  0
   -3.8485    0.5784   -1.4292 H   0  0  0  0  0  0  0  0  0  0  0  0
   -3.0261    2.0317   -0.8524 H   0  0  0  0  0  0  0  0  0  0  0  0
    2.5445    1.1220    0.3717 N   0  0  0  0  0  0  0  0  0  0  0  0
    3.4106    1.8877    1.2785 C   0  0  2  0  0  0  0  0  0  0  0  0
    3.4287    3.3831    0.8998 C   0  0  0  0  0  0  0  0  0  0  0  0
    2.8814    3.7656   -0.1299 O   0  0  0  0  0  0  0  0  0  0  0  0
    4.8175    1.2857    1.2191 C   0  0  0  0  0  0  0  0  0  0  0  0
    2.2964    1.5826   -0.5030 H   0  0  0  0  0  0  0  0  0  0  0  0
    3.0339    1.8223    2.3046 H   0  0  0  0  0  0  0  0  0  0  0  0
    5.2242    1.3617    0.2057 H   0  0  0  0  0  0  0  0  0  0  0  0
    5.4902    1.8074    1.9061 H   0  0  0  0  0  0  0  0  0  0  0  0
    4.7874    0.2288    1.5036 H   0  0  0  0  0  0  0  0  0  0  0  0
    4.0343    4.3096    1.7281 N   0  0  0  0  0  0  0  0  0  0  0  0
    4.0733    5.7375    1.4376 C   0  0  0  0  0  0  0  0  0  0  0  0
    4.4682    3.9675    2.5807 H   0  0  0  0  0  0  0  0  0  0  0  0
    3.0586    6.1461    1.3852 H   0  0  0  0  0  0  0  0  0  0  0  0
    4.6195    6.2691    2.2228 H   0  0  0  0  0  0  0  0  0  0  0  0
    4.5766    5.9201    0.4823 H   0  0  0  0  0  0  0  0  0  0  0  0
  1  2  2  0  0  0  0
  1  3  1  0  0  0  0
  1  7  1  0  0  0  0
  3  4  1  0  0  0  0
  3  5  1  0  0  0  0
  3  6  1  0  0  0  0
  7  8  1  0  0  0  0
  7 12  1  0  0  0  0
  8  9  1  0  0  0  0
  8 11  1  0  0  0  0
  8 13  1  0  0  0  0
  9 10  2  0  0  0  0
  9 17  1  0  0  0  0
 11 14  1  0  0  0  0
 11 15  1  0  0  0  0
 11 16  1  0  0  0  0
 17 18  1  0  0  0  0
 17 25  1  0  0  0  0
 18 19  1  0  0  0  0
 18 21  1  0  0  0  0
 18 26  1  0  0  0  0
 19 20  2  0  0  0  0
 19 36  1  0  0  0  0
 21 22  1  0  0  0  0
 21 23  1  0  0  0  0
 21 27  1  0  0  0  0
 22 24  1  0  0  0  0
 22 28  1  0  0  0  0
 22 29  1  0  0  0  0
 23 30  1  0  0  0  0
 23 31  1  0  0  0  0
 23 32  1  0  0  0  0
 24 33  1  0  0  0  0
 24 34  1  0  0  0  0
 24 35  1  0  0  0  0
 36 37  1  0  0  0  0
 36 41  1  0  0  0  0
 37 38  1  0  0  0  0
 37 40  1  0  0  0  0
 37 42  1  0  0  0  0
 38 39  2  0  0  0  0
 38 46  1  0  0  0  0
 40 43  1  0  0  0  0
 40 44  1  0  0  0  0
 40 45  1  0  0  0  0
 46 47  1  0  0  0  0
 46 48  1  0  0  0  0
 47 49  1  0  0  0  0
 47 50  1  0  0  0  0
 47 51  1  0  0  0  0
M  END
$$$$

  -OEChem-05262216503D

 51 50  0     1  0  0  0  0  0999 V2000
    1.3959   -5.2591    1.0756 C   0  0  0  0  0  0  0  0  0  0  0  0
    0.9352   -5.6680    0.0204 O   0  0  0  0  0  0  0  0  0  0  0  0
    2.7965   -5.6629    1.4974 C   0  0  0  0  0  0  0  0  0  0  0  0
    3.2225   -6.3623    0.7726 H   0  0  0  0  0  0  0  0  0  0  0  0
    3.4375   -4.7791    1.5529 H   0  0  0  0  0  0  0  0  0  0  0  0
    2.7676   -6.1457    2.4772 H   0  0  0  0  0  0  0  0  0  0  0  0
    0.6517   -4.4293    1.8880 N   0  0  0  0  0  0  0  0  0  0  0  0
   -0.5596   -3.7299    1.4423 C   0  0  2  0  0  0  0  0  0  0  0  0
   -0.3911   -2.2106    1.6287 C   0  0  0  0  0  0  0  0  0  0  0  0
    0.1078   -1.7776    2.6622 O   0  0  0  0  0  0  0  0  0  0  0  0
   -1.7479   -4.2522    2.2526 C   0  0  0  0  0  0  0  0  0  0  0  0
    1.1583   -3.9883    2.6550 H   0  0  0  0  0  0  0  0  0  0  0  0
   -0.7463   -3.9166    0.3799 H   0  0  0  0  0  0  0  0  0  0  0  0
   -1.5899   -4.0784    3.3220 H   0  0  0  0  0  0  0  0  0  0  0  0
   -2.6689   -3.7447    1.9503 H   0  0  0  0  0  0  0  0  0  0  0  0
   -1.8731   -5.3270    2.0882 H   0  0  0  0  0  0  0  0  0  0  0  0
   -0.9572   -1.3148    0.7380 N   0  0  0  0  0  0  0  0  0  0  0  0
   -0.3081   -0.0588    0.2765 C   0  0  2  0  0  0  0  0  0  0  0  0
    1.2340    0.0822    0.5339 C   0  0  0  0  0  0  0  0  0  0  0  0
    1.9521   -0.9072    0.6379 O   0  0  0  0  0  0  0  0  0  0  0  0
   -1.2013    1.0694    0.9138 C   0  0  2  0  0  0  0  0  0  0  0  0
   -2.6496    0.9919    0.3435 C   0  0  0  0  0  0  0  0  0  0  0  0
   -0.6653    2.5053    0.7330 C   0  0  0  0  0  0  0  0  0  0  0  0
   -3.6613    1.8697    1.0904 C   0  0  0  0  0  0  0  0  0  0  0  0
   -1.4941   -1.7852    0.0169 H   0  0  0  0  0  0  0  0  0  0  0  0
   -0.4092    0.0011   -0.8112 H   0  0  0  0  0  0  0  0  0  0  0  0
   -1.2472    0.8782    1.9928 H   0  0  0  0  0  0  0  0  0  0  0  0
   -2.6420    1.2718   -0.7152 H   0  0  0  0  0  0  0  0  0  0  0  0
   -3.0274   -0.0320    0.4060 H   0  0  0  0  0  0  0  0  0  0  0  0
   -0.4451    2.7087   -0.3196 H   0  0  0  0  0  0  0  0  0  0  0  0
   -1.3824    3.2509    1.0810 H   0  0  0  0  0  0  0  0  0  0  0  0
    0.2352    2.6581    1.3338 H   0  0  0  0  0  0  0  0  0  0  0  0
   -3.5810    1.7134    2.1706 H   0  0  0  0  0  0  0  0  0  0  0  0
   -4.6776    1.6096    0.7793 H   0  0  0  0  0  0  0  0  0  0  0  0
   -3.5089    2.9300    0.8723 H   0  0  0  0  0  0  0  0  0  0  0  0
    1.9129    1.2210    0.1365 N   0  0  0  0  0  0  0  0  0  0  0  0
    3.3630    1.4247    0.2476 C   0  0  2  0  0  0  0  0  0  0  0  0
    3.6909    2.8924    0.5929 C   0  0  0  0  0  0  0  0  0  0  0  0
    2.8203    3.7536    0.5133 O   0  0  0  0  0  0  0  0  0  0  0  0
    4.0078    1.0262   -1.0832 C   0  0  0  0  0  0  0  0  0  0  0  0
    1.3572    2.0684    0.0339 H   0  0  0  0  0  0  0  0  0  0  0  0
    3.7682    0.7999    1.0510 H   0  0  0  0  0  0  0  0  0  0  0  0
    3.6205    1.6480   -1.8966 H   0  0  0  0  0  0  0  0  0  0  0  0
    5.0940    1.1472   -1.0370 H   0  0  0  0  0  0  0  0  0  0  0  0
    3.7879   -0.0216   -1.3112 H   0  0  0  0  0  0  0  0  0  0  0  0
    4.9636    3.2507    0.9964 N   0  0  0  0  0  0  0  0  0  0  0  0
    5.3360    4.6138    1.3557 C   0  0  0  0  0  0  0  0  0  0  0  0
    5.6564    2.5121    1.0780 H   0  0  0  0  0  0  0  0  0  0  0  0
    5.1277    5.3001    0.5279 H   0  0  0  0  0  0  0  0  0  0  0  0
    4.7757    4.9446    2.2365 H   0  0  0  0  0  0  0  0  0  0  0  0
    6.4048    4.6652    1.5851 H   0  0  0  0  0  0  0  0  0  0  0  0
  1  2  2  0  0  0  0
  1  3  1  0  0  0  0
  1  7  1  0  0  0  0
  3  4  1  0  0  0  0
  3  5  1  0  0  0  0
  3  6  1  0  0  0  0
  7  8  1  0  0  0  0
  7 12  1  0  0  0  0
  8  9  1  0  0  0  0
  8 11  1  0  0  0  0
  8 13  1  0  0  0  0
  9 10  2  0  0  0  0
  9 17  1  0  0  0  0
 11 14  1  0  0  0  0
 11 15  1  0  0  0  0
 11 16  1  0  0  0  0
 17 18  1  0  0  0  0
 17 25  1  0  0  0  0
 18 19  1  0  0  0  0
 18 21  1  0  0  0  0
 18 26  1  0  0  0  0
 19 20  2  0  0  0  0
 19 36  1  0  0  0  0
 21 22  1  0  0  0  0
 21 23  1  0  0  0  0
 21 27  1  0  0  0  0
 22 24  1  0  0  0  0
 22 28  1  0  0  0  0
 22 29  1  0  0  0  0
 23 30  1  0  0  0  0
 23 31  1  0  0  0  0
 23 32  1  0  0  0  0
 24 33  1  0  0  0  0
 24 34  1  0  0  0  0
 24 35  1  0  0  0  0
 36 37  1  0  0  0  0
 36 41  1  0  0  0  0
 37 38  1  0  0  0  0
 37 40  1  0  0  0  0
 37 42  1  0  0  0  0
 38 39  2  0  0  0  0
 38 46  1  0  0  0  0
 40 43  1  0  0  0  0
 40 44  1  0  0  0  0
 40 45  1  0  0  0  0
 46 47  1  0  0  0  0
 46 48  1  0  0  0  0
 47 49  1  0  0  0  0
 47 50  1  0  0  0  0
 47 51  1  0  0  0  0
M  END
$$$$

  -OEChem-05262216503D

 51 50  0     1  0  0  0  0  0999 V2000
    1.3481   -5.4350    1.2008 C   0  0  0  0  0  0  0  0  0  0  0  0
    0.7835   -5.9631    0.2549 O   0  0  0  0  0  0  0  0  0  0  0  0
    2.7121   -5.9302    1.6436 C   0  0  0  0  0  0  0  0  0  0  0  0
    3.0509   -6.7385    0.9895 H   0  0  0  0  0  0  0  0  0  0  0  0
    3.4377   -5.1141    1.5981 H   0  0  0  0  0  0  0  0  0  0  0  0
    2.6580   -6.3044    2.6687 H   0  0  0  0  0  0  0  0  0  0  0  0
    0.7528   -4.3836    1.8647 N   0  0  0  0  0  0  0  0  0  0  0  0
   -0.4218   -3.6613    1.3638 C   0  0  2  0  0  0  0  0  0  0  0  0
   -0.2458   -2.1421    1.5493 C   0  0  0  0  0  0  0  0  0  0  0  0
    0.3557   -1.7123    2.5287 O   0  0  0  0  0  0  0  0  0  0  0  0
   -1.6577   -4.1645    2.1131 C   0  0  0  0  0  0  0  0  0  0  0  0
    1.3251   -3.8883    2.5480 H   0  0  0  0  0  0  0  0  0  0  0  0
   -0.5494   -3.8473    0.2922 H   0  0  0  0  0  0  0  0  0  0  0  0
   -1.5544   -3.9823    3.1877 H   0  0  0  0  0  0  0  0  0  0  0  0
   -2.5567   -3.6522    1.7575 H   0  0  0  0  0  0  0  0  0  0  0  0
   -1.7844   -5.2397    1.9519 H   0  0  0  0  0  0  0  0  0  0  0  0
   -0.8956   -1.2528    0.7093 N   0  0  0  0  0  0  0  0  0  0  0  0
   -0.3393    0.0474    0.2493 C   0  0  2  0  0  0  0  0  0  0  0  0
    1.2072    0.2215    0.4587 C   0  0  0  0  0  0  0  0  0  0  0  0
    1.9453   -0.7436    0.2819 O   0  0  0  0  0  0  0  0  0  0  0  0
   -1.2785    1.1138    0.9265 C   0  0  2  0  0  0  0  0  0  0  0  0
   -2.7346    0.9492    0.3916 C   0  0  0  0  0  0  0  0  0  0  0  0
   -0.8360    2.5784    0.7168 C   0  0  0  0  0  0  0  0  0  0  0  0
   -3.7874    1.7502    1.1694 C   0  0  0  0  0  0  0  0  0  0  0  0
   -1.4682   -1.7259    0.0179 H   0  0  0  0  0  0  0  0  0  0  0  0
   -0.4747    0.1206   -0.8339 H   0  0  0  0  0  0  0  0  0  0  0  0
   -1.2826    0.9221    2.0061 H   0  0  0  0  0  0  0  0  0  0  0  0
   -2.7708    1.2386   -0.6637 H   0  0  0  0  0  0  0  0  0  0  0  0
   -3.0444   -0.0972    0.4511 H   0  0  0  0  0  0  0  0  0  0  0  0
   -0.5248    2.7455   -0.3193 H   0  0  0  0  0  0  0  0  0  0  0  0
   -1.6331    3.2871    0.9455 H   0  0  0  0  0  0  0  0  0  0  0  0
   -0.0153    2.8287    1.3943 H   0  0  0  0  0  0  0  0  0  0  0  0
   -3.6726    1.5904    2.2461 H   0  0  0  0  0  0  0  0  0  0  0  0
   -4.7893    1.4205    0.8776 H   0  0  0  0  0  0  0  0  0  0  0  0
   -3.7185    2.8207    0.9603 H   0  0  0  0  0  0  0  0  0  0  0  0
    1.8502    1.4438    0.3812 N   0  0  0  0  0  0  0  0  0  0  0  0
    3.2935    1.6485    0.5618 C   0  0  2  0  0  0  0  0  0  0  0  0
    3.5748    2.9948    1.2601 C   0  0  0  0  0  0  0  0  0  0  0  0
    2.6965    3.8495    1.3251 O   0  0  0  0  0  0  0  0  0  0  0  0
    3.9743    1.6055   -0.8100 C   0  0  0  0  0  0  0  0  0  0  0  0
    1.2723    2.2729    0.4975 H   0  0  0  0  0  0  0  0  0  0  0  0
    3.7033    0.8554    1.1967 H   0  0  0  0  0  0  0  0  0  0  0  0
    3.5857    2.3999   -1.4552 H   0  0  0  0  0  0  0  0  0  0  0  0
    5.0556    1.7370   -0.7072 H   0  0  0  0  0  0  0  0  0  0  0  0
    3.7899    0.6414   -1.2946 H   0  0  0  0  0  0  0  0  0  0  0  0
    4.8121    3.2501    1.8211 N   0  0  0  0  0  0  0  0  0  0  0  0
    5.1337    4.4904    2.5162 C   0  0  0  0  0  0  0  0  0  0  0  0
    5.5098    2.5128    1.7781 H   0  0  0  0  0  0  0  0  0  0  0  0
    5.0193    5.3471    1.8436 H   0  0  0  0  0  0  0  0  0  0  0  0
    4.4730    4.6288    3.3786 H   0  0  0  0  0  0  0  0  0  0  0  0
    6.1679    4.4669    2.8728 H   0  0  0  0  0  0  0  0  0  0  0  0
  1  2  2  0  0  0  0
  1  3  1  0  0  0  0
  1  7  1  0  0  0  0
  3  4  1  0  0  0  0
  3  5  1  0  0  0  0
  3  6  1  0  0  0  0
  7  8  1  0  0  0  0
  7 12  1  0  0  0  0
  8  9  1  0  0  0  0
  8 11  1  0  0  0  0
  8 13  1  0  0  0  0
  9 10  2  0  0  0  0
  9 17  1  0  0  0  0
 11 14  1  0  0  0  0
 11 15  1  0  0  0  0
 11 16  1  0  0  0  0
 17 18  1  0  0  0  0
 17 25  1  0  0  0  0
 18 19  1  0  0  0  0
 18 21  1  0  0  0  0
 18 26  1  0  0  0  0
 19 20  2  0  0  0  0
 19 36  1  0  0  0  0
 21 22  1  0  0  0  0
 21 23  1  0  0  0  0
 21 27  1  0  0  0  0
 22 24  1  0  0  0  0
 22 28  1  0  0  0  0
 22 29  1  0  0  0  0
 23 30  1  0  0  0  0
 23 31  1  0  0  0  0
 23 32  1  0  0  0  0
 24 33  1  0  0  0  0
 24 34  1  0  0  0  0
 24 35  1  0  0  0  0
 36 37  1  0  0  0  0
 36 41  1  0  0  0  0
 37 38  1  0  0  0  0
 37 40  1  0  0  0  0
 37 42  1  0  0  0  0
 38 39  2  0  0  0  0
 38 46  1  0  0  0  0
 40 43  1  0  0  0  0
 40 44  1  0  0  0  0
 40 45  1  0  0  0  0
 46 47  1  0  0  0  0
 46 48  1  0  0  0  0
 47 49  1  0  0  0  0
 47 50  1  0  0  0  0
 47 51  1  0  0  0  0
M  END
$$$$

  -OEChem-05262216503D

 51 50  0     1  0  0  0  0  0999 V2000
    1.1645   -5.6810    0.8983 C   0  0  0  0  0  0  0  0  0  0  0  0
    0.3515   -6.2135    0.1591 O   0  0  0  0  0  0  0  0  0  0  0  0
    2.4809   -6.3694    1.2059 C   0  0  0  0  0  0  0  0  0  0  0  0
    2.5289   -7.3364    0.6973 H   0  0  0  0  0  0  0  0  0  0  0  0
    3.3131   -5.7496    0.8635 H   0  0  0  0  0  0  0  0  0  0  0  0
    2.5751   -6.5320    2.2822 H   0  0  0  0  0  0  0  0  0  0  0  0
    0.8932   -4.4468    1.4490 N   0  0  0  0  0  0  0  0  0  0  0  0
   -0.2401   -3.6001    1.0565 C   0  0  2  0  0  0  0  0  0  0  0  0
    0.1049   -2.1029    1.2014 C   0  0  0  0  0  0  0  0  0  0  0  0
    1.0594   -1.7595    1.8948 O   0  0  0  0  0  0  0  0  0  0  0  0
   -1.4494   -3.9687    1.9221 C   0  0  0  0  0  0  0  0  0  0  0  0
    1.6490   -3.9868    1.9557 H   0  0  0  0  0  0  0  0  0  0  0  0
   -0.4813   -3.7771    0.0025 H   0  0  0  0  0  0  0  0  0  0  0  0
   -1.2337   -3.7836    2.9791 H   0  0  0  0  0  0  0  0  0  0  0  0
   -2.3241   -3.3778    1.6349 H   0  0  0  0  0  0  0  0  0  0  0  0
   -1.6953   -5.0281    1.7975 H   0  0  0  0  0  0  0  0  0  0  0  0
   -0.7363   -1.1359    0.6714 N   0  0  0  0  0  0  0  0  0  0  0  0
   -0.3041    0.1830    0.1398 C   0  0  2  0  0  0  0  0  0  0  0  0
    1.2398    0.2191   -0.1160 C   0  0  0  0  0  0  0  0  0  0  0  0
    1.6627   -0.5601   -0.9594 O   0  0  0  0  0  0  0  0  0  0  0  0
   -0.9390    1.2806    1.0583 C   0  0  2  0  0  0  0  0  0  0  0  0
   -2.4912    1.1912    0.9598 C   0  0  0  0  0  0  0  0  0  0  0  0
   -0.5522    2.7101    0.6065 C   0  0  0  0  0  0  0  0  0  0  0  0
   -3.2336    2.0297    2.0094 C   0  0  0  0  0  0  0  0  0  0  0  0
   -1.5400   -1.5345    0.1961 H   0  0  0  0  0  0  0  0  0  0  0  0
   -0.7403    0.3099   -0.8564 H   0  0  0  0  0  0  0  0  0  0  0  0
   -0.6199    1.1196    2.0939 H   0  0  0  0  0  0  0  0  0  0  0  0
   -2.8191    1.4913   -0.0411 H   0  0  0  0  0  0  0  0  0  0  0  0
   -2.8144    0.1577    1.1086 H   0  0  0  0  0  0  0  0  0  0  0  0
   -0.6199    2.7985   -0.4825 H   0  0  0  0  0  0  0  0  0  0  0  0
    0.4567    2.9720    0.9153 H   0  0  0  0  0  0  0  0  0  0  0  0
   -1.1993    3.4692    1.0477 H   0  0  0  0  0  0  0  0  0  0  0  0
   -2.8317    1.8351    3.0085 H   0  0  0  0  0  0  0  0  0  0  0  0
   -4.2953    1.7641    2.0082 H   0  0  0  0  0  0  0  0  0  0  0  0
   -3.1603    3.1000    1.8016 H   0  0  0  0  0  0  0  0  0  0  0  0
    2.0814    1.2998   -0.0420 N   0  0  0  0  0  0  0  0  0  0  0  0
    2.6760    1.6202    1.2661 C   0  0  2  0  0  0  0  0  0  0  0  0
    3.2289    3.0606    1.3534 C   0  0  0  0  0  0  0  0  0  0  0  0
    3.4849    3.7019    0.3424 O   0  0  0  0  0  0  0  0  0  0  0  0
    3.8123    0.6263    1.5405 C   0  0  0  0  0  0  0  0  0  0  0  0
    2.7644    1.2628   -0.7956 H   0  0  0  0  0  0  0  0  0  0  0  0
    1.9175    1.5087    2.0474 H   0  0  0  0  0  0  0  0  0  0  0  0
    4.5911    0.7178    0.7764 H   0  0  0  0  0  0  0  0  0  0  0  0
    4.2612    0.8167    2.5199 H   0  0  0  0  0  0  0  0  0  0  0  0
    3.4389   -0.4023    1.5323 H   0  0  0  0  0  0  0  0  0  0  0  0
    3.4642    3.6365    2.5892 N   0  0  0  0  0  0  0  0  0  0  0  0
    4.0431    4.9648    2.7536 C   0  0  0  0  0  0  0  0  0  0  0  0
    3.2874    3.0715    3.4146 H   0  0  0  0  0  0  0  0  0  0  0  0
    5.0482    5.0009    2.3203 H   0  0  0  0  0  0  0  0  0  0  0  0
    3.4204    5.7190    2.2610 H   0  0  0  0  0  0  0  0  0  0  0  0
    4.1153    5.2173    3.8157 H   0  0  0  0  0  0  0  0  0  0  0  0
  1  2  2  0  0  0  0
  1  3  1  0  0  0  0
  1  7  1  0  0  0  0
  3  4  1  0  0  0  0
  3  5  1  0  0  0  0
  3  6  1  0  0  0  0
  7  8  1  0  0  0  0
  7 12  1  0  0  0  0
  8  9  1  0  0  0  0
  8 11  1  0  0  0  0
  8 13  1  0  0  0  0
  9 10  2  0  0  0  0
  9 17  1  0  0  0  0
 11 14  1  0  0  0  0
 11 15  1  0  0  0  0
 11 16  1  0  0  0  0
 17 18  1  0  0  0  0
 17 25  1  0  0  0  0
 18 19  1  0  0  0  0
 18 21  1  0  0  0  0
 18 26  1  0  0  0  0
 19 20  2  0  0  0  0
 19 36  1  0  0  0  0
 21 22  1  0  0  0  0
 21 23  1  0  0  0  0
 21 27  1  0  0  0  0
 22 24  1  0  0  0  0
 22 28  1  0  0  0  0
 22 29  1  0  0  0  0
 23 30  1  0  0  0  0
 23 31  1  0  0  0  0
 23 32  1  0  0  0  0
 24 33  1  0  0  0  0
 24 34  1  0  0  0  0
 24 35  1  0  0  0  0
 36 37  1  0  0  0  0
 36 41  1  0  0  0  0
 37 38  1  0  0  0  0
 37 40  1  0  0  0  0
 37 42  1  0  0  0  0
 38 39  2  0  0  0  0
 38 46  1  0  0  0  0
 40 43  1  0  0  0  0
 40 44  1  0  0  0  0
 40 45  1  0  0  0  0
 46 47  1  0  0  0  0
 46 48  1  0  0  0  0
 47 49  1  0  0  0  0
 47 50  1  0  0  0  0
 47 51  1  0  0  0  0
M  END
$$$$

  -OEChem-05262216503D

 51 50  0     1  0  0  0  0  0999 V2000
    1.3224   -5.5217    1.3627 C   0  0  0  0  0  0  0  0  0  0  0  0
    0.7039   -6.1183    0.4950 O   0  0  0  0  0  0  0  0  0  0  0  0
    2.6093   -6.1022    1.9186 C   0  0  0  0  0  0  0  0  0  0  0  0
    2.8148   -7.0728    1.4589 H   0  0  0  0  0  0  0  0  0  0  0  0
    3.4435   -5.4284    1.7079 H   0  0  0  0  0  0  0  0  0  0  0  0
    2.5219   -6.2358    2.9995 H   0  0  0  0  0  0  0  0  0  0  0  0
    0.8565   -4.3142    1.8362 N   0  0  0  0  0  0  0  0  0  0  0  0
   -0.2685   -3.5741    1.2526 C   0  0  2  0  0  0  0  0  0  0  0  0
   -0.0685   -2.0520    1.3980 C   0  0  0  0  0  0  0  0  0  0  0  0
    0.6237   -1.6207    2.3150 O   0  0  0  0  0  0  0  0  0  0  0  0
   -1.5577   -4.0169    1.9508 C   0  0  0  0  0  0  0  0  0  0  0  0
    1.4569   -3.7982    2.4787 H   0  0  0  0  0  0  0  0  0  0  0  0
   -0.3392   -3.7957    0.1822 H   0  0  0  0  0  0  0  0  0  0  0  0
   -1.5006   -3.8106    3.0245 H   0  0  0  0  0  0  0  0  0  0  0  0
   -2.4206   -3.4849    1.5393 H   0  0  0  0  0  0  0  0  0  0  0  0
   -1.7149   -5.0910    1.8100 H   0  0  0  0  0  0  0  0  0  0  0  0
   -0.7828   -1.1770    0.5921 N   0  0  0  0  0  0  0  0  0  0  0  0
   -0.3496    0.1854    0.1867 C   0  0  2  0  0  0  0  0  0  0  0  0
    1.1741    0.4272    0.4365 C   0  0  0  0  0  0  0  0  0  0  0  0
    1.9651   -0.3252   -0.1252 O   0  0  0  0  0  0  0  0  0  0  0  0
   -1.3550    1.1918    0.8476 C   0  0  2  0  0  0  0  0  0  0  0  0
   -2.7853    0.9395    0.2853 C   0  0  0  0  0  0  0  0  0  0  0  0
   -0.9847    2.6688    0.5541 C   0  0  0  0  0  0  0  0  0  0  0  0
   -3.8938    1.6779    1.0502 C   0  0  0  0  0  0  0  0  0  0  0  0
   -1.3764   -1.6520   -0.0803 H   0  0  0  0  0  0  0  0  0  0  0  0
   -0.4624    0.2737   -0.8981 H   0  0  0  0  0  0  0  0  0  0  0  0
   -1.3606    1.0314    1.9320 H   0  0  0  0  0  0  0  0  0  0  0  0
   -2.8225    1.2255   -0.7712 H   0  0  0  0  0  0  0  0  0  0  0  0
   -3.0270   -0.1251    0.3419 H   0  0  0  0  0  0  0  0  0  0  0  0
   -0.5089    2.7601   -0.4275 H   0  0  0  0  0  0  0  0  0  0  0  0
   -0.3085    3.0593    1.3180 H   0  0  0  0  0  0  0  0  0  0  0  0
   -1.8533    3.3278    0.5580 H   0  0  0  0  0  0  0  0  0  0  0  0
   -3.7995    1.4977    2.1257 H   0  0  0  0  0  0  0  0  0  0  0  0
   -4.8723    1.3113    0.7251 H   0  0  0  0  0  0  0  0  0  0  0  0
   -3.8693    2.7554    0.8716 H   0  0  0  0  0  0  0  0  0  0  0  0
    1.7037    1.5641    1.0138 N   0  0  0  0  0  0  0  0  0  0  0  0
    3.1196    1.7293    1.3581 C   0  0  2  0  0  0  0  0  0  0  0  0
    3.2706    2.5151    2.6766 C   0  0  0  0  0  0  0  0  0  0  0  0
    2.3391    3.1937    3.0986 O   0  0  0  0  0  0  0  0  0  0  0  0
    3.8185    2.4601    0.2088 C   0  0  0  0  0  0  0  0  0  0  0  0
    1.0556    2.1166    1.5722 H   0  0  0  0  0  0  0  0  0  0  0  0
    3.5852    0.7486    1.5037 H   0  0  0  0  0  0  0  0  0  0  0  0
    3.3761    3.4503    0.0602 H   0  0  0  0  0  0  0  0  0  0  0  0
    4.8845    2.5817    0.4228 H   0  0  0  0  0  0  0  0  0  0  0  0
    3.7158    1.8895   -0.7198 H   0  0  0  0  0  0  0  0  0  0  0  0
    4.4468    2.4520    3.4003 N   0  0  0  0  0  0  0  0  0  0  0  0
    4.6262    3.1096    4.6889 C   0  0  0  0  0  0  0  0  0  0  0  0
    5.1755    1.8326    3.0579 H   0  0  0  0  0  0  0  0  0  0  0  0
    4.4962    4.1925    4.5884 H   0  0  0  0  0  0  0  0  0  0  0  0
    3.8981    2.7325    5.4151 H   0  0  0  0  0  0  0  0  0  0  0  0
    5.6319    2.9173    5.0750 H   0  0  0  0  0  0  0  0  0  0  0  0
  1  2  2  0  0  0  0
  1  3  1  0  0  0  0
  1  7  1  0  0  0  0
  3  4  1  0  0  0  0
  3  5  1  0  0  0  0
  3  6  1  0  0  0  0
  7  8  1  0  0  0  0
  7 12  1  0  0  0  0
  8  9  1  0  0  0  0
  8 11  1  0  0  0  0
  8 13  1  0  0  0  0
  9 10  2  0  0  0  0
  9 17  1  0  0  0  0
 11 14  1  0  0  0  0
 11 15  1  0  0  0  0
 11 16  1  0  0  0  0
 17 18  1  0  0  0  0
 17 25  1  0  0  0  0
 18 19  1  0  0  0  0
 18 21  1  0  0  0  0
 18 26  1  0  0  0  0
 19 20  2  0  0  0  0
 19 36  1  0  0  0  0
 21 22  1  0  0  0  0
 21 23  1  0  0  0  0
 21 27  1  0  0  0  0
 22 24  1  0  0  0  0
 22 28  1  0  0  0  0
 22 29  1  0  0  0  0
 23 30  1  0  0  0  0
 23 31  1  0  0  0  0
 23 32  1  0  0  0  0
 24 33  1  0  0  0  0
 24 34  1  0  0  0  0
 24 35  1  0  0  0  0
 36 37  1  0  0  0  0
 36 41  1  0  0  0  0
 37 38  1  0  0  0  0
 37 40  1  0  0  0  0
 37 42  1  0  0  0  0
 38 39  2  0  0  0  0
 38 46  1  0  0  0  0
 40 43  1  0  0  0  0
 40 44  1  0  0  0  0
 40 45  1  0  0  0  0
 46 47  1  0  0  0  0
 46 48  1  0  0  0  0
 47 49  1  0  0  0  0
 47 50  1  0  0  0  0
 47 51  1  0  0  0  0
M  END
$$$$

  -OEChem-05262216503D

 51 50  0     1  0  0  0  0  0999 V2000
    1.2365   -5.5869    1.2960 C   0  0  0  0  0  0  0  0  0  0  0  0
    0.5740   -6.1405    0.4322 O   0  0  0  0  0  0  0  0  0  0  0  0
    2.5166   -6.2256    1.8006 C   0  0  0  0  0  0  0  0  0  0  0  0
    2.7319   -7.1349    1.2325 H   0  0  0  0  0  0  0  0  0  0  0  0
    3.3526   -5.5315    1.6839 H   0  0  0  0  0  0  0  0  0  0  0  0
    2.4124   -6.4848    2.8569 H   0  0  0  0  0  0  0  0  0  0  0  0
    0.8259   -4.3761    1.8110 N   0  0  0  0  0  0  0  0  0  0  0  0
   -0.2903   -3.5852    1.2784 C   0  0  2  0  0  0  0  0  0  0  0  0
   -0.0140   -2.0722    1.3972 C   0  0  0  0  0  0  0  0  0  0  0  0
    0.7330   -1.6690    2.2825 O   0  0  0  0  0  0  0  0  0  0  0  0
   -1.5600   -3.9626    2.0471 C   0  0  0  0  0  0  0  0  0  0  0  0
    1.4607   -3.8977    2.4494 H   0  0  0  0  0  0  0  0  0  0  0  0
   -0.4297   -3.8111    0.2158 H   0  0  0  0  0  0  0  0  0  0  0  0
   -1.4426   -3.7377    3.1121 H   0  0  0  0  0  0  0  0  0  0  0  0
   -2.4209   -3.4051    1.6662 H   0  0  0  0  0  0  0  0  0  0  0  0
   -1.7650   -5.0322    1.9374 H   0  0  0  0  0  0  0  0  0  0  0  0
   -0.7134   -1.1827    0.5935 N   0  0  0  0  0  0  0  0  0  0  0  0
   -0.3076    0.1996    0.2323 C   0  0  2  0  0  0  0  0  0  0  0  0
    1.1966    0.4785    0.5326 C   0  0  0  0  0  0  0  0  0  0  0  0
    2.0287   -0.1093   -0.1510 O   0  0  0  0  0  0  0  0  0  0  0  0
   -1.3550    1.1784    0.8619 C   0  0  2  0  0  0  0  0  0  0  0  0
   -2.7525    0.9002    0.2344 C   0  0  0  0  0  0  0  0  0  0  0  0
   -1.0100    2.6641    0.5868 C   0  0  0  0  0  0  0  0  0  0  0  0
   -3.9109    1.6044    0.9529 C   0  0  0  0  0  0  0  0  0  0  0  0
   -1.3318   -1.6384   -0.0701 H   0  0  0  0  0  0  0  0  0  0  0  0
   -0.3851    0.3006   -0.8548 H   0  0  0  0  0  0  0  0  0  0  0  0
   -1.3980    1.0114    1.9442 H   0  0  0  0  0  0  0  0  0  0  0  0
   -2.7496    1.1938   -0.8208 H   0  0  0  0  0  0  0  0  0  0  0  0
   -2.9712   -0.1703    0.2724 H   0  0  0  0  0  0  0  0  0  0  0  0
   -0.7069    2.8000   -0.4562 H   0  0  0  0  0  0  0  0  0  0  0  0
   -1.8593    3.3211    0.7807 H   0  0  0  0  0  0  0  0  0  0  0  0
   -0.2094    3.0220    1.2349 H   0  0  0  0  0  0  0  0  0  0  0  0
   -3.8606    1.4198    2.0304 H   0  0  0  0  0  0  0  0  0  0  0  0
   -4.8646    1.2170    0.5814 H   0  0  0  0  0  0  0  0  0  0  0  0
   -3.9016    2.6831    0.7784 H   0  0  0  0  0  0  0  0  0  0  0  0
    1.6506    1.4540    1.3983 N   0  0  0  0  0  0  0  0  0  0  0  0
    3.0518    1.6103    1.8013 C   0  0  2  0  0  0  0  0  0  0  0  0
    3.1546    2.1291    3.2500 C   0  0  0  0  0  0  0  0  0  0  0  0
    2.1963    2.6885    3.7738 O   0  0  0  0  0  0  0  0  0  0  0  0
    3.7352    2.5806    0.8337 C   0  0  0  0  0  0  0  0  0  0  0  0
    0.9606    1.8262    2.0500 H   0  0  0  0  0  0  0  0  0  0  0  0
    3.5563    0.6390    1.7625 H   0  0  0  0  0  0  0  0  0  0  0  0
    3.2440    3.5584    0.8632 H   0  0  0  0  0  0  0  0  0  0  0  0
    4.7883    2.7103    1.1000 H   0  0  0  0  0  0  0  0  0  0  0  0
    3.6829    2.1952   -0.1895 H   0  0  0  0  0  0  0  0  0  0  0  0
    4.3244    1.9711    3.9703 N   0  0  0  0  0  0  0  0  0  0  0  0
    4.4721    2.3974    5.3565 C   0  0  0  0  0  0  0  0  0  0  0  0
    5.0815    1.4575    3.5289 H   0  0  0  0  0  0  0  0  0  0  0  0
    4.2949    3.4745    5.4477 H   0  0  0  0  0  0  0  0  0  0  0  0
    3.7602    1.8668    5.9978 H   0  0  0  0  0  0  0  0  0  0  0  0
    5.4844    2.1839    5.7130 H   0  0  0  0  0  0  0  0  0  0  0  0
  1  2  2  0  0  0  0
  1  3  1  0  0  0  0
  1  7  1  0  0  0  0
  3  4  1  0  0  0  0
  3  5  1  0  0  0  0
  3  6  1  0  0  0  0
  7  8  1  0  0  0  0
  7 12  1  0  0  0  0
  8  9  1  0  0  0  0
  8 11  1  0  0  0  0
  8 13  1  0  0  0  0
  9 10  2  0  0  0  0
  9 17  1  0  0  0  0
 11 14  1  0  0  0  0
 11 15  1  0  0  0  0
 11 16  1  0  0  0  0
 17 18  1  0  0  0  0
 17 25  1  0  0  0  0
 18 19  1  0  0  0  0
 18 21  1  0  0  0  0
 18 26  1  0  0  0  0
 19 20  2  0  0  0  0
 19 36  1  0  0  0  0
 21 22  1  0  0  0  0
 21 23  1  0  0  0  0
 21 27  1  0  0  0  0
 22 24  1  0  0  0  0
 22 28  1  0  0  0  0
 22 29  1  0  0  0  0
 23 30  1  0  0  0  0
 23 31  1  0  0  0  0
 23 32  1  0  0  0  0
 24 33  1  0  0  0  0
 24 34  1  0  0  0  0
 24 35  1  0  0  0  0
 36 37  1  0  0  0  0
 36 41  1  0  0  0  0
 37 38  1  0  0  0  0
 37 40  1  0  0  0  0
 37 42  1  0  0  0  0
 38 39  2  0  0  0  0
 38 46  1  0  0  0  0
 40 43  1  0  0  0  0
 40 44  1  0  0  0  0
 40 45  1  0  0  0  0
 46 47  1  0  0  0  0
 46 48  1  0  0  0  0
 47 49  1  0  0  0  0
 47 50  1  0  0  0  0
 47 51  1  0  0  0  0
M  END
$$$$

  -OEChem-05262216503D

 51 50  0     1  0  0  0  0  0999 V2000
    1.1696   -5.6448    1.3316 C   0  0  0  0  0  0  0  0  0  0  0  0
    0.5108   -6.1840    0.4561 O   0  0  0  0  0  0  0  0  0  0  0  0
    2.3894   -6.3413    1.9047 C   0  0  0  0  0  0  0  0  0  0  0  0
    2.5065   -7.3294    1.4511 H   0  0  0  0  0  0  0  0  0  0  0  0
    3.2864   -5.7516    1.7004 H   0  0  0  0  0  0  0  0  0  0  0  0
    2.2782   -6.4607    2.9850 H   0  0  0  0  0  0  0  0  0  0  0  0
    0.8088   -4.3985    1.7970 N   0  0  0  0  0  0  0  0  0  0  0  0
   -0.2517   -3.5707    1.2097 C   0  0  2  0  0  0  0  0  0  0  0  0
    0.0730   -2.0666    1.3231 C   0  0  0  0  0  0  0  0  0  0  0  0
    0.8636   -1.6906    2.1811 O   0  0  0  0  0  0  0  0  0  0  0  0
   -1.5669   -3.8928    1.9253 C   0  0  0  0  0  0  0  0  0  0  0  0
    1.4428   -3.9363    2.4481 H   0  0  0  0  0  0  0  0  0  0  0  0
   -0.3523   -3.8039    0.1442 H   0  0  0  0  0  0  0  0  0  0  0  0
   -1.4862   -3.6632    2.9927 H   0  0  0  0  0  0  0  0  0  0  0  0
   -2.3892   -3.3073    1.5035 H   0  0  0  0  0  0  0  0  0  0  0  0
   -1.8080   -4.9548    1.8139 H   0  0  0  0  0  0  0  0  0  0  0  0
   -0.6175   -1.1625    0.5277 N   0  0  0  0  0  0  0  0  0  0  0  0
   -0.2487    0.2399    0.2099 C   0  0  2  0  0  0  0  0  0  0  0  0
    1.2338    0.5637    0.5539 C   0  0  0  0  0  0  0  0  0  0  0  0
    2.1027    0.1930   -0.2279 O   0  0  0  0  0  0  0  0  0  0  0  0
   -1.3115    1.1822    0.8600 C   0  0  2  0  0  0  0  0  0  0  0  0
   -2.7067    0.9035    0.2330 C   0  0  0  0  0  0  0  0  0  0  0  0
   -0.9929    2.6765    0.6006 C   0  0  0  0  0  0  0  0  0  0  0  0
   -3.8608    1.5806    0.9825 C   0  0  0  0  0  0  0  0  0  0  0  0
   -1.2628   -1.6002   -0.1225 H   0  0  0  0  0  0  0  0  0  0  0  0
   -0.3140    0.3688   -0.8753 H   0  0  0  0  0  0  0  0  0  0  0  0
   -1.3434    0.9954    1.9393 H   0  0  0  0  0  0  0  0  0  0  0  0
   -2.7171    1.2217   -0.8151 H   0  0  0  0  0  0  0  0  0  0  0  0
   -2.9117   -0.1705    0.2477 H   0  0  0  0  0  0  0  0  0  0  0  0
   -0.9026    2.8658   -0.4737 H   0  0  0  0  0  0  0  0  0  0  0  0
   -1.7783    3.3220    0.9993 H   0  0  0  0  0  0  0  0  0  0  0  0
   -0.0687    2.9964    1.0813 H   0  0  0  0  0  0  0  0  0  0  0  0
   -3.8040    1.3596    2.0529 H   0  0  0  0  0  0  0  0  0  0  0  0
   -4.8172    1.2077    0.6037 H   0  0  0  0  0  0  0  0  0  0  0  0
   -3.8480    2.6648    0.8445 H   0  0  0  0  0  0  0  0  0  0  0  0
    1.6084    1.3115    1.6543 N   0  0  0  0  0  0  0  0  0  0  0  0
    2.9876    1.4124    2.1396 C   0  0  2  0  0  0  0  0  0  0  0  0
    3.0222    1.5366    3.6761 C   0  0  0  0  0  0  0  0  0  0  0  0
    2.0252    1.9037    4.2903 O   0  0  0  0  0  0  0  0  0  0  0  0
    3.6508    2.6280    1.4869 C   0  0  0  0  0  0  0  0  0  0  0  0
    0.8855    1.4451    2.3611 H   0  0  0  0  0  0  0  0  0  0  0  0
    3.5395    0.5055    1.8701 H   0  0  0  0  0  0  0  0  0  0  0  0
    3.1107    3.5433    1.7489 H   0  0  0  0  0  0  0  0  0  0  0  0
    4.6876    2.7259    1.8220 H   0  0  0  0  0  0  0  0  0  0  0  0
    3.6488    2.5208    0.3976 H   0  0  0  0  0  0  0  0  0  0  0  0
    4.1793    1.2462    4.3749 N   0  0  0  0  0  0  0  0  0  0  0  0
    4.2664    1.2996    5.8287 C   0  0  0  0  0  0  0  0  0  0  0  0
    4.9730    0.8994    3.8445 H   0  0  0  0  0  0  0  0  0  0  0  0
    4.0297    2.3061    6.1896 H   0  0  0  0  0  0  0  0  0  0  0  0
    3.5656    0.5891    6.2797 H   0  0  0  0  0  0  0  0  0  0  0  0
    5.2783    1.0441    6.1573 H   0  0  0  0  0  0  0  0  0  0  0  0
  1  2  2  0  0  0  0
  1  3  1  0  0  0  0
  1  7  1  0  0  0  0
  3  4  1  0  0  0  0
  3  5  1  0  0  0  0
  3  6  1  0  0  0  0
  7  8  1  0  0  0  0
  7 12  1  0  0  0  0
  8  9  1  0  0  0  0
  8 11  1  0  0  0  0
  8 13  1  0  0  0  0
  9 10  2  0  0  0  0
  9 17  1  0  0  0  0
 11 14  1  0  0  0  0
 11 15  1  0  0  0  0
 11 16  1  0  0  0  0
 17 18  1  0  0  0  0
 17 25  1  0  0  0  0
 18 19  1  0  0  0  0
 18 21  1  0  0  0  0
 18 26  1  0  0  0  0
 19 20  2  0  0  0  0
 19 36  1  0  0  0  0
 21 22  1  0  0  0  0
 21 23  1  0  0  0  0
 21 27  1  0  0  0  0
 22 24  1  0  0  0  0
 22 28  1  0  0  0  0
 22 29  1  0  0  0  0
 23 30  1  0  0  0  0
 23 31  1  0  0  0  0
 23 32  1  0  0  0  0
 24 33  1  0  0  0  0
 24 34  1  0  0  0  0
 24 35  1  0  0  0  0
 36 37  1  0  0  0  0
 36 41  1  0  0  0  0
 37 38  1  0  0  0  0
 37 40  1  0  0  0  0
 37 42  1  0  0  0  0
 38 39  2  0  0  0  0
 38 46  1  0  0  0  0
 40 43  1  0  0  0  0
 40 44  1  0  0  0  0
 40 45  1  0  0  0  0
 46 47  1  0  0  0  0
 46 48  1  0  0  0  0
 47 49  1  0  0  0  0
 47 50  1  0  0  0  0
 47 51  1  0  0  0  0
M  END
$$$$

  -OEChem-05262216503D

 51 50  0     1  0  0  0  0  0999 V2000
    1.0170   -5.7412    1.2007 C   0  0  0  0  0  0  0  0  0  0  0  0
    0.3203   -6.2107    0.3147 O   0  0  0  0  0  0  0  0  0  0  0  0
    2.2391   -6.4958    1.6889 C   0  0  0  0  0  0  0  0  0  0  0  0
    2.4052   -7.3840    1.0730 H   0  0  0  0  0  0  0  0  0  0  0  0
    3.1223   -5.8557    1.6268 H   0  0  0  0  0  0  0  0  0  0  0  0
    2.0955   -6.8074    2.7262 H   0  0  0  0  0  0  0  0  0  0  0  0
    0.7021   -4.5168    1.7511 N   0  0  0  0  0  0  0  0  0  0  0  0
   -0.3349   -3.6172    1.2302 C   0  0  2  0  0  0  0  0  0  0  0  0
    0.1003   -2.1389    1.3174 C   0  0  0  0  0  0  0  0  0  0  0  0
    0.9472   -1.8179    2.1412 O   0  0  0  0  0  0  0  0  0  0  0  0
   -1.6183   -3.8494    2.0327 C   0  0  0  0  0  0  0  0  0  0  0  0
    1.3752   -4.1090    2.3990 H   0  0  0  0  0  0  0  0  0  0  0  0
   -0.5244   -3.8401    0.1746 H   0  0  0  0  0  0  0  0  0  0  0  0
   -1.4526   -3.6269    3.0919 H   0  0  0  0  0  0  0  0  0  0  0  0
   -2.4247   -3.2085    1.6638 H   0  0  0  0  0  0  0  0  0  0  0  0
   -1.9375   -4.8926    1.9414 H   0  0  0  0  0  0  0  0  0  0  0  0
   -0.5249   -1.2027    0.5063 N   0  0  0  0  0  0  0  0  0  0  0  0
   -0.1452    0.2084    0.2445 C   0  0  2  0  0  0  0  0  0  0  0  0
    1.3008    0.5802    0.6760 C   0  0  0  0  0  0  0  0  0  0  0  0
    2.2030    0.4966   -0.1493 O   0  0  0  0  0  0  0  0  0  0  0  0
   -1.2412    1.1340    0.8580 C   0  0  2  0  0  0  0  0  0  0  0  0
   -2.6019    0.8783    0.1552 C   0  0  0  0  0  0  0  0  0  0  0  0
   -0.8893    2.6311    0.6788 C   0  0  0  0  0  0  0  0  0  0  0  0
   -3.7860    1.5436    0.8659 C   0  0  0  0  0  0  0  0  0  0  0  0
   -1.2103   -1.5986   -0.1299 H   0  0  0  0  0  0  0  0  0  0  0  0
   -0.1559    0.3566   -0.8405 H   0  0  0  0  0  0  0  0  0  0  0  0
   -1.3331    0.9117    1.9270 H   0  0  0  0  0  0  0  0  0  0  0  0
   -2.5574    1.2253   -0.8825 H   0  0  0  0  0  0  0  0  0  0  0  0
   -2.8113   -0.1947    0.1312 H   0  0  0  0  0  0  0  0  0  0  0  0
   -0.7643    2.8692   -0.3821 H   0  0  0  0  0  0  0  0  0  0  0  0
   -1.6748    3.2716    1.0863 H   0  0  0  0  0  0  0  0  0  0  0  0
    0.0306    2.9029    1.2002 H   0  0  0  0  0  0  0  0  0  0  0  0
   -3.7927    1.2814    1.9285 H   0  0  0  0  0  0  0  0  0  0  0  0
   -4.7253    1.2021    0.4204 H   0  0  0  0  0  0  0  0  0  0  0  0
   -3.7475    2.6320    0.7714 H   0  0  0  0  0  0  0  0  0  0  0  0
    1.5884    1.0568    1.9423 N   0  0  0  0  0  0  0  0  0  0  0  0
    2.9479    1.1929    2.4723 C   0  0  2  0  0  0  0  0  0  0  0  0
    2.9722    0.9662    3.9978 C   0  0  0  0  0  0  0  0  0  0  0  0
    1.9627    1.1542    4.6694 O   0  0  0  0  0  0  0  0  0  0  0  0
    3.4744    2.5897    2.1312 C   0  0  0  0  0  0  0  0  0  0  0  0
    0.8589    0.9088    2.6394 H   0  0  0  0  0  0  0  0  0  0  0  0
    3.5957    0.4369    2.0161 H   0  0  0  0  0  0  0  0  0  0  0  0
    2.8360    3.3578    2.5790 H   0  0  0  0  0  0  0  0  0  0  0  0
    4.4929    2.7181    2.5093 H   0  0  0  0  0  0  0  0  0  0  0  0
    3.4878    2.7359    1.0467 H   0  0  0  0  0  0  0  0  0  0  0  0
    4.1375    0.5672    4.6267 N   0  0  0  0  0  0  0  0  0  0  0  0
    4.2210    0.2995    6.0572 C   0  0  0  0  0  0  0  0  0  0  0  0
    4.9439    0.3738    4.0402 H   0  0  0  0  0  0  0  0  0  0  0  0
    3.9932    1.2046    6.6300 H   0  0  0  0  0  0  0  0  0  0  0  0
    3.5126   -0.4857    6.3424 H   0  0  0  0  0  0  0  0  0  0  0  0
    5.2295   -0.0320    6.3221 H   0  0  0  0  0  0  0  0  0  0  0  0
  1  2  2  0  0  0  0
  1  3  1  0  0  0  0
  1  7  1  0  0  0  0
  3  4  1  0  0  0  0
  3  5  1  0  0  0  0
  3  6  1  0  0  0  0
  7  8  1  0  0  0  0
  7 12  1  0  0  0  0
  8  9  1  0  0  0  0
  8 11  1  0  0  0  0
  8 13  1  0  0  0  0
  9 10  2  0  0  0  0
  9 17  1  0  0  0  0
 11 14  1  0  0  0  0
 11 15  1  0  0  0  0
 11 16  1  0  0  0  0
 17 18  1  0  0  0  0
 17 25  1  0  0  0  0
 18 19  1  0  0  0  0
 18 21  1  0  0  0  0
 18 26  1  0  0  0  0
 19 20  2  0  0  0  0
 19 36  1  0  0  0  0
 21 22  1  0  0  0  0
 21 23  1  0  0  0  0
 21 27  1  0  0  0  0
 22 24  1  0  0  0  0
 22 28  1  0  0  0  0
 22 29  1  0  0  0  0
 23 30  1  0  0  0  0
 23 31  1  0  0  0  0
 23 32  1  0  0  0  0
 24 33  1  0  0  0  0
 24 34  1  0  0  0  0
 24 35  1  0  0  0  0
 36 37  1  0  0  0  0
 36 41  1  0  0  0  0
 37 38  1  0  0  0  0
 37 40  1  0  0  0  0
 37 42  1  0  0  0  0
 38 39  2  0  0  0  0
 38 46  1  0  0  0  0
 40 43  1  0  0  0  0
 40 44  1  0  0  0  0
 40 45  1  0  0  0  0
 46 47  1  0  0  0  0
 46 48  1  0  0  0  0
 47 49  1  0  0  0  0
 47 50  1  0  0  0  0
 47 51  1  0  0  0  0
M  END
$$$$

  -OEChem-05262216503D

 51 50  0     1  0  0  0  0  0999 V2000
    0.9780   -5.5595    0.8166 C   0  0  0  0  0  0  0  0  0  0  0  0
    0.6568   -5.5900   -0.3611 O   0  0  0  0  0  0  0  0  0  0  0  0
    2.1838   -6.3463    1.2950 C   0  0  0  0  0  0  0  0  0  0  0  0
    2.6339   -6.8916    0.4607 H   0  0  0  0  0  0  0  0  0  0  0  0
    2.9299   -5.6664    1.7137 H   0  0  0  0  0  0  0  0  0  0  0  0
    1.8820   -7.0628    2.0627 H   0  0  0  0  0  0  0  0  0  0  0  0
    0.2665   -4.7895    1.7137 N   0  0  0  0  0  0  0  0  0  0  0  0
   -0.7064   -3.7683    1.3003 C   0  0  2  0  0  0  0  0  0  0  0  0
   -0.1050   -2.3503    1.3820 C   0  0  0  0  0  0  0  0  0  0  0  0
    0.6950   -2.1003    2.2714 O   0  0  0  0  0  0  0  0  0  0  0  0
   -1.9269   -3.8833    2.2159 C   0  0  0  0  0  0  0  0  0  0  0  0
    0.7166   -4.6408    2.6146 H   0  0  0  0  0  0  0  0  0  0  0  0
   -1.0337   -3.9407    0.2697 H   0  0  0  0  0  0  0  0  0  0  0  0
   -1.6439   -3.7031    3.2582 H   0  0  0  0  0  0  0  0  0  0  0  0
   -2.6885   -3.1506    1.9316 H   0  0  0  0  0  0  0  0  0  0  0  0
   -2.3633   -4.8840    2.1400 H   0  0  0  0  0  0  0  0  0  0  0  0
   -0.5712   -1.3647    0.5274 N   0  0  0  0  0  0  0  0  0  0  0  0
   -0.0633    0.0129    0.3072 C   0  0  2  0  0  0  0  0  0  0  0  0
    1.3585    0.3382    0.8469 C   0  0  0  0  0  0  0  0  0  0  0  0
    2.2541    0.5645    0.0413 O   0  0  0  0  0  0  0  0  0  0  0  0
   -1.1351    1.0063    0.8522 C   0  0  2  0  0  0  0  0  0  0  0  0
   -2.4581    0.8610    0.0529 C   0  0  0  0  0  0  0  0  0  0  0  0
   -0.6551    2.4728    0.7497 C   0  0  0  0  0  0  0  0  0  0  0  0
   -3.6375    1.6034    0.6908 C   0  0  0  0  0  0  0  0  0  0  0  0
   -1.2323   -1.7018   -0.1661 H   0  0  0  0  0  0  0  0  0  0  0  0
    0.0110    0.1606   -0.7754 H   0  0  0  0  0  0  0  0  0  0  0  0
   -1.3214    0.7723    1.9065 H   0  0  0  0  0  0  0  0  0  0  0  0
   -2.3146    1.2195   -0.9719 H   0  0  0  0  0  0  0  0  0  0  0  0
   -2.7432   -0.1927   -0.0074 H   0  0  0  0  0  0  0  0  0  0  0  0
   -0.4150    2.7251   -0.2881 H   0  0  0  0  0  0  0  0  0  0  0  0
   -1.4215    3.1646    1.1064 H   0  0  0  0  0  0  0  0  0  0  0  0
    0.2326    2.6500    1.3622 H   0  0  0  0  0  0  0  0  0  0  0  0
   -3.7388    1.3290    1.7454 H   0  0  0  0  0  0  0  0  0  0  0  0
   -4.5651    1.3374    0.1747 H   0  0  0  0  0  0  0  0  0  0  0  0
   -3.5125    2.6871    0.6181 H   0  0  0  0  0  0  0  0  0  0  0  0
    1.6084    0.5314    2.1937 N   0  0  0  0  0  0  0  0  0  0  0  0
    2.9416    0.7927    2.7476 C   0  0  2  0  0  0  0  0  0  0  0  0
    3.0707    0.2877    4.2000 C   0  0  0  0  0  0  0  0  0  0  0  0
    2.0767    0.1262    4.8994 O   0  0  0  0  0  0  0  0  0  0  0  0
    3.2120    2.3000    2.6882 C   0  0  0  0  0  0  0  0  0  0  0  0
    0.9565    0.0483    2.8163 H   0  0  0  0  0  0  0  0  0  0  0  0
    3.6920    0.2647    2.1504 H   0  0  0  0  0  0  0  0  0  0  0  0
    2.4699    2.8443    3.2812 H   0  0  0  0  0  0  0  0  0  0  0  0
    4.2077    2.5264    3.0806 H   0  0  0  0  0  0  0  0  0  0  0  0
    3.1613    2.6563    1.6544 H   0  0  0  0  0  0  0  0  0  0  0  0
    4.3200    0.0402    4.7398 N   0  0  0  0  0  0  0  0  0  0  0  0
    4.5226   -0.4298    6.1047 C   0  0  0  0  0  0  0  0  0  0  0  0
    5.1261    0.1634    4.1342 H   0  0  0  0  0  0  0  0  0  0  0  0
    4.1175    0.2917    6.8220 H   0  0  0  0  0  0  0  0  0  0  0  0
    4.0257   -1.3939    6.2554 H   0  0  0  0  0  0  0  0  0  0  0  0
    5.5905   -0.5555    6.3082 H   0  0  0  0  0  0  0  0  0  0  0  0
  1  2  2  0  0  0  0
  1  3  1  0  0  0  0
  1  7  1  0  0  0  0
  3  4  1  0  0  0  0
  3  5  1  0  0  0  0
  3  6  1  0  0  0  0
  7  8  1  0  0  0  0
  7 12  1  0  0  0  0
  8  9  1  0  0  0  0
  8 11  1  0  0  0  0
  8 13  1  0  0  0  0
  9 10  2  0  0  0  0
  9 17  1  0  0  0  0
 11 14  1  0  0  0  0
 11 15  1  0  0  0  0
 11 16  1  0  0  0  0
 17 18  1  0  0  0  0
 17 25  1  0  0  0  0
 18 19  1  0  0  0  0
 18 21  1  0  0  0  0
 18 26  1  0  0  0  0
 19 20  2  0  0  0  0
 19 36  1  0  0  0  0
 21 22  1  0  0  0  0
 21 23  1  0  0  0  0
 21 27  1  0  0  0  0
 22 24  1  0  0  0  0
 22 28  1  0  0  0  0
 22 29  1  0  0  0  0
 23 30  1  0  0  0  0
 23 31  1  0  0  0  0
 23 32  1  0  0  0  0
 24 33  1  0  0  0  0
 24 34  1  0  0  0  0
 24 35  1  0  0  0  0
 36 37  1  0  0  0  0
 36 41  1  0  0  0  0
 37 38  1  0  0  0  0
 37 40  1  0  0  0  0
 37 42  1  0  0  0  0
 38 39  2  0  0  0  0
 38 46  1  0  0  0  0
 40 43  1  0  0  0  0
 40 44  1  0  0  0  0
 40 45  1  0  0  0  0
 46 47  1  0  0  0  0
 46 48  1  0  0  0  0
 47 49  1  0  0  0  0
 47 50  1  0  0  0  0
 47 51  1  0  0  0  0
M  END
$$$$

  -OEChem-05262216503D

 51 50  0     1  0  0  0  0  0999 V2000
    0.8513   -5.6136    0.7471 C   0  0  0  0  0  0  0  0  0  0  0  0
    0.6502   -5.5267   -0.4542 O   0  0  0  0  0  0  0  0  0  0  0  0
    1.9754   -6.4888    1.2680 C   0  0  0  0  0  0  0  0  0  0  0  0
    2.5496   -6.9021    0.4340 H   0  0  0  0  0  0  0  0  0  0  0  0
    2.6460   -5.8990    1.8979 H   0  0  0  0  0  0  0  0  0  0  0  0
    1.5647   -7.3131    1.8561 H   0  0  0  0  0  0  0  0  0  0  0  0
    0.0759   -4.8981    1.6360 N   0  0  0  0  0  0  0  0  0  0  0  0
   -0.8265   -3.8167    1.2164 C   0  0  2  0  0  0  0  0  0  0  0  0
   -0.1665   -2.4307    1.3718 C   0  0  0  0  0  0  0  0  0  0  0  0
    0.6038   -2.2494    2.3013 O   0  0  0  0  0  0  0  0  0  0  0  0
   -2.0911   -3.9057    2.0733 C   0  0  0  0  0  0  0  0  0  0  0  0
    0.4419   -4.8380    2.5839 H   0  0  0  0  0  0  0  0  0  0  0  0
   -1.1143   -3.9426    0.1676 H   0  0  0  0  0  0  0  0  0  0  0  0
   -1.8483   -3.7669    3.1320 H   0  0  0  0  0  0  0  0  0  0  0  0
   -2.8080   -3.1338    1.7773 H   0  0  0  0  0  0  0  0  0  0  0  0
   -2.5652   -4.8845    1.9495 H   0  0  0  0  0  0  0  0  0  0  0  0
   -0.5443   -1.4012    0.5256 N   0  0  0  0  0  0  0  0  0  0  0  0
   -0.0005   -0.0272    0.3630 C   0  0  2  0  0  0  0  0  0  0  0  0
    1.3909    0.3228    0.9668 C   0  0  0  0  0  0  0  0  0  0  0  0
    2.2380    0.8036    0.2223 O   0  0  0  0  0  0  0  0  0  0  0  0
   -1.0953    0.9567    0.8826 C   0  0  2  0  0  0  0  0  0  0  0  0
   -2.3782    0.8456    0.0149 C   0  0  0  0  0  0  0  0  0  0  0  0
   -0.6039    2.4228    0.8710 C   0  0  0  0  0  0  0  0  0  0  0  0
   -3.5840    1.5766    0.6152 C   0  0  0  0  0  0  0  0  0  0  0  0
   -1.1949   -1.6921   -0.1981 H   0  0  0  0  0  0  0  0  0  0  0  0
    0.1203    0.1400   -0.7128 H   0  0  0  0  0  0  0  0  0  0  0  0
   -1.3376    0.6853    1.9163 H   0  0  0  0  0  0  0  0  0  0  0  0
   -2.1797    1.2355   -0.9888 H   0  0  0  0  0  0  0  0  0  0  0  0
   -2.6666   -0.2029   -0.0944 H   0  0  0  0  0  0  0  0  0  0  0  0
   -0.2851    2.7123   -0.1357 H   0  0  0  0  0  0  0  0  0  0  0  0
   -1.3903    3.1076    1.1959 H   0  0  0  0  0  0  0  0  0  0  0  0
    0.2361    2.5664    1.5565 H   0  0  0  0  0  0  0  0  0  0  0  0
   -3.7426    1.2677    1.6532 H   0  0  0  0  0  0  0  0  0  0  0  0
   -4.4848    1.3373    0.0421 H   0  0  0  0  0  0  0  0  0  0  0  0
   -3.4474    2.6606    0.5863 H   0  0  0  0  0  0  0  0  0  0  0  0
    1.6809    0.2324    2.3149 N   0  0  0  0  0  0  0  0  0  0  0  0
    2.9998    0.5185    2.8924 C   0  0  2  0  0  0  0  0  0  0  0  0
    3.2569   -0.2842    4.1847 C   0  0  0  0  0  0  0  0  0  0  0  0
    2.3366   -0.5686    4.9422 O   0  0  0  0  0  0  0  0  0  0  0  0
    3.0926    2.0201    3.1808 C   0  0  0  0  0  0  0  0  0  0  0  0
    1.0908   -0.4269    2.8330 H   0  0  0  0  0  0  0  0  0  0  0  0
    3.7780    0.2395    2.1747 H   0  0  0  0  0  0  0  0  0  0  0  0
    2.3170    2.3196    3.8929 H   0  0  0  0  0  0  0  0  0  0  0  0
    4.0703    2.2685    3.6041 H   0  0  0  0  0  0  0  0  0  0  0  0
    2.9602    2.5945    2.2588 H   0  0  0  0  0  0  0  0  0  0  0  0
    4.5452   -0.6568    4.5240 N   0  0  0  0  0  0  0  0  0  0  0  0
    4.8678   -1.4149    5.7266 C   0  0  0  0  0  0  0  0  0  0  0  0
    5.2871   -0.4301    3.8683 H   0  0  0  0  0  0  0  0  0  0  0  0
    4.5688   -0.8595    6.6217 H   0  0  0  0  0  0  0  0  0  0  0  0
    4.3496   -2.3796    5.7218 H   0  0  0  0  0  0  0  0  0  0  0  0
    5.9447   -1.6008    5.7794 H   0  0  0  0  0  0  0  0  0  0  0  0
  1  2  2  0  0  0  0
  1  3  1  0  0  0  0
  1  7  1  0  0  0  0
  3  4  1  0  0  0  0
  3  5  1  0  0  0  0
  3  6  1  0  0  0  0
  7  8  1  0  0  0  0
  7 12  1  0  0  0  0
  8  9  1  0  0  0  0
  8 11  1  0  0  0  0
  8 13  1  0  0  0  0
  9 10  2  0  0  0  0
  9 17  1  0  0  0  0
 11 14  1  0  0  0  0
 11 15  1  0  0  0  0
 11 16  1  0  0  0  0
 17 18  1  0  0  0  0
 17 25  1  0  0  0  0
 18 19  1  0  0  0  0
 18 21  1  0  0  0  0
 18 26  1  0  0  0  0
 19 20  2  0  0  0  0
 19 36  1  0  0  0  0
 21 22  1  0  0  0  0
 21 23  1  0  0  0  0
 21 27  1  0  0  0  0
 22 24  1  0  0  0  0
 22 28  1  0  0  0  0
 22 29  1  0  0  0  0
 23 30  1  0  0  0  0
 23 31  1  0  0  0  0
 23 32  1  0  0  0  0
 24 33  1  0  0  0  0
 24 34  1  0  0  0  0
 24 35  1  0  0  0  0
 36 37  1  0  0  0  0
 36 41  1  0  0  0  0
 37 38  1  0  0  0  0
 37 40  1  0  0  0  0
 37 42  1  0  0  0  0
 38 39  2  0  0  0  0
 38 46  1  0  0  0  0
 40 43  1  0  0  0  0
 40 44  1  0  0  0  0
 40 45  1  0  0  0  0
 46 47  1  0  0  0  0
 46 48  1  0  0  0  0
 47 49  1  0  0  0  0
 47 50  1  0  0  0  0
 47 51  1  0  0  0  0
M  END
$$$$

  -OEChem-05262216503D

 51 50  0     1  0  0  0  0  0999 V2000
    0.8142   -4.0526    0.7878 C   0  0  0  0  0  0  0  0  0  0  0  0
   -0.0072   -3.9506   -0.1144 O   0  0  0  0  0  0  0  0  0  0  0  0
    2.2943   -4.1393    0.4723 C   0  0  0  0  0  0  0  0  0  0  0  0
    2.7724   -3.1777    0.6776 H   0  0  0  0  0  0  0  0  0  0  0  0
    2.7639   -4.9088    1.0896 H   0  0  0  0  0  0  0  0  0  0  0  0
    2.4425   -4.3922   -0.5810 H   0  0  0  0  0  0  0  0  0  0  0  0
    0.3954   -3.9527    2.0969 N   0  0  0  0  0  0  0  0  0  0  0  0
   -0.9687   -3.5677    2.4793 C   0  0  2  0  0  0  0  0  0  0  0  0
   -1.1731   -2.0488    2.2834 C   0  0  0  0  0  0  0  0  0  0  0  0
   -1.3673   -1.2901    3.2267 O   0  0  0  0  0  0  0  0  0  0  0  0
   -1.1781   -4.0191    3.9294 C   0  0  0  0  0  0  0  0  0  0  0  0
    1.1378   -3.7740    2.7828 H   0  0  0  0  0  0  0  0  0  0  0  0
   -1.6985   -4.0906    1.8523 H   0  0  0  0  0  0  0  0  0  0  0  0
   -0.4603   -3.5260    4.5936 H   0  0  0  0  0  0  0  0  0  0  0  0
   -2.1897   -3.7684    4.2638 H   0  0  0  0  0  0  0  0  0  0  0  0
   -1.0434   -5.1017    4.0138 H   0  0  0  0  0  0  0  0  0  0  0  0
   -1.0884   -1.5029    1.0165 N   0  0  0  0  0  0  0  0  0  0  0  0
   -0.0936   -0.4820    0.5982 C   0  0  2  0  0  0  0  0  0  0  0  0
    1.1425   -0.2539    1.5172 C   0  0  0  0  0  0  0  0  0  0  0  0
    2.2556   -0.2518    1.0019 O   0  0  0  0  0  0  0  0  0  0  0  0
   -0.8700    0.8508    0.3724 C   0  0  2  0  0  0  0  0  0  0  0  0
   -1.8955    0.6893   -0.7811 C   0  0  0  0  0  0  0  0  0  0  0  0
    0.0837    2.0232    0.0499 C   0  0  0  0  0  0  0  0  0  0  0  0
   -2.8774    1.8612   -0.8876 C   0  0  0  0  0  0  0  0  0  0  0  0
   -1.1323   -2.2607    0.3294 H   0  0  0  0  0  0  0  0  0  0  0  0
    0.3166   -0.8034   -0.3653 H   0  0  0  0  0  0  0  0  0  0  0  0
   -1.4097    1.0908    1.2957 H   0  0  0  0  0  0  0  0  0  0  0  0
   -1.3666    0.5701   -1.7324 H   0  0  0  0  0  0  0  0  0  0  0  0
   -2.4925   -0.2137   -0.6248 H   0  0  0  0  0  0  0  0  0  0  0  0
    0.6882    1.7930   -0.8334 H   0  0  0  0  0  0  0  0  0  0  0  0
   -0.4716    2.9445   -0.1403 H   0  0  0  0  0  0  0  0  0  0  0  0
    0.7556    2.2304    0.8879 H   0  0  0  0  0  0  0  0  0  0  0  0
   -3.3510    2.0528    0.0804 H   0  0  0  0  0  0  0  0  0  0  0  0
   -3.6605    1.6230   -1.6138 H   0  0  0  0  0  0  0  0  0  0  0  0
   -2.3752    2.7725   -1.2224 H   0  0  0  0  0  0  0  0  0  0  0  0
    1.0863   -0.1385    2.8918 N   0  0  0  0  0  0  0  0  0  0  0  0
    2.2676   -0.2625    3.7529 C   0  0  2  0  0  0  0  0  0  0  0  0
    2.9626   -1.6417    3.6461 C   0  0  0  0  0  0  0  0  0  0  0  0
    2.3291   -2.6876    3.7643 O   0  0  0  0  0  0  0  0  0  0  0  0
    1.8140   -0.0101    5.1921 C   0  0  0  0  0  0  0  0  0  0  0  0
    0.1683   -0.3286    3.3043 H   0  0  0  0  0  0  0  0  0  0  0  0
    2.9911    0.5098    3.4733 H   0  0  0  0  0  0  0  0  0  0  0  0
    1.0761   -0.7593    5.4983 H   0  0  0  0  0  0  0  0  0  0  0  0
    2.6669   -0.0626    5.8757 H   0  0  0  0  0  0  0  0  0  0  0  0
    1.3595    0.9816    5.2797 H   0  0  0  0  0  0  0  0  0  0  0  0
    4.3266   -1.7107    3.4330 N   0  0  0  0  0  0  0  0  0  0  0  0
    5.0479   -2.9643    3.2525 C   0  0  0  0  0  0  0  0  0  0  0  0
    4.7872   -0.8445    3.1673 H   0  0  0  0  0  0  0  0  0  0  0  0
    4.8698   -3.6363    4.0988 H   0  0  0  0  0  0  0  0  0  0  0  0
    4.7277   -3.4629    2.3322 H   0  0  0  0  0  0  0  0  0  0  0  0
    6.1234   -2.7737    3.1877 H   0  0  0  0  0  0  0  0  0  0  0  0
  1  2  2  0  0  0  0
  1  3  1  0  0  0  0
  1  7  1  0  0  0  0
  3  4  1  0  0  0  0
  3  5  1  0  0  0  0
  3  6  1  0  0  0  0
  7  8  1  0  0  0  0
  7 12  1  0  0  0  0
  8  9  1  0  0  0  0
  8 11  1  0  0  0  0
  8 13  1  0  0  0  0
  9 10  2  0  0  0  0
  9 17  1  0  0  0  0
 11 14  1  0  0  0  0
 11 15  1  0  0  0  0
 11 16  1  0  0  0  0
 17 18  1  0  0  0  0
 17 25  1  0  0  0  0
 18 19  1  0  0  0  0
 18 21  1  0  0  0  0
 18 26  1  0  0  0  0
 19 20  2  0  0  0  0
 19 36  1  0  0  0  0
 21 22  1  0  0  0  0
 21 23  1  0  0  0  0
 21 27  1  0  0  0  0
 22 24  1  0  0  0  0
 22 28  1  0  0  0  0
 22 29  1  0  0  0  0
 23 30  1  0  0  0  0
 23 31  1  0  0  0  0
 23 32  1  0  0  0  0
 24 33  1  0  0  0  0
 24 34  1  0  0  0  0
 24 35  1  0  0  0  0
 36 37  1  0  0  0  0
 36 41  1  0  0  0  0
 37 38  1  0  0  0  0
 37 40  1  0  0  0  0
 37 42  1  0  0  0  0
 38 39  2  0  0  0  0
 38 46  1  0  0  0  0
 40 43  1  0  0  0  0
 40 44  1  0  0  0  0
 40 45  1  0  0  0  0
 46 47  1  0  0  0  0
 46 48  1  0  0  0  0
 47 49  1  0  0  0  0
 47 50  1  0  0  0  0
 47 51  1  0  0  0  0
M  END
$$$$

  -OEChem-05262216503D

 51 50  0     1  0  0  0  0  0999 V2000
    0.6880   -3.8198    3.1636 C   0  0  0  0  0  0  0  0  0  0  0  0
    0.4246   -2.6569    3.4265 O   0  0  0  0  0  0  0  0  0  0  0  0
    1.5161   -4.6468    4.1278 C   0  0  0  0  0  0  0  0  0  0  0  0
    2.4098   -5.0241    3.6255 H   0  0  0  0  0  0  0  0  0  0  0  0
    1.8282   -4.0336    4.9784 H   0  0  0  0  0  0  0  0  0  0  0  0
    0.9294   -5.4911    4.4975 H   0  0  0  0  0  0  0  0  0  0  0  0
    0.2766   -4.3599    1.9607 N   0  0  0  0  0  0  0  0  0  0  0  0
   -0.3832   -3.6010    0.8805 C   0  0  2  0  0  0  0  0  0  0  0  0
    0.4989   -2.4534    0.3275 C   0  0  0  0  0  0  0  0  0  0  0  0
    1.6461   -2.6970   -0.0173 O   0  0  0  0  0  0  0  0  0  0  0  0
   -1.7835   -3.1418    1.3206 C   0  0  0  0  0  0  0  0  0  0  0  0
    0.6493   -5.2784    1.7365 H   0  0  0  0  0  0  0  0  0  0  0  0
   -0.5306   -4.2875    0.0413 H   0  0  0  0  0  0  0  0  0  0  0  0
   -1.7277   -2.3889    2.1109 H   0  0  0  0  0  0  0  0  0  0  0  0
   -2.3269   -2.7102    0.4746 H   0  0  0  0  0  0  0  0  0  0  0  0
   -2.3575   -3.9937    1.6977 H   0  0  0  0  0  0  0  0  0  0  0  0
   -0.0277   -1.3062   -0.2211 N   0  0  0  0  0  0  0  0  0  0  0  0
    0.2673    0.0691    0.2658 C   0  0  2  0  0  0  0  0  0  0  0  0
    1.4803    0.2946    1.2222 C   0  0  0  0  0  0  0  0  0  0  0  0
    2.1511    1.3040    1.0510 O   0  0  0  0  0  0  0  0  0  0  0  0
   -1.0525    0.5984    0.9130 C   0  0  2  0  0  0  0  0  0  0  0  0
   -2.1766    0.6937   -0.1542 C   0  0  0  0  0  0  0  0  0  0  0  0
   -0.8644    1.9809    1.5777 C   0  0  0  0  0  0  0  0  0  0  0  0
   -3.5648    0.9463    0.4440 C   0  0  0  0  0  0  0  0  0  0  0  0
    0.1218   -1.3539   -1.2257 H   0  0  0  0  0  0  0  0  0  0  0  0
    0.4859    0.6852   -0.6129 H   0  0  0  0  0  0  0  0  0  0  0  0
   -1.3590   -0.1065    1.6924 H   0  0  0  0  0  0  0  0  0  0  0  0
   -1.9400    1.4893   -0.8686 H   0  0  0  0  0  0  0  0  0  0  0  0
   -2.2392   -0.2410   -0.7180 H   0  0  0  0  0  0  0  0  0  0  0  0
   -0.4847    2.7074    0.8521 H   0  0  0  0  0  0  0  0  0  0  0  0
   -1.8049    2.3577    1.9854 H   0  0  0  0  0  0  0  0  0  0  0  0
   -0.1625    1.9249    2.4150 H   0  0  0  0  0  0  0  0  0  0  0  0
   -3.7807    0.2193    1.2330 H   0  0  0  0  0  0  0  0  0  0  0  0
   -4.3270    0.8471   -0.3349 H   0  0  0  0  0  0  0  0  0  0  0  0
   -3.6422    1.9538    0.8606 H   0  0  0  0  0  0  0  0  0  0  0  0
    1.9488   -0.6432    2.1236 N   0  0  0  0  0  0  0  0  0  0  0  0
    3.1761   -0.5266    2.9269 C   0  0  2  0  0  0  0  0  0  0  0  0
    3.9985   -1.8368    2.9214 C   0  0  0  0  0  0  0  0  0  0  0  0
    4.7901   -2.0934    3.8207 O   0  0  0  0  0  0  0  0  0  0  0  0
    2.7606   -0.1048    4.3408 C   0  0  0  0  0  0  0  0  0  0  0  0
    1.2977   -1.3864    2.3851 H   0  0  0  0  0  0  0  0  0  0  0  0
    3.8309    0.2459    2.5111 H   0  0  0  0  0  0  0  0  0  0  0  0
    2.1475   -0.8810    4.8087 H   0  0  0  0  0  0  0  0  0  0  0  0
    3.6440    0.0639    4.9644 H   0  0  0  0  0  0  0  0  0  0  0  0
    2.1830    0.8240    4.3050 H   0  0  0  0  0  0  0  0  0  0  0  0
    3.8443   -2.7576    1.9006 N   0  0  0  0  0  0  0  0  0  0  0  0
    4.6838   -3.9363    1.7390 C   0  0  0  0  0  0  0  0  0  0  0  0
    3.2000   -2.5060    1.1455 H   0  0  0  0  0  0  0  0  0  0  0  0
    5.7211   -3.6426    1.5485 H   0  0  0  0  0  0  0  0  0  0  0  0
    4.6542   -4.5591    2.6386 H   0  0  0  0  0  0  0  0  0  0  0  0
    4.3313   -4.5339    0.8930 H   0  0  0  0  0  0  0  0  0  0  0  0
  1  2  2  0  0  0  0
  1  3  1  0  0  0  0
  1  7  1  0  0  0  0
  3  4  1  0  0  0  0
  3  5  1  0  0  0  0
  3  6  1  0  0  0  0
  7  8  1  0  0  0  0
  7 12  1  0  0  0  0
  8  9  1  0  0  0  0
  8 11  1  0  0  0  0
  8 13  1  0  0  0  0
  9 10  2  0  0  0  0
  9 17  1  0  0  0  0
 11 14  1  0  0  0  0
 11 15  1  0  0  0  0
 11 16  1  0  0  0  0
 17 18  1  0  0  0  0
 17 25  1  0  0  0  0
 18 19  1  0  0  0  0
 18 21  1  0  0  0  0
 18 26  1  0  0  0  0
 19 20  2  0  0  0  0
 19 36  1  0  0  0  0
 21 22  1  0  0  0  0
 21 23  1  0  0  0  0
 21 27  1  0  0  0  0
 22 24  1  0  0  0  0
 22 28  1  0  0  0  0
 22 29  1  0  0  0  0
 23 30  1  0  0  0  0
 23 31  1  0  0  0  0
 23 32  1  0  0  0  0
 24 33  1  0  0  0  0
 24 34  1  0  0  0  0
 24 35  1  0  0  0  0
 36 37  1  0  0  0  0
 36 41  1  0  0  0  0
 37 38  1  0  0  0  0
 37 40  1  0  0  0  0
 37 42  1  0  0  0  0
 38 39  2  0  0  0  0
 38 46  1  0  0  0  0
 40 43  1  0  0  0  0
 40 44  1  0  0  0  0
 40 45  1  0  0  0  0
 46 47  1  0  0  0  0
 46 48  1  0  0  0  0
 47 49  1  0  0  0  0
 47 50  1  0  0  0  0
 47 51  1  0  0  0  0
M  END
$$$$

  -OEChem-05262216503D

 51 50  0     1  0  0  0  0  0999 V2000
    0.4235   -4.3602    0.5579 C   0  0  0  0  0  0  0  0  0  0  0  0
   -0.5360   -4.1386   -0.1688 O   0  0  0  0  0  0  0  0  0  0  0  0
    1.7875   -4.6431   -0.0410 C   0  0  0  0  0  0  0  0  0  0  0  0
    1.6867   -4.9439   -1.0872 H   0  0  0  0  0  0  0  0  0  0  0  0
    2.4085   -3.7452    0.0131 H   0  0  0  0  0  0  0  0  0  0  0  0
    2.2792   -5.4477    0.5112 H   0  0  0  0  0  0  0  0  0  0  0  0
    0.2843   -4.2168    1.9215 N   0  0  0  0  0  0  0  0  0  0  0  0
   -0.9357   -3.7063    2.5645 C   0  0  2  0  0  0  0  0  0  0  0  0
   -1.0294   -2.1695    2.4228 C   0  0  0  0  0  0  0  0  0  0  0  0
   -1.0273   -1.4287    3.3987 O   0  0  0  0  0  0  0  0  0  0  0  0
   -0.9084   -4.1747    4.0240 C   0  0  0  0  0  0  0  0  0  0  0  0
    1.1650   -4.1332    2.4417 H   0  0  0  0  0  0  0  0  0  0  0  0
   -1.8211   -4.1396    2.0874 H   0  0  0  0  0  0  0  0  0  0  0  0
   -0.0318   -3.7714    4.5419 H   0  0  0  0  0  0  0  0  0  0  0  0
   -1.8080   -3.8375    4.5485 H   0  0  0  0  0  0  0  0  0  0  0  0
   -0.8693   -5.2672    4.0716 H   0  0  0  0  0  0  0  0  0  0  0  0
   -1.0329   -1.6105    1.1596 N   0  0  0  0  0  0  0  0  0  0  0  0
   -0.1142   -0.5626    0.6383 C   0  0  2  0  0  0  0  0  0  0  0  0
    1.2073   -0.2375    1.4074 C   0  0  0  0  0  0  0  0  0  0  0  0
    2.1780    0.1052    0.7397 O   0  0  0  0  0  0  0  0  0  0  0  0
   -0.9976    0.7164    0.4675 C   0  0  2  0  0  0  0  0  0  0  0  0
   -2.1123    0.4696   -0.5865 C   0  0  0  0  0  0  0  0  0  0  0  0
   -0.1763    1.9596    0.0597 C   0  0  0  0  0  0  0  0  0  0  0  0
   -3.1766    1.5723   -0.6183 C   0  0  0  0  0  0  0  0  0  0  0  0
   -1.1930   -2.3470    0.4658 H   0  0  0  0  0  0  0  0  0  0  0  0
    0.2130   -0.8866   -0.3554 H   0  0  0  0  0  0  0  0  0  0  0  0
   -1.4695    0.9287    1.4338 H   0  0  0  0  0  0  0  0  0  0  0  0
   -1.6633    0.3700   -1.5802 H   0  0  0  0  0  0  0  0  0  0  0  0
   -2.6335   -0.4671   -0.3706 H   0  0  0  0  0  0  0  0  0  0  0  0
    0.3699    1.7703   -0.8699 H   0  0  0  0  0  0  0  0  0  0  0  0
   -0.8187    2.8305   -0.0865 H   0  0  0  0  0  0  0  0  0  0  0  0
    0.5415    2.2310    0.8390 H   0  0  0  0  0  0  0  0  0  0  0  0
   -3.5668    1.7567    0.3874 H   0  0  0  0  0  0  0  0  0  0  0  0
   -4.0081    1.2661   -1.2604 H   0  0  0  0  0  0  0  0  0  0  0  0
   -2.7722    2.5059   -1.0178 H   0  0  0  0  0  0  0  0  0  0  0  0
    1.4868   -0.6220    2.7039 N   0  0  0  0  0  0  0  0  0  0  0  0
    2.8353   -0.8260    3.2414 C   0  0  2  0  0  0  0  0  0  0  0  0
    3.4286   -2.1873    2.8168 C   0  0  0  0  0  0  0  0  0  0  0  0
    2.7728   -3.2223    2.9172 O   0  0  0  0  0  0  0  0  0  0  0  0
    2.7473   -0.7284    4.7654 C   0  0  0  0  0  0  0  0  0  0  0  0
    0.6908   -0.9569    3.2504 H   0  0  0  0  0  0  0  0  0  0  0  0
    3.4983   -0.0307    2.8855 H   0  0  0  0  0  0  0  0  0  0  0  0
    2.0870   -1.5063    5.1631 H   0  0  0  0  0  0  0  0  0  0  0  0
    3.7384   -0.8506    5.2128 H   0  0  0  0  0  0  0  0  0  0  0  0
    2.3514    0.2485    5.0605 H   0  0  0  0  0  0  0  0  0  0  0  0
    4.7244   -2.2601    2.3425 N   0  0  0  0  0  0  0  0  0  0  0  0
    5.3460   -3.4984    1.8893 C   0  0  0  0  0  0  0  0  0  0  0  0
    5.1898   -1.3781    2.1439 H   0  0  0  0  0  0  0  0  0  0  0  0
    6.3956   -3.3227    1.6349 H   0  0  0  0  0  0  0  0  0  0  0  0
    5.3075   -4.2586    2.6766 H   0  0  0  0  0  0  0  0  0  0  0  0
    4.8331   -3.8830    1.0020 H   0  0  0  0  0  0  0  0  0  0  0  0
  1  2  2  0  0  0  0
  1  3  1  0  0  0  0
  1  7  1  0  0  0  0
  3  4  1  0  0  0  0
  3  5  1  0  0  0  0
  3  6  1  0  0  0  0
  7  8  1  0  0  0  0
  7 12  1  0  0  0  0
  8  9  1  0  0  0  0
  8 11  1  0  0  0  0
  8 13  1  0  0  0  0
  9 10  2  0  0  0  0
  9 17  1  0  0  0  0
 11 14  1  0  0  0  0
 11 15  1  0  0  0  0
 11 16  1  0  0  0  0
 17 18  1  0  0  0  0
 17 25  1  0  0  0  0
 18 19  1  0  0  0  0
 18 21  1  0  0  0  0
 18 26  1  0  0  0  0
 19 20  2  0  0  0  0
 19 36  1  0  0  0  0
 21 22  1  0  0  0  0
 21 23  1  0  0  0  0
 21 27  1  0  0  0  0
 22 24  1  0  0  0  0
 22 28  1  0  0  0  0
 22 29  1  0  0  0  0
 23 30  1  0  0  0  0
 23 31  1  0  0  0  0
 23 32  1  0  0  0  0
 24 33  1  0  0  0  0
 24 34  1  0  0  0  0
 24 35  1  0  0  0  0
 36 37  1  0  0  0  0
 36 41  1  0  0  0  0
 37 38  1  0  0  0  0
 37 40  1  0  0  0  0
 37 42  1  0  0  0  0
 38 39  2  0  0  0  0
 38 46  1  0  0  0  0
 40 43  1  0  0  0  0
 40 44  1  0  0  0  0
 40 45  1  0  0  0  0
 46 47  1  0  0  0  0
 46 48  1  0  0  0  0
 47 49  1  0  0  0  0
 47 50  1  0  0  0  0
 47 51  1  0  0  0  0
M  END
$$$$

  -OEChem-05262216503D

 51 50  0     1  0  0  0  0  0999 V2000
    0.1375   -4.3927    0.3625 C   0  0  0  0  0  0  0  0  0  0  0  0
   -0.8760   -4.0553   -0.2344 O   0  0  0  0  0  0  0  0  0  0  0  0
    1.3792   -4.7954   -0.4087 C   0  0  0  0  0  0  0  0  0  0  0  0
    1.1376   -4.9424   -1.4648 H   0  0  0  0  0  0  0  0  0  0  0  0
    2.1378   -4.0135   -0.3244 H   0  0  0  0  0  0  0  0  0  0  0  0
    1.7830   -5.7275   -0.0060 H   0  0  0  0  0  0  0  0  0  0  0  0
    0.1811   -4.2776    1.7354 N   0  0  0  0  0  0  0  0  0  0  0  0
   -0.9065   -3.6955    2.5380 C   0  0  2  0  0  0  0  0  0  0  0  0
   -0.8856   -2.1514    2.4617 C   0  0  0  0  0  0  0  0  0  0  0  0
   -0.7301   -1.4589    3.4598 O   0  0  0  0  0  0  0  0  0  0  0  0
   -0.7515   -4.2289    3.9668 C   0  0  0  0  0  0  0  0  0  0  0  0
    1.1236   -4.2815    2.1411 H   0  0  0  0  0  0  0  0  0  0  0  0
   -1.8757   -4.0333    2.1555 H   0  0  0  0  0  0  0  0  0  0  0  0
    0.2079   -3.9169    4.3921 H   0  0  0  0  0  0  0  0  0  0  0  0
   -1.5551   -3.8473    4.6046 H   0  0  0  0  0  0  0  0  0  0  0  0
   -0.7963   -5.3222    3.9715 H   0  0  0  0  0  0  0  0  0  0  0  0
   -0.9297   -1.5492    1.2197 N   0  0  0  0  0  0  0  0  0  0  0  0
   -0.0416   -0.4823    0.6843 C   0  0  2  0  0  0  0  0  0  0  0  0
    1.3125   -0.1632    1.4028 C   0  0  0  0  0  0  0  0  0  0  0  0
    2.1967    0.3556    0.7290 O   0  0  0  0  0  0  0  0  0  0  0  0
   -0.9648    0.7779    0.5747 C   0  0  2  0  0  0  0  0  0  0  0  0
   -2.1137    0.5195   -0.4416 C   0  0  0  0  0  0  0  0  0  0  0  0
   -0.2021    2.0571    0.1667 C   0  0  0  0  0  0  0  0  0  0  0  0
   -3.2102    1.5899   -0.4138 C   0  0  0  0  0  0  0  0  0  0  0  0
   -1.1807   -2.2411    0.5069 H   0  0  0  0  0  0  0  0  0  0  0  0
    0.2497   -0.7819   -0.3279 H   0  0  0  0  0  0  0  0  0  0  0  0
   -1.4048    0.9555    1.5629 H   0  0  0  0  0  0  0  0  0  0  0  0
   -1.6996    0.4524   -1.4530 H   0  0  0  0  0  0  0  0  0  0  0  0
   -2.6018   -0.4353   -0.2271 H   0  0  0  0  0  0  0  0  0  0  0  0
    0.3247    1.9046   -0.7808 H   0  0  0  0  0  0  0  0  0  0  0  0
   -0.8791    2.9067    0.0543 H   0  0  0  0  0  0  0  0  0  0  0  0
    0.5259    2.3396    0.9327 H   0  0  0  0  0  0  0  0  0  0  0  0
   -3.5620    1.7508    0.6099 H   0  0  0  0  0  0  0  0  0  0  0  0
   -4.0591    1.2645   -1.0229 H   0  0  0  0  0  0  0  0  0  0  0  0
   -2.8520    2.5398   -0.8193 H   0  0  0  0  0  0  0  0  0  0  0  0
    1.7574   -0.8156    2.5369 N   0  0  0  0  0  0  0  0  0  0  0  0
    3.1551   -1.1198    2.8598 C   0  0  2  0  0  0  0  0  0  0  0  0
    3.5918   -2.4782    2.2702 C   0  0  0  0  0  0  0  0  0  0  0  0
    2.8655   -3.4668    2.3584 O   0  0  0  0  0  0  0  0  0  0  0  0
    3.2877   -1.1272    4.3839 C   0  0  0  0  0  0  0  0  0  0  0  0
    1.0292   -1.2476    3.1074 H   0  0  0  0  0  0  0  0  0  0  0  0
    3.8134   -0.3395    2.4643 H   0  0  0  0  0  0  0  0  0  0  0  0
    2.6342   -1.8882    4.8232 H   0  0  0  0  0  0  0  0  0  0  0  0
    4.3197   -1.3440    4.6763 H   0  0  0  0  0  0  0  0  0  0  0  0
    3.0090   -0.1510    4.7930 H   0  0  0  0  0  0  0  0  0  0  0  0
    4.8233   -2.6050    1.6558 N   0  0  0  0  0  0  0  0  0  0  0  0
    5.2951   -3.8418    1.0452 C   0  0  0  0  0  0  0  0  0  0  0  0
    5.3559   -1.7517    1.5075 H   0  0  0  0  0  0  0  0  0  0  0  0
    5.2865   -4.6584    1.7748 H   0  0  0  0  0  0  0  0  0  0  0  0
    4.6594   -4.1183    0.1979 H   0  0  0  0  0  0  0  0  0  0  0  0
    6.3202   -3.7167    0.6829 H   0  0  0  0  0  0  0  0  0  0  0  0
  1  2  2  0  0  0  0
  1  3  1  0  0  0  0
  1  7  1  0  0  0  0
  3  4  1  0  0  0  0
  3  5  1  0  0  0  0
  3  6  1  0  0  0  0
  7  8  1  0  0  0  0
  7 12  1  0  0  0  0
  8  9  1  0  0  0  0
  8 11  1  0  0  0  0
  8 13  1  0  0  0  0
  9 10  2  0  0  0  0
  9 17  1  0  0  0  0
 11 14  1  0  0  0  0
 11 15  1  0  0  0  0
 11 16  1  0  0  0  0
 17 18  1  0  0  0  0
 17 25  1  0  0  0  0
 18 19  1  0  0  0  0
 18 21  1  0  0  0  0
 18 26  1  0  0  0  0
 19 20  2  0  0  0  0
 19 36  1  0  0  0  0
 21 22  1  0  0  0  0
 21 23  1  0  0  0  0
 21 27  1  0  0  0  0
 22 24  1  0  0  0  0
 22 28  1  0  0  0  0
 22 29  1  0  0  0  0
 23 30  1  0  0  0  0
 23 31  1  0  0  0  0
 23 32  1  0  0  0  0
 24 33  1  0  0  0  0
 24 34  1  0  0  0  0
 24 35  1  0  0  0  0
 36 37  1  0  0  0  0
 36 41  1  0  0  0  0
 37 38  1  0  0  0  0
 37 40  1  0  0  0  0
 37 42  1  0  0  0  0
 38 39  2  0  0  0  0
 38 46  1  0  0  0  0
 40 43  1  0  0  0  0
 40 44  1  0  0  0  0
 40 45  1  0  0  0  0
 46 47  1  0  0  0  0
 46 48  1  0  0  0  0
 47 49  1  0  0  0  0
 47 50  1  0  0  0  0
 47 51  1  0  0  0  0
M  END
$$$$

  -OEChem-05262216503D

 51 50  0     1  0  0  0  0  0999 V2000
    0.0908   -4.3039   -0.0008 C   0  0  0  0  0  0  0  0  0  0  0  0
   -0.9065   -3.8721   -0.5635 O   0  0  0  0  0  0  0  0  0  0  0  0
    1.3045   -4.7221   -0.8077 C   0  0  0  0  0  0  0  0  0  0  0  0
    2.0946   -3.9740   -0.7058 H   0  0  0  0  0  0  0  0  0  0  0  0
    1.0418   -4.8190   -1.8644 H   0  0  0  0  0  0  0  0  0  0  0  0
    1.6779   -5.6835   -0.4471 H   0  0  0  0  0  0  0  0  0  0  0  0
    0.1449   -4.2967    1.3765 N   0  0  0  0  0  0  0  0  0  0  0  0
   -0.9093   -3.7236    2.2284 C   0  0  2  0  0  0  0  0  0  0  0  0
   -0.8034   -2.1818    2.2711 C   0  0  0  0  0  0  0  0  0  0  0  0
   -0.5140   -1.5894    3.3024 O   0  0  0  0  0  0  0  0  0  0  0  0
   -0.7822   -4.3765    3.6099 C   0  0  0  0  0  0  0  0  0  0  0  0
    1.0864   -4.3856    1.7743 H   0  0  0  0  0  0  0  0  0  0  0  0
   -1.8962   -3.9773    1.8265 H   0  0  0  0  0  0  0  0  0  0  0  0
    0.1949   -4.1566    4.0525 H   0  0  0  0  0  0  0  0  0  0  0  0
   -1.5605   -4.0001    4.2813 H   0  0  0  0  0  0  0  0  0  0  0  0
   -0.8913   -5.4622    3.5281 H   0  0  0  0  0  0  0  0  0  0  0  0
   -0.8805   -1.4816    1.0824 N   0  0  0  0  0  0  0  0  0  0  0  0
   -0.0110   -0.3697    0.6084 C   0  0  2  0  0  0  0  0  0  0  0  0
    1.3595   -0.1145    1.3257 C   0  0  0  0  0  0  0  0  0  0  0  0
    2.1654    0.6372    0.7888 O   0  0  0  0  0  0  0  0  0  0  0  0
   -0.9632    0.8781    0.6085 C   0  0  2  0  0  0  0  0  0  0  0  0
   -2.1268    0.6684   -0.4041 C   0  0  0  0  0  0  0  0  0  0  0  0
   -0.2492    2.2084    0.2887 C   0  0  0  0  0  0  0  0  0  0  0  0
   -3.2470    1.7079   -0.2824 C   0  0  0  0  0  0  0  0  0  0  0  0
   -1.1803   -2.1022    0.3245 H   0  0  0  0  0  0  0  0  0  0  0  0
    0.2657   -0.5879   -0.4280 H   0  0  0  0  0  0  0  0  0  0  0  0
   -1.3888    0.9693    1.6143 H   0  0  0  0  0  0  0  0  0  0  0  0
   -1.7302    0.6828   -1.4245 H   0  0  0  0  0  0  0  0  0  0  0  0
   -2.5915   -0.3093   -0.2518 H   0  0  0  0  0  0  0  0  0  0  0  0
    0.2871    2.1376   -0.6629 H   0  0  0  0  0  0  0  0  0  0  0  0
   -0.9553    3.0387    0.2274 H   0  0  0  0  0  0  0  0  0  0  0  0
    0.4614    2.4668    1.0787 H   0  0  0  0  0  0  0  0  0  0  0  0
   -3.5740    1.7993    0.7581 H   0  0  0  0  0  0  0  0  0  0  0  0
   -4.1046    1.3988   -0.8878 H   0  0  0  0  0  0  0  0  0  0  0  0
   -2.9222    2.6884   -0.6400 H   0  0  0  0  0  0  0  0  0  0  0  0
    1.9251   -1.0503    2.1721 N   0  0  0  0  0  0  0  0  0  0  0  0
    3.3514   -1.3320    2.3726 C   0  0  2  0  0  0  0  0  0  0  0  0
    3.7151   -2.7647    1.9257 C   0  0  0  0  0  0  0  0  0  0  0  0
    2.8900   -3.6753    1.9803 O   0  0  0  0  0  0  0  0  0  0  0  0
    3.6556   -1.1404    3.8591 C   0  0  0  0  0  0  0  0  0  0  0  0
    1.2560   -1.6201    2.6900 H   0  0  0  0  0  0  0  0  0  0  0  0
    3.9688   -0.6348    1.7975 H   0  0  0  0  0  0  0  0  0  0  0  0
    3.0585   -1.8296    4.4652 H   0  0  0  0  0  0  0  0  0  0  0  0
    4.7148   -1.3260    4.0610 H   0  0  0  0  0  0  0  0  0  0  0  0
    3.4192   -0.1158    4.1631 H   0  0  0  0  0  0  0  0  0  0  0  0
    4.9869   -3.0452    1.4624 N   0  0  0  0  0  0  0  0  0  0  0  0
    5.4033   -4.3627    0.9976 C   0  0  0  0  0  0  0  0  0  0  0  0
    5.6394   -2.2692    1.3891 H   0  0  0  0  0  0  0  0  0  0  0  0
    5.2977   -5.1033    1.7975 H   0  0  0  0  0  0  0  0  0  0  0  0
    6.4522   -4.3392    0.6864 H   0  0  0  0  0  0  0  0  0  0  0  0
    4.7960   -4.6772    0.1424 H   0  0  0  0  0  0  0  0  0  0  0  0
  1  2  2  0  0  0  0
  1  3  1  0  0  0  0
  1  7  1  0  0  0  0
  3  4  1  0  0  0  0
  3  5  1  0  0  0  0
  3  6  1  0  0  0  0
  7  8  1  0  0  0  0
  7 12  1  0  0  0  0
  8  9  1  0  0  0  0
  8 11  1  0  0  0  0
  8 13  1  0  0  0  0
  9 10  2  0  0  0  0
  9 17  1  0  0  0  0
 11 14  1  0  0  0  0
 11 15  1  0  0  0  0
 11 16  1  0  0  0  0
 17 18  1  0  0  0  0
 17 25  1  0  0  0  0
 18 19  1  0  0  0  0
 18 21  1  0  0  0  0
 18 26  1  0  0  0  0
 19 20  2  0  0  0  0
 19 36  1  0  0  0  0
 21 22  1  0  0  0  0
 21 23  1  0  0  0  0
 21 27  1  0  0  0  0
 22 24  1  0  0  0  0
 22 28  1  0  0  0  0
 22 29  1  0  0  0  0
 23 30  1  0  0  0  0
 23 31  1  0  0  0  0
 23 32  1  0  0  0  0
 24 33  1  0  0  0  0
 24 34  1  0  0  0  0
 24 35  1  0  0  0  0
 36 37  1  0  0  0  0
 36 41  1  0  0  0  0
 37 38  1  0  0  0  0
 37 40  1  0  0  0  0
 37 42  1  0  0  0  0
 38 39  2  0  0  0  0
 38 46  1  0  0  0  0
 40 43  1  0  0  0  0
 40 44  1  0  0  0  0
 40 45  1  0  0  0  0
 46 47  1  0  0  0  0
 46 48  1  0  0  0  0
 47 49  1  0  0  0  0
 47 50  1  0  0  0  0
 47 51  1  0  0  0  0
M  END
$$$$

  -OEChem-05262216503D

 51 50  0     1  0  0  0  0  0999 V2000
    0.0490   -4.1535   -0.3881 C   0  0  0  0  0  0  0  0  0  0  0  0
   -1.0066   -3.6834   -0.7914 O   0  0  0  0  0  0  0  0  0  0  0  0
    1.1571   -4.5002   -1.3631 C   0  0  0  0  0  0  0  0  0  0  0  0
    0.7645   -4.5416   -2.3826 H   0  0  0  0  0  0  0  0  0  0  0  0
    1.9441   -3.7434   -1.3158 H   0  0  0  0  0  0  0  0  0  0  0  0
    1.5863   -5.4728   -1.1105 H   0  0  0  0  0  0  0  0  0  0  0  0
    0.2623   -4.2613    0.9698 N   0  0  0  0  0  0  0  0  0  0  0  0
   -0.6882   -3.7784    1.9844 C   0  0  2  0  0  0  0  0  0  0  0  0
   -0.6021   -2.2416    2.1260 C   0  0  0  0  0  0  0  0  0  0  0  0
   -0.0494   -1.7275    3.0881 O   0  0  0  0  0  0  0  0  0  0  0  0
   -0.3798   -4.5197    3.2905 C   0  0  0  0  0  0  0  0  0  0  0  0
    1.2313   -4.4420    1.2555 H   0  0  0  0  0  0  0  0  0  0  0  0
   -1.7127   -4.0295    1.6892 H   0  0  0  0  0  0  0  0  0  0  0  0
    0.6463   -4.3186    3.6161 H   0  0  0  0  0  0  0  0  0  0  0  0
   -1.0642   -4.1962    4.0812 H   0  0  0  0  0  0  0  0  0  0  0  0
   -0.4964   -5.5988    3.1521 H   0  0  0  0  0  0  0  0  0  0  0  0
   -0.9426   -1.4522    1.0424 N   0  0  0  0  0  0  0  0  0  0  0  0
   -0.1601   -0.3163    0.4776 C   0  0  2  0  0  0  0  0  0  0  0  0
    1.3411   -0.2003    0.9207 C   0  0  0  0  0  0  0  0  0  0  0  0
    2.0405    0.7554    0.6087 O   0  0  0  0  0  0  0  0  0  0  0  0
   -1.0575    0.9432    0.7603 C   0  0  2  0  0  0  0  0  0  0  0  0
   -2.4088    0.8162   -0.0054 C   0  0  0  0  0  0  0  0  0  0  0  0
   -0.3967    2.2853    0.3779 C   0  0  0  0  0  0  0  0  0  0  0  0
   -3.4599    1.8539    0.4079 C   0  0  0  0  0  0  0  0  0  0  0  0
   -1.3863   -2.0215    0.3156 H   0  0  0  0  0  0  0  0  0  0  0  0
   -0.1070   -0.4550   -0.6065 H   0  0  0  0  0  0  0  0  0  0  0  0
   -1.2652    0.9723    1.8358 H   0  0  0  0  0  0  0  0  0  0  0  0
   -2.2279    0.8957   -1.0823 H   0  0  0  0  0  0  0  0  0  0  0  0
   -2.8562   -0.1648    0.1754 H   0  0  0  0  0  0  0  0  0  0  0  0
   -0.0017    2.2429   -0.6420 H   0  0  0  0  0  0  0  0  0  0  0  0
   -1.0990    3.1180    0.4403 H   0  0  0  0  0  0  0  0  0  0  0  0
    0.4172    2.5246    1.0671 H   0  0  0  0  0  0  0  0  0  0  0  0
   -3.5629    1.8807    1.4971 H   0  0  0  0  0  0  0  0  0  0  0  0
   -4.4296    1.5892   -0.0245 H   0  0  0  0  0  0  0  0  0  0  0  0
   -3.2005    2.8539    0.0517 H   0  0  0  0  0  0  0  0  0  0  0  0
    2.0428   -1.3488    1.2402 N   0  0  0  0  0  0  0  0  0  0  0  0
    3.4859   -1.4696    1.4617 C   0  0  2  0  0  0  0  0  0  0  0  0
    3.9317   -2.9476    1.3840 C   0  0  0  0  0  0  0  0  0  0  0  0
    3.1026   -3.8576    1.3711 O   0  0  0  0  0  0  0  0  0  0  0  0
    3.8213   -0.8835    2.8380 C   0  0  0  0  0  0  0  0  0  0  0  0
    1.4716   -2.0929    1.6326 H   0  0  0  0  0  0  0  0  0  0  0  0
    4.0231   -0.9135    0.6862 H   0  0  0  0  0  0  0  0  0  0  0  0
    3.2774   -1.4186    3.6234 H   0  0  0  0  0  0  0  0  0  0  0  0
    4.8937   -0.9602    3.0397 H   0  0  0  0  0  0  0  0  0  0  0  0
    3.5397    0.1734    2.8819 H   0  0  0  0  0  0  0  0  0  0  0  0
    5.2743   -3.2687    1.3126 N   0  0  0  0  0  0  0  0  0  0  0  0
    5.7728   -4.6380    1.2645 C   0  0  0  0  0  0  0  0  0  0  0  0
    5.9416   -2.5025    1.3368 H   0  0  0  0  0  0  0  0  0  0  0  0
    5.4843   -5.1829    2.1696 H   0  0  0  0  0  0  0  0  0  0  0  0
    5.3688   -5.1630    0.3926 H   0  0  0  0  0  0  0  0  0  0  0  0
    6.8649   -4.6405    1.1926 H   0  0  0  0  0  0  0  0  0  0  0  0
  1  2  2  0  0  0  0
  1  3  1  0  0  0  0
  1  7  1  0  0  0  0
  3  4  1  0  0  0  0
  3  5  1  0  0  0  0
  3  6  1  0  0  0  0
  7  8  1  0  0  0  0
  7 12  1  0  0  0  0
  8  9  1  0  0  0  0
  8 11  1  0  0  0  0
  8 13  1  0  0  0  0
  9 10  2  0  0  0  0
  9 17  1  0  0  0  0
 11 14  1  0  0  0  0
 11 15  1  0  0  0  0
 11 16  1  0  0  0  0
 17 18  1  0  0  0  0
 17 25  1  0  0  0  0
 18 19  1  0  0  0  0
 18 21  1  0  0  0  0
 18 26  1  0  0  0  0
 19 20  2  0  0  0  0
 19 36  1  0  0  0  0
 21 22  1  0  0  0  0
 21 23  1  0  0  0  0
 21 27  1  0  0  0  0
 22 24  1  0  0  0  0
 22 28  1  0  0  0  0
 22 29  1  0  0  0  0
 23 30  1  0  0  0  0
 23 31  1  0  0  0  0
 23 32  1  0  0  0  0
 24 33  1  0  0  0  0
 24 34  1  0  0  0  0
 24 35  1  0  0  0  0
 36 37  1  0  0  0  0
 36 41  1  0  0  0  0
 37 38  1  0  0  0  0
 37 40  1  0  0  0  0
 37 42  1  0  0  0  0
 38 39  2  0  0  0  0
 38 46  1  0  0  0  0
 40 43  1  0  0  0  0
 40 44  1  0  0  0  0
 40 45  1  0  0  0  0
 46 47  1  0  0  0  0
 46 48  1  0  0  0  0
 47 49  1  0  0  0  0
 47 50  1  0  0  0  0
 47 51  1  0  0  0  0
M  END
$$$$

  -OEChem-05262216503D

 51 50  0     1  0  0  0  0  0999 V2000
    1.0248   -5.1726    2.1555 C   0  0  0  0  0  0  0  0  0  0  0  0
    0.2411   -5.3944    3.0639 O   0  0  0  0  0  0  0  0  0  0  0  0
    2.4587   -5.6520    2.2862 C   0  0  0  0  0  0  0  0  0  0  0  0
    2.7138   -6.3010    1.4452 H   0  0  0  0  0  0  0  0  0  0  0  0
    3.1357   -4.7942    2.2932 H   0  0  0  0  0  0  0  0  0  0  0  0
    2.5873   -6.2111    3.2170 H   0  0  0  0  0  0  0  0  0  0  0  0
    0.6547   -4.5229    0.9918 N   0  0  0  0  0  0  0  0  0  0  0  0
   -0.5316   -3.6600    0.8054 C   0  0  2  0  0  0  0  0  0  0  0  0
   -0.2983   -2.2191    1.3172 C   0  0  0  0  0  0  0  0  0  0  0  0
    0.4859   -1.9912    2.2249 O   0  0  0  0  0  0  0  0  0  0  0  0
   -1.8383   -4.2361    1.3699 C   0  0  0  0  0  0  0  0  0  0  0  0
    1.4532   -4.3217    0.3826 H   0  0  0  0  0  0  0  0  0  0  0  0
   -0.6741   -3.5919   -0.2768 H   0  0  0  0  0  0  0  0  0  0  0  0
   -1.8661   -4.1489    2.4607 H   0  0  0  0  0  0  0  0  0  0  0  0
   -2.6984   -3.6937    0.9670 H   0  0  0  0  0  0  0  0  0  0  0  0
   -1.9367   -5.2921    1.1000 H   0  0  0  0  0  0  0  0  0  0  0  0
   -0.8141   -1.1559    0.5896 N   0  0  0  0  0  0  0  0  0  0  0  0
   -0.1462    0.1451    0.2918 C   0  0  2  0  0  0  0  0  0  0  0  0
    1.4019    0.1507    0.5453 C   0  0  0  0  0  0  0  0  0  0  0  0
    2.0521    1.1376    0.8596 O   0  0  0  0  0  0  0  0  0  0  0  0
   -1.0006    1.2270    1.0443 C   0  0  2  0  0  0  0  0  0  0  0  0
   -2.4450    1.2518    0.4602 C   0  0  0  0  0  0  0  0  0  0  0  0
   -0.4124    2.6533    0.9424 C   0  0  0  0  0  0  0  0  0  0  0  0
   -3.4412    2.0744    1.2873 C   0  0  0  0  0  0  0  0  0  0  0  0
   -1.5373   -1.4268   -0.0695 H   0  0  0  0  0  0  0  0  0  0  0  0
   -0.2402    0.3409   -0.7804 H   0  0  0  0  0  0  0  0  0  0  0  0
   -1.0476    0.9527    2.1043 H   0  0  0  0  0  0  0  0  0  0  0  0
   -2.4202    1.6407   -0.5630 H   0  0  0  0  0  0  0  0  0  0  0  0
   -2.8495    0.2378    0.4131 H   0  0  0  0  0  0  0  0  0  0  0  0
   -0.0901    2.8643   -0.0820 H   0  0  0  0  0  0  0  0  0  0  0  0
   -1.1317    3.4179    1.2383 H   0  0  0  0  0  0  0  0  0  0  0  0
    0.4404    2.7691    1.6159 H   0  0  0  0  0  0  0  0  0  0  0  0
   -3.3861    1.7925    2.3435 H   0  0  0  0  0  0  0  0  0  0  0  0
   -4.4589    1.8847    0.9329 H   0  0  0  0  0  0  0  0  0  0  0  0
   -3.2542    3.1472    1.1972 H   0  0  0  0  0  0  0  0  0  0  0  0
    2.1217   -0.9376    0.0829 N   0  0  0  0  0  0  0  0  0  0  0  0
    3.5352   -1.2333    0.3482 C   0  0  2  0  0  0  0  0  0  0  0  0
    3.8719   -2.6351   -0.2073 C   0  0  0  0  0  0  0  0  0  0  0  0
    2.9733   -3.4475   -0.4319 O   0  0  0  0  0  0  0  0  0  0  0  0
    3.8336   -1.2332    1.8570 C   0  0  0  0  0  0  0  0  0  0  0  0
    1.5547   -1.7559   -0.1184 H   0  0  0  0  0  0  0  0  0  0  0  0
    4.1619   -0.4882   -0.1516 H   0  0  0  0  0  0  0  0  0  0  0  0
    3.1872   -1.9484    2.3757 H   0  0  0  0  0  0  0  0  0  0  0  0
    4.8753   -1.5108    2.0427 H   0  0  0  0  0  0  0  0  0  0  0  0
    3.6687   -0.2428    2.2905 H   0  0  0  0  0  0  0  0  0  0  0  0
    5.1835   -3.0068   -0.4339 N   0  0  0  0  0  0  0  0  0  0  0  0
    5.5735   -4.3243   -0.9218 C   0  0  0  0  0  0  0  0  0  0  0  0
    5.9082   -2.3268   -0.2199 H   0  0  0  0  0  0  0  0  0  0  0  0
    6.6615   -4.3826   -1.0237 H   0  0  0  0  0  0  0  0  0  0  0  0
    5.2498   -5.1034   -0.2235 H   0  0  0  0  0  0  0  0  0  0  0  0
    5.1242   -4.5193   -1.9013 H   0  0  0  0  0  0  0  0  0  0  0  0
  1  2  2  0  0  0  0
  1  3  1  0  0  0  0
  1  7  1  0  0  0  0
  3  4  1  0  0  0  0
  3  5  1  0  0  0  0
  3  6  1  0  0  0  0
  7  8  1  0  0  0  0
  7 12  1  0  0  0  0
  8  9  1  0  0  0  0
  8 11  1  0  0  0  0
  8 13  1  0  0  0  0
  9 10  2  0  0  0  0
  9 17  1  0  0  0  0
 11 14  1  0  0  0  0
 11 15  1  0  0  0  0
 11 16  1  0  0  0  0
 17 18  1  0  0  0  0
 17 25  1  0  0  0  0
 18 19  1  0  0  0  0
 18 21  1  0  0  0  0
 18 26  1  0  0  0  0
 19 20  2  0  0  0  0
 19 36  1  0  0  0  0
 21 22  1  0  0  0  0
 21 23  1  0  0  0  0
 21 27  1  0  0  0  0
 22 24  1  0  0  0  0
 22 28  1  0  0  0  0
 22 29  1  0  0  0  0
 23 30  1  0  0  0  0
 23 31  1  0  0  0  0
 23 32  1  0  0  0  0
 24 33  1  0  0  0  0
 24 34  1  0  0  0  0
 24 35  1  0  0  0  0
 36 37  1  0  0  0  0
 36 41  1  0  0  0  0
 37 38  1  0  0  0  0
 37 40  1  0  0  0  0
 37 42  1  0  0  0  0
 38 39  2  0  0  0  0
 38 46  1  0  0  0  0
 40 43  1  0  0  0  0
 40 44  1  0  0  0  0
 40 45  1  0  0  0  0
 46 47  1  0  0  0  0
 46 48  1  0  0  0  0
 47 49  1  0  0  0  0
 47 50  1  0  0  0  0
 47 51  1  0  0  0  0
M  END
$$$$

  -OEChem-05262216503D

 51 50  0     1  0  0  0  0  0999 V2000
   -0.0392   -4.2137   -0.1117 C   0  0  0  0  0  0  0  0  0  0  0  0
   -1.2070   -3.8559   -0.1666 O   0  0  0  0  0  0  0  0  0  0  0  0
    0.6546   -4.7516   -1.3480 C   0  0  0  0  0  0  0  0  0  0  0  0
   -0.0851   -5.0562   -2.0935 H   0  0  0  0  0  0  0  0  0  0  0  0
    1.2985   -3.9817   -1.7801 H   0  0  0  0  0  0  0  0  0  0  0  0
    1.2666   -5.6182   -1.0857 H   0  0  0  0  0  0  0  0  0  0  0  0
    0.6680   -4.0110    1.0543 N   0  0  0  0  0  0  0  0  0  0  0  0
    0.0859   -3.4674    2.2956 C   0  0  2  0  0  0  0  0  0  0  0  0
   -0.0337   -1.9252    2.2485 C   0  0  0  0  0  0  0  0  0  0  0  0
    0.5755   -1.2165    3.0364 O   0  0  0  0  0  0  0  0  0  0  0  0
    0.9530   -3.9702    3.4559 C   0  0  0  0  0  0  0  0  0  0  0  0
    1.6845   -4.1281    0.9949 H   0  0  0  0  0  0  0  0  0  0  0  0
   -0.9243   -3.8664    2.4366 H   0  0  0  0  0  0  0  0  0  0  0  0
    1.9796   -3.6038    3.3571 H   0  0  0  0  0  0  0  0  0  0  0  0
    0.5505   -3.6192    4.4115 H   0  0  0  0  0  0  0  0  0  0  0  0
    0.9726   -5.0642    3.4706 H   0  0  0  0  0  0  0  0  0  0  0  0
   -0.7214   -1.3577    1.1879 N   0  0  0  0  0  0  0  0  0  0  0  0
   -0.2571   -0.2132    0.3625 C   0  0  2  0  0  0  0  0  0  0  0  0
    1.2661    0.0628    0.5611 C   0  0  0  0  0  0  0  0  0  0  0  0
    1.7671    1.1508    0.8089 O   0  0  0  0  0  0  0  0  0  0  0  0
   -1.2383    0.9750    0.6347 C   0  0  2  0  0  0  0  0  0  0  0  0
   -2.6685    0.5795    0.1652 C   0  0  0  0  0  0  0  0  0  0  0  0
   -0.8302    2.2625   -0.1213 C   0  0  0  0  0  0  0  0  0  0  0  0
   -3.7628    1.5527    0.6213 C   0  0  0  0  0  0  0  0  0  0  0  0
   -1.2385   -2.0678    0.6610 H   0  0  0  0  0  0  0  0  0  0  0  0
   -0.3608   -0.4851   -0.6920 H   0  0  0  0  0  0  0  0  0  0  0  0
   -1.2491    1.1834    1.7104 H   0  0  0  0  0  0  0  0  0  0  0  0
   -2.6900    0.4964   -0.9264 H   0  0  0  0  0  0  0  0  0  0  0  0
   -2.9360   -0.4003    0.5701 H   0  0  0  0  0  0  0  0  0  0  0  0
   -0.5866    2.0343   -1.1636 H   0  0  0  0  0  0  0  0  0  0  0  0
   -1.6263    3.0085   -0.1110 H   0  0  0  0  0  0  0  0  0  0  0  0
    0.0325    2.7415    0.3455 H   0  0  0  0  0  0  0  0  0  0  0  0
   -3.6783    1.7460    1.6954 H   0  0  0  0  0  0  0  0  0  0  0  0
   -4.7478    1.1178    0.4257 H   0  0  0  0  0  0  0  0  0  0  0  0
   -3.7068    2.5035    0.0855 H   0  0  0  0  0  0  0  0  0  0  0  0
    2.1159   -0.9807    0.2374 N   0  0  0  0  0  0  0  0  0  0  0  0
    3.5536   -1.0482    0.5323 C   0  0  2  0  0  0  0  0  0  0  0  0
    4.1042   -2.4316    0.1259 C   0  0  0  0  0  0  0  0  0  0  0  0
    3.3504   -3.4035    0.0676 O   0  0  0  0  0  0  0  0  0  0  0  0
    3.8257   -0.8538    2.0332 C   0  0  0  0  0  0  0  0  0  0  0  0
    1.6555   -1.8772    0.1020 H   0  0  0  0  0  0  0  0  0  0  0  0
    4.0748   -0.2730   -0.0383 H   0  0  0  0  0  0  0  0  0  0  0  0
    3.2814   -1.5993    2.6205 H   0  0  0  0  0  0  0  0  0  0  0  0
    4.8939   -0.9575    2.2455 H   0  0  0  0  0  0  0  0  0  0  0  0
    3.5129    0.1398    2.3661 H   0  0  0  0  0  0  0  0  0  0  0  0
    5.4487   -2.6020   -0.1438 N   0  0  0  0  0  0  0  0  0  0  0  0
    6.0410   -3.8849   -0.5019 C   0  0  0  0  0  0  0  0  0  0  0  0
    6.0510   -1.7868   -0.0650 H   0  0  0  0  0  0  0  0  0  0  0  0
    5.8528   -4.6271    0.2810 H   0  0  0  0  0  0  0  0  0  0  0  0
    5.6202   -4.2505   -1.4443 H   0  0  0  0  0  0  0  0  0  0  0  0
    7.1234   -3.7805   -0.6240 H   0  0  0  0  0  0  0  0  0  0  0  0
  1  2  2  0  0  0  0
  1  3  1  0  0  0  0
  1  7  1  0  0  0  0
  3  4  1  0  0  0  0
  3  5  1  0  0  0  0
  3  6  1  0  0  0  0
  7  8  1  0  0  0  0
  7 12  1  0  0  0  0
  8  9  1  0  0  0  0
  8 11  1  0  0  0  0
  8 13  1  0  0  0  0
  9 10  2  0  0  0  0
  9 17  1  0  0  0  0
 11 14  1  0  0  0  0
 11 15  1  0  0  0  0
 11 16  1  0  0  0  0
 17 18  1  0  0  0  0
 17 25  1  0  0  0  0
 18 19  1  0  0  0  0
 18 21  1  0  0  0  0
 18 26  1  0  0  0  0
 19 20  2  0  0  0  0
 19 36  1  0  0  0  0
 21 22  1  0  0  0  0
 21 23  1  0  0  0  0
 21 27  1  0  0  0  0
 22 24  1  0  0  0  0
 22 28  1  0  0  0  0
 22 29  1  0  0  0  0
 23 30  1  0  0  0  0
 23 31  1  0  0  0  0
 23 32  1  0  0  0  0
 24 33  1  0  0  0  0
 24 34  1  0  0  0  0
 24 35  1  0  0  0  0
 36 37  1  0  0  0  0
 36 41  1  0  0  0  0
 37 38  1  0  0  0  0
 37 40  1  0  0  0  0
 37 42  1  0  0  0  0
 38 39  2  0  0  0  0
 38 46  1  0  0  0  0
 40 43  1  0  0  0  0
 40 44  1  0  0  0  0
 40 45  1  0  0  0  0
 46 47  1  0  0  0  0
 46 48  1  0  0  0  0
 47 49  1  0  0  0  0
 47 50  1  0  0  0  0
 47 51  1  0  0  0  0
M  END
$$$$

  -OEChem-05262216503D

 51 50  0     1  0  0  0  0  0999 V2000
   -1.3212   -4.7042    0.5566 C   0  0  0  0  0  0  0  0  0  0  0  0
   -2.1085   -3.7805    0.4125 O   0  0  0  0  0  0  0  0  0  0  0  0
   -1.3076   -5.8592   -0.4267 C   0  0  0  0  0  0  0  0  0  0  0  0
   -2.1562   -5.7802   -1.1124 H   0  0  0  0  0  0  0  0  0  0  0  0
   -0.3825   -5.8442   -1.0085 H   0  0  0  0  0  0  0  0  0  0  0  0
   -1.3772   -6.8090    0.1095 H   0  0  0  0  0  0  0  0  0  0  0  0
   -0.4032   -4.6587    1.5860 N   0  0  0  0  0  0  0  0  0  0  0  0
   -0.3388   -3.5872    2.5939 C   0  0  2  0  0  0  0  0  0  0  0  0
    0.3449   -2.3028    2.0600 C   0  0  0  0  0  0  0  0  0  0  0  0
    1.3755   -1.8959    2.5731 O   0  0  0  0  0  0  0  0  0  0  0  0
    0.3581   -4.1703    3.8308 C   0  0  0  0  0  0  0  0  0  0  0  0
    0.2836   -5.4063    1.6321 H   0  0  0  0  0  0  0  0  0  0  0  0
   -1.3549   -3.3054    2.8908 H   0  0  0  0  0  0  0  0  0  0  0  0
    1.3839   -4.4690    3.5915 H   0  0  0  0  0  0  0  0  0  0  0  0
    0.3942   -3.4245    4.6317 H   0  0  0  0  0  0  0  0  0  0  0  0
   -0.1858   -5.0452    4.1996 H   0  0  0  0  0  0  0  0  0  0  0  0
   -0.2400   -1.6687    0.9742 N   0  0  0  0  0  0  0  0  0  0  0  0
    0.1229   -0.4159    0.2672 C   0  0  2  0  0  0  0  0  0  0  0  0
    1.5541    0.1065    0.5905 C   0  0  0  0  0  0  0  0  0  0  0  0
    1.7752    1.0890    1.2902 O   0  0  0  0  0  0  0  0  0  0  0  0
   -1.0348    0.6098    0.4962 C   0  0  2  0  0  0  0  0  0  0  0  0
   -2.3484    0.0651   -0.1347 C   0  0  0  0  0  0  0  0  0  0  0  0
   -0.7404    1.9767   -0.1714 C   0  0  0  0  0  0  0  0  0  0  0  0
   -3.5971    0.8617    0.2615 C   0  0  0  0  0  0  0  0  0  0  0  0
   -1.0877   -2.1410    0.6478 H   0  0  0  0  0  0  0  0  0  0  0  0
    0.1474   -0.6379   -0.8038 H   0  0  0  0  0  0  0  0  0  0  0  0
   -1.1679    0.7571    1.5739 H   0  0  0  0  0  0  0  0  0  0  0  0
   -2.2598    0.0472   -1.2259 H   0  0  0  0  0  0  0  0  0  0  0  0
   -2.5207   -0.9635    0.1927 H   0  0  0  0  0  0  0  0  0  0  0  0
   -0.5035    1.8417   -1.2314 H   0  0  0  0  0  0  0  0  0  0  0  0
   -1.5960    2.6499   -0.0919 H   0  0  0  0  0  0  0  0  0  0  0  0
    0.0932    2.4950    0.3049 H   0  0  0  0  0  0  0  0  0  0  0  0
   -3.6444    0.9834    1.3481 H   0  0  0  0  0  0  0  0  0  0  0  0
   -4.4944    0.3274   -0.0650 H   0  0  0  0  0  0  0  0  0  0  0  0
   -3.6087    1.8496   -0.2059 H   0  0  0  0  0  0  0  0  0  0  0  0
    2.6350   -0.5461    0.0269 N   0  0  0  0  0  0  0  0  0  0  0  0
    4.0418   -0.2250    0.2906 C   0  0  2  0  0  0  0  0  0  0  0  0
    4.9678   -0.7934   -0.8041 C   0  0  0  0  0  0  0  0  0  0  0  0
    4.5719   -1.6746   -1.5613 O   0  0  0  0  0  0  0  0  0  0  0  0
    4.4342   -0.7935    1.6597 C   0  0  0  0  0  0  0  0  0  0  0  0
    2.4460   -1.4031   -0.4877 H   0  0  0  0  0  0  0  0  0  0  0  0
    4.1672    0.8625    0.3012 H   0  0  0  0  0  0  0  0  0  0  0  0
    4.2955   -1.8792    1.6767 H   0  0  0  0  0  0  0  0  0  0  0  0
    5.4810   -0.5700    1.8848 H   0  0  0  0  0  0  0  0  0  0  0  0
    3.8132   -0.3554    2.4478 H   0  0  0  0  0  0  0  0  0  0  0  0
    6.2565   -0.3117   -0.9440 N   0  0  0  0  0  0  0  0  0  0  0  0
    7.1877   -0.7928   -1.9569 C   0  0  0  0  0  0  0  0  0  0  0  0
    6.5547    0.4214   -0.3070 H   0  0  0  0  0  0  0  0  0  0  0  0
    8.1309   -0.2413   -1.8963 H   0  0  0  0  0  0  0  0  0  0  0  0
    7.3986   -1.8571   -1.8085 H   0  0  0  0  0  0  0  0  0  0  0  0
    6.7700   -0.6523   -2.9594 H   0  0  0  0  0  0  0  0  0  0  0  0
  1  2  2  0  0  0  0
  1  3  1  0  0  0  0
  1  7  1  0  0  0  0
  3  4  1  0  0  0  0
  3  5  1  0  0  0  0
  3  6  1  0  0  0  0
  7  8  1  0  0  0  0
  7 12  1  0  0  0  0
  8  9  1  0  0  0  0
  8 11  1  0  0  0  0
  8 13  1  0  0  0  0
  9 10  2  0  0  0  0
  9 17  1  0  0  0  0
 11 14  1  0  0  0  0
 11 15  1  0  0  0  0
 11 16  1  0  0  0  0
 17 18  1  0  0  0  0
 17 25  1  0  0  0  0
 18 19  1  0  0  0  0
 18 21  1  0  0  0  0
 18 26  1  0  0  0  0
 19 20  2  0  0  0  0
 19 36  1  0  0  0  0
 21 22  1  0  0  0  0
 21 23  1  0  0  0  0
 21 27  1  0  0  0  0
 22 24  1  0  0  0  0
 22 28  1  0  0  0  0
 22 29  1  0  0  0  0
 23 30  1  0  0  0  0
 23 31  1  0  0  0  0
 23 32  1  0  0  0  0
 24 33  1  0  0  0  0
 24 34  1  0  0  0  0
 24 35  1  0  0  0  0
 36 37  1  0  0  0  0
 36 41  1  0  0  0  0
 37 38  1  0  0  0  0
 37 40  1  0  0  0  0
 37 42  1  0  0  0  0
 38 39  2  0  0  0  0
 38 46  1  0  0  0  0
 40 43  1  0  0  0  0
 40 44  1  0  0  0  0
 40 45  1  0  0  0  0
 46 47  1  0  0  0  0
 46 48  1  0  0  0  0
 47 49  1  0  0  0  0
 47 50  1  0  0  0  0
 47 51  1  0  0  0  0
M  END
$$$$

  -OEChem-05262216503D

 51 50  0     1  0  0  0  0  0999 V2000
   -0.0568   -5.7868    0.8933 C   0  0  0  0  0  0  0  0  0  0  0  0
   -0.8755   -5.6205    0.0020 O   0  0  0  0  0  0  0  0  0  0  0  0
    0.9739   -6.8944    0.7843 C   0  0  0  0  0  0  0  0  0  0  0  0
    0.8048   -7.4799   -0.1237 H   0  0  0  0  0  0  0  0  0  0  0  0
    1.9782   -6.4651    0.7446 H   0  0  0  0  0  0  0  0  0  0  0  0
    0.9020   -7.5576    1.6497 H   0  0  0  0  0  0  0  0  0  0  0  0
   -0.0379   -4.9423    1.9839 N   0  0  0  0  0  0  0  0  0  0  0  0
   -0.7809   -3.6756    2.0111 C   0  0  2  0  0  0  0  0  0  0  0  0
    0.0768   -2.5064    1.4835 C   0  0  0  0  0  0  0  0  0  0  0  0
    1.2517   -2.4493    1.8169 O   0  0  0  0  0  0  0  0  0  0  0  0
   -1.2165   -3.4107    3.4539 C   0  0  0  0  0  0  0  0  0  0  0  0
    0.8041   -4.9842    2.5533 H   0  0  0  0  0  0  0  0  0  0  0  0
   -1.6827   -3.7510    1.3948 H   0  0  0  0  0  0  0  0  0  0  0  0
   -0.3437   -3.3189    4.1088 H   0  0  0  0  0  0  0  0  0  0  0  0
   -1.7924   -2.4818    3.5127 H   0  0  0  0  0  0  0  0  0  0  0  0
   -1.8426   -4.2310    3.8185 H   0  0  0  0  0  0  0  0  0  0  0  0
   -0.4999   -1.5893    0.6163 N   0  0  0  0  0  0  0  0  0  0  0  0
   -0.0191   -0.2481    0.2000 C   0  0  2  0  0  0  0  0  0  0  0  0
    1.4738    0.0451    0.5277 C   0  0  0  0  0  0  0  0  0  0  0  0
    1.8152    0.6195    1.5571 O   0  0  0  0  0  0  0  0  0  0  0  0
   -1.0135    0.8174    0.7613 C   0  0  2  0  0  0  0  0  0  0  0  0
   -2.4225    0.6090    0.1397 C   0  0  0  0  0  0  0  0  0  0  0  0
   -0.5624    2.2588    0.4199 C   0  0  0  0  0  0  0  0  0  0  0  0
   -3.5177    1.4321    0.8272 C   0  0  0  0  0  0  0  0  0  0  0  0
   -1.4599   -1.8079    0.3694 H   0  0  0  0  0  0  0  0  0  0  0  0
   -0.0802   -0.2037   -0.8914 H   0  0  0  0  0  0  0  0  0  0  0  0
   -1.0651    0.7092    1.8507 H   0  0  0  0  0  0  0  0  0  0  0  0
   -2.3997    0.8530   -0.9278 H   0  0  0  0  0  0  0  0  0  0  0  0
   -2.7172   -0.4398    0.2260 H   0  0  0  0  0  0  0  0  0  0  0  0
   -0.4662    2.3845   -0.6632 H   0  0  0  0  0  0  0  0  0  0  0  0
   -1.2796    2.9938    0.7917 H   0  0  0  0  0  0  0  0  0  0  0  0
    0.3956    2.5076    0.8805 H   0  0  0  0  0  0  0  0  0  0  0  0
   -3.4909    1.2779    1.9104 H   0  0  0  0  0  0  0  0  0  0  0  0
   -4.5001    1.1219    0.4588 H   0  0  0  0  0  0  0  0  0  0  0  0
   -3.4043    2.4994    0.6199 H   0  0  0  0  0  0  0  0  0  0  0  0
    2.4466   -0.2760   -0.4007 N   0  0  0  0  0  0  0  0  0  0  0  0
    3.8881   -0.0835   -0.2057 C   0  0  2  0  0  0  0  0  0  0  0  0
    4.6439   -0.0213   -1.5493 C   0  0  0  0  0  0  0  0  0  0  0  0
    4.0959   -0.3719   -2.5894 O   0  0  0  0  0  0  0  0  0  0  0  0
    4.4190   -1.2369    0.6532 C   0  0  0  0  0  0  0  0  0  0  0  0
    2.1552   -0.7665   -1.2437 H   0  0  0  0  0  0  0  0  0  0  0  0
    4.0618    0.8647    0.3139 H   0  0  0  0  0  0  0  0  0  0  0  0
    4.2388   -2.1959    0.1575 H   0  0  0  0  0  0  0  0  0  0  0  0
    5.4936   -1.1281    0.8255 H   0  0  0  0  0  0  0  0  0  0  0  0
    3.9153   -1.2506    1.6253 H   0  0  0  0  0  0  0  0  0  0  0  0
    5.9462    0.4421   -1.5963 N   0  0  0  0  0  0  0  0  0  0  0  0
    6.7183    0.5419   -2.8290 C   0  0  0  0  0  0  0  0  0  0  0  0
    6.3711    0.7377   -0.7221 H   0  0  0  0  0  0  0  0  0  0  0  0
    6.7928   -0.4365   -3.3154 H   0  0  0  0  0  0  0  0  0  0  0  0
    6.2440    1.2451   -3.5217 H   0  0  0  0  0  0  0  0  0  0  0  0
    7.7308    0.8970   -2.6140 H   0  0  0  0  0  0  0  0  0  0  0  0
  1  2  2  0  0  0  0
  1  3  1  0  0  0  0
  1  7  1  0  0  0  0
  3  4  1  0  0  0  0
  3  5  1  0  0  0  0
  3  6  1  0  0  0  0
  7  8  1  0  0  0  0
  7 12  1  0  0  0  0
  8  9  1  0  0  0  0
  8 11  1  0  0  0  0
  8 13  1  0  0  0  0
  9 10  2  0  0  0  0
  9 17  1  0  0  0  0
 11 14  1  0  0  0  0
 11 15  1  0  0  0  0
 11 16  1  0  0  0  0
 17 18  1  0  0  0  0
 17 25  1  0  0  0  0
 18 19  1  0  0  0  0
 18 21  1  0  0  0  0
 18 26  1  0  0  0  0
 19 20  2  0  0  0  0
 19 36  1  0  0  0  0
 21 22  1  0  0  0  0
 21 23  1  0  0  0  0
 21 27  1  0  0  0  0
 22 24  1  0  0  0  0
 22 28  1  0  0  0  0
 22 29  1  0  0  0  0
 23 30  1  0  0  0  0
 23 31  1  0  0  0  0
 23 32  1  0  0  0  0
 24 33  1  0  0  0  0
 24 34  1  0  0  0  0
 24 35  1  0  0  0  0
 36 37  1  0  0  0  0
 36 41  1  0  0  0  0
 37 38  1  0  0  0  0
 37 40  1  0  0  0  0
 37 42  1  0  0  0  0
 38 39  2  0  0  0  0
 38 46  1  0  0  0  0
 40 43  1  0  0  0  0
 40 44  1  0  0  0  0
 40 45  1  0  0  0  0
 46 47  1  0  0  0  0
 46 48  1  0  0  0  0
 47 49  1  0  0  0  0
 47 50  1  0  0  0  0
 47 51  1  0  0  0  0
M  END
$$$$

  -OEChem-05262216503D

 51 50  0     1  0  0  0  0  0999 V2000
   -0.1837   -5.9628    1.0556 C   0  0  0  0  0  0  0  0  0  0  0  0
   -1.1252   -5.9086    0.2793 O   0  0  0  0  0  0  0  0  0  0  0  0
    0.7912   -7.1229    0.9848 C   0  0  0  0  0  0  0  0  0  0  0  0
    0.4607   -7.8487    0.2366 H   0  0  0  0  0  0  0  0  0  0  0  0
    1.7836   -6.7588    0.7081 H   0  0  0  0  0  0  0  0  0  0  0  0
    0.8510   -7.6210    1.9553 H   0  0  0  0  0  0  0  0  0  0  0  0
    0.0159   -4.9597    1.9815 N   0  0  0  0  0  0  0  0  0  0  0  0
   -0.6888   -3.6713    1.9275 C   0  0  2  0  0  0  0  0  0  0  0  0
    0.1756   -2.5762    1.2680 C   0  0  0  0  0  0  0  0  0  0  0  0
    1.3887   -2.6091    1.4251 O   0  0  0  0  0  0  0  0  0  0  0  0
   -1.0492   -3.2726    3.3600 C   0  0  0  0  0  0  0  0  0  0  0  0
    0.9332   -4.9498    2.4225 H   0  0  0  0  0  0  0  0  0  0  0  0
   -1.6182   -3.7655    1.3564 H   0  0  0  0  0  0  0  0  0  0  0  0
   -0.1442   -3.1574    3.9659 H   0  0  0  0  0  0  0  0  0  0  0  0
   -1.5944   -2.3235    3.3667 H   0  0  0  0  0  0  0  0  0  0  0  0
   -1.6820   -4.0391    3.8184 H   0  0  0  0  0  0  0  0  0  0  0  0
   -0.4309   -1.6424    0.4401 N   0  0  0  0  0  0  0  0  0  0  0  0
    0.0284   -0.2715    0.1070 C   0  0  2  0  0  0  0  0  0  0  0  0
    1.5074    0.0424    0.4696 C   0  0  0  0  0  0  0  0  0  0  0  0
    1.8207    0.4090    1.5985 O   0  0  0  0  0  0  0  0  0  0  0  0
   -0.9830    0.7423    0.7275 C   0  0  2  0  0  0  0  0  0  0  0  0
   -2.3887    0.5557    0.0932 C   0  0  0  0  0  0  0  0  0  0  0  0
   -0.5383    2.2056    0.4924 C   0  0  0  0  0  0  0  0  0  0  0  0
   -3.4926    1.3224    0.8302 C   0  0  0  0  0  0  0  0  0  0  0  0
   -1.4254   -1.8027    0.3180 H   0  0  0  0  0  0  0  0  0  0  0  0
   -0.0284   -0.1658   -0.9805 H   0  0  0  0  0  0  0  0  0  0  0  0
   -1.0384    0.5610    1.8071 H   0  0  0  0  0  0  0  0  0  0  0  0
   -2.3677    0.8689   -0.9562 H   0  0  0  0  0  0  0  0  0  0  0  0
   -2.6717   -0.4998    0.1110 H   0  0  0  0  0  0  0  0  0  0  0  0
   -0.4439    2.4110   -0.5785 H   0  0  0  0  0  0  0  0  0  0  0  0
   -1.2578    2.9086    0.9181 H   0  0  0  0  0  0  0  0  0  0  0  0
    0.4211    2.4185    0.9699 H   0  0  0  0  0  0  0  0  0  0  0  0
   -3.4694    1.0936    1.9003 H   0  0  0  0  0  0  0  0  0  0  0  0
   -4.4715    1.0324    0.4363 H   0  0  0  0  0  0  0  0  0  0  0  0
   -3.3853    2.4022    0.6978 H   0  0  0  0  0  0  0  0  0  0  0  0
    2.4610    0.1001   -0.5293 N   0  0  0  0  0  0  0  0  0  0  0  0
    3.8807    0.4035   -0.3170 C   0  0  2  0  0  0  0  0  0  0  0  0
    4.5698    0.8346   -1.6288 C   0  0  0  0  0  0  0  0  0  0  0  0
    4.0039    0.6802   -2.7065 O   0  0  0  0  0  0  0  0  0  0  0  0
    4.5663   -0.8412    0.2607 C   0  0  0  0  0  0  0  0  0  0  0  0
    2.1856   -0.1812   -1.4683 H   0  0  0  0  0  0  0  0  0  0  0  0
    3.9727    1.2316    0.3936 H   0  0  0  0  0  0  0  0  0  0  0  0
    4.4794   -1.6821   -0.4346 H   0  0  0  0  0  0  0  0  0  0  0  0
    5.6269   -0.6473    0.4447 H   0  0  0  0  0  0  0  0  0  0  0  0
    4.1013   -1.1291    1.2094 H   0  0  0  0  0  0  0  0  0  0  0  0
    5.8288    1.4067   -1.6049 N   0  0  0  0  0  0  0  0  0  0  0  0
    6.5303    1.8483   -2.8043 C   0  0  0  0  0  0  0  0  0  0  0  0
    6.2712    1.5331   -0.6992 H   0  0  0  0  0  0  0  0  0  0  0  0
    6.6659    1.0129   -3.4993 H   0  0  0  0  0  0  0  0  0  0  0  0
    5.9646    2.6380   -3.3096 H   0  0  0  0  0  0  0  0  0  0  0  0
    7.5169    2.2428   -2.5428 H   0  0  0  0  0  0  0  0  0  0  0  0
  1  2  2  0  0  0  0
  1  3  1  0  0  0  0
  1  7  1  0  0  0  0
  3  4  1  0  0  0  0
  3  5  1  0  0  0  0
  3  6  1  0  0  0  0
  7  8  1  0  0  0  0
  7 12  1  0  0  0  0
  8  9  1  0  0  0  0
  8 11  1  0  0  0  0
  8 13  1  0  0  0  0
  9 10  2  0  0  0  0
  9 17  1  0  0  0  0
 11 14  1  0  0  0  0
 11 15  1  0  0  0  0
 11 16  1  0  0  0  0
 17 18  1  0  0  0  0
 17 25  1  0  0  0  0
 18 19  1  0  0  0  0
 18 21  1  0  0  0  0
 18 26  1  0  0  0  0
 19 20  2  0  0  0  0
 19 36  1  0  0  0  0
 21 22  1  0  0  0  0
 21 23  1  0  0  0  0
 21 27  1  0  0  0  0
 22 24  1  0  0  0  0
 22 28  1  0  0  0  0
 22 29  1  0  0  0  0
 23 30  1  0  0  0  0
 23 31  1  0  0  0  0
 23 32  1  0  0  0  0
 24 33  1  0  0  0  0
 24 34  1  0  0  0  0
 24 35  1  0  0  0  0
 36 37  1  0  0  0  0
 36 41  1  0  0  0  0
 37 38  1  0  0  0  0
 37 40  1  0  0  0  0
 37 42  1  0  0  0  0
 38 39  2  0  0  0  0
 38 46  1  0  0  0  0
 40 43  1  0  0  0  0
 40 44  1  0  0  0  0
 40 45  1  0  0  0  0
 46 47  1  0  0  0  0
 46 48  1  0  0  0  0
 47 49  1  0  0  0  0
 47 50  1  0  0  0  0
 47 51  1  0  0  0  0
M  END
$$$$

  -OEChem-05262216503D

 51 50  0     1  0  0  0  0  0999 V2000
   -0.5064   -5.9656    1.1612 C   0  0  0  0  0  0  0  0  0  0  0  0
   -1.5033   -5.7804    0.4795 O   0  0  0  0  0  0  0  0  0  0  0  0
    0.2954   -7.2434    1.0024 C   0  0  0  0  0  0  0  0  0  0  0  0
   -0.1854   -7.9035    0.2749 H   0  0  0  0  0  0  0  0  0  0  0  0
    1.3033   -7.0080    0.6516 H   0  0  0  0  0  0  0  0  0  0  0  0
    0.3622   -7.7644    1.9606 H   0  0  0  0  0  0  0  0  0  0  0  0
   -0.0824   -5.0008    2.0515 N   0  0  0  0  0  0  0  0  0  0  0  0
   -0.6062   -3.6285    2.0380 C   0  0  2  0  0  0  0  0  0  0  0  0
    0.2769   -2.6924    1.1879 C   0  0  0  0  0  0  0  0  0  0  0  0
    1.4924   -2.8373    1.2063 O   0  0  0  0  0  0  0  0  0  0  0  0
   -0.6680   -3.1275    3.4825 C   0  0  0  0  0  0  0  0  0  0  0  0
    0.8677   -5.1149    2.3977 H   0  0  0  0  0  0  0  0  0  0  0  0
   -1.6221   -3.6111    1.6300 H   0  0  0  0  0  0  0  0  0  0  0  0
    0.3310   -3.1230    3.9313 H   0  0  0  0  0  0  0  0  0  0  0  0
   -1.0655   -2.1080    3.5156 H   0  0  0  0  0  0  0  0  0  0  0  0
   -1.3179   -3.7732    4.0811 H   0  0  0  0  0  0  0  0  0  0  0  0
   -0.3186   -1.7906    0.3208 N   0  0  0  0  0  0  0  0  0  0  0  0
    0.1590   -0.4247   -0.0009 C   0  0  2  0  0  0  0  0  0  0  0  0
    1.6193   -0.0969    0.4184 C   0  0  0  0  0  0  0  0  0  0  0  0
    1.8961    0.1149    1.5958 O   0  0  0  0  0  0  0  0  0  0  0  0
   -0.8641    0.5973    0.5819 C   0  0  2  0  0  0  0  0  0  0  0  0
   -2.2494    0.4212   -0.0959 C   0  0  0  0  0  0  0  0  0  0  0  0
   -0.3907    2.0547    0.3732 C   0  0  0  0  0  0  0  0  0  0  0  0
   -3.3677    1.2001    0.6050 C   0  0  0  0  0  0  0  0  0  0  0  0
   -1.3256   -1.9060    0.2713 H   0  0  0  0  0  0  0  0  0  0  0  0
    0.1402   -0.3282   -1.0903 H   0  0  0  0  0  0  0  0  0  0  0  0
   -0.9589    0.4146    1.6581 H   0  0  0  0  0  0  0  0  0  0  0  0
   -2.1906    0.7342   -1.1437 H   0  0  0  0  0  0  0  0  0  0  0  0
   -2.5416   -0.6320   -0.0882 H   0  0  0  0  0  0  0  0  0  0  0  0
   -0.2343    2.2597   -0.6906 H   0  0  0  0  0  0  0  0  0  0  0  0
   -1.1237    2.7667    0.7595 H   0  0  0  0  0  0  0  0  0  0  0  0
    0.5440    2.2515    0.9053 H   0  0  0  0  0  0  0  0  0  0  0  0
   -3.3755    0.9791    1.6768 H   0  0  0  0  0  0  0  0  0  0  0  0
   -4.3371    0.9149    0.1856 H   0  0  0  0  0  0  0  0  0  0  0  0
   -3.2484    2.2780    0.4681 H   0  0  0  0  0  0  0  0  0  0  0  0
    2.5448    0.2625   -0.5436 N   0  0  0  0  0  0  0  0  0  0  0  0
    3.8759    0.8136   -0.2659 C   0  0  2  0  0  0  0  0  0  0  0  0
    4.3781    1.6876   -1.4342 C   0  0  0  0  0  0  0  0  0  0  0  0
    3.7775    1.6943   -2.5042 O   0  0  0  0  0  0  0  0  0  0  0  0
    4.8359   -0.3523   -0.0079 C   0  0  0  0  0  0  0  0  0  0  0  0
    2.2616    0.2146   -1.5208 H   0  0  0  0  0  0  0  0  0  0  0  0
    3.8319    1.4498    0.6245 H   0  0  0  0  0  0  0  0  0  0  0  0
    4.9019   -0.9952   -0.8914 H   0  0  0  0  0  0  0  0  0  0  0  0
    5.8372    0.0177    0.2311 H   0  0  0  0  0  0  0  0  0  0  0  0
    4.4819   -0.9561    0.8345 H   0  0  0  0  0  0  0  0  0  0  0  0
    5.4955    2.4881   -1.2825 N   0  0  0  0  0  0  0  0  0  0  0  0
    6.0082    3.3553   -2.3363 C   0  0  0  0  0  0  0  0  0  0  0  0
    5.9674    2.4716   -0.3830 H   0  0  0  0  0  0  0  0  0  0  0  0
    6.3095    2.7636   -3.2071 H   0  0  0  0  0  0  0  0  0  0  0  0
    5.2431    4.0748   -2.6465 H   0  0  0  0  0  0  0  0  0  0  0  0
    6.8797    3.9116   -1.9782 H   0  0  0  0  0  0  0  0  0  0  0  0
  1  2  2  0  0  0  0
  1  3  1  0  0  0  0
  1  7  1  0  0  0  0
  3  4  1  0  0  0  0
  3  5  1  0  0  0  0
  3  6  1  0  0  0  0
  7  8  1  0  0  0  0
  7 12  1  0  0  0  0
  8  9  1  0  0  0  0
  8 11  1  0  0  0  0
  8 13  1  0  0  0  0
  9 10  2  0  0  0  0
  9 17  1  0  0  0  0
 11 14  1  0  0  0  0
 11 15  1  0  0  0  0
 11 16  1  0  0  0  0
 17 18  1  0  0  0  0
 17 25  1  0  0  0  0
 18 19  1  0  0  0  0
 18 21  1  0  0  0  0
 18 26  1  0  0  0  0
 19 20  2  0  0  0  0
 19 36  1  0  0  0  0
 21 22  1  0  0  0  0
 21 23  1  0  0  0  0
 21 27  1  0  0  0  0
 22 24  1  0  0  0  0
 22 28  1  0  0  0  0
 22 29  1  0  0  0  0
 23 30  1  0  0  0  0
 23 31  1  0  0  0  0
 23 32  1  0  0  0  0
 24 33  1  0  0  0  0
 24 34  1  0  0  0  0
 24 35  1  0  0  0  0
 36 37  1  0  0  0  0
 36 41  1  0  0  0  0
 37 38  1  0  0  0  0
 37 40  1  0  0  0  0
 37 42  1  0  0  0  0
 38 39  2  0  0  0  0
 38 46  1  0  0  0  0
 40 43  1  0  0  0  0
 40 44  1  0  0  0  0
 40 45  1  0  0  0  0
 46 47  1  0  0  0  0
 46 48  1  0  0  0  0
 47 49  1  0  0  0  0
 47 50  1  0  0  0  0
 47 51  1  0  0  0  0
M  END
$$$$

  -OEChem-05262216503D

 51 50  0     1  0  0  0  0  0999 V2000
   -0.6902   -5.9325    1.2804 C   0  0  0  0  0  0  0  0  0  0  0  0
   -1.7578   -5.6842    0.7407 O   0  0  0  0  0  0  0  0  0  0  0  0
   -0.0621   -7.3047    1.1265 C   0  0  0  0  0  0  0  0  0  0  0  0
   -0.7324   -7.9664    0.5710 H   0  0  0  0  0  0  0  0  0  0  0  0
    0.8826   -7.2230    0.5831 H   0  0  0  0  0  0  0  0  0  0  0  0
    0.1271   -7.7408    2.1104 H   0  0  0  0  0  0  0  0  0  0  0  0
   -0.0367   -4.9619    2.0110 N   0  0  0  0  0  0  0  0  0  0  0  0
   -0.4230   -3.5455    1.9752 C   0  0  2  0  0  0  0  0  0  0  0  0
    0.4148   -2.7540    0.9523 C   0  0  0  0  0  0  0  0  0  0  0  0
    1.6057   -3.0067    0.8136 O   0  0  0  0  0  0  0  0  0  0  0  0
   -0.2249   -2.9619    3.3748 C   0  0  0  0  0  0  0  0  0  0  0  0
    0.9386   -5.1569    2.2263 H   0  0  0  0  0  0  0  0  0  0  0  0
   -1.4803   -3.4419    1.7116 H   0  0  0  0  0  0  0  0  0  0  0  0
    0.8269   -3.0275    3.6722 H   0  0  0  0  0  0  0  0  0  0  0  0
   -0.5229   -1.9087    3.3934 H   0  0  0  0  0  0  0  0  0  0  0  0
   -0.8309   -3.5086    4.1037 H   0  0  0  0  0  0  0  0  0  0  0  0
   -0.1967   -1.8669    0.0840 N   0  0  0  0  0  0  0  0  0  0  0  0
    0.2655   -0.4810   -0.1632 C   0  0  2  0  0  0  0  0  0  0  0  0
    1.6988   -0.1381    0.3329 C   0  0  0  0  0  0  0  0  0  0  0  0
    1.9479   -0.1400    1.5353 O   0  0  0  0  0  0  0  0  0  0  0  0
   -0.7996    0.4923    0.4290 C   0  0  2  0  0  0  0  0  0  0  0  0
   -2.1579    0.3195   -0.3026 C   0  0  0  0  0  0  0  0  0  0  0  0
   -0.3480    1.9665    0.3147 C   0  0  0  0  0  0  0  0  0  0  0  0
   -3.3159    1.0424    0.3932 C   0  0  0  0  0  0  0  0  0  0  0  0
   -1.2073   -1.9587    0.1043 H   0  0  0  0  0  0  0  0  0  0  0  0
    0.2875   -0.3404   -1.2479 H   0  0  0  0  0  0  0  0  0  0  0  0
   -0.9286    0.2549    1.4912 H   0  0  0  0  0  0  0  0  0  0  0  0
   -2.0712    0.6808   -1.3327 H   0  0  0  0  0  0  0  0  0  0  0  0
   -2.4286   -0.7382   -0.3521 H   0  0  0  0  0  0  0  0  0  0  0  0
   -0.1522    2.2294   -0.7299 H   0  0  0  0  0  0  0  0  0  0  0  0
   -1.1095    2.6451    0.7057 H   0  0  0  0  0  0  0  0  0  0  0  0
    0.5601    2.1495    0.8962 H   0  0  0  0  0  0  0  0  0  0  0  0
   -3.3649    0.7599    1.4494 H   0  0  0  0  0  0  0  0  0  0  0  0
   -4.2627    0.7677   -0.0818 H   0  0  0  0  0  0  0  0  0  0  0  0
   -3.2084    2.1279    0.3223 H   0  0  0  0  0  0  0  0  0  0  0  0
    2.5563    0.5628   -0.4954 N   0  0  0  0  0  0  0  0  0  0  0  0
    3.7837    1.2404   -0.0616 C   0  0  2  0  0  0  0  0  0  0  0  0
    4.1266    2.4239   -0.9905 C   0  0  0  0  0  0  0  0  0  0  0  0
    3.4927    2.5998   -2.0264 O   0  0  0  0  0  0  0  0  0  0  0  0
    4.9201    0.2131   -0.0415 C   0  0  0  0  0  0  0  0  0  0  0  0
    2.2519    0.7401   -1.4512 H   0  0  0  0  0  0  0  0  0  0  0  0
    3.6466    1.6463    0.9462 H   0  0  0  0  0  0  0  0  0  0  0  0
    5.0797   -0.2002   -1.0425 H   0  0  0  0  0  0  0  0  0  0  0  0
    5.8520    0.6735    0.2994 H   0  0  0  0  0  0  0  0  0  0  0  0
    4.6741   -0.6090    0.6387 H   0  0  0  0  0  0  0  0  0  0  0  0
    5.1325    3.3116   -0.6556 N   0  0  0  0  0  0  0  0  0  0  0  0
    5.4969    4.4569   -1.4809 C   0  0  0  0  0  0  0  0  0  0  0  0
    5.6354    3.1479    0.2119 H   0  0  0  0  0  0  0  0  0  0  0  0
    5.8058    4.1279   -2.4787 H   0  0  0  0  0  0  0  0  0  0  0  0
    4.6478    5.1408   -1.5827 H   0  0  0  0  0  0  0  0  0  0  0  0
    6.3283    5.0029   -1.0247 H   0  0  0  0  0  0  0  0  0  0  0  0
  1  2  2  0  0  0  0
  1  3  1  0  0  0  0
  1  7  1  0  0  0  0
  3  4  1  0  0  0  0
  3  5  1  0  0  0  0
  3  6  1  0  0  0  0
  7  8  1  0  0  0  0
  7 12  1  0  0  0  0
  8  9  1  0  0  0  0
  8 11  1  0  0  0  0
  8 13  1  0  0  0  0
  9 10  2  0  0  0  0
  9 17  1  0  0  0  0
 11 14  1  0  0  0  0
 11 15  1  0  0  0  0
 11 16  1  0  0  0  0
 17 18  1  0  0  0  0
 17 25  1  0  0  0  0
 18 19  1  0  0  0  0
 18 21  1  0  0  0  0
 18 26  1  0  0  0  0
 19 20  2  0  0  0  0
 19 36  1  0  0  0  0
 21 22  1  0  0  0  0
 21 23  1  0  0  0  0
 21 27  1  0  0  0  0
 22 24  1  0  0  0  0
 22 28  1  0  0  0  0
 22 29  1  0  0  0  0
 23 30  1  0  0  0  0
 23 31  1  0  0  0  0
 23 32  1  0  0  0  0
 24 33  1  0  0  0  0
 24 34  1  0  0  0  0
 24 35  1  0  0  0  0
 36 37  1  0  0  0  0
 36 41  1  0  0  0  0
 37 38  1  0  0  0  0
 37 40  1  0  0  0  0
 37 42  1  0  0  0  0
 38 39  2  0  0  0  0
 38 46  1  0  0  0  0
 40 43  1  0  0  0  0
 40 44  1  0  0  0  0
 40 45  1  0  0  0  0
 46 47  1  0  0  0  0
 46 48  1  0  0  0  0
 47 49  1  0  0  0  0
 47 50  1  0  0  0  0
 47 51  1  0  0  0  0
M  END
$$$$

  -OEChem-05262216503D

 51 50  0     1  0  0  0  0  0999 V2000
    0.6225   -3.9656    0.1728 C   0  0  0  0  0  0  0  0  0  0  0  0
   -0.3885   -3.7865   -0.4938 O   0  0  0  0  0  0  0  0  0  0  0  0
    1.9759   -4.0543   -0.5051 C   0  0  0  0  0  0  0  0  0  0  0  0
    1.8921   -3.7676   -1.5569 H   0  0  0  0  0  0  0  0  0  0  0  0
    2.6832   -3.3824   -0.0125 H   0  0  0  0  0  0  0  0  0  0  0  0
    2.3552   -5.0771   -0.4456 H   0  0  0  0  0  0  0  0  0  0  0  0
    0.5469   -3.9777    1.5499 N   0  0  0  0  0  0  0  0  0  0  0  0
   -0.6708   -3.5973    2.2775 C   0  0  2  0  0  0  0  0  0  0  0  0
   -0.8571   -2.0637    2.2489 C   0  0  0  0  0  0  0  0  0  0  0  0
   -0.7704   -1.3752    3.2574 O   0  0  0  0  0  0  0  0  0  0  0  0
   -0.5610   -4.1584    3.7000 C   0  0  0  0  0  0  0  0  0  0  0  0
    1.4301   -3.8266    2.0332 H   0  0  0  0  0  0  0  0  0  0  0  0
   -1.5481   -4.0513    1.8053 H   0  0  0  0  0  0  0  0  0  0  0  0
    0.3016   -3.7270    4.2184 H   0  0  0  0  0  0  0  0  0  0  0  0
   -1.4630   -3.9178    4.2715 H   0  0  0  0  0  0  0  0  0  0  0  0
   -0.4471   -5.2463    3.6744 H   0  0  0  0  0  0  0  0  0  0  0  0
   -1.2061   -1.4331    1.0707 N   0  0  0  0  0  0  0  0  0  0  0  0
   -0.3142   -0.4821    0.3617 C   0  0  2  0  0  0  0  0  0  0  0  0
    1.2054   -0.4348    0.7333 C   0  0  0  0  0  0  0  0  0  0  0  0
    1.7106   -0.9890    1.7017 O   0  0  0  0  0  0  0  0  0  0  0  0
   -0.9901    0.9196    0.5206 C   0  0  2  0  0  0  0  0  0  0  0  0
   -2.3789    0.9328   -0.1766 C   0  0  0  0  0  0  0  0  0  0  0  0
   -0.1292    2.0792   -0.0259 C   0  0  0  0  0  0  0  0  0  0  0  0
   -3.2184    2.1710    0.1564 C   0  0  0  0  0  0  0  0  0  0  0  0
   -1.5435   -2.1420    0.4186 H   0  0  0  0  0  0  0  0  0  0  0  0
   -0.3391   -0.7561   -0.6974 H   0  0  0  0  0  0  0  0  0  0  0  0
   -1.1374    1.0945    1.5931 H   0  0  0  0  0  0  0  0  0  0  0  0
   -2.2477    0.8645   -1.2614 H   0  0  0  0  0  0  0  0  0  0  0  0
   -2.9634    0.0629    0.1358 H   0  0  0  0  0  0  0  0  0  0  0  0
    0.1010    1.9266   -1.0848 H   0  0  0  0  0  0  0  0  0  0  0  0
   -0.6430    3.0372    0.0795 H   0  0  0  0  0  0  0  0  0  0  0  0
    0.8059    2.1702    0.5336 H   0  0  0  0  0  0  0  0  0  0  0  0
   -3.2734    2.3149    1.2399 H   0  0  0  0  0  0  0  0  0  0  0  0
   -4.2353    2.0416   -0.2259 H   0  0  0  0  0  0  0  0  0  0  0  0
   -2.8006    3.0720   -0.3002 H   0  0  0  0  0  0  0  0  0  0  0  0
    2.0910   -0.0746   -0.2709 N   0  0  0  0  0  0  0  0  0  0  0  0
    3.5297    0.1538   -0.0612 C   0  0  2  0  0  0  0  0  0  0  0  0
    3.8688    1.6558   -0.1435 C   0  0  0  0  0  0  0  0  0  0  0  0
    3.2317    2.3823   -0.8984 O   0  0  0  0  0  0  0  0  0  0  0  0
    4.2940   -0.6194   -1.1382 C   0  0  0  0  0  0  0  0  0  0  0  0
    1.6760    0.4621   -1.0308 H   0  0  0  0  0  0  0  0  0  0  0  0
    3.8499   -0.2082    0.9210 H   0  0  0  0  0  0  0  0  0  0  0  0
    4.0048   -0.2750   -2.1365 H   0  0  0  0  0  0  0  0  0  0  0  0
    5.3721   -0.4737   -1.0193 H   0  0  0  0  0  0  0  0  0  0  0  0
    4.0802   -1.6893   -1.0631 H   0  0  0  0  0  0  0  0  0  0  0  0
    4.8987    2.1878    0.6094 N   0  0  0  0  0  0  0  0  0  0  0  0
    5.2262    3.6084    0.6194 C   0  0  0  0  0  0  0  0  0  0  0  0
    5.3495    1.5765    1.2842 H   0  0  0  0  0  0  0  0  0  0  0  0
    5.4425    3.9598   -0.3951 H   0  0  0  0  0  0  0  0  0  0  0  0
    4.3917    4.1910    1.0237 H   0  0  0  0  0  0  0  0  0  0  0  0
    6.1087    3.7891    1.2407 H   0  0  0  0  0  0  0  0  0  0  0  0
  1  2  2  0  0  0  0
  1  3  1  0  0  0  0
  1  7  1  0  0  0  0
  3  4  1  0  0  0  0
  3  5  1  0  0  0  0
  3  6  1  0  0  0  0
  7  8  1  0  0  0  0
  7 12  1  0  0  0  0
  8  9  1  0  0  0  0
  8 11  1  0  0  0  0
  8 13  1  0  0  0  0
  9 10  2  0  0  0  0
  9 17  1  0  0  0  0
 11 14  1  0  0  0  0
 11 15  1  0  0  0  0
 11 16  1  0  0  0  0
 17 18  1  0  0  0  0
 17 25  1  0  0  0  0
 18 19  1  0  0  0  0
 18 21  1  0  0  0  0
 18 26  1  0  0  0  0
 19 20  2  0  0  0  0
 19 36  1  0  0  0  0
 21 22  1  0  0  0  0
 21 23  1  0  0  0  0
 21 27  1  0  0  0  0
 22 24  1  0  0  0  0
 22 28  1  0  0  0  0
 22 29  1  0  0  0  0
 23 30  1  0  0  0  0
 23 31  1  0  0  0  0
 23 32  1  0  0  0  0
 24 33  1  0  0  0  0
 24 34  1  0  0  0  0
 24 35  1  0  0  0  0
 36 37  1  0  0  0  0
 36 41  1  0  0  0  0
 37 38  1  0  0  0  0
 37 40  1  0  0  0  0
 37 42  1  0  0  0  0
 38 39  2  0  0  0  0
 38 46  1  0  0  0  0
 40 43  1  0  0  0  0
 40 44  1  0  0  0  0
 40 45  1  0  0  0  0
 46 47  1  0  0  0  0
 46 48  1  0  0  0  0
 47 49  1  0  0  0  0
 47 50  1  0  0  0  0
 47 51  1  0  0  0  0
M  END
$$$$

  -OEChem-05262216503D

 51 50  0     1  0  0  0  0  0999 V2000
    0.4674   -3.9657   -0.0166 C   0  0  0  0  0  0  0  0  0  0  0  0
   -0.6040   -3.8014   -0.5854 O   0  0  0  0  0  0  0  0  0  0  0  0
    1.7541   -4.0187   -0.8174 C   0  0  0  0  0  0  0  0  0  0  0  0
    1.5328   -4.0238   -1.8882 H   0  0  0  0  0  0  0  0  0  0  0  0
    2.3708   -3.1464   -0.5873 H   0  0  0  0  0  0  0  0  0  0  0  0
    2.3110   -4.9253   -0.5687 H   0  0  0  0  0  0  0  0  0  0  0  0
    0.5173   -3.9809    1.3615 N   0  0  0  0  0  0  0  0  0  0  0  0
   -0.6415   -3.6404    2.1990 C   0  0  2  0  0  0  0  0  0  0  0  0
   -0.8584   -2.1109    2.2190 C   0  0  0  0  0  0  0  0  0  0  0  0
   -0.7632   -1.4455    3.2432 O   0  0  0  0  0  0  0  0  0  0  0  0
   -0.3942   -4.2267    3.5937 C   0  0  0  0  0  0  0  0  0  0  0  0
    1.4337   -3.7769    1.7573 H   0  0  0  0  0  0  0  0  0  0  0  0
   -1.5486   -4.1019    1.7952 H   0  0  0  0  0  0  0  0  0  0  0  0
    0.5045   -3.7893    4.0409 H   0  0  0  0  0  0  0  0  0  0  0  0
   -1.2443   -4.0149    4.2499 H   0  0  0  0  0  0  0  0  0  0  0  0
   -0.2640   -5.3115    3.5342 H   0  0  0  0  0  0  0  0  0  0  0  0
   -1.1786   -1.4470    1.0503 N   0  0  0  0  0  0  0  0  0  0  0  0
   -0.3183   -0.3948    0.4527 C   0  0  2  0  0  0  0  0  0  0  0  0
    1.1637   -0.2771    0.9522 C   0  0  0  0  0  0  0  0  0  0  0  0
    1.7104   -1.1301    1.6462 O   0  0  0  0  0  0  0  0  0  0  0  0
   -1.1421    0.9277    0.6366 C   0  0  2  0  0  0  0  0  0  0  0  0
   -2.4759    0.8465   -0.1611 C   0  0  0  0  0  0  0  0  0  0  0  0
   -0.3830    2.2080    0.2269 C   0  0  0  0  0  0  0  0  0  0  0  0
   -3.4623    1.9727    0.1687 C   0  0  0  0  0  0  0  0  0  0  0  0
   -1.4512   -2.1365    0.3467 H   0  0  0  0  0  0  0  0  0  0  0  0
   -0.2385   -0.6024   -0.6188 H   0  0  0  0  0  0  0  0  0  0  0  0
   -1.3820    1.0189    1.7029 H   0  0  0  0  0  0  0  0  0  0  0  0
   -2.2636    0.8545   -1.2352 H   0  0  0  0  0  0  0  0  0  0  0  0
   -2.9908   -0.0922    0.0604 H   0  0  0  0  0  0  0  0  0  0  0  0
   -0.0390    2.1412   -0.8099 H   0  0  0  0  0  0  0  0  0  0  0  0
   -1.0160    3.0930    0.3209 H   0  0  0  0  0  0  0  0  0  0  0  0
    0.4749    2.3789    0.8829 H   0  0  0  0  0  0  0  0  0  0  0  0
   -3.5947    2.0600    1.2516 H   0  0  0  0  0  0  0  0  0  0  0  0
   -4.4356    1.7546   -0.2812 H   0  0  0  0  0  0  0  0  0  0  0  0
   -3.1202    2.9328   -0.2257 H   0  0  0  0  0  0  0  0  0  0  0  0
    2.0546    0.4716    0.2018 N   0  0  0  0  0  0  0  0  0  0  0  0
    3.4609    0.6967    0.5655 C   0  0  2  0  0  0  0  0  0  0  0  0
    3.8506    2.1763    0.3721 C   0  0  0  0  0  0  0  0  0  0  0  0
    3.1332    2.9167   -0.2928 O   0  0  0  0  0  0  0  0  0  0  0  0
    4.3342   -0.2112   -0.3037 C   0  0  0  0  0  0  0  0  0  0  0  0
    1.6385    1.1965   -0.3827 H   0  0  0  0  0  0  0  0  0  0  0  0
    3.6241    0.4540    1.6212 H   0  0  0  0  0  0  0  0  0  0  0  0
    4.1984    0.0281   -1.3632 H   0  0  0  0  0  0  0  0  0  0  0  0
    5.3909   -0.0852   -0.0496 H   0  0  0  0  0  0  0  0  0  0  0  0
    4.0639   -1.2595   -0.1447 H   0  0  0  0  0  0  0  0  0  0  0  0
    4.9995    2.6812    0.9517 N   0  0  0  0  0  0  0  0  0  0  0  0
    5.4082    4.0755    0.8335 C   0  0  0  0  0  0  0  0  0  0  0  0
    5.5526    2.0528    1.5274 H   0  0  0  0  0  0  0  0  0  0  0  0
    5.5497    4.3459   -0.2183 H   0  0  0  0  0  0  0  0  0  0  0  0
    4.6502    4.7358    1.2680 H   0  0  0  0  0  0  0  0  0  0  0  0
    6.3528    4.2390    1.3611 H   0  0  0  0  0  0  0  0  0  0  0  0
  1  2  2  0  0  0  0
  1  3  1  0  0  0  0
  1  7  1  0  0  0  0
  3  4  1  0  0  0  0
  3  5  1  0  0  0  0
  3  6  1  0  0  0  0
  7  8  1  0  0  0  0
  7 12  1  0  0  0  0
  8  9  1  0  0  0  0
  8 11  1  0  0  0  0
  8 13  1  0  0  0  0
  9 10  2  0  0  0  0
  9 17  1  0  0  0  0
 11 14  1  0  0  0  0
 11 15  1  0  0  0  0
 11 16  1  0  0  0  0
 17 18  1  0  0  0  0
 17 25  1  0  0  0  0
 18 19  1  0  0  0  0
 18 21  1  0  0  0  0
 18 26  1  0  0  0  0
 19 20  2  0  0  0  0
 19 36  1  0  0  0  0
 21 22  1  0  0  0  0
 21 23  1  0  0  0  0
 21 27  1  0  0  0  0
 22 24  1  0  0  0  0
 22 28  1  0  0  0  0
 22 29  1  0  0  0  0
 23 30  1  0  0  0  0
 23 31  1  0  0  0  0
 23 32  1  0  0  0  0
 24 33  1  0  0  0  0
 24 34  1  0  0  0  0
 24 35  1  0  0  0  0
 36 37  1  0  0  0  0
 36 41  1  0  0  0  0
 37 38  1  0  0  0  0
 37 40  1  0  0  0  0
 37 42  1  0  0  0  0
 38 39  2  0  0  0  0
 38 46  1  0  0  0  0
 40 43  1  0  0  0  0
 40 44  1  0  0  0  0
 40 45  1  0  0  0  0
 46 47  1  0  0  0  0
 46 48  1  0  0  0  0
 47 49  1  0  0  0  0
 47 50  1  0  0  0  0
 47 51  1  0  0  0  0
M  END
$$$$

  -OEChem-05262216503D

 51 50  0     1  0  0  0  0  0999 V2000
    1.3784   -5.5642    1.2826 C   0  0  0  0  0  0  0  0  0  0  0  0
    0.7357   -6.1668    0.4362 O   0  0  0  0  0  0  0  0  0  0  0  0
    2.7373   -6.0807    1.7164 C   0  0  0  0  0  0  0  0  0  0  0  0
    2.9848   -6.9954    1.1706 H   0  0  0  0  0  0  0  0  0  0  0  0
    3.5041   -5.3295    1.5108 H   0  0  0  0  0  0  0  0  0  0  0  0
    2.7288   -6.2996    2.7868 H   0  0  0  0  0  0  0  0  0  0  0  0
    0.8754   -4.4088    1.8411 N   0  0  0  0  0  0  0  0  0  0  0  0
   -0.3022   -3.6969    1.3322 C   0  0  2  0  0  0  0  0  0  0  0  0
   -0.1207   -2.1717    1.4577 C   0  0  0  0  0  0  0  0  0  0  0  0
    0.5881   -1.7102    2.3475 O   0  0  0  0  0  0  0  0  0  0  0  0
   -1.5312   -4.1627    2.1167 C   0  0  0  0  0  0  0  0  0  0  0  0
    1.5023   -3.8715    2.4398 H   0  0  0  0  0  0  0  0  0  0  0  0
   -0.4420   -3.9232    0.2698 H   0  0  0  0  0  0  0  0  0  0  0  0
   -1.4108   -3.9402    3.1818 H   0  0  0  0  0  0  0  0  0  0  0  0
   -2.4316   -3.6581    1.7540 H   0  0  0  0  0  0  0  0  0  0  0  0
   -1.6686   -5.2423    1.9992 H   0  0  0  0  0  0  0  0  0  0  0  0
   -0.8453   -1.3100    0.6493 N   0  0  0  0  0  0  0  0  0  0  0  0
   -0.3486    0.0121    0.1902 C   0  0  2  0  0  0  0  0  0  0  0  0
    1.2052    0.1103    0.0050 C   0  0  0  0  0  0  0  0  0  0  0  0
    1.8809   -0.8980   -0.1773 O   0  0  0  0  0  0  0  0  0  0  0  0
   -0.9847    1.0487    1.1866 C   0  0  2  0  0  0  0  0  0  0  0  0
   -2.5363    1.0183    1.0601 C   0  0  0  0  0  0  0  0  0  0  0  0
   -0.4879    2.4981    1.0052 C   0  0  0  0  0  0  0  0  0  0  0  0
   -3.2672    1.7909    2.1651 C   0  0  0  0  0  0  0  0  0  0  0  0
   -1.4382   -1.7976   -0.0143 H   0  0  0  0  0  0  0  0  0  0  0  0
   -0.7595    0.2077   -0.8046 H   0  0  0  0  0  0  0  0  0  0  0  0
   -0.7175    0.7410    2.2042 H   0  0  0  0  0  0  0  0  0  0  0  0
   -2.8330    1.4162    0.0842 H   0  0  0  0  0  0  0  0  0  0  0  0
   -2.8972   -0.0121    1.1136 H   0  0  0  0  0  0  0  0  0  0  0  0
   -0.5690    2.8086   -0.0412 H   0  0  0  0  0  0  0  0  0  0  0  0
   -1.0599    3.2004    1.6144 H   0  0  0  0  0  0  0  0  0  0  0  0
    0.5497    2.5924    1.3368 H   0  0  0  0  0  0  0  0  0  0  0  0
   -2.8871    1.5028    3.1502 H   0  0  0  0  0  0  0  0  0  0  0  0
   -4.3375    1.5654    2.1287 H   0  0  0  0  0  0  0  0  0  0  0  0
   -3.1518    2.8709    2.0421 H   0  0  0  0  0  0  0  0  0  0  0  0
    1.8030    1.2845   -0.4171 N   0  0  0  0  0  0  0  0  0  0  0  0
    3.2461    1.4642   -0.6228 C   0  0  2  0  0  0  0  0  0  0  0  0
    3.6929    2.8744   -0.1853 C   0  0  0  0  0  0  0  0  0  0  0  0
    2.8560    3.7508    0.0087 O   0  0  0  0  0  0  0  0  0  0  0  0
    3.5597    1.2344   -2.1038 C   0  0  0  0  0  0  0  0  0  0  0  0
    1.2702    2.1414   -0.2757 H   0  0  0  0  0  0  0  0  0  0  0  0
    3.8023    0.7404   -0.0173 H   0  0  0  0  0  0  0  0  0  0  0  0
    3.0203    1.9563   -2.7250 H   0  0  0  0  0  0  0  0  0  0  0  0
    4.6319    1.3442   -2.2913 H   0  0  0  0  0  0  0  0  0  0  0  0
    3.2593    0.2249   -2.4019 H   0  0  0  0  0  0  0  0  0  0  0  0
    5.0319    3.1619    0.0029 N   0  0  0  0  0  0  0  0  0  0  0  0
    5.5148    4.4651    0.4434 C   0  0  0  0  0  0  0  0  0  0  0  0
    5.6999    2.4094   -0.1376 H   0  0  0  0  0  0  0  0  0  0  0  0
    5.2198    5.2433   -0.2685 H   0  0  0  0  0  0  0  0  0  0  0  0
    5.1037    4.7137    1.4276 H   0  0  0  0  0  0  0  0  0  0  0  0
    6.6066    4.4593    0.5164 H   0  0  0  0  0  0  0  0  0  0  0  0
  1  2  2  0  0  0  0
  1  3  1  0  0  0  0
  1  7  1  0  0  0  0
  3  4  1  0  0  0  0
  3  5  1  0  0  0  0
  3  6  1  0  0  0  0
  7  8  1  0  0  0  0
  7 12  1  0  0  0  0
  8  9  1  0  0  0  0
  8 11  1  0  0  0  0
  8 13  1  0  0  0  0
  9 10  2  0  0  0  0
  9 17  1  0  0  0  0
 11 14  1  0  0  0  0
 11 15  1  0  0  0  0
 11 16  1  0  0  0  0
 17 18  1  0  0  0  0
 17 25  1  0  0  0  0
 18 19  1  0  0  0  0
 18 21  1  0  0  0  0
 18 26  1  0  0  0  0
 19 20  2  0  0  0  0
 19 36  1  0  0  0  0
 21 22  1  0  0  0  0
 21 23  1  0  0  0  0
 21 27  1  0  0  0  0
 22 24  1  0  0  0  0
 22 28  1  0  0  0  0
 22 29  1  0  0  0  0
 23 30  1  0  0  0  0
 23 31  1  0  0  0  0
 23 32  1  0  0  0  0
 24 33  1  0  0  0  0
 24 34  1  0  0  0  0
 24 35  1  0  0  0  0
 36 37  1  0  0  0  0
 36 41  1  0  0  0  0
 37 38  1  0  0  0  0
 37 40  1  0  0  0  0
 37 42  1  0  0  0  0
 38 39  2  0  0  0  0
 38 46  1  0  0  0  0
 40 43  1  0  0  0  0
 40 44  1  0  0  0  0
 40 45  1  0  0  0  0
 46 47  1  0  0  0  0
 46 48  1  0  0  0  0
 47 49  1  0  0  0  0
 47 50  1  0  0  0  0
 47 51  1  0  0  0  0
M  END
$$$$

  -OEChem-05262216503D

 51 50  0     1  0  0  0  0  0999 V2000
    1.4078   -5.5531    1.3116 C   0  0  0  0  0  0  0  0  0  0  0  0
    0.7456   -6.1701    0.4915 O   0  0  0  0  0  0  0  0  0  0  0  0
    2.7412   -6.1042    1.7803 C   0  0  0  0  0  0  0  0  0  0  0  0
    2.9448   -7.0622    1.2938 H   0  0  0  0  0  0  0  0  0  0  0  0
    3.5424   -5.4047    1.5301 H   0  0  0  0  0  0  0  0  0  0  0  0
    2.7229   -6.2551    2.8622 H   0  0  0  0  0  0  0  0  0  0  0  0
    0.9469   -4.3546    1.8127 N   0  0  0  0  0  0  0  0  0  0  0  0
   -0.2232   -3.6389    1.2908 C   0  0  2  0  0  0  0  0  0  0  0  0
   -0.0357   -2.1114    1.3883 C   0  0  0  0  0  0  0  0  0  0  0  0
    0.7161   -1.6411    2.2376 O   0  0  0  0  0  0  0  0  0  0  0  0
   -1.4569   -4.0822    2.0825 C   0  0  0  0  0  0  0  0  0  0  0  0
    1.5839   -3.8164    2.3994 H   0  0  0  0  0  0  0  0  0  0  0  0
   -0.3628   -3.8837    0.2324 H   0  0  0  0  0  0  0  0  0  0  0  0
   -1.3364   -3.8421    3.1440 H   0  0  0  0  0  0  0  0  0  0  0  0
   -2.3538   -3.5780    1.7105 H   0  0  0  0  0  0  0  0  0  0  0  0
   -1.6022   -5.1628    1.9838 H   0  0  0  0  0  0  0  0  0  0  0  0
   -0.8075   -1.2611    0.6105 N   0  0  0  0  0  0  0  0  0  0  0  0
   -0.3859    0.0978    0.1848 C   0  0  2  0  0  0  0  0  0  0  0  0
    1.1655    0.2386    0.0026 C   0  0  0  0  0  0  0  0  0  0  0  0
    1.8028   -0.7225   -0.4200 O   0  0  0  0  0  0  0  0  0  0  0  0
   -1.0853    1.0727    1.2011 C   0  0  2  0  0  0  0  0  0  0  0  0
   -2.6332    0.9512    1.0625 C   0  0  0  0  0  0  0  0  0  0  0  0
   -0.6845    2.5532    1.0270 C   0  0  0  0  0  0  0  0  0  0  0  0
   -3.4203    1.6515    2.1788 C   0  0  0  0  0  0  0  0  0  0  0  0
   -1.4088   -1.7517   -0.0436 H   0  0  0  0  0  0  0  0  0  0  0  0
   -0.8000    0.2997   -0.8074 H   0  0  0  0  0  0  0  0  0  0  0  0
   -0.8032    0.7681    2.2157 H   0  0  0  0  0  0  0  0  0  0  0  0
   -2.9475    1.3521    0.0933 H   0  0  0  0  0  0  0  0  0  0  0  0
   -2.9322   -0.1000    1.0905 H   0  0  0  0  0  0  0  0  0  0  0  0
   -0.6535    2.8244   -0.0330 H   0  0  0  0  0  0  0  0  0  0  0  0
   -1.3801    3.2291    1.5260 H   0  0  0  0  0  0  0  0  0  0  0  0
    0.2906    2.7398    1.4842 H   0  0  0  0  0  0  0  0  0  0  0  0
   -3.0195    1.3772    3.1594 H   0  0  0  0  0  0  0  0  0  0  0  0
   -4.4704    1.3457    2.1384 H   0  0  0  0  0  0  0  0  0  0  0  0
   -3.3888    2.7390    2.0755 H   0  0  0  0  0  0  0  0  0  0  0  0
    1.8166    1.4553   -0.0910 N   0  0  0  0  0  0  0  0  0  0  0  0
    3.2682    1.6202   -0.2440 C   0  0  2  0  0  0  0  0  0  0  0  0
    3.7689    2.8549    0.5339 C   0  0  0  0  0  0  0  0  0  0  0  0
    2.9701    3.6994    0.9272 O   0  0  0  0  0  0  0  0  0  0  0  0
    3.5927    1.7573   -1.7345 C   0  0  0  0  0  0  0  0  0  0  0  0
    1.3169    2.2692    0.2604 H   0  0  0  0  0  0  0  0  0  0  0  0
    3.7864    0.7445    0.1613 H   0  0  0  0  0  0  0  0  0  0  0  0
    3.0872    2.6311   -2.1572 H   0  0  0  0  0  0  0  0  0  0  0  0
    4.6703    1.8715   -1.8843 H   0  0  0  0  0  0  0  0  0  0  0  0
    3.2618    0.8668   -2.2781 H   0  0  0  0  0  0  0  0  0  0  0  0
    5.1160    3.0206    0.7971 N   0  0  0  0  0  0  0  0  0  0  0  0
    5.6501    4.1445    1.5571 C   0  0  0  0  0  0  0  0  0  0  0  0
    5.7480    2.2849    0.4944 H   0  0  0  0  0  0  0  0  0  0  0  0
    5.3682    5.0935    1.0886 H   0  0  0  0  0  0  0  0  0  0  0  0
    5.2664    4.1302    2.5828 H   0  0  0  0  0  0  0  0  0  0  0  0
    6.7423    4.0909    1.5945 H   0  0  0  0  0  0  0  0  0  0  0  0
  1  2  2  0  0  0  0
  1  3  1  0  0  0  0
  1  7  1  0  0  0  0
  3  4  1  0  0  0  0
  3  5  1  0  0  0  0
  3  6  1  0  0  0  0
  7  8  1  0  0  0  0
  7 12  1  0  0  0  0
  8  9  1  0  0  0  0
  8 11  1  0  0  0  0
  8 13  1  0  0  0  0
  9 10  2  0  0  0  0
  9 17  1  0  0  0  0
 11 14  1  0  0  0  0
 11 15  1  0  0  0  0
 11 16  1  0  0  0  0
 17 18  1  0  0  0  0
 17 25  1  0  0  0  0
 18 19  1  0  0  0  0
 18 21  1  0  0  0  0
 18 26  1  0  0  0  0
 19 20  2  0  0  0  0
 19 36  1  0  0  0  0
 21 22  1  0  0  0  0
 21 23  1  0  0  0  0
 21 27  1  0  0  0  0
 22 24  1  0  0  0  0
 22 28  1  0  0  0  0
 22 29  1  0  0  0  0
 23 30  1  0  0  0  0
 23 31  1  0  0  0  0
 23 32  1  0  0  0  0
 24 33  1  0  0  0  0
 24 34  1  0  0  0  0
 24 35  1  0  0  0  0
 36 37  1  0  0  0  0
 36 41  1  0  0  0  0
 37 38  1  0  0  0  0
 37 40  1  0  0  0  0
 37 42  1  0  0  0  0
 38 39  2  0  0  0  0
 38 46  1  0  0  0  0
 40 43  1  0  0  0  0
 40 44  1  0  0  0  0
 40 45  1  0  0  0  0
 46 47  1  0  0  0  0
 46 48  1  0  0  0  0
 47 49  1  0  0  0  0
 47 50  1  0  0  0  0
 47 51  1  0  0  0  0
M  END
$$$$

  -OEChem-05262216503D

 51 50  0     1  0  0  0  0  0999 V2000
    1.2573   -5.6379    0.9180 C   0  0  0  0  0  0  0  0  0  0  0  0
    0.3883   -6.2312    0.2989 O   0  0  0  0  0  0  0  0  0  0  0  0
    2.5924   -6.3061    1.1862 C   0  0  0  0  0  0  0  0  0  0  0  0
    2.5979   -7.3178    0.7711 H   0  0  0  0  0  0  0  0  0  0  0  0
    3.3971   -5.7307    0.7219 H   0  0  0  0  0  0  0  0  0  0  0  0
    2.7699   -6.3660    2.2626 H   0  0  0  0  0  0  0  0  0  0  0  0
    1.0290   -4.3579    1.3762 N   0  0  0  0  0  0  0  0  0  0  0  0
   -0.1528   -3.5554    1.0378 C   0  0  2  0  0  0  0  0  0  0  0  0
    0.1566   -2.0447    1.0972 C   0  0  0  0  0  0  0  0  0  0  0  0
    1.1765   -1.6482    1.6575 O   0  0  0  0  0  0  0  0  0  0  0  0
   -1.2847   -3.9142    2.0069 C   0  0  0  0  0  0  0  0  0  0  0  0
    1.8157   -3.8604    1.7919 H   0  0  0  0  0  0  0  0  0  0  0  0
   -0.4655   -3.7840    0.0129 H   0  0  0  0  0  0  0  0  0  0  0  0
   -0.9919   -3.6865    3.0366 H   0  0  0  0  0  0  0  0  0  0  0  0
   -2.1912   -3.3499    1.7685 H   0  0  0  0  0  0  0  0  0  0  0  0
   -1.5182   -4.9815    1.9391 H   0  0  0  0  0  0  0  0  0  0  0  0
   -0.7594   -1.1224    0.6132 N   0  0  0  0  0  0  0  0  0  0  0  0
   -0.4064    0.2300    0.1146 C   0  0  2  0  0  0  0  0  0  0  0  0
    1.0303    0.2038   -0.5053 C   0  0  0  0  0  0  0  0  0  0  0  0
    1.2039   -0.5620   -1.4437 O   0  0  0  0  0  0  0  0  0  0  0  0
   -0.7203    1.2543    1.2555 C   0  0  2  0  0  0  0  0  0  0  0  0
   -2.2480    1.2252    1.5549 C   0  0  0  0  0  0  0  0  0  0  0  0
   -0.3931    2.7103    0.8431 C   0  0  0  0  0  0  0  0  0  0  0  0
   -2.6463    1.9832    2.8279 C   0  0  0  0  0  0  0  0  0  0  0  0
   -1.5656   -1.5497    0.1675 H   0  0  0  0  0  0  0  0  0  0  0  0
   -1.0640    0.4747   -0.7255 H   0  0  0  0  0  0  0  0  0  0  0  0
   -0.1544    0.9847    2.1537 H   0  0  0  0  0  0  0  0  0  0  0  0
   -2.8042    1.6295    0.7024 H   0  0  0  0  0  0  0  0  0  0  0  0
   -2.5781    0.1923    1.6953 H   0  0  0  0  0  0  0  0  0  0  0  0
   -0.8385    2.9411   -0.1297 H   0  0  0  0  0  0  0  0  0  0  0  0
    0.6756    2.8913    0.7816 H   0  0  0  0  0  0  0  0  0  0  0  0
   -0.7708    3.4296    1.5717 H   0  0  0  0  0  0  0  0  0  0  0  0
   -2.0130    1.6794    3.6672 H   0  0  0  0  0  0  0  0  0  0  0  0
   -3.6864    1.7570    3.0815 H   0  0  0  0  0  0  0  0  0  0  0  0
   -2.5652    3.0650    2.6968 H   0  0  0  0  0  0  0  0  0  0  0  0
    1.9518    1.2188   -0.5559 N   0  0  0  0  0  0  0  0  0  0  0  0
    2.8273    1.4080    0.6128 C   0  0  2  0  0  0  0  0  0  0  0  0
    3.4603    2.8153    0.6844 C   0  0  0  0  0  0  0  0  0  0  0  0
    3.5930    3.4992   -0.3223 O   0  0  0  0  0  0  0  0  0  0  0  0
    3.9407    0.3544    0.5572 C   0  0  0  0  0  0  0  0  0  0  0  0
    2.4610    1.1856   -1.4365 H   0  0  0  0  0  0  0  0  0  0  0  0
    2.2497    1.2568    1.5304 H   0  0  0  0  0  0  0  0  0  0  0  0
    4.5401    0.4805   -0.3503 H   0  0  0  0  0  0  0  0  0  0  0  0
    4.6000    0.4466    1.4254 H   0  0  0  0  0  0  0  0  0  0  0  0
    3.5186   -0.6554    0.5556 H   0  0  0  0  0  0  0  0  0  0  0  0
    3.9058    3.3128    1.8960 N   0  0  0  0  0  0  0  0  0  0  0  0
    4.5367    4.6197    2.0394 C   0  0  0  0  0  0  0  0  0  0  0  0
    3.8048    2.7219    2.7160 H   0  0  0  0  0  0  0  0  0  0  0  0
    5.4487    4.6730    1.4355 H   0  0  0  0  0  0  0  0  0  0  0  0
    3.8537    5.4126    1.7166 H   0  0  0  0  0  0  0  0  0  0  0  0
    4.8038    4.7993    3.0852 H   0  0  0  0  0  0  0  0  0  0  0  0
  1  2  2  0  0  0  0
  1  3  1  0  0  0  0
  1  7  1  0  0  0  0
  3  4  1  0  0  0  0
  3  5  1  0  0  0  0
  3  6  1  0  0  0  0
  7  8  1  0  0  0  0
  7 12  1  0  0  0  0
  8  9  1  0  0  0  0
  8 11  1  0  0  0  0
  8 13  1  0  0  0  0
  9 10  2  0  0  0  0
  9 17  1  0  0  0  0
 11 14  1  0  0  0  0
 11 15  1  0  0  0  0
 11 16  1  0  0  0  0
 17 18  1  0  0  0  0
 17 25  1  0  0  0  0
 18 19  1  0  0  0  0
 18 21  1  0  0  0  0
 18 26  1  0  0  0  0
 19 20  2  0  0  0  0
 19 36  1  0  0  0  0
 21 22  1  0  0  0  0
 21 23  1  0  0  0  0
 21 27  1  0  0  0  0
 22 24  1  0  0  0  0
 22 28  1  0  0  0  0
 22 29  1  0  0  0  0
 23 30  1  0  0  0  0
 23 31  1  0  0  0  0
 23 32  1  0  0  0  0
 24 33  1  0  0  0  0
 24 34  1  0  0  0  0
 24 35  1  0  0  0  0
 36 37  1  0  0  0  0
 36 41  1  0  0  0  0
 37 38  1  0  0  0  0
 37 40  1  0  0  0  0
 37 42  1  0  0  0  0
 38 39  2  0  0  0  0
 38 46  1  0  0  0  0
 40 43  1  0  0  0  0
 40 44  1  0  0  0  0
 40 45  1  0  0  0  0
 46 47  1  0  0  0  0
 46 48  1  0  0  0  0
 47 49  1  0  0  0  0
 47 50  1  0  0  0  0
 47 51  1  0  0  0  0
M  END
$$$$

  -OEChem-05262216503D

 51 50  0     1  0  0  0  0  0999 V2000
    1.3678   -5.5626    1.3390 C   0  0  0  0  0  0  0  0  0  0  0  0
    0.6831   -6.1785    0.5371 O   0  0  0  0  0  0  0  0  0  0  0  0
    2.6515   -6.1718    1.8695 C   0  0  0  0  0  0  0  0  0  0  0  0
    2.8131   -7.1574    1.4240 H   0  0  0  0  0  0  0  0  0  0  0  0
    3.5000   -5.5292    1.6215 H   0  0  0  0  0  0  0  0  0  0  0  0
    2.5905   -6.2816    2.9549 H   0  0  0  0  0  0  0  0  0  0  0  0
    0.9750   -4.3124    1.7664 N   0  0  0  0  0  0  0  0  0  0  0  0
   -0.1719   -3.5738    1.2258 C   0  0  2  0  0  0  0  0  0  0  0  0
    0.0463   -2.0490    1.3111 C   0  0  0  0  0  0  0  0  0  0  0  0
    0.8271   -1.5929    2.1410 O   0  0  0  0  0  0  0  0  0  0  0  0
   -1.4228   -3.9807    2.0114 C   0  0  0  0  0  0  0  0  0  0  0  0
    1.6187   -3.7902    2.3599 H   0  0  0  0  0  0  0  0  0  0  0  0
   -0.3065   -3.8284    0.1690 H   0  0  0  0  0  0  0  0  0  0  0  0
   -1.3046   -3.7325    3.0712 H   0  0  0  0  0  0  0  0  0  0  0  0
   -2.3057   -3.4604    1.6280 H   0  0  0  0  0  0  0  0  0  0  0  0
   -1.5923   -5.0585    1.9229 H   0  0  0  0  0  0  0  0  0  0  0  0
   -0.7246   -1.1958    0.5357 N   0  0  0  0  0  0  0  0  0  0  0  0
   -0.3700    0.2029    0.1928 C   0  0  2  0  0  0  0  0  0  0  0  0
    1.1784    0.3932    0.1116 C   0  0  0  0  0  0  0  0  0  0  0  0
    1.7984   -0.3394   -0.6536 O   0  0  0  0  0  0  0  0  0  0  0  0
   -1.1666    1.1351    1.1687 C   0  0  2  0  0  0  0  0  0  0  0  0
   -2.6926    0.9418    0.9275 C   0  0  0  0  0  0  0  0  0  0  0  0
   -0.8350    2.6330    0.9490 C   0  0  0  0  0  0  0  0  0  0  0  0
   -3.5813    1.5933    1.9958 C   0  0  0  0  0  0  0  0  0  0  0  0
   -1.3235   -1.6744   -0.1297 H   0  0  0  0  0  0  0  0  0  0  0  0
   -0.7261    0.4116   -0.8206 H   0  0  0  0  0  0  0  0  0  0  0  0
   -0.9260    0.8626    2.2029 H   0  0  0  0  0  0  0  0  0  0  0  0
   -2.9633    1.3375   -0.0570 H   0  0  0  0  0  0  0  0  0  0  0  0
   -2.9376   -0.1236    0.9280 H   0  0  0  0  0  0  0  0  0  0  0  0
   -0.6418    2.8343   -0.1097 H   0  0  0  0  0  0  0  0  0  0  0  0
    0.0372    2.9318    1.5346 H   0  0  0  0  0  0  0  0  0  0  0  0
   -1.6461    3.2891    1.2669 H   0  0  0  0  0  0  0  0  0  0  0  0
   -3.2471    1.3047    2.9971 H   0  0  0  0  0  0  0  0  0  0  0  0
   -4.6150    1.2580    1.8684 H   0  0  0  0  0  0  0  0  0  0  0  0
   -3.5759    2.6832    1.9229 H   0  0  0  0  0  0  0  0  0  0  0  0
    1.8723    1.4485    0.6712 N   0  0  0  0  0  0  0  0  0  0  0  0
    3.3345    1.5739    0.6712 C   0  0  2  0  0  0  0  0  0  0  0  0
    3.8302    2.2660    1.9575 C   0  0  0  0  0  0  0  0  0  0  0  0
    3.0448    2.8907    2.6634 O   0  0  0  0  0  0  0  0  0  0  0  0
    3.7572    2.3746   -0.5640 C   0  0  0  0  0  0  0  0  0  0  0  0
    1.3909    1.9500    1.4158 H   0  0  0  0  0  0  0  0  0  0  0  0
    3.7917    0.5792    0.6365 H   0  0  0  0  0  0  0  0  0  0  0  0
    3.3103    3.3738   -0.5422 H   0  0  0  0  0  0  0  0  0  0  0  0
    4.8456    2.4797   -0.6000 H   0  0  0  0  0  0  0  0  0  0  0  0
    3.4295    1.8656   -1.4760 H   0  0  0  0  0  0  0  0  0  0  0  0
    5.1609    2.1903    2.3257 N   0  0  0  0  0  0  0  0  0  0  0  0
    5.6872    2.7807    3.5504 C   0  0  0  0  0  0  0  0  0  0  0  0
    5.7790    1.6356    1.7410 H   0  0  0  0  0  0  0  0  0  0  0  0
    5.5120    3.8617    3.5622 H   0  0  0  0  0  0  0  0  0  0  0  0
    5.2054    2.3363    4.4278 H   0  0  0  0  0  0  0  0  0  0  0  0
    6.7650    2.6054    3.6221 H   0  0  0  0  0  0  0  0  0  0  0  0
  1  2  2  0  0  0  0
  1  3  1  0  0  0  0
  1  7  1  0  0  0  0
  3  4  1  0  0  0  0
  3  5  1  0  0  0  0
  3  6  1  0  0  0  0
  7  8  1  0  0  0  0
  7 12  1  0  0  0  0
  8  9  1  0  0  0  0
  8 11  1  0  0  0  0
  8 13  1  0  0  0  0
  9 10  2  0  0  0  0
  9 17  1  0  0  0  0
 11 14  1  0  0  0  0
 11 15  1  0  0  0  0
 11 16  1  0  0  0  0
 17 18  1  0  0  0  0
 17 25  1  0  0  0  0
 18 19  1  0  0  0  0
 18 21  1  0  0  0  0
 18 26  1  0  0  0  0
 19 20  2  0  0  0  0
 19 36  1  0  0  0  0
 21 22  1  0  0  0  0
 21 23  1  0  0  0  0
 21 27  1  0  0  0  0
 22 24  1  0  0  0  0
 22 28  1  0  0  0  0
 22 29  1  0  0  0  0
 23 30  1  0  0  0  0
 23 31  1  0  0  0  0
 23 32  1  0  0  0  0
 24 33  1  0  0  0  0
 24 34  1  0  0  0  0
 24 35  1  0  0  0  0
 36 37  1  0  0  0  0
 36 41  1  0  0  0  0
 37 38  1  0  0  0  0
 37 40  1  0  0  0  0
 37 42  1  0  0  0  0
 38 39  2  0  0  0  0
 38 46  1  0  0  0  0
 40 43  1  0  0  0  0
 40 44  1  0  0  0  0
 40 45  1  0  0  0  0
 46 47  1  0  0  0  0
 46 48  1  0  0  0  0
 47 49  1  0  0  0  0
 47 50  1  0  0  0  0
 47 51  1  0  0  0  0
M  END
$$$$

  -OEChem-05262216503D

 51 50  0     1  0  0  0  0  0999 V2000
    1.3845   -5.5636    1.3508 C   0  0  0  0  0  0  0  0  0  0  0  0
    0.7413   -6.1677    0.5067 O   0  0  0  0  0  0  0  0  0  0  0  0
    2.6375   -6.1818    1.9412 C   0  0  0  0  0  0  0  0  0  0  0  0
    2.8087   -7.1716    1.5089 H   0  0  0  0  0  0  0  0  0  0  0  0
    3.5022   -5.5491    1.7270 H   0  0  0  0  0  0  0  0  0  0  0  0
    2.5280   -6.2838    3.0235 H   0  0  0  0  0  0  0  0  0  0  0  0
    0.9736   -4.3165    1.7700 N   0  0  0  0  0  0  0  0  0  0  0  0
   -0.1374   -3.5647    1.1739 C   0  0  2  0  0  0  0  0  0  0  0  0
    0.0848   -2.0420    1.2838 C   0  0  0  0  0  0  0  0  0  0  0  0
    0.8764   -1.6036    2.1127 O   0  0  0  0  0  0  0  0  0  0  0  0
   -1.4329   -3.9695    1.8851 C   0  0  0  0  0  0  0  0  0  0  0  0
    1.5908   -3.8015    2.3971 H   0  0  0  0  0  0  0  0  0  0  0  0
   -0.2158   -3.8084    0.1088 H   0  0  0  0  0  0  0  0  0  0  0  0
   -1.3701   -3.7387    2.9534 H   0  0  0  0  0  0  0  0  0  0  0  0
   -2.2887   -3.4343    1.4630 H   0  0  0  0  0  0  0  0  0  0  0  0
   -1.6085   -5.0439    1.7705 H   0  0  0  0  0  0  0  0  0  0  0  0
   -0.6890   -1.1764    0.5252 N   0  0  0  0  0  0  0  0  0  0  0  0
   -0.3609    0.2372    0.2220 C   0  0  2  0  0  0  0  0  0  0  0  0
    1.1825    0.4466    0.1643 C   0  0  0  0  0  0  0  0  0  0  0  0
    1.8003   -0.1336   -0.7227 O   0  0  0  0  0  0  0  0  0  0  0  0
   -1.1677    1.1425    1.2112 C   0  0  2  0  0  0  0  0  0  0  0  0
   -2.6896    0.9341    0.9620 C   0  0  0  0  0  0  0  0  0  0  0  0
   -0.8754    2.6501    1.0008 C   0  0  0  0  0  0  0  0  0  0  0  0
   -3.5865    1.5577    2.0385 C   0  0  0  0  0  0  0  0  0  0  0  0
   -1.2928   -1.6424   -0.1450 H   0  0  0  0  0  0  0  0  0  0  0  0
   -0.7109    0.4656   -0.7894 H   0  0  0  0  0  0  0  0  0  0  0  0
   -0.9178    0.8624    2.2409 H   0  0  0  0  0  0  0  0  0  0  0  0
   -2.9652    1.3378   -0.0178 H   0  0  0  0  0  0  0  0  0  0  0  0
   -2.9200   -0.1347    0.9486 H   0  0  0  0  0  0  0  0  0  0  0  0
   -0.9629    2.9115   -0.0586 H   0  0  0  0  0  0  0  0  0  0  0  0
   -1.5701    3.2749    1.5653 H   0  0  0  0  0  0  0  0  0  0  0  0
    0.1188    2.9321    1.3467 H   0  0  0  0  0  0  0  0  0  0  0  0
   -3.2503    1.2594    3.0364 H   0  0  0  0  0  0  0  0  0  0  0  0
   -4.6166    1.2136    1.9046 H   0  0  0  0  0  0  0  0  0  0  0  0
   -3.5906    2.6488    1.9782 H   0  0  0  0  0  0  0  0  0  0  0  0
    1.8853    1.3053    0.9861 N   0  0  0  0  0  0  0  0  0  0  0  0
    3.3485    1.3756    1.0505 C   0  0  2  0  0  0  0  0  0  0  0  0
    3.8201    1.8101    2.4532 C   0  0  0  0  0  0  0  0  0  0  0  0
    3.0493    2.3880    3.2127 O   0  0  0  0  0  0  0  0  0  0  0  0
    3.8432    2.3649   -0.0095 C   0  0  0  0  0  0  0  0  0  0  0  0
    1.3886    1.6353    1.8133 H   0  0  0  0  0  0  0  0  0  0  0  0
    3.7710    0.3850    0.8515 H   0  0  0  0  0  0  0  0  0  0  0  0
    3.4289    3.3612    0.1748 H   0  0  0  0  0  0  0  0  0  0  0  0
    4.9349    2.4320    0.0081 H   0  0  0  0  0  0  0  0  0  0  0  0
    3.5344    2.0392   -1.0078 H   0  0  0  0  0  0  0  0  0  0  0  0
    5.1156    1.5592    2.8664 N   0  0  0  0  0  0  0  0  0  0  0  0
    5.6185    1.9269    4.1845 C   0  0  0  0  0  0  0  0  0  0  0  0
    5.7223    1.0506    2.2301 H   0  0  0  0  0  0  0  0  0  0  0  0
    5.5795    3.0130    4.3190 H   0  0  0  0  0  0  0  0  0  0  0  0
    5.0198    1.4530    4.9696 H   0  0  0  0  0  0  0  0  0  0  0  0
    6.6570    1.6011    4.2983 H   0  0  0  0  0  0  0  0  0  0  0  0
  1  2  2  0  0  0  0
  1  3  1  0  0  0  0
  1  7  1  0  0  0  0
  3  4  1  0  0  0  0
  3  5  1  0  0  0  0
  3  6  1  0  0  0  0
  7  8  1  0  0  0  0
  7 12  1  0  0  0  0
  8  9  1  0  0  0  0
  8 11  1  0  0  0  0
  8 13  1  0  0  0  0
  9 10  2  0  0  0  0
  9 17  1  0  0  0  0
 11 14  1  0  0  0  0
 11 15  1  0  0  0  0
 11 16  1  0  0  0  0
 17 18  1  0  0  0  0
 17 25  1  0  0  0  0
 18 19  1  0  0  0  0
 18 21  1  0  0  0  0
 18 26  1  0  0  0  0
 19 20  2  0  0  0  0
 19 36  1  0  0  0  0
 21 22  1  0  0  0  0
 21 23  1  0  0  0  0
 21 27  1  0  0  0  0
 22 24  1  0  0  0  0
 22 28  1  0  0  0  0
 22 29  1  0  0  0  0
 23 30  1  0  0  0  0
 23 31  1  0  0  0  0
 23 32  1  0  0  0  0
 24 33  1  0  0  0  0
 24 34  1  0  0  0  0
 24 35  1  0  0  0  0
 36 37  1  0  0  0  0
 36 41  1  0  0  0  0
 37 38  1  0  0  0  0
 37 40  1  0  0  0  0
 37 42  1  0  0  0  0
 38 39  2  0  0  0  0
 38 46  1  0  0  0  0
 40 43  1  0  0  0  0
 40 44  1  0  0  0  0
 40 45  1  0  0  0  0
 46 47  1  0  0  0  0
 46 48  1  0  0  0  0
 47 49  1  0  0  0  0
 47 50  1  0  0  0  0
 47 51  1  0  0  0  0
M  END
$$$$

  -OEChem-05262216503D

 51 50  0     1  0  0  0  0  0999 V2000
    1.3123   -5.6167    1.4132 C   0  0  0  0  0  0  0  0  0  0  0  0
    0.7061   -6.2118    0.5361 O   0  0  0  0  0  0  0  0  0  0  0  0
    2.5095   -6.2618    2.0847 C   0  0  0  0  0  0  0  0  0  0  0  0
    2.6583   -7.2744    1.6988 H   0  0  0  0  0  0  0  0  0  0  0  0
    3.4084   -5.6723    1.8875 H   0  0  0  0  0  0  0  0  0  0  0  0
    2.3465   -6.3164    3.1639 H   0  0  0  0  0  0  0  0  0  0  0  0
    0.9161   -4.3519    1.7910 N   0  0  0  0  0  0  0  0  0  0  0  0
   -0.1331   -3.5746    1.1206 C   0  0  2  0  0  0  0  0  0  0  0  0
    0.1209   -2.0573    1.2416 C   0  0  0  0  0  0  0  0  0  0  0  0
    0.9162   -1.6418    2.0771 O   0  0  0  0  0  0  0  0  0  0  0  0
   -1.4840   -3.9455    1.7427 C   0  0  0  0  0  0  0  0  0  0  0  0
    1.5107   -3.8478    2.4483 H   0  0  0  0  0  0  0  0  0  0  0  0
   -0.1452   -3.8200    0.0531 H   0  0  0  0  0  0  0  0  0  0  0  0
   -1.4952   -3.6966    2.8089 H   0  0  0  0  0  0  0  0  0  0  0  0
   -2.2972   -3.4047    1.2498 H   0  0  0  0  0  0  0  0  0  0  0  0
   -1.6707   -5.0187    1.6337 H   0  0  0  0  0  0  0  0  0  0  0  0
   -0.6225   -1.1725    0.4759 N   0  0  0  0  0  0  0  0  0  0  0  0
   -0.3015    0.2499    0.2111 C   0  0  2  0  0  0  0  0  0  0  0  0
    1.2352    0.4964    0.2101 C   0  0  0  0  0  0  0  0  0  0  0  0
    1.8725    0.1466   -0.7769 O   0  0  0  0  0  0  0  0  0  0  0  0
   -1.1202    1.1330    1.2046 C   0  0  2  0  0  0  0  0  0  0  0  0
   -2.6397    0.9352    0.9454 C   0  0  0  0  0  0  0  0  0  0  0  0
   -0.8222    2.6410    1.0103 C   0  0  0  0  0  0  0  0  0  0  0  0
   -3.5277    1.5471    2.0351 C   0  0  0  0  0  0  0  0  0  0  0  0
   -1.2418   -1.6190   -0.1935 H   0  0  0  0  0  0  0  0  0  0  0  0
   -0.6320    0.4979   -0.8027 H   0  0  0  0  0  0  0  0  0  0  0  0
   -0.8744    0.8386    2.2315 H   0  0  0  0  0  0  0  0  0  0  0  0
   -2.9132    1.3568   -0.0276 H   0  0  0  0  0  0  0  0  0  0  0  0
   -2.8733   -0.1326    0.9136 H   0  0  0  0  0  0  0  0  0  0  0  0
   -1.0507    2.9454   -0.0160 H   0  0  0  0  0  0  0  0  0  0  0  0
   -1.4202    3.2497    1.6924 H   0  0  0  0  0  0  0  0  0  0  0  0
    0.2189    2.8921    1.2129 H   0  0  0  0  0  0  0  0  0  0  0  0
   -3.2094    1.2037    3.0244 H   0  0  0  0  0  0  0  0  0  0  0  0
   -4.5667    1.2403    1.8809 H   0  0  0  0  0  0  0  0  0  0  0  0
   -3.4952    2.6396    2.0131 H   0  0  0  0  0  0  0  0  0  0  0  0
    1.9083    1.1144    1.2473 N   0  0  0  0  0  0  0  0  0  0  0  0
    3.3684    1.1719    1.3640 C   0  0  2  0  0  0  0  0  0  0  0  0
    3.8060    1.2046    2.8425 C   0  0  0  0  0  0  0  0  0  0  0  0
    3.0248    1.5745    3.7128 O   0  0  0  0  0  0  0  0  0  0  0  0
    3.8733    2.4189    0.6315 C   0  0  0  0  0  0  0  0  0  0  0  0
    1.3920    1.1862    2.1245 H   0  0  0  0  0  0  0  0  0  0  0  0
    3.8080    0.2780    0.9094 H   0  0  0  0  0  0  0  0  0  0  0  0
    3.4398    3.3220    1.0729 H   0  0  0  0  0  0  0  0  0  0  0  0
    4.9634    2.4871    0.6964 H   0  0  0  0  0  0  0  0  0  0  0  0
    3.5929    2.3787   -0.4258 H   0  0  0  0  0  0  0  0  0  0  0  0
    5.0883    0.8307    3.2003 N   0  0  0  0  0  0  0  0  0  0  0  0
    5.5573    0.8097    4.5803 C   0  0  0  0  0  0  0  0  0  0  0  0
    5.7036    0.4980    2.4640 H   0  0  0  0  0  0  0  0  0  0  0  0
    5.4929    1.8097    5.0222 H   0  0  0  0  0  0  0  0  0  0  0  0
    4.9527    0.1204    5.1794 H   0  0  0  0  0  0  0  0  0  0  0  0
    6.6000    0.4809    4.6212 H   0  0  0  0  0  0  0  0  0  0  0  0
  1  2  2  0  0  0  0
  1  3  1  0  0  0  0
  1  7  1  0  0  0  0
  3  4  1  0  0  0  0
  3  5  1  0  0  0  0
  3  6  1  0  0  0  0
  7  8  1  0  0  0  0
  7 12  1  0  0  0  0
  8  9  1  0  0  0  0
  8 11  1  0  0  0  0
  8 13  1  0  0  0  0
  9 10  2  0  0  0  0
  9 17  1  0  0  0  0
 11 14  1  0  0  0  0
 11 15  1  0  0  0  0
 11 16  1  0  0  0  0
 17 18  1  0  0  0  0
 17 25  1  0  0  0  0
 18 19  1  0  0  0  0
 18 21  1  0  0  0  0
 18 26  1  0  0  0  0
 19 20  2  0  0  0  0
 19 36  1  0  0  0  0
 21 22  1  0  0  0  0
 21 23  1  0  0  0  0
 21 27  1  0  0  0  0
 22 24  1  0  0  0  0
 22 28  1  0  0  0  0
 22 29  1  0  0  0  0
 23 30  1  0  0  0  0
 23 31  1  0  0  0  0
 23 32  1  0  0  0  0
 24 33  1  0  0  0  0
 24 34  1  0  0  0  0
 24 35  1  0  0  0  0
 36 37  1  0  0  0  0
 36 41  1  0  0  0  0
 37 38  1  0  0  0  0
 37 40  1  0  0  0  0
 37 42  1  0  0  0  0
 38 39  2  0  0  0  0
 38 46  1  0  0  0  0
 40 43  1  0  0  0  0
 40 44  1  0  0  0  0
 40 45  1  0  0  0  0
 46 47  1  0  0  0  0
 46 48  1  0  0  0  0
 47 49  1  0  0  0  0
 47 50  1  0  0  0  0
 47 51  1  0  0  0  0
M  END
$$$$

  -OEChem-05262216503D

 51 50  0     1  0  0  0  0  0999 V2000
    1.1761   -5.7169    1.3934 C   0  0  0  0  0  0  0  0  0  0  0  0
    0.6204   -6.2655    0.4548 O   0  0  0  0  0  0  0  0  0  0  0  0
    2.3260   -6.4038    2.1060 C   0  0  0  0  0  0  0  0  0  0  0  0
    2.5063   -7.3890    1.6673 H   0  0  0  0  0  0  0  0  0  0  0  0
    3.2346   -5.8044    2.0112 H   0  0  0  0  0  0  0  0  0  0  0  0
    2.0885   -6.5283    3.1651 H   0  0  0  0  0  0  0  0  0  0  0  0
    0.7674   -4.4649    1.8001 N   0  0  0  0  0  0  0  0  0  0  0  0
   -0.2204   -3.6423    1.0901 C   0  0  2  0  0  0  0  0  0  0  0  0
    0.0853   -2.1374    1.2426 C   0  0  0  0  0  0  0  0  0  0  0  0
    0.8593   -1.7659    2.1159 O   0  0  0  0  0  0  0  0  0  0  0  0
   -1.6103   -3.9715    1.6437 C   0  0  0  0  0  0  0  0  0  0  0  0
    1.3277   -3.9949    2.5112 H   0  0  0  0  0  0  0  0  0  0  0  0
   -0.1922   -3.8744    0.0200 H   0  0  0  0  0  0  0  0  0  0  0  0
   -1.6624   -3.7345    2.7110 H   0  0  0  0  0  0  0  0  0  0  0  0
   -2.3805   -3.3973    1.1206 H   0  0  0  0  0  0  0  0  0  0  0  0
   -1.8270   -5.0364    1.5126 H   0  0  0  0  0  0  0  0  0  0  0  0
   -0.5822   -1.2127    0.4557 N   0  0  0  0  0  0  0  0  0  0  0  0
   -0.2166    0.2077    0.2400 C   0  0  2  0  0  0  0  0  0  0  0  0
    1.3128    0.4763    0.3262 C   0  0  0  0  0  0  0  0  0  0  0  0
    1.9686    0.4381   -0.7081 O   0  0  0  0  0  0  0  0  0  0  0  0
   -1.0598    1.0881    1.2115 C   0  0  2  0  0  0  0  0  0  0  0  0
   -2.5693    0.9415    0.8817 C   0  0  0  0  0  0  0  0  0  0  0  0
   -0.6864    2.5846    1.0869 C   0  0  0  0  0  0  0  0  0  0  0  0
   -3.4840    1.5559    1.9469 C   0  0  0  0  0  0  0  0  0  0  0  0
   -1.2038   -1.6213   -0.2359 H   0  0  0  0  0  0  0  0  0  0  0  0
   -0.4987    0.4790   -0.7828 H   0  0  0  0  0  0  0  0  0  0  0  0
   -0.8748    0.7565    2.2396 H   0  0  0  0  0  0  0  0  0  0  0  0
   -2.7851    1.3971   -0.0905 H   0  0  0  0  0  0  0  0  0  0  0  0
   -2.8317   -0.1177    0.8105 H   0  0  0  0  0  0  0  0  0  0  0  0
   -0.8497    2.9357    0.0630 H   0  0  0  0  0  0  0  0  0  0  0  0
   -1.2879    3.1965    1.7634 H   0  0  0  0  0  0  0  0  0  0  0  0
    0.3573    2.7699    1.3480 H   0  0  0  0  0  0  0  0  0  0  0  0
   -3.2244    1.1760    2.9399 H   0  0  0  0  0  0  0  0  0  0  0  0
   -4.5250    1.2918    1.7376 H   0  0  0  0  0  0  0  0  0  0  0  0
   -3.4098    2.6465    1.9557 H   0  0  0  0  0  0  0  0  0  0  0  0
    1.9499    0.8028    1.5096 N   0  0  0  0  0  0  0  0  0  0  0  0
    3.4038    0.9279    1.6542 C   0  0  2  0  0  0  0  0  0  0  0  0
    3.8626    0.5799    3.0853 C   0  0  0  0  0  0  0  0  0  0  0  0
    3.0893    0.6803    4.0313 O   0  0  0  0  0  0  0  0  0  0  0  0
    3.8097    2.3622    1.3017 C   0  0  0  0  0  0  0  0  0  0  0  0
    1.4398    0.5407    2.3557 H   0  0  0  0  0  0  0  0  0  0  0  0
    3.8998    0.2307    0.9712 H   0  0  0  0  0  0  0  0  0  0  0  0
    3.3164    3.0739    1.9715 H   0  0  0  0  0  0  0  0  0  0  0  0
    4.8924    2.4884    1.3948 H   0  0  0  0  0  0  0  0  0  0  0  0
    3.5228    2.5963    0.2718 H   0  0  0  0  0  0  0  0  0  0  0  0
    5.1636    0.1726    3.3189 N   0  0  0  0  0  0  0  0  0  0  0  0
    5.6669   -0.1731    4.6425 C   0  0  0  0  0  0  0  0  0  0  0  0
    5.7802    0.0840    2.5167 H   0  0  0  0  0  0  0  0  0  0  0  0
    5.6090    0.6915    5.3121 H   0  0  0  0  0  0  0  0  0  0  0  0
    5.0809   -0.9920    5.0733 H   0  0  0  0  0  0  0  0  0  0  0  0
    6.7117   -0.4919    4.5789 H   0  0  0  0  0  0  0  0  0  0  0  0
  1  2  2  0  0  0  0
  1  3  1  0  0  0  0
  1  7  1  0  0  0  0
  3  4  1  0  0  0  0
  3  5  1  0  0  0  0
  3  6  1  0  0  0  0
  7  8  1  0  0  0  0
  7 12  1  0  0  0  0
  8  9  1  0  0  0  0
  8 11  1  0  0  0  0
  8 13  1  0  0  0  0
  9 10  2  0  0  0  0
  9 17  1  0  0  0  0
 11 14  1  0  0  0  0
 11 15  1  0  0  0  0
 11 16  1  0  0  0  0
 17 18  1  0  0  0  0
 17 25  1  0  0  0  0
 18 19  1  0  0  0  0
 18 21  1  0  0  0  0
 18 26  1  0  0  0  0
 19 20  2  0  0  0  0
 19 36  1  0  0  0  0
 21 22  1  0  0  0  0
 21 23  1  0  0  0  0
 21 27  1  0  0  0  0
 22 24  1  0  0  0  0
 22 28  1  0  0  0  0
 22 29  1  0  0  0  0
 23 30  1  0  0  0  0
 23 31  1  0  0  0  0
 23 32  1  0  0  0  0
 24 33  1  0  0  0  0
 24 34  1  0  0  0  0
 24 35  1  0  0  0  0
 36 37  1  0  0  0  0
 36 41  1  0  0  0  0
 37 38  1  0  0  0  0
 37 40  1  0  0  0  0
 37 42  1  0  0  0  0
 38 39  2  0  0  0  0
 38 46  1  0  0  0  0
 40 43  1  0  0  0  0
 40 44  1  0  0  0  0
 40 45  1  0  0  0  0
 46 47  1  0  0  0  0
 46 48  1  0  0  0  0
 47 49  1  0  0  0  0
 47 50  1  0  0  0  0
 47 51  1  0  0  0  0
M  END
$$$$

  -OEChem-05262216503D

 51 50  0     1  0  0  0  0  0999 V2000
    1.1797   -5.4835    1.0243 C   0  0  0  0  0  0  0  0  0  0  0  0
    0.9184   -5.6211   -0.1603 O   0  0  0  0  0  0  0  0  0  0  0  0
    2.4053   -6.1555    1.6137 C   0  0  0  0  0  0  0  0  0  0  0  0
    2.9130   -6.7513    0.8498 H   0  0  0  0  0  0  0  0  0  0  0  0
    3.0990   -5.3993    1.9898 H   0  0  0  0  0  0  0  0  0  0  0  0
    2.1126   -6.8129    2.4360 H   0  0  0  0  0  0  0  0  0  0  0  0
    0.3808   -4.6968    1.8278 N   0  0  0  0  0  0  0  0  0  0  0  0
   -0.6372   -3.7757    1.3027 C   0  0  2  0  0  0  0  0  0  0  0  0
   -0.1663   -2.3103    1.3938 C   0  0  0  0  0  0  0  0  0  0  0  0
    0.5371   -1.9698    2.3342 O   0  0  0  0  0  0  0  0  0  0  0  0
   -1.9150   -3.9770    2.1203 C   0  0  0  0  0  0  0  0  0  0  0  0
    0.7737   -4.4591    2.7368 H   0  0  0  0  0  0  0  0  0  0  0  0
   -0.8582   -3.9968    0.2533 H   0  0  0  0  0  0  0  0  0  0  0  0
   -1.7350   -3.7487    3.1759 H   0  0  0  0  0  0  0  0  0  0  0  0
   -2.7108   -3.3209    1.7543 H   0  0  0  0  0  0  0  0  0  0  0  0
   -2.2563   -5.0139    2.0405 H   0  0  0  0  0  0  0  0  0  0  0  0
   -0.6656   -1.3624    0.5174 N   0  0  0  0  0  0  0  0  0  0  0  0
   -0.1497    0.0064    0.2715 C   0  0  2  0  0  0  0  0  0  0  0  0
    1.3824    0.2066    0.4595 C   0  0  0  0  0  0  0  0  0  0  0  0
    2.0600    0.4222   -0.5385 O   0  0  0  0  0  0  0  0  0  0  0  0
   -0.9793    0.9962    1.1451 C   0  0  2  0  0  0  0  0  0  0  0  0
   -2.4693    0.9746    0.7114 C   0  0  0  0  0  0  0  0  0  0  0  0
   -0.4459    2.4421    1.0238 C   0  0  0  0  0  0  0  0  0  0  0  0
   -3.3942    1.7117    1.6858 C   0  0  0  0  0  0  0  0  0  0  0  0
   -1.2548   -1.7466   -0.2156 H   0  0  0  0  0  0  0  0  0  0  0  0
   -0.3428    0.2484   -0.7791 H   0  0  0  0  0  0  0  0  0  0  0  0
   -0.9035    0.6829    2.1927 H   0  0  0  0  0  0  0  0  0  0  0  0
   -2.5715    1.4106   -0.2879 H   0  0  0  0  0  0  0  0  0  0  0  0
   -2.8244   -0.0580    0.6551 H   0  0  0  0  0  0  0  0  0  0  0  0
   -0.4693    2.7725   -0.0196 H   0  0  0  0  0  0  0  0  0  0  0  0
   -1.0445    3.1340    1.6207 H   0  0  0  0  0  0  0  0  0  0  0  0
    0.5810    2.5237    1.3891 H   0  0  0  0  0  0  0  0  0  0  0  0
   -3.2424    1.3487    2.7071 H   0  0  0  0  0  0  0  0  0  0  0  0
   -4.4383    1.5369    1.4092 H   0  0  0  0  0  0  0  0  0  0  0  0
   -3.2177    2.7903    1.6645 H   0  0  0  0  0  0  0  0  0  0  0  0
    1.9969    0.2709    1.6970 N   0  0  0  0  0  0  0  0  0  0  0  0
    3.4412    0.4552    1.8911 C   0  0  2  0  0  0  0  0  0  0  0  0
    3.9513   -0.1751    3.2048 C   0  0  0  0  0  0  0  0  0  0  0  0
    3.1849   -0.4169    4.1295 O   0  0  0  0  0  0  0  0  0  0  0  0
    3.7401    1.9579    1.8795 C   0  0  0  0  0  0  0  0  0  0  0  0
    1.4887   -0.2025    2.4524 H   0  0  0  0  0  0  0  0  0  0  0  0
    3.9814   -0.0285    1.0708 H   0  0  0  0  0  0  0  0  0  0  0  0
    3.2076    2.4583    2.6946 H   0  0  0  0  0  0  0  0  0  0  0  0
    4.8123    2.1383    2.0000 H   0  0  0  0  0  0  0  0  0  0  0  0
    3.4215    2.4019    0.9314 H   0  0  0  0  0  0  0  0  0  0  0  0
    5.2974   -0.4554    3.3605 N   0  0  0  0  0  0  0  0  0  0  0  0
    5.8569   -1.0506    4.5683 C   0  0  0  0  0  0  0  0  0  0  0  0
    5.9119   -0.2596    2.5758 H   0  0  0  0  0  0  0  0  0  0  0  0
    5.6007   -0.4495    5.4475 H   0  0  0  0  0  0  0  0  0  0  0  0
    5.4681   -2.0646    4.7095 H   0  0  0  0  0  0  0  0  0  0  0  0
    6.9474   -1.1040    4.4943 H   0  0  0  0  0  0  0  0  0  0  0  0
  1  2  2  0  0  0  0
  1  3  1  0  0  0  0
  1  7  1  0  0  0  0
  3  4  1  0  0  0  0
  3  5  1  0  0  0  0
  3  6  1  0  0  0  0
  7  8  1  0  0  0  0
  7 12  1  0  0  0  0
  8  9  1  0  0  0  0
  8 11  1  0  0  0  0
  8 13  1  0  0  0  0
  9 10  2  0  0  0  0
  9 17  1  0  0  0  0
 11 14  1  0  0  0  0
 11 15  1  0  0  0  0
 11 16  1  0  0  0  0
 17 18  1  0  0  0  0
 17 25  1  0  0  0  0
 18 19  1  0  0  0  0
 18 21  1  0  0  0  0
 18 26  1  0  0  0  0
 19 20  2  0  0  0  0
 19 36  1  0  0  0  0
 21 22  1  0  0  0  0
 21 23  1  0  0  0  0
 21 27  1  0  0  0  0
 22 24  1  0  0  0  0
 22 28  1  0  0  0  0
 22 29  1  0  0  0  0
 23 30  1  0  0  0  0
 23 31  1  0  0  0  0
 23 32  1  0  0  0  0
 24 33  1  0  0  0  0
 24 34  1  0  0  0  0
 24 35  1  0  0  0  0
 36 37  1  0  0  0  0
 36 41  1  0  0  0  0
 37 38  1  0  0  0  0
 37 40  1  0  0  0  0
 37 42  1  0  0  0  0
 38 39  2  0  0  0  0
 38 46  1  0  0  0  0
 40 43  1  0  0  0  0
 40 44  1  0  0  0  0
 40 45  1  0  0  0  0
 46 47  1  0  0  0  0
 46 48  1  0  0  0  0
 47 49  1  0  0  0  0
 47 50  1  0  0  0  0
 47 51  1  0  0  0  0
M  END
$$$$

  -OEChem-05262216503D

 51 50  0     1  0  0  0  0  0999 V2000
    0.9695   -4.1217    0.7361 C   0  0  0  0  0  0  0  0  0  0  0  0
    0.0091   -4.0844   -0.0223 O   0  0  0  0  0  0  0  0  0  0  0  0
    2.3766   -4.2389    0.1852 C   0  0  0  0  0  0  0  0  0  0  0  0
    2.3472   -4.4844   -0.8797 H   0  0  0  0  0  0  0  0  0  0  0  0
    2.9034   -3.2898    0.3142 H   0  0  0  0  0  0  0  0  0  0  0  0
    2.9211   -5.0243    0.7142 H   0  0  0  0  0  0  0  0  0  0  0  0
    0.7731   -3.9206    2.0857 N   0  0  0  0  0  0  0  0  0  0  0  0
   -0.5097   -3.4856    2.6534 C   0  0  2  0  0  0  0  0  0  0  0  0
   -0.7328   -1.9818    2.3778 C   0  0  0  0  0  0  0  0  0  0  0  0
   -0.7390   -1.1499    3.2794 O   0  0  0  0  0  0  0  0  0  0  0  0
   -0.4875   -3.8260    4.1482 C   0  0  0  0  0  0  0  0  0  0  0  0
    1.6175   -3.6830    2.6185 H   0  0  0  0  0  0  0  0  0  0  0  0
   -1.3342   -4.0396    2.1924 H   0  0  0  0  0  0  0  0  0  0  0  0
    0.3297   -3.2980    4.6511 H   0  0  0  0  0  0  0  0  0  0  0  0
   -1.4316   -3.5343    4.6190 H   0  0  0  0  0  0  0  0  0  0  0  0
   -0.3471   -4.9017    4.2911 H   0  0  0  0  0  0  0  0  0  0  0  0
   -0.8450   -1.5425    1.0707 N   0  0  0  0  0  0  0  0  0  0  0  0
   -0.0487   -0.4318    0.4949 C   0  0  2  0  0  0  0  0  0  0  0  0
    1.3700   -0.2487    1.1035 C   0  0  0  0  0  0  0  0  0  0  0  0
    2.3460   -0.3663    0.3705 O   0  0  0  0  0  0  0  0  0  0  0  0
   -0.8835    0.8797    0.5866 C   0  0  2  0  0  0  0  0  0  0  0  0
   -2.1717    0.7508   -0.2664 C   0  0  0  0  0  0  0  0  0  0  0  0
   -0.0683    2.1034    0.1128 C   0  0  0  0  0  0  0  0  0  0  0  0
   -3.1745    1.8829   -0.0225 C   0  0  0  0  0  0  0  0  0  0  0  0
   -0.9042   -2.3462    0.4380 H   0  0  0  0  0  0  0  0  0  0  0  0
    0.1098   -0.6542   -0.5659 H   0  0  0  0  0  0  0  0  0  0  0  0
   -1.1657    1.0385    1.6332 H   0  0  0  0  0  0  0  0  0  0  0  0
   -1.9105    0.7176   -1.3292 H   0  0  0  0  0  0  0  0  0  0  0  0
   -2.6818   -0.1866   -0.0264 H   0  0  0  0  0  0  0  0  0  0  0  0
    0.2692    1.9631   -0.9191 H   0  0  0  0  0  0  0  0  0  0  0  0
   -0.6653    3.0172    0.1618 H   0  0  0  0  0  0  0  0  0  0  0  0
    0.8084    2.2663    0.7462 H   0  0  0  0  0  0  0  0  0  0  0  0
   -3.3931    1.9769    1.0457 H   0  0  0  0  0  0  0  0  0  0  0  0
   -4.1093    1.6687   -0.5492 H   0  0  0  0  0  0  0  0  0  0  0  0
   -2.7932    2.8388   -0.3907 H   0  0  0  0  0  0  0  0  0  0  0  0
    1.5979    0.0180    2.4391 N   0  0  0  0  0  0  0  0  0  0  0  0
    2.9301   -0.0644    3.0476 C   0  0  2  0  0  0  0  0  0  0  0  0
    3.5631   -1.4750    2.9677 C   0  0  0  0  0  0  0  0  0  0  0  0
    2.9292   -2.4809    3.2766 O   0  0  0  0  0  0  0  0  0  0  0  0
    2.7942    0.3696    4.5083 C   0  0  0  0  0  0  0  0  0  0  0  0
    0.7834   -0.1281    3.0436 H   0  0  0  0  0  0  0  0  0  0  0  0
    3.5940    0.6382    2.5338 H   0  0  0  0  0  0  0  0  0  0  0  0
    2.1263   -0.3094    5.0488 H   0  0  0  0  0  0  0  0  0  0  0  0
    3.7712    0.3615    5.0008 H   0  0  0  0  0  0  0  0  0  0  0  0
    2.3836    1.3824    4.5679 H   0  0  0  0  0  0  0  0  0  0  0  0
    4.8791   -1.6148    2.5683 N   0  0  0  0  0  0  0  0  0  0  0  0
    5.5352   -2.9060    2.4053 C   0  0  0  0  0  0  0  0  0  0  0  0
    5.3241   -0.7912    2.1729 H   0  0  0  0  0  0  0  0  0  0  0  0
    5.4790   -3.4867    3.3323 H   0  0  0  0  0  0  0  0  0  0  0  0
    5.0621   -3.4780    1.6011 H   0  0  0  0  0  0  0  0  0  0  0  0
    6.5906   -2.7632    2.1545 H   0  0  0  0  0  0  0  0  0  0  0  0
  1  2  2  0  0  0  0
  1  3  1  0  0  0  0
  1  7  1  0  0  0  0
  3  4  1  0  0  0  0
  3  5  1  0  0  0  0
  3  6  1  0  0  0  0
  7  8  1  0  0  0  0
  7 12  1  0  0  0  0
  8  9  1  0  0  0  0
  8 11  1  0  0  0  0
  8 13  1  0  0  0  0
  9 10  2  0  0  0  0
  9 17  1  0  0  0  0
 11 14  1  0  0  0  0
 11 15  1  0  0  0  0
 11 16  1  0  0  0  0
 17 18  1  0  0  0  0
 17 25  1  0  0  0  0
 18 19  1  0  0  0  0
 18 21  1  0  0  0  0
 18 26  1  0  0  0  0
 19 20  2  0  0  0  0
 19 36  1  0  0  0  0
 21 22  1  0  0  0  0
 21 23  1  0  0  0  0
 21 27  1  0  0  0  0
 22 24  1  0  0  0  0
 22 28  1  0  0  0  0
 22 29  1  0  0  0  0
 23 30  1  0  0  0  0
 23 31  1  0  0  0  0
 23 32  1  0  0  0  0
 24 33  1  0  0  0  0
 24 34  1  0  0  0  0
 24 35  1  0  0  0  0
 36 37  1  0  0  0  0
 36 41  1  0  0  0  0
 37 38  1  0  0  0  0
 37 40  1  0  0  0  0
 37 42  1  0  0  0  0
 38 39  2  0  0  0  0
 38 46  1  0  0  0  0
 40 43  1  0  0  0  0
 40 44  1  0  0  0  0
 40 45  1  0  0  0  0
 46 47  1  0  0  0  0
 46 48  1  0  0  0  0
 47 49  1  0  0  0  0
 47 50  1  0  0  0  0
 47 51  1  0  0  0  0
M  END
$$$$

  -OEChem-05262216503D

 51 50  0     1  0  0  0  0  0999 V2000
    0.7515   -4.2818    0.6893 C   0  0  0  0  0  0  0  0  0  0  0  0
   -0.2399   -4.1679   -0.0194 O   0  0  0  0  0  0  0  0  0  0  0  0
    2.1136   -4.5060    0.0644 C   0  0  0  0  0  0  0  0  0  0  0  0
    2.0039   -4.8839   -0.9557 H   0  0  0  0  0  0  0  0  0  0  0  0
    2.6650   -3.5626    0.0374 H   0  0  0  0  0  0  0  0  0  0  0  0
    2.6800   -5.2326    0.6518 H   0  0  0  0  0  0  0  0  0  0  0  0
    0.6412   -4.0591    2.0451 N   0  0  0  0  0  0  0  0  0  0  0  0
   -0.5841   -3.5586    2.6845 C   0  0  2  0  0  0  0  0  0  0  0  0
   -0.7479   -2.0428    2.4321 C   0  0  0  0  0  0  0  0  0  0  0  0
   -0.7081   -1.2269    3.3467 O   0  0  0  0  0  0  0  0  0  0  0  0
   -0.4999   -3.9137    4.1736 C   0  0  0  0  0  0  0  0  0  0  0  0
    1.5286   -3.8965    2.5349 H   0  0  0  0  0  0  0  0  0  0  0  0
   -1.4605   -4.0644    2.2656 H   0  0  0  0  0  0  0  0  0  0  0  0
    0.3684   -3.4323    4.6357 H   0  0  0  0  0  0  0  0  0  0  0  0
   -1.4016   -3.5787    4.6957 H   0  0  0  0  0  0  0  0  0  0  0  0
   -0.4082   -4.9965    4.3013 H   0  0  0  0  0  0  0  0  0  0  0  0
   -0.8413   -1.5837    1.1311 N   0  0  0  0  0  0  0  0  0  0  0  0
   -0.0294   -0.4884    0.5433 C   0  0  2  0  0  0  0  0  0  0  0  0
    1.4069   -0.3010    1.1166 C   0  0  0  0  0  0  0  0  0  0  0  0
    2.3484   -0.2545    0.3321 O   0  0  0  0  0  0  0  0  0  0  0  0
   -0.8551    0.8293    0.6470 C   0  0  2  0  0  0  0  0  0  0  0  0
   -2.1556    0.7134   -0.1908 C   0  0  0  0  0  0  0  0  0  0  0  0
   -0.0406    2.0522    0.1706 C   0  0  0  0  0  0  0  0  0  0  0  0
   -3.1471    1.8528    0.0680 C   0  0  0  0  0  0  0  0  0  0  0  0
   -0.9537   -2.3750    0.4896 H   0  0  0  0  0  0  0  0  0  0  0  0
    0.1062   -0.7168   -0.5191 H   0  0  0  0  0  0  0  0  0  0  0  0
   -1.1240    0.9856    1.6975 H   0  0  0  0  0  0  0  0  0  0  0  0
   -1.9077    0.6820   -1.2570 H   0  0  0  0  0  0  0  0  0  0  0  0
   -2.6713   -0.2203    0.0519 H   0  0  0  0  0  0  0  0  0  0  0  0
    0.2949    1.9109   -0.8619 H   0  0  0  0  0  0  0  0  0  0  0  0
   -0.6362    2.9666    0.2195 H   0  0  0  0  0  0  0  0  0  0  0  0
    0.8369    2.2142    0.8033 H   0  0  0  0  0  0  0  0  0  0  0  0
   -3.3436    1.9532    1.1400 H   0  0  0  0  0  0  0  0  0  0  0  0
   -4.0942    1.6413   -0.4375 H   0  0  0  0  0  0  0  0  0  0  0  0
   -2.7682    2.8047   -0.3130 H   0  0  0  0  0  0  0  0  0  0  0  0
    1.7153   -0.3118    2.4624 N   0  0  0  0  0  0  0  0  0  0  0  0
    3.0764   -0.4773    2.9814 C   0  0  2  0  0  0  0  0  0  0  0  0
    3.6737   -1.8710    2.6760 C   0  0  0  0  0  0  0  0  0  0  0  0
    3.0780   -2.9000    2.9872 O   0  0  0  0  0  0  0  0  0  0  0  0
    3.0271   -0.2398    4.4923 C   0  0  0  0  0  0  0  0  0  0  0  0
    0.9282   -0.4922    3.0919 H   0  0  0  0  0  0  0  0  0  0  0  0
    3.7239    0.2821    2.5314 H   0  0  0  0  0  0  0  0  0  0  0  0
    2.3724   -0.9731    4.9752 H   0  0  0  0  0  0  0  0  0  0  0  0
    4.0284   -0.3302    4.9249 H   0  0  0  0  0  0  0  0  0  0  0  0
    2.6446    0.7628    4.7077 H   0  0  0  0  0  0  0  0  0  0  0  0
    4.9133   -1.9701    2.0726 N   0  0  0  0  0  0  0  0  0  0  0  0
    5.5369   -3.2379    1.7139 C   0  0  0  0  0  0  0  0  0  0  0  0
    5.2918   -1.1143    1.6746 H   0  0  0  0  0  0  0  0  0  0  0  0
    5.5693   -3.9104    2.5776 H   0  0  0  0  0  0  0  0  0  0  0  0
    4.9807   -3.7253    0.9075 H   0  0  0  0  0  0  0  0  0  0  0  0
    6.5634   -3.0689    1.3745 H   0  0  0  0  0  0  0  0  0  0  0  0
  1  2  2  0  0  0  0
  1  3  1  0  0  0  0
  1  7  1  0  0  0  0
  3  4  1  0  0  0  0
  3  5  1  0  0  0  0
  3  6  1  0  0  0  0
  7  8  1  0  0  0  0
  7 12  1  0  0  0  0
  8  9  1  0  0  0  0
  8 11  1  0  0  0  0
  8 13  1  0  0  0  0
  9 10  2  0  0  0  0
  9 17  1  0  0  0  0
 11 14  1  0  0  0  0
 11 15  1  0  0  0  0
 11 16  1  0  0  0  0
 17 18  1  0  0  0  0
 17 25  1  0  0  0  0
 18 19  1  0  0  0  0
 18 21  1  0  0  0  0
 18 26  1  0  0  0  0
 19 20  2  0  0  0  0
 19 36  1  0  0  0  0
 21 22  1  0  0  0  0
 21 23  1  0  0  0  0
 21 27  1  0  0  0  0
 22 24  1  0  0  0  0
 22 28  1  0  0  0  0
 22 29  1  0  0  0  0
 23 30  1  0  0  0  0
 23 31  1  0  0  0  0
 23 32  1  0  0  0  0
 24 33  1  0  0  0  0
 24 34  1  0  0  0  0
 24 35  1  0  0  0  0
 36 37  1  0  0  0  0
 36 41  1  0  0  0  0
 37 38  1  0  0  0  0
 37 40  1  0  0  0  0
 37 42  1  0  0  0  0
 38 39  2  0  0  0  0
 38 46  1  0  0  0  0
 40 43  1  0  0  0  0
 40 44  1  0  0  0  0
 40 45  1  0  0  0  0
 46 47  1  0  0  0  0
 46 48  1  0  0  0  0
 47 49  1  0  0  0  0
 47 50  1  0  0  0  0
 47 51  1  0  0  0  0
M  END
$$$$

  -OEChem-05262216503D

 51 50  0     1  0  0  0  0  0999 V2000
    1.8240   -4.9687    1.5710 C   0  0  0  0  0  0  0  0  0  0  0  0
    2.5353   -4.5343    0.6745 O   0  0  0  0  0  0  0  0  0  0  0  0
    2.4404   -5.7653    2.7051 C   0  0  0  0  0  0  0  0  0  0  0  0
    1.8526   -6.6668    2.8946 H   0  0  0  0  0  0  0  0  0  0  0  0
    3.4614   -6.0608    2.4491 H   0  0  0  0  0  0  0  0  0  0  0  0
    2.4650   -5.1567    3.6130 H   0  0  0  0  0  0  0  0  0  0  0  0
    0.4750   -4.6845    1.5952 N   0  0  0  0  0  0  0  0  0  0  0  0
   -0.1330   -3.6633    0.7292 C   0  0  2  0  0  0  0  0  0  0  0  0
    0.0053   -2.2339    1.3050 C   0  0  0  0  0  0  0  0  0  0  0  0
    0.4132   -2.0765    2.4464 O   0  0  0  0  0  0  0  0  0  0  0  0
   -1.6066   -4.0414    0.5518 C   0  0  0  0  0  0  0  0  0  0  0  0
    0.0221   -4.8512    2.4901 H   0  0  0  0  0  0  0  0  0  0  0  0
    0.3481   -3.6771   -0.2546 H   0  0  0  0  0  0  0  0  0  0  0  0
   -2.1329   -3.9924    1.5109 H   0  0  0  0  0  0  0  0  0  0  0  0
   -2.0994   -3.3615   -0.1495 H   0  0  0  0  0  0  0  0  0  0  0  0
   -1.6923   -5.0595    0.1584 H   0  0  0  0  0  0  0  0  0  0  0  0
   -0.5043   -1.1512    0.6118 N   0  0  0  0  0  0  0  0  0  0  0  0
   -0.0930    0.2739    0.7001 C   0  0  2  0  0  0  0  0  0  0  0  0
    1.3855    0.6626    1.0438 C   0  0  0  0  0  0  0  0  0  0  0  0
    1.7983    1.7488    0.6627 O   0  0  0  0  0  0  0  0  0  0  0  0
   -1.1113    0.9179    1.7045 C   0  0  2  0  0  0  0  0  0  0  0  0
   -2.5564    0.8457    1.1341 C   0  0  0  0  0  0  0  0  0  0  0  0
   -0.7785    2.3857    2.0533 C   0  0  0  0  0  0  0  0  0  0  0  0
   -3.6392    1.2067    2.1572 C   0  0  0  0  0  0  0  0  0  0  0  0
   -0.9460   -1.4077   -0.2652 H   0  0  0  0  0  0  0  0  0  0  0  0
   -0.2622    0.7216   -0.2843 H   0  0  0  0  0  0  0  0  0  0  0  0
   -1.0717    0.3427    2.6367 H   0  0  0  0  0  0  0  0  0  0  0  0
   -2.6420    1.5101    0.2681 H   0  0  0  0  0  0  0  0  0  0  0  0
   -2.7766   -0.1678    0.7897 H   0  0  0  0  0  0  0  0  0  0  0  0
   -0.7277    2.9950    1.1452 H   0  0  0  0  0  0  0  0  0  0  0  0
   -1.5279    2.8181    2.7196 H   0  0  0  0  0  0  0  0  0  0  0  0
    0.1783    2.4562    2.5786 H   0  0  0  0  0  0  0  0  0  0  0  0
   -3.5048    0.6286    3.0768 H   0  0  0  0  0  0  0  0  0  0  0  0
   -4.6273    0.9774    1.7468 H   0  0  0  0  0  0  0  0  0  0  0  0
   -3.6183    2.2717    2.4023 H   0  0  0  0  0  0  0  0  0  0  0  0
    2.3214    0.0011    1.8044 N   0  0  0  0  0  0  0  0  0  0  0  0
    3.1417   -1.0725    1.2145 C   0  0  2  0  0  0  0  0  0  0  0  0
    4.1307   -1.6599    2.2428 C   0  0  0  0  0  0  0  0  0  0  0  0
    4.6349   -0.9462    3.1031 O   0  0  0  0  0  0  0  0  0  0  0  0
    3.9412   -0.5396    0.0164 C   0  0  0  0  0  0  0  0  0  0  0  0
    2.9078    0.6741    2.2949 H   0  0  0  0  0  0  0  0  0  0  0  0
    2.5089   -1.8871    0.8660 H   0  0  0  0  0  0  0  0  0  0  0  0
    4.5673    0.3052    0.3217 H   0  0  0  0  0  0  0  0  0  0  0  0
    4.5888   -1.3235   -0.3885 H   0  0  0  0  0  0  0  0  0  0  0  0
    3.2722   -0.2061   -0.7823 H   0  0  0  0  0  0  0  0  0  0  0  0
    4.5341   -2.9776    2.1391 N   0  0  0  0  0  0  0  0  0  0  0  0
    5.4785   -3.6032    3.0544 C   0  0  0  0  0  0  0  0  0  0  0  0
    4.0516   -3.5563    1.4475 H   0  0  0  0  0  0  0  0  0  0  0  0
    6.4163   -3.0383    3.0842 H   0  0  0  0  0  0  0  0  0  0  0  0
    5.0594   -3.6451    4.0649 H   0  0  0  0  0  0  0  0  0  0  0  0
    5.7025   -4.6226    2.7268 H   0  0  0  0  0  0  0  0  0  0  0  0
  1  2  2  0  0  0  0
  1  3  1  0  0  0  0
  1  7  1  0  0  0  0
  3  4  1  0  0  0  0
  3  5  1  0  0  0  0
  3  6  1  0  0  0  0
  7  8  1  0  0  0  0
  7 12  1  0  0  0  0
  8  9  1  0  0  0  0
  8 11  1  0  0  0  0
  8 13  1  0  0  0  0
  9 10  2  0  0  0  0
  9 17  1  0  0  0  0
 11 14  1  0  0  0  0
 11 15  1  0  0  0  0
 11 16  1  0  0  0  0
 17 18  1  0  0  0  0
 17 25  1  0  0  0  0
 18 19  1  0  0  0  0
 18 21  1  0  0  0  0
 18 26  1  0  0  0  0
 19 20  2  0  0  0  0
 19 36  1  0  0  0  0
 21 22  1  0  0  0  0
 21 23  1  0  0  0  0
 21 27  1  0  0  0  0
 22 24  1  0  0  0  0
 22 28  1  0  0  0  0
 22 29  1  0  0  0  0
 23 30  1  0  0  0  0
 23 31  1  0  0  0  0
 23 32  1  0  0  0  0
 24 33  1  0  0  0  0
 24 34  1  0  0  0  0
 24 35  1  0  0  0  0
 36 37  1  0  0  0  0
 36 41  1  0  0  0  0
 37 38  1  0  0  0  0
 37 40  1  0  0  0  0
 37 42  1  0  0  0  0
 38 39  2  0  0  0  0
 38 46  1  0  0  0  0
 40 43  1  0  0  0  0
 40 44  1  0  0  0  0
 40 45  1  0  0  0  0
 46 47  1  0  0  0  0
 46 48  1  0  0  0  0
 47 49  1  0  0  0  0
 47 50  1  0  0  0  0
 47 51  1  0  0  0  0
M  END
$$$$

  -OEChem-05262216503D

 51 50  0     1  0  0  0  0  0999 V2000
    0.2617   -4.5339    0.5132 C   0  0  0  0  0  0  0  0  0  0  0  0
   -0.8158   -4.2639    0.0000 O   0  0  0  0  0  0  0  0  0  0  0  0
    1.4229   -4.9958   -0.3454 C   0  0  0  0  0  0  0  0  0  0  0  0
    1.0593   -5.3572   -1.3111 H   0  0  0  0  0  0  0  0  0  0  0  0
    2.1123   -4.1645   -0.5128 H   0  0  0  0  0  0  0  0  0  0  0  0
    1.9592   -5.8059    0.1551 H   0  0  0  0  0  0  0  0  0  0  0  0
    0.4491   -4.2890    1.8564 N   0  0  0  0  0  0  0  0  0  0  0  0
   -0.5539   -3.6390    2.7148 C   0  0  2  0  0  0  0  0  0  0  0  0
   -0.5671   -2.1088    2.4902 C   0  0  0  0  0  0  0  0  0  0  0  0
   -0.2777   -1.3247    3.3865 O   0  0  0  0  0  0  0  0  0  0  0  0
   -0.2329   -4.0332    4.1616 C   0  0  0  0  0  0  0  0  0  0  0  0
    1.4302   -4.2479    2.1545 H   0  0  0  0  0  0  0  0  0  0  0  0
   -1.5536   -4.0174    2.4758 H   0  0  0  0  0  0  0  0  0  0  0  0
    0.7663   -3.6853    4.4438 H   0  0  0  0  0  0  0  0  0  0  0  0
   -0.9618   -3.5900    4.8475 H   0  0  0  0  0  0  0  0  0  0  0  0
   -0.2677   -5.1210    4.2754 H   0  0  0  0  0  0  0  0  0  0  0  0
   -0.7789   -1.6294    1.2112 N   0  0  0  0  0  0  0  0  0  0  0  0
   -0.0596   -0.5248    0.5234 C   0  0  2  0  0  0  0  0  0  0  0  0
    1.4354   -0.2749    0.9034 C   0  0  0  0  0  0  0  0  0  0  0  0
    2.1888    0.1231    0.0214 O   0  0  0  0  0  0  0  0  0  0  0  0
   -0.9250    0.7597    0.7326 C   0  0  2  0  0  0  0  0  0  0  0  0
   -2.3126    0.5910    0.0560 C   0  0  0  0  0  0  0  0  0  0  0  0
   -0.2392    2.0288    0.1806 C   0  0  0  0  0  0  0  0  0  0  0  0
   -3.3132    1.6873    0.4379 C   0  0  0  0  0  0  0  0  0  0  0  0
   -1.0547   -2.3903    0.5827 H   0  0  0  0  0  0  0  0  0  0  0  0
   -0.0487   -0.7568   -0.5467 H   0  0  0  0  0  0  0  0  0  0  0  0
   -1.0727    0.8983    1.8096 H   0  0  0  0  0  0  0  0  0  0  0  0
   -2.1927    0.5716   -1.0321 H   0  0  0  0  0  0  0  0  0  0  0  0
   -2.7594   -0.3627    0.3506 H   0  0  0  0  0  0  0  0  0  0  0  0
   -0.0139    1.9105   -0.8842 H   0  0  0  0  0  0  0  0  0  0  0  0
   -0.8733    2.9093    0.3054 H   0  0  0  0  0  0  0  0  0  0  0  0
    0.6923    2.2377    0.7145 H   0  0  0  0  0  0  0  0  0  0  0  0
   -3.3740    1.7875    1.5261 H   0  0  0  0  0  0  0  0  0  0  0  0
   -4.3068    1.4298    0.0588 H   0  0  0  0  0  0  0  0  0  0  0  0
   -3.0307    2.6521    0.0085 H   0  0  0  0  0  0  0  0  0  0  0  0
    2.0466   -0.7947    2.0279 N   0  0  0  0  0  0  0  0  0  0  0  0
    3.4823   -1.0456    2.1884 C   0  0  2  0  0  0  0  0  0  0  0  0
    3.8707   -2.4773    1.7600 C   0  0  0  0  0  0  0  0  0  0  0  0
    3.1740   -3.4407    2.0732 O   0  0  0  0  0  0  0  0  0  0  0  0
    3.8261   -0.8157    3.6611 C   0  0  0  0  0  0  0  0  0  0  0  0
    1.4144   -1.1197    2.7617 H   0  0  0  0  0  0  0  0  0  0  0  0
    4.0581   -0.3344    1.5874 H   0  0  0  0  0  0  0  0  0  0  0  0
    3.2724   -1.5133    4.2981 H   0  0  0  0  0  0  0  0  0  0  0  0
    4.8971   -0.9632    3.8308 H   0  0  0  0  0  0  0  0  0  0  0  0
    3.5653    0.2056    3.9555 H   0  0  0  0  0  0  0  0  0  0  0  0
    5.0349   -2.6988    1.0488 N   0  0  0  0  0  0  0  0  0  0  0  0
    5.4609   -4.0163    0.5933 C   0  0  0  0  0  0  0  0  0  0  0  0
    5.5436   -1.8803    0.7251 H   0  0  0  0  0  0  0  0  0  0  0  0
    5.5331   -4.7095    1.4382 H   0  0  0  0  0  0  0  0  0  0  0  0
    4.7488   -4.4193   -0.1341 H   0  0  0  0  0  0  0  0  0  0  0  0
    6.4444   -3.9520    0.1174 H   0  0  0  0  0  0  0  0  0  0  0  0
  1  2  2  0  0  0  0
  1  3  1  0  0  0  0
  1  7  1  0  0  0  0
  3  4  1  0  0  0  0
  3  5  1  0  0  0  0
  3  6  1  0  0  0  0
  7  8  1  0  0  0  0
  7 12  1  0  0  0  0
  8  9  1  0  0  0  0
  8 11  1  0  0  0  0
  8 13  1  0  0  0  0
  9 10  2  0  0  0  0
  9 17  1  0  0  0  0
 11 14  1  0  0  0  0
 11 15  1  0  0  0  0
 11 16  1  0  0  0  0
 17 18  1  0  0  0  0
 17 25  1  0  0  0  0
 18 19  1  0  0  0  0
 18 21  1  0  0  0  0
 18 26  1  0  0  0  0
 19 20  2  0  0  0  0
 19 36  1  0  0  0  0
 21 22  1  0  0  0  0
 21 23  1  0  0  0  0
 21 27  1  0  0  0  0
 22 24  1  0  0  0  0
 22 28  1  0  0  0  0
 22 29  1  0  0  0  0
 23 30  1  0  0  0  0
 23 31  1  0  0  0  0
 23 32  1  0  0  0  0
 24 33  1  0  0  0  0
 24 34  1  0  0  0  0
 24 35  1  0  0  0  0
 36 37  1  0  0  0  0
 36 41  1  0  0  0  0
 37 38  1  0  0  0  0
 37 40  1  0  0  0  0
 37 42  1  0  0  0  0
 38 39  2  0  0  0  0
 38 46  1  0  0  0  0
 40 43  1  0  0  0  0
 40 44  1  0  0  0  0
 40 45  1  0  0  0  0
 46 47  1  0  0  0  0
 46 48  1  0  0  0  0
 47 49  1  0  0  0  0
 47 50  1  0  0  0  0
 47 51  1  0  0  0  0
M  END
$$$$

  -OEChem-05262216503D

 51 50  0     1  0  0  0  0  0999 V2000
    0.0553   -4.4574    0.0855 C   0  0  0  0  0  0  0  0  0  0  0  0
   -0.9969   -4.0449   -0.3839 O   0  0  0  0  0  0  0  0  0  0  0  0
    1.1564   -4.9561   -0.8302 C   0  0  0  0  0  0  0  0  0  0  0  0
    1.9660   -4.2230   -0.8718 H   0  0  0  0  0  0  0  0  0  0  0  0
    0.7668   -5.1120   -1.8400 H   0  0  0  0  0  0  0  0  0  0  0  0
    1.5537   -5.9023   -0.4548 H   0  0  0  0  0  0  0  0  0  0  0  0
    0.2754   -4.3534    1.4425 N   0  0  0  0  0  0  0  0  0  0  0  0
   -0.6600   -3.6967    2.3700 C   0  0  2  0  0  0  0  0  0  0  0  0
   -0.5345   -2.1581    2.2832 C   0  0  0  0  0  0  0  0  0  0  0  0
   -0.1115   -1.4968    3.2233 O   0  0  0  0  0  0  0  0  0  0  0  0
   -0.3747   -4.2466    3.7728 C   0  0  0  0  0  0  0  0  0  0  0  0
    1.2579   -4.4282    1.7288 H   0  0  0  0  0  0  0  0  0  0  0  0
   -1.6908   -3.9594    2.1098 H   0  0  0  0  0  0  0  0  0  0  0  0
    0.6530   -4.0186    4.0746 H   0  0  0  0  0  0  0  0  0  0  0  0
   -1.0583   -3.8001    4.5018 H   0  0  0  0  0  0  0  0  0  0  0  0
   -0.5113   -5.3322    3.7915 H   0  0  0  0  0  0  0  0  0  0  0  0
   -0.7457   -1.5473    1.0612 N   0  0  0  0  0  0  0  0  0  0  0  0
   -0.0109   -0.3957    0.4731 C   0  0  2  0  0  0  0  0  0  0  0  0
    1.4956   -0.2172    0.8561 C   0  0  0  0  0  0  0  0  0  0  0  0
    2.2107    0.4285    0.0980 O   0  0  0  0  0  0  0  0  0  0  0  0
   -0.8701    0.8676    0.8159 C   0  0  2  0  0  0  0  0  0  0  0  0
   -2.2641    0.7706    0.1349 C   0  0  0  0  0  0  0  0  0  0  0  0
   -0.1900    2.1901    0.4004 C   0  0  0  0  0  0  0  0  0  0  0  0
   -3.2610    1.8254    0.6274 C   0  0  0  0  0  0  0  0  0  0  0  0
   -1.0924   -2.2184    0.3686 H   0  0  0  0  0  0  0  0  0  0  0  0
   -0.0112   -0.5236   -0.6140 H   0  0  0  0  0  0  0  0  0  0  0  0
   -1.0120    0.8942    1.9022 H   0  0  0  0  0  0  0  0  0  0  0  0
   -2.1503    0.8578   -0.9506 H   0  0  0  0  0  0  0  0  0  0  0  0
   -2.7134   -0.2055    0.3368 H   0  0  0  0  0  0  0  0  0  0  0  0
    0.0528    2.1785   -0.6669 H   0  0  0  0  0  0  0  0  0  0  0  0
   -0.8322    3.0502    0.6006 H   0  0  0  0  0  0  0  0  0  0  0  0
    0.7304    2.3512    0.9689 H   0  0  0  0  0  0  0  0  0  0  0  0
   -3.3084    1.8260    1.7207 H   0  0  0  0  0  0  0  0  0  0  0  0
   -4.2590    1.6010    0.2389 H   0  0  0  0  0  0  0  0  0  0  0  0
   -2.9852    2.8258    0.2841 H   0  0  0  0  0  0  0  0  0  0  0  0
    2.1574   -1.0759    1.7135 N   0  0  0  0  0  0  0  0  0  0  0  0
    3.5953   -1.3679    1.7464 C   0  0  2  0  0  0  0  0  0  0  0  0
    3.8899   -2.8486    1.4217 C   0  0  0  0  0  0  0  0  0  0  0  0
    3.0702   -3.7302    1.6729 O   0  0  0  0  0  0  0  0  0  0  0  0
    4.1037   -1.0152    3.1452 C   0  0  0  0  0  0  0  0  0  0  0  0
    1.5620   -1.5495    2.3941 H   0  0  0  0  0  0  0  0  0  0  0  0
    4.1301   -0.7532    1.0154 H   0  0  0  0  0  0  0  0  0  0  0  0
    3.5852   -1.6110    3.9034 H   0  0  0  0  0  0  0  0  0  0  0  0
    5.1775   -1.2098    3.2236 H   0  0  0  0  0  0  0  0  0  0  0  0
    3.9266    0.0447    3.3547 H   0  0  0  0  0  0  0  0  0  0  0  0
    5.0997   -3.2072    0.8571 N   0  0  0  0  0  0  0  0  0  0  0  0
    5.4582   -4.5807    0.5242 C   0  0  0  0  0  0  0  0  0  0  0  0
    5.7510   -2.4599    0.6317 H   0  0  0  0  0  0  0  0  0  0  0  0
    5.4358   -5.2111    1.4195 H   0  0  0  0  0  0  0  0  0  0  0  0
    6.4682   -4.6161    0.1043 H   0  0  0  0  0  0  0  0  0  0  0  0
    4.7616   -4.9911   -0.2144 H   0  0  0  0  0  0  0  0  0  0  0  0
  1  2  2  0  0  0  0
  1  3  1  0  0  0  0
  1  7  1  0  0  0  0
  3  4  1  0  0  0  0
  3  5  1  0  0  0  0
  3  6  1  0  0  0  0
  7  8  1  0  0  0  0
  7 12  1  0  0  0  0
  8  9  1  0  0  0  0
  8 11  1  0  0  0  0
  8 13  1  0  0  0  0
  9 10  2  0  0  0  0
  9 17  1  0  0  0  0
 11 14  1  0  0  0  0
 11 15  1  0  0  0  0
 11 16  1  0  0  0  0
 17 18  1  0  0  0  0
 17 25  1  0  0  0  0
 18 19  1  0  0  0  0
 18 21  1  0  0  0  0
 18 26  1  0  0  0  0
 19 20  2  0  0  0  0
 19 36  1  0  0  0  0
 21 22  1  0  0  0  0
 21 23  1  0  0  0  0
 21 27  1  0  0  0  0
 22 24  1  0  0  0  0
 22 28  1  0  0  0  0
 22 29  1  0  0  0  0
 23 30  1  0  0  0  0
 23 31  1  0  0  0  0
 23 32  1  0  0  0  0
 24 33  1  0  0  0  0
 24 34  1  0  0  0  0
 24 35  1  0  0  0  0
 36 37  1  0  0  0  0
 36 41  1  0  0  0  0
 37 38  1  0  0  0  0
 37 40  1  0  0  0  0
 37 42  1  0  0  0  0
 38 39  2  0  0  0  0
 38 46  1  0  0  0  0
 40 43  1  0  0  0  0
 40 44  1  0  0  0  0
 40 45  1  0  0  0  0
 46 47  1  0  0  0  0
 46 48  1  0  0  0  0
 47 49  1  0  0  0  0
 47 50  1  0  0  0  0
 47 51  1  0  0  0  0
M  END
$$$$

  -OEChem-05262216503D

 51 50  0     1  0  0  0  0  0999 V2000
   -0.0335   -4.3226   -0.3557 C   0  0  0  0  0  0  0  0  0  0  0  0
   -1.0874   -3.8346   -0.7413 O   0  0  0  0  0  0  0  0  0  0  0  0
    1.0141   -4.7719   -1.3556 C   0  0  0  0  0  0  0  0  0  0  0  0
    1.8090   -4.0248   -1.4212 H   0  0  0  0  0  0  0  0  0  0  0  0
    1.4483   -5.7238   -1.0400 H   0  0  0  0  0  0  0  0  0  0  0  0
    0.5637   -4.9006   -2.3435 H   0  0  0  0  0  0  0  0  0  0  0  0
    0.2364   -4.3627    0.9956 N   0  0  0  0  0  0  0  0  0  0  0  0
   -0.6473   -3.7806    2.0183 C   0  0  2  0  0  0  0  0  0  0  0  0
   -0.4848   -2.2449    2.0719 C   0  0  0  0  0  0  0  0  0  0  0  0
    0.1208   -1.7045    2.9881 O   0  0  0  0  0  0  0  0  0  0  0  0
   -0.3221   -4.4671    3.3500 C   0  0  0  0  0  0  0  0  0  0  0  0
    1.2179   -4.5317    1.2427 H   0  0  0  0  0  0  0  0  0  0  0  0
   -1.6937   -3.9959    1.7770 H   0  0  0  0  0  0  0  0  0  0  0  0
    0.7233   -4.2968    3.6277 H   0  0  0  0  0  0  0  0  0  0  0  0
   -0.9615   -4.0728    4.1460 H   0  0  0  0  0  0  0  0  0  0  0  0
   -0.4908   -5.5455    3.2726 H   0  0  0  0  0  0  0  0  0  0  0  0
   -0.8252   -1.5017    0.9561 N   0  0  0  0  0  0  0  0  0  0  0  0
   -0.1080   -0.3129    0.4205 C   0  0  2  0  0  0  0  0  0  0  0  0
    1.4394   -0.2637    0.6578 C   0  0  0  0  0  0  0  0  0  0  0  0
    2.1179    0.5939    0.1046 O   0  0  0  0  0  0  0  0  0  0  0  0
   -0.8856    0.9220    0.9962 C   0  0  2  0  0  0  0  0  0  0  0  0
   -2.3456    0.9317    0.4593 C   0  0  0  0  0  0  0  0  0  0  0  0
   -0.2181    2.2755    0.6745 C   0  0  0  0  0  0  0  0  0  0  0  0
   -3.2576    1.9400    1.1680 C   0  0  0  0  0  0  0  0  0  0  0  0
   -1.2536   -2.0903    0.2348 H   0  0  0  0  0  0  0  0  0  0  0  0
   -0.2230   -0.3109   -0.6676 H   0  0  0  0  0  0  0  0  0  0  0  0
   -0.9157    0.8214    2.0870 H   0  0  0  0  0  0  0  0  0  0  0  0
   -2.3394    1.1424   -0.6151 H   0  0  0  0  0  0  0  0  0  0  0  0
   -2.8032   -0.0521    0.5943 H   0  0  0  0  0  0  0  0  0  0  0  0
   -0.0464    2.3733   -0.4020 H   0  0  0  0  0  0  0  0  0  0  0  0
   -0.8316    3.1157    1.0049 H   0  0  0  0  0  0  0  0  0  0  0  0
    0.7380    2.3694    1.1966 H   0  0  0  0  0  0  0  0  0  0  0  0
   -3.1854    1.8245    2.2539 H   0  0  0  0  0  0  0  0  0  0  0  0
   -4.2970    1.7700    0.8712 H   0  0  0  0  0  0  0  0  0  0  0  0
   -2.9991    2.9685    0.9028 H   0  0  0  0  0  0  0  0  0  0  0  0
    2.1320   -1.3943    1.0513 N   0  0  0  0  0  0  0  0  0  0  0  0
    3.5828   -1.5990    1.0054 C   0  0  2  0  0  0  0  0  0  0  0  0
    3.9403   -3.1015    0.9497 C   0  0  0  0  0  0  0  0  0  0  0  0
    3.0938   -3.9648    1.1784 O   0  0  0  0  0  0  0  0  0  0  0  0
    4.2018   -0.9428    2.2434 C   0  0  0  0  0  0  0  0  0  0  0  0
    1.6042   -2.0193    1.6586 H   0  0  0  0  0  0  0  0  0  0  0  0
    3.9903   -1.1291    0.1042 H   0  0  0  0  0  0  0  0  0  0  0  0
    3.8031   -1.3976    3.1560 H   0  0  0  0  0  0  0  0  0  0  0  0
    5.2893   -1.0608    2.2395 H   0  0  0  0  0  0  0  0  0  0  0  0
    3.9726    0.1275    2.2602 H   0  0  0  0  0  0  0  0  0  0  0  0
    5.2215   -3.4979    0.6144 N   0  0  0  0  0  0  0  0  0  0  0  0
    5.6415   -4.8925    0.5479 C   0  0  0  0  0  0  0  0  0  0  0  0
    5.9057   -2.7686    0.4321 H   0  0  0  0  0  0  0  0  0  0  0  0
    5.5468   -5.3685    1.5296 H   0  0  0  0  0  0  0  0  0  0  0  0
    5.0288   -5.4445   -0.1726 H   0  0  0  0  0  0  0  0  0  0  0  0
    6.6872   -4.9580    0.2317 H   0  0  0  0  0  0  0  0  0  0  0  0
  1  2  2  0  0  0  0
  1  3  1  0  0  0  0
  1  7  1  0  0  0  0
  3  4  1  0  0  0  0
  3  5  1  0  0  0  0
  3  6  1  0  0  0  0
  7  8  1  0  0  0  0
  7 12  1  0  0  0  0
  8  9  1  0  0  0  0
  8 11  1  0  0  0  0
  8 13  1  0  0  0  0
  9 10  2  0  0  0  0
  9 17  1  0  0  0  0
 11 14  1  0  0  0  0
 11 15  1  0  0  0  0
 11 16  1  0  0  0  0
 17 18  1  0  0  0  0
 17 25  1  0  0  0  0
 18 19  1  0  0  0  0
 18 21  1  0  0  0  0
 18 26  1  0  0  0  0
 19 20  2  0  0  0  0
 19 36  1  0  0  0  0
 21 22  1  0  0  0  0
 21 23  1  0  0  0  0
 21 27  1  0  0  0  0
 22 24  1  0  0  0  0
 22 28  1  0  0  0  0
 22 29  1  0  0  0  0
 23 30  1  0  0  0  0
 23 31  1  0  0  0  0
 23 32  1  0  0  0  0
 24 33  1  0  0  0  0
 24 34  1  0  0  0  0
 24 35  1  0  0  0  0
 36 37  1  0  0  0  0
 36 41  1  0  0  0  0
 37 38  1  0  0  0  0
 37 40  1  0  0  0  0
 37 42  1  0  0  0  0
 38 39  2  0  0  0  0
 38 46  1  0  0  0  0
 40 43  1  0  0  0  0
 40 44  1  0  0  0  0
 40 45  1  0  0  0  0
 46 47  1  0  0  0  0
 46 48  1  0  0  0  0
 47 49  1  0  0  0  0
 47 50  1  0  0  0  0
 47 51  1  0  0  0  0
M  END
$$$$

  -OEChem-05262216503D

 51 50  0     1  0  0  0  0  0999 V2000
    1.1233   -5.1024    2.3811 C   0  0  0  0  0  0  0  0  0  0  0  0
    0.4556   -5.1774    3.3997 O   0  0  0  0  0  0  0  0  0  0  0  0
    2.5566   -5.5997    2.3998 C   0  0  0  0  0  0  0  0  0  0  0  0
    2.6862   -6.3925    1.6595 H   0  0  0  0  0  0  0  0  0  0  0  0
    3.2355   -4.7764    2.1643 H   0  0  0  0  0  0  0  0  0  0  0  0
    2.8087   -5.9930    3.3885 H   0  0  0  0  0  0  0  0  0  0  0  0
    0.6209   -4.5978    1.1954 N   0  0  0  0  0  0  0  0  0  0  0  0
   -0.5608   -3.7223    1.0464 C   0  0  2  0  0  0  0  0  0  0  0  0
   -0.2368   -2.2403    1.3469 C   0  0  0  0  0  0  0  0  0  0  0  0
    0.6845   -1.9305    2.0873 O   0  0  0  0  0  0  0  0  0  0  0  0
   -1.8011   -4.1802    1.8275 C   0  0  0  0  0  0  0  0  0  0  0  0
    1.3408   -4.5012    0.4727 H   0  0  0  0  0  0  0  0  0  0  0  0
   -0.8317   -3.7783   -0.0118 H   0  0  0  0  0  0  0  0  0  0  0  0
   -1.6934   -3.9655    2.8954 H   0  0  0  0  0  0  0  0  0  0  0  0
   -2.6914   -3.6565    1.4672 H   0  0  0  0  0  0  0  0  0  0  0  0
   -1.9551   -5.2561    1.7001 H   0  0  0  0  0  0  0  0  0  0  0  0
   -0.8219   -1.2542    0.5657 N   0  0  0  0  0  0  0  0  0  0  0  0
   -0.2142    0.0450    0.1572 C   0  0  2  0  0  0  0  0  0  0  0  0
    1.3458    0.0084    0.0018 C   0  0  0  0  0  0  0  0  0  0  0  0
    2.0245    1.0150   -0.1541 O   0  0  0  0  0  0  0  0  0  0  0  0
   -0.7790    1.0955    1.1783 C   0  0  2  0  0  0  0  0  0  0  0  0
   -2.3265    1.1923    1.0351 C   0  0  0  0  0  0  0  0  0  0  0  0
   -0.1766    2.5074    1.0085 C   0  0  0  0  0  0  0  0  0  0  0  0
   -3.0058    1.9850    2.1583 C   0  0  0  0  0  0  0  0  0  0  0  0
   -1.6021   -1.5744   -0.0000 H   0  0  0  0  0  0  0  0  0  0  0  0
   -0.5861    0.3075   -0.8374 H   0  0  0  0  0  0  0  0  0  0  0  0
   -0.5390    0.7496    2.1902 H   0  0  0  0  0  0  0  0  0  0  0  0
   -2.5782    1.6453    0.0705 H   0  0  0  0  0  0  0  0  0  0  0  0
   -2.7696    0.1931    1.0503 H   0  0  0  0  0  0  0  0  0  0  0  0
   -0.2021    2.8133   -0.0420 H   0  0  0  0  0  0  0  0  0  0  0  0
   -0.7127    3.2534    1.5970 H   0  0  0  0  0  0  0  0  0  0  0  0
    0.8575    2.5305    1.3616 H   0  0  0  0  0  0  0  0  0  0  0  0
   -2.6589    1.6366    3.1361 H   0  0  0  0  0  0  0  0  0  0  0  0
   -4.0895    1.8436    2.1066 H   0  0  0  0  0  0  0  0  0  0  0  0
   -2.8059    3.0559    2.0724 H   0  0  0  0  0  0  0  0  0  0  0  0
    1.9448   -1.1802   -0.3755 N   0  0  0  0  0  0  0  0  0  0  0  0
    3.3859   -1.4462   -0.4306 C   0  0  2  0  0  0  0  0  0  0  0  0
    3.6240   -2.9263   -0.8043 C   0  0  0  0  0  0  0  0  0  0  0  0
    2.7317   -3.7607   -0.6460 O   0  0  0  0  0  0  0  0  0  0  0  0
    4.0314   -1.1771    0.9380 C   0  0  0  0  0  0  0  0  0  0  0  0
    1.3783   -2.0010   -0.1839 H   0  0  0  0  0  0  0  0  0  0  0  0
    3.8469   -0.8072   -1.1903 H   0  0  0  0  0  0  0  0  0  0  0  0
    3.5405   -1.7723    1.7155 H   0  0  0  0  0  0  0  0  0  0  0  0
    5.0940   -1.4363    0.9200 H   0  0  0  0  0  0  0  0  0  0  0  0
    3.9466   -0.1204    1.2082 H   0  0  0  0  0  0  0  0  0  0  0  0
    4.8473   -3.3378   -1.2989 N   0  0  0  0  0  0  0  0  0  0  0  0
    5.1511   -4.7214   -1.6441 C   0  0  0  0  0  0  0  0  0  0  0  0
    5.5715   -2.6328   -1.4077 H   0  0  0  0  0  0  0  0  0  0  0  0
    5.0495   -5.3669   -0.7654 H   0  0  0  0  0  0  0  0  0  0  0  0
    4.4727   -5.0794   -2.4257 H   0  0  0  0  0  0  0  0  0  0  0  0
    6.1775   -4.8029   -2.0147 H   0  0  0  0  0  0  0  0  0  0  0  0
  1  2  2  0  0  0  0
  1  3  1  0  0  0  0
  1  7  1  0  0  0  0
  3  4  1  0  0  0  0
  3  5  1  0  0  0  0
  3  6  1  0  0  0  0
  7  8  1  0  0  0  0
  7 12  1  0  0  0  0
  8  9  1  0  0  0  0
  8 11  1  0  0  0  0
  8 13  1  0  0  0  0
  9 10  2  0  0  0  0
  9 17  1  0  0  0  0
 11 14  1  0  0  0  0
 11 15  1  0  0  0  0
 11 16  1  0  0  0  0
 17 18  1  0  0  0  0
 17 25  1  0  0  0  0
 18 19  1  0  0  0  0
 18 21  1  0  0  0  0
 18 26  1  0  0  0  0
 19 20  2  0  0  0  0
 19 36  1  0  0  0  0
 21 22  1  0  0  0  0
 21 23  1  0  0  0  0
 21 27  1  0  0  0  0
 22 24  1  0  0  0  0
 22 28  1  0  0  0  0
 22 29  1  0  0  0  0
 23 30  1  0  0  0  0
 23 31  1  0  0  0  0
 23 32  1  0  0  0  0
 24 33  1  0  0  0  0
 24 34  1  0  0  0  0
 24 35  1  0  0  0  0
 36 37  1  0  0  0  0
 36 41  1  0  0  0  0
 37 38  1  0  0  0  0
 37 40  1  0  0  0  0
 37 42  1  0  0  0  0
 38 39  2  0  0  0  0
 38 46  1  0  0  0  0
 40 43  1  0  0  0  0
 40 44  1  0  0  0  0
 40 45  1  0  0  0  0
 46 47  1  0  0  0  0
 46 48  1  0  0  0  0
 47 49  1  0  0  0  0
 47 50  1  0  0  0  0
 47 51  1  0  0  0  0
M  END
$$$$

  -OEChem-05262216503D

 51 50  0     1  0  0  0  0  0999 V2000
    1.6014   -5.0510    1.7744 C   0  0  0  0  0  0  0  0  0  0  0  0
    1.2244   -5.2806    2.9112 O   0  0  0  0  0  0  0  0  0  0  0  0
    2.9983   -5.4834    1.3674 C   0  0  0  0  0  0  0  0  0  0  0  0
    2.9543   -6.0825    0.4548 H   0  0  0  0  0  0  0  0  0  0  0  0
    3.6203   -4.6040    1.1864 H   0  0  0  0  0  0  0  0  0  0  0  0
    3.4550   -6.0814    2.1606 H   0  0  0  0  0  0  0  0  0  0  0  0
    0.7975   -4.4484    0.8230 N   0  0  0  0  0  0  0  0  0  0  0  0
   -0.4367   -3.6674    1.0598 C   0  0  2  0  0  0  0  0  0  0  0  0
   -0.1371   -2.1799    1.3566 C   0  0  0  0  0  0  0  0  0  0  0  0
    0.7757   -1.8541    2.0987 O   0  0  0  0  0  0  0  0  0  0  0  0
   -1.3802   -4.2528    2.1207 C   0  0  0  0  0  0  0  0  0  0  0  0
    1.2963   -4.2500   -0.0491 H   0  0  0  0  0  0  0  0  0  0  0  0
   -0.9896   -3.7015    0.1171 H   0  0  0  0  0  0  0  0  0  0  0  0
   -0.9881   -4.0841    3.1289 H   0  0  0  0  0  0  0  0  0  0  0  0
   -2.3636   -3.7775    2.0584 H   0  0  0  0  0  0  0  0  0  0  0  0
   -1.5041   -5.3293    1.9680 H   0  0  0  0  0  0  0  0  0  0  0  0
   -0.7941   -1.2051    0.6173 N   0  0  0  0  0  0  0  0  0  0  0  0
   -0.2709    0.1403    0.2522 C   0  0  2  0  0  0  0  0  0  0  0  0
    1.2863    0.1375    0.0984 C   0  0  0  0  0  0  0  0  0  0  0  0
    2.0107    1.0987    0.3141 O   0  0  0  0  0  0  0  0  0  0  0  0
   -0.8832    1.1428    1.2915 C   0  0  2  0  0  0  0  0  0  0  0  0
   -2.4335    1.1567    1.1505 C   0  0  0  0  0  0  0  0  0  0  0  0
   -0.3668    2.5890    1.1110 C   0  0  0  0  0  0  0  0  0  0  0  0
   -3.1573    1.8928    2.2854 C   0  0  0  0  0  0  0  0  0  0  0  0
   -1.5818   -1.5422    0.0725 H   0  0  0  0  0  0  0  0  0  0  0  0
   -0.6516    0.4115   -0.7366 H   0  0  0  0  0  0  0  0  0  0  0  0
   -0.6158    0.8053    2.2995 H   0  0  0  0  0  0  0  0  0  0  0  0
   -2.7117    1.6085    0.1928 H   0  0  0  0  0  0  0  0  0  0  0  0
   -2.8179    0.1336    1.1520 H   0  0  0  0  0  0  0  0  0  0  0  0
   -0.3593    2.8662    0.0524 H   0  0  0  0  0  0  0  0  0  0  0  0
   -0.9793    3.3135    1.6492 H   0  0  0  0  0  0  0  0  0  0  0  0
    0.6438    2.6936    1.5129 H   0  0  0  0  0  0  0  0  0  0  0  0
   -2.7915    1.5502    3.2584 H   0  0  0  0  0  0  0  0  0  0  0  0
   -4.2312    1.6897    2.2303 H   0  0  0  0  0  0  0  0  0  0  0  0
   -3.0209    2.9749    2.2175 H   0  0  0  0  0  0  0  0  0  0  0  0
    1.8397   -0.9152   -0.6098 N   0  0  0  0  0  0  0  0  0  0  0  0
    3.2657   -1.2656   -0.6722 C   0  0  2  0  0  0  0  0  0  0  0  0
    3.4182   -2.6569   -1.3250 C   0  0  0  0  0  0  0  0  0  0  0  0
    2.4633   -3.4345   -1.3530 O   0  0  0  0  0  0  0  0  0  0  0  0
    3.8962   -1.3353    0.7303 C   0  0  0  0  0  0  0  0  0  0  0  0
    1.2061   -1.6950   -0.7616 H   0  0  0  0  0  0  0  0  0  0  0  0
    3.7947   -0.5231   -1.2777 H   0  0  0  0  0  0  0  0  0  0  0  0
    3.3482   -2.0399    1.3635 H   0  0  0  0  0  0  0  0  0  0  0  0
    4.9373   -1.6648    0.6677 H   0  0  0  0  0  0  0  0  0  0  0  0
    3.8856   -0.3563    1.2172 H   0  0  0  0  0  0  0  0  0  0  0  0
    4.6342   -3.0668   -1.8383 N   0  0  0  0  0  0  0  0  0  0  0  0
    4.8620   -4.3877   -2.4124 C   0  0  0  0  0  0  0  0  0  0  0  0
    5.4135   -2.4167   -1.7766 H   0  0  0  0  0  0  0  0  0  0  0  0
    4.6693   -5.1679   -1.6685 H   0  0  0  0  0  0  0  0  0  0  0  0
    4.2052   -4.5504   -3.2735 H   0  0  0  0  0  0  0  0  0  0  0  0
    5.8996   -4.4806   -2.7481 H   0  0  0  0  0  0  0  0  0  0  0  0
  1  2  2  0  0  0  0
  1  3  1  0  0  0  0
  1  7  1  0  0  0  0
  3  4  1  0  0  0  0
  3  5  1  0  0  0  0
  3  6  1  0  0  0  0
  7  8  1  0  0  0  0
  7 12  1  0  0  0  0
  8  9  1  0  0  0  0
  8 11  1  0  0  0  0
  8 13  1  0  0  0  0
  9 10  2  0  0  0  0
  9 17  1  0  0  0  0
 11 14  1  0  0  0  0
 11 15  1  0  0  0  0
 11 16  1  0  0  0  0
 17 18  1  0  0  0  0
 17 25  1  0  0  0  0
 18 19  1  0  0  0  0
 18 21  1  0  0  0  0
 18 26  1  0  0  0  0
 19 20  2  0  0  0  0
 19 36  1  0  0  0  0
 21 22  1  0  0  0  0
 21 23  1  0  0  0  0
 21 27  1  0  0  0  0
 22 24  1  0  0  0  0
 22 28  1  0  0  0  0
 22 29  1  0  0  0  0
 23 30  1  0  0  0  0
 23 31  1  0  0  0  0
 23 32  1  0  0  0  0
 24 33  1  0  0  0  0
 24 34  1  0  0  0  0
 24 35  1  0  0  0  0
 36 37  1  0  0  0  0
 36 41  1  0  0  0  0
 37 38  1  0  0  0  0
 37 40  1  0  0  0  0
 37 42  1  0  0  0  0
 38 39  2  0  0  0  0
 38 46  1  0  0  0  0
 40 43  1  0  0  0  0
 40 44  1  0  0  0  0
 40 45  1  0  0  0  0
 46 47  1  0  0  0  0
 46 48  1  0  0  0  0
 47 49  1  0  0  0  0
 47 50  1  0  0  0  0
 47 51  1  0  0  0  0
M  END
$$$$

  -OEChem-05262216503D

 51 50  0     1  0  0  0  0  0999 V2000
    0.3309   -4.9480    0.8244 C   0  0  0  0  0  0  0  0  0  0  0  0
   -0.1054   -4.1984   -0.0385 O   0  0  0  0  0  0  0  0  0  0  0  0
    1.0461   -6.2274    0.4320 C   0  0  0  0  0  0  0  0  0  0  0  0
    1.2162   -6.2501   -0.6482 H   0  0  0  0  0  0  0  0  0  0  0  0
    2.0115   -6.2919    0.9396 H   0  0  0  0  0  0  0  0  0  0  0  0
    0.4398   -7.0928    0.7105 H   0  0  0  0  0  0  0  0  0  0  0  0
    0.1858   -4.6190    2.1570 N   0  0  0  0  0  0  0  0  0  0  0  0
   -0.5792   -3.4631    2.6506 C   0  0  2  0  0  0  0  0  0  0  0  0
   -0.0242   -2.1034    2.1617 C   0  0  0  0  0  0  0  0  0  0  0  0
    0.8778   -1.5426    2.7657 O   0  0  0  0  0  0  0  0  0  0  0  0
   -0.5997   -3.5426    4.1818 C   0  0  0  0  0  0  0  0  0  0  0  0
    0.6345   -5.2263    2.8374 H   0  0  0  0  0  0  0  0  0  0  0  0
   -1.6124   -3.5439    2.2977 H   0  0  0  0  0  0  0  0  0  0  0  0
    0.4170   -3.4915    4.5857 H   0  0  0  0  0  0  0  0  0  0  0  0
   -1.1761   -2.7091    4.5959 H   0  0  0  0  0  0  0  0  0  0  0  0
   -1.0603   -4.4788    4.5113 H   0  0  0  0  0  0  0  0  0  0  0  0
   -0.5880   -1.5370    1.0293 N   0  0  0  0  0  0  0  0  0  0  0  0
    0.0355   -0.5271    0.1423 C   0  0  2  0  0  0  0  0  0  0  0  0
    1.5853   -0.6837    0.1159 C   0  0  0  0  0  0  0  0  0  0  0  0
    2.3879    0.2180    0.3291 O   0  0  0  0  0  0  0  0  0  0  0  0
   -0.5311    0.8722    0.5550 C   0  0  2  0  0  0  0  0  0  0  0  0
   -2.0683    0.8961    0.3144 C   0  0  0  0  0  0  0  0  0  0  0  0
    0.0917    2.0246   -0.2699 C   0  0  0  0  0  0  0  0  0  0  0  0
   -2.7722    2.1129    0.9277 C   0  0  0  0  0  0  0  0  0  0  0  0
   -1.2211   -2.1805    0.5578 H   0  0  0  0  0  0  0  0  0  0  0  0
   -0.2881   -0.7206   -0.8847 H   0  0  0  0  0  0  0  0  0  0  0  0
   -0.3204    1.0406    1.6173 H   0  0  0  0  0  0  0  0  0  0  0  0
   -2.2762    0.8607   -0.7602 H   0  0  0  0  0  0  0  0  0  0  0  0
   -2.5285    0.0117    0.7635 H   0  0  0  0  0  0  0  0  0  0  0  0
    0.0898    1.7778   -1.3360 H   0  0  0  0  0  0  0  0  0  0  0  0
   -0.4539    2.9596   -0.1342 H   0  0  0  0  0  0  0  0  0  0  0  0
    1.1172    2.2309    0.0414 H   0  0  0  0  0  0  0  0  0  0  0  0
   -2.4761    2.2384    1.9739 H   0  0  0  0  0  0  0  0  0  0  0  0
   -3.8562    1.9687    0.8914 H   0  0  0  0  0  0  0  0  0  0  0  0
   -2.5404    3.0310    0.3822 H   0  0  0  0  0  0  0  0  0  0  0  0
    2.0924   -1.8946   -0.3252 N   0  0  0  0  0  0  0  0  0  0  0  0
    3.5224   -2.2393   -0.2993 C   0  0  2  0  0  0  0  0  0  0  0  0
    4.2878   -1.7015   -1.5317 C   0  0  0  0  0  0  0  0  0  0  0  0
    4.8987   -2.4460   -2.2908 O   0  0  0  0  0  0  0  0  0  0  0  0
    3.6300   -3.7589   -0.1449 C   0  0  0  0  0  0  0  0  0  0  0  0
    1.4131   -2.6461   -0.4492 H   0  0  0  0  0  0  0  0  0  0  0  0
    3.9869   -1.7869    0.5838 H   0  0  0  0  0  0  0  0  0  0  0  0
    3.1483   -4.2667   -0.9867 H   0  0  0  0  0  0  0  0  0  0  0  0
    4.6806   -4.0641   -0.1102 H   0  0  0  0  0  0  0  0  0  0  0  0
    3.1508   -4.0750    0.7853 H   0  0  0  0  0  0  0  0  0  0  0  0
    4.3056   -0.3415   -1.7660 N   0  0  0  0  0  0  0  0  0  0  0  0
    5.0229    0.2933   -2.8623 C   0  0  0  0  0  0  0  0  0  0  0  0
    3.7799    0.2336   -1.1014 H   0  0  0  0  0  0  0  0  0  0  0  0
    4.8471    1.3733   -2.8524 H   0  0  0  0  0  0  0  0  0  0  0  0
    6.0992    0.1160   -2.7677 H   0  0  0  0  0  0  0  0  0  0  0  0
    4.6821   -0.1043   -3.8238 H   0  0  0  0  0  0  0  0  0  0  0  0
  1  2  2  0  0  0  0
  1  3  1  0  0  0  0
  1  7  1  0  0  0  0
  3  4  1  0  0  0  0
  3  5  1  0  0  0  0
  3  6  1  0  0  0  0
  7  8  1  0  0  0  0
  7 12  1  0  0  0  0
  8  9  1  0  0  0  0
  8 11  1  0  0  0  0
  8 13  1  0  0  0  0
  9 10  2  0  0  0  0
  9 17  1  0  0  0  0
 11 14  1  0  0  0  0
 11 15  1  0  0  0  0
 11 16  1  0  0  0  0
 17 18  1  0  0  0  0
 17 25  1  0  0  0  0
 18 19  1  0  0  0  0
 18 21  1  0  0  0  0
 18 26  1  0  0  0  0
 19 20  2  0  0  0  0
 19 36  1  0  0  0  0
 21 22  1  0  0  0  0
 21 23  1  0  0  0  0
 21 27  1  0  0  0  0
 22 24  1  0  0  0  0
 22 28  1  0  0  0  0
 22 29  1  0  0  0  0
 23 30  1  0  0  0  0
 23 31  1  0  0  0  0
 23 32  1  0  0  0  0
 24 33  1  0  0  0  0
 24 34  1  0  0  0  0
 24 35  1  0  0  0  0
 36 37  1  0  0  0  0
 36 41  1  0  0  0  0
 37 38  1  0  0  0  0
 37 40  1  0  0  0  0
 37 42  1  0  0  0  0
 38 39  2  0  0  0  0
 38 46  1  0  0  0  0
 40 43  1  0  0  0  0
 40 44  1  0  0  0  0
 40 45  1  0  0  0  0
 46 47  1  0  0  0  0
 46 48  1  0  0  0  0
 47 49  1  0  0  0  0
 47 50  1  0  0  0  0
 47 51  1  0  0  0  0
M  END
$$$$

  -OEChem-05262216503D

 51 50  0     1  0  0  0  0  0999 V2000
    0.0380   -4.3393   -0.2550 C   0  0  0  0  0  0  0  0  0  0  0  0
   -1.0159   -3.7707   -0.5036 O   0  0  0  0  0  0  0  0  0  0  0  0
    0.7995   -5.0599   -1.3505 C   0  0  0  0  0  0  0  0  0  0  0  0
    0.3127   -4.9006   -2.3167 H   0  0  0  0  0  0  0  0  0  0  0  0
    1.8222   -4.6797   -1.4094 H   0  0  0  0  0  0  0  0  0  0  0  0
    0.8290   -6.1322   -1.1426 H   0  0  0  0  0  0  0  0  0  0  0  0
    0.5512   -4.2818    1.0251 N   0  0  0  0  0  0  0  0  0  0  0  0
   -0.1002   -3.5887    2.1492 C   0  0  2  0  0  0  0  0  0  0  0  0
    0.0487   -2.0509    2.0490 C   0  0  0  0  0  0  0  0  0  0  0  0
    0.7776   -1.4401    2.8153 O   0  0  0  0  0  0  0  0  0  0  0  0
    0.4889   -4.1645    3.4435 C   0  0  0  0  0  0  0  0  0  0  0  0
    1.4735   -4.6826    1.1729 H   0  0  0  0  0  0  0  0  0  0  0  0
   -1.1726   -3.8115    2.1448 H   0  0  0  0  0  0  0  0  0  0  0  0
    1.5670   -3.9795    3.4937 H   0  0  0  0  0  0  0  0  0  0  0  0
    0.0182   -3.6968    4.3142 H   0  0  0  0  0  0  0  0  0  0  0  0
    0.3152   -5.2437    3.4954 H   0  0  0  0  0  0  0  0  0  0  0  0
   -0.6216   -1.4019    1.0252 N   0  0  0  0  0  0  0  0  0  0  0  0
   -0.2473   -0.1232    0.3776 C   0  0  2  0  0  0  0  0  0  0  0  0
    1.2967    0.0700    0.3950 C   0  0  0  0  0  0  0  0  0  0  0  0
    1.8912    0.9153    1.0528 O   0  0  0  0  0  0  0  0  0  0  0  0
   -1.0812    1.0216    1.0345 C   0  0  2  0  0  0  0  0  0  0  0  0
   -2.5936    0.7816    0.7680 C   0  0  0  0  0  0  0  0  0  0  0  0
   -0.7188    2.4073    0.4472 C   0  0  0  0  0  0  0  0  0  0  0  0
   -3.5129    1.6930    1.5893 C   0  0  0  0  0  0  0  0  0  0  0  0
   -1.1386   -2.0567    0.4313 H   0  0  0  0  0  0  0  0  0  0  0  0
   -0.5312   -0.1706   -0.6777 H   0  0  0  0  0  0  0  0  0  0  0  0
   -0.8867    1.0255    2.1131 H   0  0  0  0  0  0  0  0  0  0  0  0
   -2.8106    0.9125   -0.2971 H   0  0  0  0  0  0  0  0  0  0  0  0
   -2.8558   -0.2476    1.0285 H   0  0  0  0  0  0  0  0  0  0  0  0
   -0.8265    2.4020   -0.6417 H   0  0  0  0  0  0  0  0  0  0  0  0
   -1.3622    3.1898    0.8545 H   0  0  0  0  0  0  0  0  0  0  0  0
    0.3039    2.6989    0.6906 H   0  0  0  0  0  0  0  0  0  0  0  0
   -3.2424    1.6531    2.6489 H   0  0  0  0  0  0  0  0  0  0  0  0
   -4.5507    1.3619    1.4858 H   0  0  0  0  0  0  0  0  0  0  0  0
   -3.4570    2.7300    1.2487 H   0  0  0  0  0  0  0  0  0  0  0  0
    2.0340   -0.6907   -0.4936 N   0  0  0  0  0  0  0  0  0  0  0  0
    3.4969   -0.8107   -0.4808 C   0  0  2  0  0  0  0  0  0  0  0  0
    3.9837   -1.6519   -1.6772 C   0  0  0  0  0  0  0  0  0  0  0  0
    3.2401   -2.4906   -2.1787 O   0  0  0  0  0  0  0  0  0  0  0  0
    3.9525   -1.4879    0.8212 C   0  0  0  0  0  0  0  0  0  0  0  0
    1.5256   -1.4008   -1.0177 H   0  0  0  0  0  0  0  0  0  0  0  0
    3.9419    0.1873   -0.5513 H   0  0  0  0  0  0  0  0  0  0  0  0
    3.4817   -2.4703    0.9260 H   0  0  0  0  0  0  0  0  0  0  0  0
    5.0386   -1.6188    0.8255 H   0  0  0  0  0  0  0  0  0  0  0  0
    3.6813   -0.8822    1.6916 H   0  0  0  0  0  0  0  0  0  0  0  0
    5.2669   -1.5004   -2.1685 N   0  0  0  0  0  0  0  0  0  0  0  0
    5.7922   -2.2711   -3.2888 C   0  0  0  0  0  0  0  0  0  0  0  0
    5.8571   -0.7964   -1.7338 H   0  0  0  0  0  0  0  0  0  0  0  0
    5.7930   -3.3400   -3.0514 H   0  0  0  0  0  0  0  0  0  0  0  0
    5.1836   -2.1093   -4.1847 H   0  0  0  0  0  0  0  0  0  0  0  0
    6.8194   -1.9657   -3.5099 H   0  0  0  0  0  0  0  0  0  0  0  0
  1  2  2  0  0  0  0
  1  3  1  0  0  0  0
  1  7  1  0  0  0  0
  3  4  1  0  0  0  0
  3  5  1  0  0  0  0
  3  6  1  0  0  0  0
  7  8  1  0  0  0  0
  7 12  1  0  0  0  0
  8  9  1  0  0  0  0
  8 11  1  0  0  0  0
  8 13  1  0  0  0  0
  9 10  2  0  0  0  0
  9 17  1  0  0  0  0
 11 14  1  0  0  0  0
 11 15  1  0  0  0  0
 11 16  1  0  0  0  0
 17 18  1  0  0  0  0
 17 25  1  0  0  0  0
 18 19  1  0  0  0  0
 18 21  1  0  0  0  0
 18 26  1  0  0  0  0
 19 20  2  0  0  0  0
 19 36  1  0  0  0  0
 21 22  1  0  0  0  0
 21 23  1  0  0  0  0
 21 27  1  0  0  0  0
 22 24  1  0  0  0  0
 22 28  1  0  0  0  0
 22 29  1  0  0  0  0
 23 30  1  0  0  0  0
 23 31  1  0  0  0  0
 23 32  1  0  0  0  0
 24 33  1  0  0  0  0
 24 34  1  0  0  0  0
 24 35  1  0  0  0  0
 36 37  1  0  0  0  0
 36 41  1  0  0  0  0
 37 38  1  0  0  0  0
 37 40  1  0  0  0  0
 37 42  1  0  0  0  0
 38 39  2  0  0  0  0
 38 46  1  0  0  0  0
 40 43  1  0  0  0  0
 40 44  1  0  0  0  0
 40 45  1  0  0  0  0
 46 47  1  0  0  0  0
 46 48  1  0  0  0  0
 47 49  1  0  0  0  0
 47 50  1  0  0  0  0
 47 51  1  0  0  0  0
M  END
$$$$

  -OEChem-05262216503D

 51 50  0     1  0  0  0  0  0999 V2000
   -1.2926   -4.7147    0.4429 C   0  0  0  0  0  0  0  0  0  0  0  0
   -2.0635   -3.7792    0.2846 O   0  0  0  0  0  0  0  0  0  0  0  0
   -1.2995   -5.8845   -0.5232 C   0  0  0  0  0  0  0  0  0  0  0  0
   -2.1105   -5.7703   -1.2483 H   0  0  0  0  0  0  0  0  0  0  0  0
   -0.3500   -5.9300   -1.0623 H   0  0  0  0  0  0  0  0  0  0  0  0
   -1.4462   -6.8201    0.0220 H   0  0  0  0  0  0  0  0  0  0  0  0
   -0.3793   -4.6738    1.4767 N   0  0  0  0  0  0  0  0  0  0  0  0
   -0.3035   -3.5916    2.4720 C   0  0  2  0  0  0  0  0  0  0  0  0
    0.3995   -2.3225    1.9270 C   0  0  0  0  0  0  0  0  0  0  0  0
    1.4368   -1.9239    2.4319 O   0  0  0  0  0  0  0  0  0  0  0  0
    0.3776   -4.1662    3.7214 C   0  0  0  0  0  0  0  0  0  0  0  0
    0.2962   -5.4308    1.5344 H   0  0  0  0  0  0  0  0  0  0  0  0
   -1.3173   -3.2928    2.7600 H   0  0  0  0  0  0  0  0  0  0  0  0
    1.4035   -4.4741    3.4949 H   0  0  0  0  0  0  0  0  0  0  0  0
    0.4110   -3.4119    4.5145 H   0  0  0  0  0  0  0  0  0  0  0  0
   -0.1759   -5.0332    4.0947 H   0  0  0  0  0  0  0  0  0  0  0  0
   -0.1812   -1.6837    0.8434 N   0  0  0  0  0  0  0  0  0  0  0  0
    0.1372   -0.3778    0.2216 C   0  0  2  0  0  0  0  0  0  0  0  0
    1.6341    0.0286    0.3460 C   0  0  0  0  0  0  0  0  0  0  0  0
    2.0514    0.8027    1.2012 O   0  0  0  0  0  0  0  0  0  0  0  0
   -0.8688    0.6767    0.7802 C   0  0  2  0  0  0  0  0  0  0  0  0
   -2.3175    0.2940    0.3661 C   0  0  0  0  0  0  0  0  0  0  0  0
   -0.5830    2.0924    0.2231 C   0  0  0  0  0  0  0  0  0  0  0  0
   -3.3932    1.1145    1.0868 C   0  0  0  0  0  0  0  0  0  0  0  0
   -1.0338   -2.1465    0.5164 H   0  0  0  0  0  0  0  0  0  0  0  0
   -0.0488   -0.4663   -0.8526 H   0  0  0  0  0  0  0  0  0  0  0  0
   -0.7843    0.6982    1.8726 H   0  0  0  0  0  0  0  0  0  0  0  0
   -2.4390    0.4049   -0.7165 H   0  0  0  0  0  0  0  0  0  0  0  0
   -2.5088   -0.7555    0.6077 H   0  0  0  0  0  0  0  0  0  0  0  0
   -0.6144    2.0868   -0.8709 H   0  0  0  0  0  0  0  0  0  0  0  0
   -1.3170    2.8140    0.5878 H   0  0  0  0  0  0  0  0  0  0  0  0
    0.3936    2.4658    0.5364 H   0  0  0  0  0  0  0  0  0  0  0  0
   -3.2287    1.0957    2.1687 H   0  0  0  0  0  0  0  0  0  0  0  0
   -4.3810    0.6916    0.8801 H   0  0  0  0  0  0  0  0  0  0  0  0
   -3.3966    2.1536    0.7478 H   0  0  0  0  0  0  0  0  0  0  0  0
    2.5084   -0.3604   -0.6518 N   0  0  0  0  0  0  0  0  0  0  0  0
    3.9379   -0.0334   -0.6908 C   0  0  2  0  0  0  0  0  0  0  0  0
    4.5141   -0.1794   -2.1140 C   0  0  0  0  0  0  0  0  0  0  0  0
    3.8954   -0.7988   -2.9739 O   0  0  0  0  0  0  0  0  0  0  0  0
    4.6790   -0.9604    0.2799 C   0  0  0  0  0  0  0  0  0  0  0  0
    2.1537   -0.9768   -1.3799 H   0  0  0  0  0  0  0  0  0  0  0  0
    4.0810    1.0068   -0.3797 H   0  0  0  0  0  0  0  0  0  0  0  0
    4.5455   -2.0065   -0.0134 H   0  0  0  0  0  0  0  0  0  0  0  0
    5.7489   -0.7329    0.2885 H   0  0  0  0  0  0  0  0  0  0  0  0
    4.2934   -0.8348    1.2972 H   0  0  0  0  0  0  0  0  0  0  0  0
    5.7329    0.3896   -2.4353 N   0  0  0  0  0  0  0  0  0  0  0  0
    6.3316    0.3096   -3.7621 C   0  0  0  0  0  0  0  0  0  0  0  0
    6.2176    0.9040   -1.7054 H   0  0  0  0  0  0  0  0  0  0  0  0
    6.5080   -0.7347   -4.0407 H   0  0  0  0  0  0  0  0  0  0  0  0
    5.6733    0.7672   -4.5081 H   0  0  0  0  0  0  0  0  0  0  0  0
    7.2897    0.8380   -3.7773 H   0  0  0  0  0  0  0  0  0  0  0  0
  1  2  2  0  0  0  0
  1  3  1  0  0  0  0
  1  7  1  0  0  0  0
  3  4  1  0  0  0  0
  3  5  1  0  0  0  0
  3  6  1  0  0  0  0
  7  8  1  0  0  0  0
  7 12  1  0  0  0  0
  8  9  1  0  0  0  0
  8 11  1  0  0  0  0
  8 13  1  0  0  0  0
  9 10  2  0  0  0  0
  9 17  1  0  0  0  0
 11 14  1  0  0  0  0
 11 15  1  0  0  0  0
 11 16  1  0  0  0  0
 17 18  1  0  0  0  0
 17 25  1  0  0  0  0
 18 19  1  0  0  0  0
 18 21  1  0  0  0  0
 18 26  1  0  0  0  0
 19 20  2  0  0  0  0
 19 36  1  0  0  0  0
 21 22  1  0  0  0  0
 21 23  1  0  0  0  0
 21 27  1  0  0  0  0
 22 24  1  0  0  0  0
 22 28  1  0  0  0  0
 22 29  1  0  0  0  0
 23 30  1  0  0  0  0
 23 31  1  0  0  0  0
 23 32  1  0  0  0  0
 24 33  1  0  0  0  0
 24 34  1  0  0  0  0
 24 35  1  0  0  0  0
 36 37  1  0  0  0  0
 36 41  1  0  0  0  0
 37 38  1  0  0  0  0
 37 40  1  0  0  0  0
 37 42  1  0  0  0  0
 38 39  2  0  0  0  0
 38 46  1  0  0  0  0
 40 43  1  0  0  0  0
 40 44  1  0  0  0  0
 40 45  1  0  0  0  0
 46 47  1  0  0  0  0
 46 48  1  0  0  0  0
 47 49  1  0  0  0  0
 47 50  1  0  0  0  0
 47 51  1  0  0  0  0
M  END
$$$$

  -OEChem-05262216503D

 51 50  0     1  0  0  0  0  0999 V2000
   -1.2502   -4.7612    0.7019 C   0  0  0  0  0  0  0  0  0  0  0  0
   -2.0250   -3.8313    0.5307 O   0  0  0  0  0  0  0  0  0  0  0  0
   -1.2874   -5.9671   -0.2178 C   0  0  0  0  0  0  0  0  0  0  0  0
   -2.0842   -5.8524   -0.9582 H   0  0  0  0  0  0  0  0  0  0  0  0
   -0.3331   -6.0675   -0.7409 H   0  0  0  0  0  0  0  0  0  0  0  0
   -1.4749   -6.8743    0.3617 H   0  0  0  0  0  0  0  0  0  0  0  0
   -0.2955   -4.6751    1.6949 N   0  0  0  0  0  0  0  0  0  0  0  0
   -0.1608   -3.5355    2.6177 C   0  0  2  0  0  0  0  0  0  0  0  0
    0.5394   -2.3164    1.9657 C   0  0  0  0  0  0  0  0  0  0  0  0
    1.6063   -1.9134    2.3991 O   0  0  0  0  0  0  0  0  0  0  0  0
    0.5645   -4.0449    3.8708 C   0  0  0  0  0  0  0  0  0  0  0  0
    0.3898   -5.4235    1.7501 H   0  0  0  0  0  0  0  0  0  0  0  0
   -1.1564   -3.2002    2.9281 H   0  0  0  0  0  0  0  0  0  0  0  0
    1.5785   -4.3752    3.6232 H   0  0  0  0  0  0  0  0  0  0  0  0
    0.6352   -3.2471    4.6176 H   0  0  0  0  0  0  0  0  0  0  0  0
    0.0196   -4.8837    4.3144 H   0  0  0  0  0  0  0  0  0  0  0  0
   -0.0525   -1.7600    0.8436 N   0  0  0  0  0  0  0  0  0  0  0  0
    0.1985   -0.4597    0.1796 C   0  0  2  0  0  0  0  0  0  0  0  0
    1.6543    0.0742    0.3107 C   0  0  0  0  0  0  0  0  0  0  0  0
    2.0123    0.7842    1.2452 O   0  0  0  0  0  0  0  0  0  0  0  0
   -0.8801    0.5484    0.6843 C   0  0  2  0  0  0  0  0  0  0  0  0
   -2.2959    0.0673    0.2624 C   0  0  0  0  0  0  0  0  0  0  0  0
   -0.6597    1.9617    0.0935 C   0  0  0  0  0  0  0  0  0  0  0  0
   -3.4298    0.8459    0.9380 C   0  0  0  0  0  0  0  0  0  0  0  0
   -0.9236   -2.2318    0.5859 H   0  0  0  0  0  0  0  0  0  0  0  0
    0.0358   -0.6032   -0.8924 H   0  0  0  0  0  0  0  0  0  0  0  0
   -0.8181    0.6074    1.7769 H   0  0  0  0  0  0  0  0  0  0  0  0
   -2.4039    0.1359   -0.8251 H   0  0  0  0  0  0  0  0  0  0  0  0
   -2.4300   -0.9828    0.5359 H   0  0  0  0  0  0  0  0  0  0  0  0
   -0.6856    1.9286   -1.0001 H   0  0  0  0  0  0  0  0  0  0  0  0
   -1.4293    2.6557    0.4385 H   0  0  0  0  0  0  0  0  0  0  0  0
    0.2983    2.3860    0.4020 H   0  0  0  0  0  0  0  0  0  0  0  0
   -3.2902    0.8598    2.0234 H   0  0  0  0  0  0  0  0  0  0  0  0
   -4.3885    0.3653    0.7205 H   0  0  0  0  0  0  0  0  0  0  0  0
   -3.4800    1.8755    0.5746 H   0  0  0  0  0  0  0  0  0  0  0  0
    2.4976   -0.0055   -0.7827 N   0  0  0  0  0  0  0  0  0  0  0  0
    3.8620    0.5331   -0.8335 C   0  0  2  0  0  0  0  0  0  0  0  0
    4.3641    0.6630   -2.2861 C   0  0  0  0  0  0  0  0  0  0  0  0
    3.7623    0.1111   -3.2021 O   0  0  0  0  0  0  0  0  0  0  0  0
    4.7885   -0.3921   -0.0342 C   0  0  0  0  0  0  0  0  0  0  0  0
    2.1758   -0.5241   -1.5975 H   0  0  0  0  0  0  0  0  0  0  0  0
    3.8739    1.5328   -0.3865 H   0  0  0  0  0  0  0  0  0  0  0  0
    4.7901   -1.3975   -0.4667 H   0  0  0  0  0  0  0  0  0  0  0  0
    5.8127   -0.0081   -0.0378 H   0  0  0  0  0  0  0  0  0  0  0  0
    4.4538   -0.4634    1.0060 H   0  0  0  0  0  0  0  0  0  0  0  0
    5.4975    1.4024   -2.5700 N   0  0  0  0  0  0  0  0  0  0  0  0
    6.0328    1.5636   -3.9161 C   0  0  0  0  0  0  0  0  0  0  0  0
    5.9711    1.8531   -1.7923 H   0  0  0  0  0  0  0  0  0  0  0  0
    6.2825    0.5888   -4.3482 H   0  0  0  0  0  0  0  0  0  0  0  0
    5.3011    2.0590   -4.5630 H   0  0  0  0  0  0  0  0  0  0  0  0
    6.9410    2.1734   -3.8914 H   0  0  0  0  0  0  0  0  0  0  0  0
  1  2  2  0  0  0  0
  1  3  1  0  0  0  0
  1  7  1  0  0  0  0
  3  4  1  0  0  0  0
  3  5  1  0  0  0  0
  3  6  1  0  0  0  0
  7  8  1  0  0  0  0
  7 12  1  0  0  0  0
  8  9  1  0  0  0  0
  8 11  1  0  0  0  0
  8 13  1  0  0  0  0
  9 10  2  0  0  0  0
  9 17  1  0  0  0  0
 11 14  1  0  0  0  0
 11 15  1  0  0  0  0
 11 16  1  0  0  0  0
 17 18  1  0  0  0  0
 17 25  1  0  0  0  0
 18 19  1  0  0  0  0
 18 21  1  0  0  0  0
 18 26  1  0  0  0  0
 19 20  2  0  0  0  0
 19 36  1  0  0  0  0
 21 22  1  0  0  0  0
 21 23  1  0  0  0  0
 21 27  1  0  0  0  0
 22 24  1  0  0  0  0
 22 28  1  0  0  0  0
 22 29  1  0  0  0  0
 23 30  1  0  0  0  0
 23 31  1  0  0  0  0
 23 32  1  0  0  0  0
 24 33  1  0  0  0  0
 24 34  1  0  0  0  0
 24 35  1  0  0  0  0
 36 37  1  0  0  0  0
 36 41  1  0  0  0  0
 37 38  1  0  0  0  0
 37 40  1  0  0  0  0
 37 42  1  0  0  0  0
 38 39  2  0  0  0  0
 38 46  1  0  0  0  0
 40 43  1  0  0  0  0
 40 44  1  0  0  0  0
 40 45  1  0  0  0  0
 46 47  1  0  0  0  0
 46 48  1  0  0  0  0
 47 49  1  0  0  0  0
 47 50  1  0  0  0  0
 47 51  1  0  0  0  0
M  END
$$$$

  -OEChem-05262216503D

 51 50  0     1  0  0  0  0  0999 V2000
    0.4042   -4.3822    0.2222 C   0  0  0  0  0  0  0  0  0  0  0  0
   -0.6246   -4.0430   -0.3454 O   0  0  0  0  0  0  0  0  0  0  0  0
    1.5974   -4.8593   -0.5826 C   0  0  0  0  0  0  0  0  0  0  0  0
    1.3588   -4.8577   -1.6500 H   0  0  0  0  0  0  0  0  0  0  0  0
    2.4498   -4.1978   -0.4122 H   0  0  0  0  0  0  0  0  0  0  0  0
    1.8668   -5.8753   -0.2837 H   0  0  0  0  0  0  0  0  0  0  0  0
    0.5033   -4.2505    1.5920 N   0  0  0  0  0  0  0  0  0  0  0  0
   -0.5441   -3.6519    2.4336 C   0  0  2  0  0  0  0  0  0  0  0  0
   -0.5844   -2.1139    2.2760 C   0  0  0  0  0  0  0  0  0  0  0  0
   -0.3222   -1.3676    3.2075 O   0  0  0  0  0  0  0  0  0  0  0  0
   -0.2873   -4.0985    3.8782 C   0  0  0  0  0  0  0  0  0  0  0  0
    1.4252   -4.3787    2.0011 H   0  0  0  0  0  0  0  0  0  0  0  0
   -1.5243   -4.0382    2.1343 H   0  0  0  0  0  0  0  0  0  0  0  0
    0.6829   -3.7314    4.2286 H   0  0  0  0  0  0  0  0  0  0  0  0
   -1.0646   -3.7029    4.5399 H   0  0  0  0  0  0  0  0  0  0  0  0
   -0.2965   -5.1903    3.9488 H   0  0  0  0  0  0  0  0  0  0  0  0
   -1.0153   -1.5816    1.0746 N   0  0  0  0  0  0  0  0  0  0  0  0
   -0.2664   -0.5557    0.3156 C   0  0  2  0  0  0  0  0  0  0  0  0
    1.2815   -0.6106    0.4758 C   0  0  0  0  0  0  0  0  0  0  0  0
    1.8758   -0.3919    1.5218 O   0  0  0  0  0  0  0  0  0  0  0  0
   -0.8253    0.8494    0.6862 C   0  0  2  0  0  0  0  0  0  0  0  0
   -2.3119    0.9627    0.2602 C   0  0  0  0  0  0  0  0  0  0  0  0
   -0.0111    1.9754    0.0090 C   0  0  0  0  0  0  0  0  0  0  0  0
   -3.0088    2.2053    0.8245 C   0  0  0  0  0  0  0  0  0  0  0  0
   -1.3466   -2.3359    0.4686 H   0  0  0  0  0  0  0  0  0  0  0  0
   -0.4723   -0.7234   -0.7457 H   0  0  0  0  0  0  0  0  0  0  0  0
   -0.7521    0.9744    1.7728 H   0  0  0  0  0  0  0  0  0  0  0  0
   -2.3874    0.9670   -0.8319 H   0  0  0  0  0  0  0  0  0  0  0  0
   -2.8659    0.0921    0.6232 H   0  0  0  0  0  0  0  0  0  0  0  0
   -0.0143    1.8536   -1.0788 H   0  0  0  0  0  0  0  0  0  0  0  0
   -0.4237    2.9579    0.2490 H   0  0  0  0  0  0  0  0  0  0  0  0
    1.0260    1.9781    0.3562 H   0  0  0  0  0  0  0  0  0  0  0  0
   -2.8699    2.2612    1.9087 H   0  0  0  0  0  0  0  0  0  0  0  0
   -4.0819    2.1545    0.6168 H   0  0  0  0  0  0  0  0  0  0  0  0
   -2.6208    3.1211    0.3709 H   0  0  0  0  0  0  0  0  0  0  0  0
    2.0434   -0.8131   -0.6626 N   0  0  0  0  0  0  0  0  0  0  0  0
    3.4550   -0.4147   -0.7739 C   0  0  2  0  0  0  0  0  0  0  0  0
    3.6177    0.7265   -1.7982 C   0  0  0  0  0  0  0  0  0  0  0  0
    2.7876    0.8668   -2.6904 O   0  0  0  0  0  0  0  0  0  0  0  0
    4.2625   -1.6412   -1.1997 C   0  0  0  0  0  0  0  0  0  0  0  0
    1.5211   -0.7809   -1.5372 H   0  0  0  0  0  0  0  0  0  0  0  0
    3.8447   -0.0559    0.1845 H   0  0  0  0  0  0  0  0  0  0  0  0
    3.8972   -2.0287   -2.1564 H   0  0  0  0  0  0  0  0  0  0  0  0
    5.3203   -1.3835   -1.3089 H   0  0  0  0  0  0  0  0  0  0  0  0
    4.1758   -2.4284   -0.4451 H   0  0  0  0  0  0  0  0  0  0  0  0
    4.6955    1.5891   -1.7276 N   0  0  0  0  0  0  0  0  0  0  0  0
    4.8791    2.7115   -2.6398 C   0  0  0  0  0  0  0  0  0  0  0  0
    5.3285    1.4878   -0.9392 H   0  0  0  0  0  0  0  0  0  0  0  0
    4.9676    2.3562   -3.6719 H   0  0  0  0  0  0  0  0  0  0  0  0
    4.0303    3.4004   -2.5757 H   0  0  0  0  0  0  0  0  0  0  0  0
    5.7903    3.2614   -2.3851 H   0  0  0  0  0  0  0  0  0  0  0  0
  1  2  2  0  0  0  0
  1  3  1  0  0  0  0
  1  7  1  0  0  0  0
  3  4  1  0  0  0  0
  3  5  1  0  0  0  0
  3  6  1  0  0  0  0
  7  8  1  0  0  0  0
  7 12  1  0  0  0  0
  8  9  1  0  0  0  0
  8 11  1  0  0  0  0
  8 13  1  0  0  0  0
  9 10  2  0  0  0  0
  9 17  1  0  0  0  0
 11 14  1  0  0  0  0
 11 15  1  0  0  0  0
 11 16  1  0  0  0  0
 17 18  1  0  0  0  0
 17 25  1  0  0  0  0
 18 19  1  0  0  0  0
 18 21  1  0  0  0  0
 18 26  1  0  0  0  0
 19 20  2  0  0  0  0
 19 36  1  0  0  0  0
 21 22  1  0  0  0  0
 21 23  1  0  0  0  0
 21 27  1  0  0  0  0
 22 24  1  0  0  0  0
 22 28  1  0  0  0  0
 22 29  1  0  0  0  0
 23 30  1  0  0  0  0
 23 31  1  0  0  0  0
 23 32  1  0  0  0  0
 24 33  1  0  0  0  0
 24 34  1  0  0  0  0
 24 35  1  0  0  0  0
 36 37  1  0  0  0  0
 36 41  1  0  0  0  0
 37 38  1  0  0  0  0
 37 40  1  0  0  0  0
 37 42  1  0  0  0  0
 38 39  2  0  0  0  0
 38 46  1  0  0  0  0
 40 43  1  0  0  0  0
 40 44  1  0  0  0  0
 40 45  1  0  0  0  0
 46 47  1  0  0  0  0
 46 48  1  0  0  0  0
 47 49  1  0  0  0  0
 47 50  1  0  0  0  0
 47 51  1  0  0  0  0
M  END
$$$$

  -OEChem-05262216503D

 51 50  0     1  0  0  0  0  0999 V2000
    0.5827   -4.1333    0.1158 C   0  0  0  0  0  0  0  0  0  0  0  0
   -0.4891   -3.9394   -0.4429 O   0  0  0  0  0  0  0  0  0  0  0  0
    1.8440   -4.3427   -0.6983 C   0  0  0  0  0  0  0  0  0  0  0  0
    1.6431   -4.1701   -1.7592 H   0  0  0  0  0  0  0  0  0  0  0  0
    2.6179   -3.6456   -0.3672 H   0  0  0  0  0  0  0  0  0  0  0  0
    2.2054   -5.3654   -0.5671 H   0  0  0  0  0  0  0  0  0  0  0  0
    0.6635   -4.0675    1.4907 N   0  0  0  0  0  0  0  0  0  0  0  0
   -0.4511   -3.6144    2.3330 C   0  0  2  0  0  0  0  0  0  0  0  0
   -0.6212   -2.0818    2.2314 C   0  0  0  0  0  0  0  0  0  0  0  0
   -0.3698   -1.3386    3.1708 O   0  0  0  0  0  0  0  0  0  0  0  0
   -0.1750   -4.0912    3.7638 C   0  0  0  0  0  0  0  0  0  0  0  0
    1.6012   -3.9534    1.8694 H   0  0  0  0  0  0  0  0  0  0  0  0
   -1.3854   -4.0784    1.9996 H   0  0  0  0  0  0  0  0  0  0  0  0
    0.7526   -3.6516    4.1451 H   0  0  0  0  0  0  0  0  0  0  0  0
   -0.9947   -3.7949    4.4257 H   0  0  0  0  0  0  0  0  0  0  0  0
   -0.0835   -5.1810    3.7921 H   0  0  0  0  0  0  0  0  0  0  0  0
   -1.1293   -1.5266    1.0716 N   0  0  0  0  0  0  0  0  0  0  0  0
   -0.3823   -0.5295    0.2689 C   0  0  2  0  0  0  0  0  0  0  0  0
    1.1766   -0.6245    0.2794 C   0  0  0  0  0  0  0  0  0  0  0  0
    1.8578   -0.9742    1.2348 O   0  0  0  0  0  0  0  0  0  0  0  0
   -0.8622    0.8895    0.7036 C   0  0  2  0  0  0  0  0  0  0  0  0
   -2.3698    1.0673    0.3815 C   0  0  0  0  0  0  0  0  0  0  0  0
   -0.0503    2.0127    0.0214 C   0  0  0  0  0  0  0  0  0  0  0  0
   -2.9815    2.3222    1.0141 C   0  0  0  0  0  0  0  0  0  0  0  0
   -1.4827   -2.2782    0.4771 H   0  0  0  0  0  0  0  0  0  0  0  0
   -0.6819   -0.6781   -0.7726 H   0  0  0  0  0  0  0  0  0  0  0  0
   -0.7200    0.9804    1.7867 H   0  0  0  0  0  0  0  0  0  0  0  0
   -2.5159    1.0999   -0.7031 H   0  0  0  0  0  0  0  0  0  0  0  0
   -2.9336    0.2104    0.7619 H   0  0  0  0  0  0  0  0  0  0  0  0
   -0.1121    1.9282   -1.0680 H   0  0  0  0  0  0  0  0  0  0  0  0
   -0.4190    2.9988    0.3125 H   0  0  0  0  0  0  0  0  0  0  0  0
    1.0018    1.9738    0.3181 H   0  0  0  0  0  0  0  0  0  0  0  0
   -2.7650    2.3534    2.0867 H   0  0  0  0  0  0  0  0  0  0  0  0
   -4.0677    2.3118    0.8812 H   0  0  0  0  0  0  0  0  0  0  0  0
   -2.5949    3.2325    0.5483 H   0  0  0  0  0  0  0  0  0  0  0  0
    1.8299   -0.5066   -0.9372 N   0  0  0  0  0  0  0  0  0  0  0  0
    3.2827   -0.3105   -1.0626 C   0  0  2  0  0  0  0  0  0  0  0  0
    3.6228    1.1779   -1.2806 C   0  0  0  0  0  0  0  0  0  0  0  0
    2.8663    1.8826   -1.9400 O   0  0  0  0  0  0  0  0  0  0  0  0
    3.7728   -1.1396   -2.2518 C   0  0  0  0  0  0  0  0  0  0  0  0
    1.2721   -0.0829   -1.6759 H   0  0  0  0  0  0  0  0  0  0  0  0
    3.8056   -0.6524   -0.1638 H   0  0  0  0  0  0  0  0  0  0  0  0
    3.2845   -0.8121   -3.1753 H   0  0  0  0  0  0  0  0  0  0  0  0
    4.8545   -1.0278   -2.3734 H   0  0  0  0  0  0  0  0  0  0  0  0
    3.5504   -2.1988   -2.0973 H   0  0  0  0  0  0  0  0  0  0  0  0
    4.7884    1.7183   -0.7709 N   0  0  0  0  0  0  0  0  0  0  0  0
    5.1367    3.1278   -0.9045 C   0  0  0  0  0  0  0  0  0  0  0  0
    5.3468    1.1320   -0.1570 H   0  0  0  0  0  0  0  0  0  0  0  0
    5.1980    3.4099   -1.9610 H   0  0  0  0  0  0  0  0  0  0  0  0
    4.3856    3.7566   -0.4152 H   0  0  0  0  0  0  0  0  0  0  0  0
    6.1076    3.3233   -0.4394 H   0  0  0  0  0  0  0  0  0  0  0  0
  1  2  2  0  0  0  0
  1  3  1  0  0  0  0
  1  7  1  0  0  0  0
  3  4  1  0  0  0  0
  3  5  1  0  0  0  0
  3  6  1  0  0  0  0
  7  8  1  0  0  0  0
  7 12  1  0  0  0  0
  8  9  1  0  0  0  0
  8 11  1  0  0  0  0
  8 13  1  0  0  0  0
  9 10  2  0  0  0  0
  9 17  1  0  0  0  0
 11 14  1  0  0  0  0
 11 15  1  0  0  0  0
 11 16  1  0  0  0  0
 17 18  1  0  0  0  0
 17 25  1  0  0  0  0
 18 19  1  0  0  0  0
 18 21  1  0  0  0  0
 18 26  1  0  0  0  0
 19 20  2  0  0  0  0
 19 36  1  0  0  0  0
 21 22  1  0  0  0  0
 21 23  1  0  0  0  0
 21 27  1  0  0  0  0
 22 24  1  0  0  0  0
 22 28  1  0  0  0  0
 22 29  1  0  0  0  0
 23 30  1  0  0  0  0
 23 31  1  0  0  0  0
 23 32  1  0  0  0  0
 24 33  1  0  0  0  0
 24 34  1  0  0  0  0
 24 35  1  0  0  0  0
 36 37  1  0  0  0  0
 36 41  1  0  0  0  0
 37 38  1  0  0  0  0
 37 40  1  0  0  0  0
 37 42  1  0  0  0  0
 38 39  2  0  0  0  0
 38 46  1  0  0  0  0
 40 43  1  0  0  0  0
 40 44  1  0  0  0  0
 40 45  1  0  0  0  0
 46 47  1  0  0  0  0
 46 48  1  0  0  0  0
 47 49  1  0  0  0  0
 47 50  1  0  0  0  0
 47 51  1  0  0  0  0
M  END
$$$$

  -OEChem-05262216503D

 51 50  0     1  0  0  0  0  0999 V2000
    0.3713   -4.1426   -0.0176 C   0  0  0  0  0  0  0  0  0  0  0  0
   -0.7539   -3.9660   -0.4659 O   0  0  0  0  0  0  0  0  0  0  0  0
    1.5507   -4.2924   -0.9584 C   0  0  0  0  0  0  0  0  0  0  0  0
    1.2197   -4.2085   -1.9972 H   0  0  0  0  0  0  0  0  0  0  0  0
    2.2853   -3.5088   -0.7577 H   0  0  0  0  0  0  0  0  0  0  0  0
    2.0208   -5.2682   -0.8146 H   0  0  0  0  0  0  0  0  0  0  0  0
    0.5851   -4.0865    1.3436 N   0  0  0  0  0  0  0  0  0  0  0  0
   -0.4486   -3.6434    2.2896 C   0  0  2  0  0  0  0  0  0  0  0  0
   -0.6139   -2.1079    2.2286 C   0  0  0  0  0  0  0  0  0  0  0  0
   -0.3414   -1.3834    3.1782 O   0  0  0  0  0  0  0  0  0  0  0  0
   -0.0487   -4.1469    3.6810 C   0  0  0  0  0  0  0  0  0  0  0  0
    1.5509   -3.9179    1.6189 H   0  0  0  0  0  0  0  0  0  0  0  0
   -1.4129   -4.0941    2.0330 H   0  0  0  0  0  0  0  0  0  0  0  0
    0.9142   -3.7213    3.9818 H   0  0  0  0  0  0  0  0  0  0  0  0
   -0.8016   -3.8552    4.4199 H   0  0  0  0  0  0  0  0  0  0  0  0
    0.0339   -5.2378    3.6826 H   0  0  0  0  0  0  0  0  0  0  0  0
   -1.0806   -1.5217    1.0660 N   0  0  0  0  0  0  0  0  0  0  0  0
   -0.3403   -0.4525    0.3534 C   0  0  2  0  0  0  0  0  0  0  0  0
    1.2219   -0.4676    0.4482 C   0  0  0  0  0  0  0  0  0  0  0  0
    1.8658   -1.2106    1.1819 O   0  0  0  0  0  0  0  0  0  0  0  0
   -0.9465    0.9109    0.8210 C   0  0  2  0  0  0  0  0  0  0  0  0
   -2.4389    1.0009    0.4018 C   0  0  0  0  0  0  0  0  0  0  0  0
   -0.1813    2.1325    0.2676 C   0  0  0  0  0  0  0  0  0  0  0  0
   -3.1847    2.1754    1.0441 C   0  0  0  0  0  0  0  0  0  0  0  0
   -1.4035   -2.2529    0.4276 H   0  0  0  0  0  0  0  0  0  0  0  0
   -0.5642   -0.5698   -0.7111 H   0  0  0  0  0  0  0  0  0  0  0  0
   -0.8872    0.9502    1.9148 H   0  0  0  0  0  0  0  0  0  0  0  0
   -2.5123    1.0776   -0.6876 H   0  0  0  0  0  0  0  0  0  0  0  0
   -2.9655    0.0900    0.7009 H   0  0  0  0  0  0  0  0  0  0  0  0
   -0.1597    2.1141   -0.8266 H   0  0  0  0  0  0  0  0  0  0  0  0
   -0.6465    3.0680    0.5863 H   0  0  0  0  0  0  0  0  0  0  0  0
    0.8454    2.1551    0.6436 H   0  0  0  0  0  0  0  0  0  0  0  0
   -3.0461    2.1686    2.1299 H   0  0  0  0  0  0  0  0  0  0  0  0
   -4.2552    2.0944    0.8318 H   0  0  0  0  0  0  0  0  0  0  0  0
   -2.8367    3.1333    0.6485 H   0  0  0  0  0  0  0  0  0  0  0  0
    1.9328    0.0475   -0.6232 N   0  0  0  0  0  0  0  0  0  0  0  0
    3.3892    0.2544   -0.6176 C   0  0  2  0  0  0  0  0  0  0  0  0
    3.7330    1.7352   -0.8790 C   0  0  0  0  0  0  0  0  0  0  0  0
    2.9204    2.4591   -1.4449 O   0  0  0  0  0  0  0  0  0  0  0  0
    4.0045   -0.6394   -1.6960 C   0  0  0  0  0  0  0  0  0  0  0  0
    1.4129    0.7017   -1.2074 H   0  0  0  0  0  0  0  0  0  0  0  0
    3.8177   -0.0132    0.3540 H   0  0  0  0  0  0  0  0  0  0  0  0
    3.6062   -0.3803   -2.6824 H   0  0  0  0  0  0  0  0  0  0  0  0
    5.0921   -0.5207   -1.7173 H   0  0  0  0  0  0  0  0  0  0  0  0
    3.7760   -1.6894   -1.4918 H   0  0  0  0  0  0  0  0  0  0  0  0
    4.9442    2.2606   -0.4685 N   0  0  0  0  0  0  0  0  0  0  0  0
    5.2946    3.6680   -0.6174 C   0  0  0  0  0  0  0  0  0  0  0  0
    5.5686    1.6521    0.0531 H   0  0  0  0  0  0  0  0  0  0  0  0
    5.2884    3.9556   -1.6740 H   0  0  0  0  0  0  0  0  0  0  0  0
    4.5823    4.2995   -0.0760 H   0  0  0  0  0  0  0  0  0  0  0  0
    6.2954    3.8533   -0.2153 H   0  0  0  0  0  0  0  0  0  0  0  0
  1  2  2  0  0  0  0
  1  3  1  0  0  0  0
  1  7  1  0  0  0  0
  3  4  1  0  0  0  0
  3  5  1  0  0  0  0
  3  6  1  0  0  0  0
  7  8  1  0  0  0  0
  7 12  1  0  0  0  0
  8  9  1  0  0  0  0
  8 11  1  0  0  0  0
  8 13  1  0  0  0  0
  9 10  2  0  0  0  0
  9 17  1  0  0  0  0
 11 14  1  0  0  0  0
 11 15  1  0  0  0  0
 11 16  1  0  0  0  0
 17 18  1  0  0  0  0
 17 25  1  0  0  0  0
 18 19  1  0  0  0  0
 18 21  1  0  0  0  0
 18 26  1  0  0  0  0
 19 20  2  0  0  0  0
 19 36  1  0  0  0  0
 21 22  1  0  0  0  0
 21 23  1  0  0  0  0
 21 27  1  0  0  0  0
 22 24  1  0  0  0  0
 22 28  1  0  0  0  0
 22 29  1  0  0  0  0
 23 30  1  0  0  0  0
 23 31  1  0  0  0  0
 23 32  1  0  0  0  0
 24 33  1  0  0  0  0
 24 34  1  0  0  0  0
 24 35  1  0  0  0  0
 36 37  1  0  0  0  0
 36 41  1  0  0  0  0
 37 38  1  0  0  0  0
 37 40  1  0  0  0  0
 37 42  1  0  0  0  0
 38 39  2  0  0  0  0
 38 46  1  0  0  0  0
 40 43  1  0  0  0  0
 40 44  1  0  0  0  0
 40 45  1  0  0  0  0
 46 47  1  0  0  0  0
 46 48  1  0  0  0  0
 47 49  1  0  0  0  0
 47 50  1  0  0  0  0
 47 51  1  0  0  0  0
M  END
$$$$

  -OEChem-05262216503D

 51 50  0     1  0  0  0  0  0999 V2000
    1.4261   -5.3892    1.1225 C   0  0  0  0  0  0  0  0  0  0  0  0
    0.8806   -5.8923    0.1519 O   0  0  0  0  0  0  0  0  0  0  0  0
    2.8449   -5.7858    1.4858 C   0  0  0  0  0  0  0  0  0  0  0  0
    3.1922   -6.5886    0.8295 H   0  0  0  0  0  0  0  0  0  0  0  0
    3.5102   -4.9257    1.3745 H   0  0  0  0  0  0  0  0  0  0  0  0
    2.8830   -6.1357    2.5202 H   0  0  0  0  0  0  0  0  0  0  0  0
    0.7646   -4.4523    1.8877 N   0  0  0  0  0  0  0  0  0  0  0  0
   -0.4555   -3.7616    1.4536 C   0  0  2  0  0  0  0  0  0  0  0  0
   -0.2753   -2.2370    1.5774 C   0  0  0  0  0  0  0  0  0  0  0  0
    0.3415   -1.7745    2.5319 O   0  0  0  0  0  0  0  0  0  0  0  0
   -1.6206   -4.2452    2.3195 C   0  0  0  0  0  0  0  0  0  0  0  0
    1.3330   -3.9530    2.5715 H   0  0  0  0  0  0  0  0  0  0  0  0
   -0.6723   -3.9857    0.4042 H   0  0  0  0  0  0  0  0  0  0  0  0
   -1.4280   -4.0292    3.3755 H   0  0  0  0  0  0  0  0  0  0  0  0
   -2.5493   -3.7465    2.0258 H   0  0  0  0  0  0  0  0  0  0  0  0
   -1.7544   -5.3252    2.2024 H   0  0  0  0  0  0  0  0  0  0  0  0
   -0.9178   -1.3729    0.7062 N   0  0  0  0  0  0  0  0  0  0  0  0
   -0.3315   -0.0969    0.2222 C   0  0  2  0  0  0  0  0  0  0  0  0
    1.2282   -0.0447    0.0898 C   0  0  0  0  0  0  0  0  0  0  0  0
    1.9410   -1.0333    0.2237 O   0  0  0  0  0  0  0  0  0  0  0  0
   -0.9231    1.0157    1.1574 C   0  0  2  0  0  0  0  0  0  0  0  0
   -2.4680    1.0850    0.9928 C   0  0  0  0  0  0  0  0  0  0  0  0
   -0.3207    2.4181    0.9262 C   0  0  0  0  0  0  0  0  0  0  0  0
   -3.1630    1.9497    2.0508 C   0  0  0  0  0  0  0  0  0  0  0  0
   -1.4786   -1.8650    0.0183 H   0  0  0  0  0  0  0  0  0  0  0  0
   -0.7049    0.0802   -0.7905 H   0  0  0  0  0  0  0  0  0  0  0  0
   -0.6982    0.7340    2.1926 H   0  0  0  0  0  0  0  0  0  0  0  0
   -2.7145    1.4658   -0.0038 H   0  0  0  0  0  0  0  0  0  0  0  0
   -2.8995    0.0838    1.0746 H   0  0  0  0  0  0  0  0  0  0  0  0
   -0.4400    2.7253   -0.1176 H   0  0  0  0  0  0  0  0  0  0  0  0
   -0.8005    3.1664    1.5609 H   0  0  0  0  0  0  0  0  0  0  0  0
    0.7406    2.4341    1.1893 H   0  0  0  0  0  0  0  0  0  0  0  0
   -2.8374    1.6606    3.0549 H   0  0  0  0  0  0  0  0  0  0  0  0
   -4.2467    1.8127    1.9865 H   0  0  0  0  0  0  0  0  0  0  0  0
   -2.9521    3.0117    1.9016 H   0  0  0  0  0  0  0  0  0  0  0  0
    1.7992    0.9843   -0.6388 N   0  0  0  0  0  0  0  0  0  0  0  0
    3.2387    1.1444   -0.8822 C   0  0  2  0  0  0  0  0  0  0  0  0
    3.6410    2.6334   -0.8381 C   0  0  0  0  0  0  0  0  0  0  0  0
    2.7747    3.5027   -0.8456 O   0  0  0  0  0  0  0  0  0  0  0  0
    3.5661    0.5330   -2.2475 C   0  0  0  0  0  0  0  0  0  0  0  0
    1.2418    1.8325   -0.7348 H   0  0  0  0  0  0  0  0  0  0  0  0
    3.8116    0.6265   -0.1052 H   0  0  0  0  0  0  0  0  0  0  0  0
    3.0066    1.0421   -3.0388 H   0  0  0  0  0  0  0  0  0  0  0  0
    4.6349    0.6207   -2.4631 H   0  0  0  0  0  0  0  0  0  0  0  0
    3.2988   -0.5285   -2.2593 H   0  0  0  0  0  0  0  0  0  0  0  0
    4.9721    3.0028   -0.7787 N   0  0  0  0  0  0  0  0  0  0  0  0
    5.4149    4.3906   -0.7175 C   0  0  0  0  0  0  0  0  0  0  0  0
    5.6664    2.2616   -0.7464 H   0  0  0  0  0  0  0  0  0  0  0  0
    5.0612    4.9440   -1.5935 H   0  0  0  0  0  0  0  0  0  0  0  0
    5.0298    4.8767    0.1851 H   0  0  0  0  0  0  0  0  0  0  0  0
    6.5078    4.4393   -0.6980 H   0  0  0  0  0  0  0  0  0  0  0  0
  1  2  2  0  0  0  0
  1  3  1  0  0  0  0
  1  7  1  0  0  0  0
  3  4  1  0  0  0  0
  3  5  1  0  0  0  0
  3  6  1  0  0  0  0
  7  8  1  0  0  0  0
  7 12  1  0  0  0  0
  8  9  1  0  0  0  0
  8 11  1  0  0  0  0
  8 13  1  0  0  0  0
  9 10  2  0  0  0  0
  9 17  1  0  0  0  0
 11 14  1  0  0  0  0
 11 15  1  0  0  0  0
 11 16  1  0  0  0  0
 17 18  1  0  0  0  0
 17 25  1  0  0  0  0
 18 19  1  0  0  0  0
 18 21  1  0  0  0  0
 18 26  1  0  0  0  0
 19 20  2  0  0  0  0
 19 36  1  0  0  0  0
 21 22  1  0  0  0  0
 21 23  1  0  0  0  0
 21 27  1  0  0  0  0
 22 24  1  0  0  0  0
 22 28  1  0  0  0  0
 22 29  1  0  0  0  0
 23 30  1  0  0  0  0
 23 31  1  0  0  0  0
 23 32  1  0  0  0  0
 24 33  1  0  0  0  0
 24 34  1  0  0  0  0
 24 35  1  0  0  0  0
 36 37  1  0  0  0  0
 36 41  1  0  0  0  0
 37 38  1  0  0  0  0
 37 40  1  0  0  0  0
 37 42  1  0  0  0  0
 38 39  2  0  0  0  0
 38 46  1  0  0  0  0
 40 43  1  0  0  0  0
 40 44  1  0  0  0  0
 40 45  1  0  0  0  0
 46 47  1  0  0  0  0
 46 48  1  0  0  0  0
 47 49  1  0  0  0  0
 47 50  1  0  0  0  0
 47 51  1  0  0  0  0
M  END
$$$$

  -OEChem-05262216503D

 51 50  0     1  0  0  0  0  0999 V2000
    1.3999   -5.6707    1.3146 C   0  0  0  0  0  0  0  0  0  0  0  0
    0.6723   -6.3154    0.5752 O   0  0  0  0  0  0  0  0  0  0  0  0
    2.7387   -6.2368    1.7484 C   0  0  0  0  0  0  0  0  0  0  0  0
    2.8830   -7.2334    1.3220 H   0  0  0  0  0  0  0  0  0  0  0  0
    3.5469   -5.5859    1.4056 H   0  0  0  0  0  0  0  0  0  0  0  0
    2.7767   -6.3109    2.8379 H   0  0  0  0  0  0  0  0  0  0  0  0
    1.0084   -4.4265    1.7591 N   0  0  0  0  0  0  0  0  0  0  0  0
   -0.1641   -3.7012    1.2579 C   0  0  2  0  0  0  0  0  0  0  0  0
    0.0641   -2.1769    1.2991 C   0  0  0  0  0  0  0  0  0  0  0  0
    0.9214   -1.7111    2.0447 O   0  0  0  0  0  0  0  0  0  0  0  0
   -1.3768   -4.0830    2.1118 C   0  0  0  0  0  0  0  0  0  0  0  0
    1.6961   -3.8736    2.2703 H   0  0  0  0  0  0  0  0  0  0  0  0
   -0.3501   -3.9779    0.2145 H   0  0  0  0  0  0  0  0  0  0  0  0
   -1.2053   -3.8141    3.1592 H   0  0  0  0  0  0  0  0  0  0  0  0
   -2.2735   -3.5635    1.7610 H   0  0  0  0  0  0  0  0  0  0  0  0
   -1.5571   -5.1609    2.0533 H   0  0  0  0  0  0  0  0  0  0  0  0
   -0.7544   -1.3333    0.5616 N   0  0  0  0  0  0  0  0  0  0  0  0
   -0.3832    0.0474    0.1693 C   0  0  2  0  0  0  0  0  0  0  0  0
    1.0747    0.1470   -0.3901 C   0  0  0  0  0  0  0  0  0  0  0  0
    1.6609   -0.8551   -0.7892 O   0  0  0  0  0  0  0  0  0  0  0  0
   -0.7296    0.9702    1.3934 C   0  0  2  0  0  0  0  0  0  0  0  0
   -2.2625    0.9291    1.6540 C   0  0  0  0  0  0  0  0  0  0  0  0
   -0.2817    2.4356    1.2175 C   0  0  0  0  0  0  0  0  0  0  0  0
   -2.6837    1.5747    2.9793 C   0  0  0  0  0  0  0  0  0  0  0  0
   -1.3825   -1.8212   -0.0691 H   0  0  0  0  0  0  0  0  0  0  0  0
   -1.0243    0.3533   -0.6621 H   0  0  0  0  0  0  0  0  0  0  0  0
   -0.2183    0.5813    2.2804 H   0  0  0  0  0  0  0  0  0  0  0  0
   -2.7896    1.4203    0.8298 H   0  0  0  0  0  0  0  0  0  0  0  0
   -2.6076   -0.1079    1.6892 H   0  0  0  0  0  0  0  0  0  0  0  0
   -0.6168    2.8314    0.2537 H   0  0  0  0  0  0  0  0  0  0  0  0
   -0.6796    3.0763    2.0065 H   0  0  0  0  0  0  0  0  0  0  0  0
    0.8063    2.5151    1.2870 H   0  0  0  0  0  0  0  0  0  0  0  0
   -2.0781    1.1861    3.8042 H   0  0  0  0  0  0  0  0  0  0  0  0
   -3.7339    1.3457    3.1848 H   0  0  0  0  0  0  0  0  0  0  0  0
   -2.5811    2.6623    2.9459 H   0  0  0  0  0  0  0  0  0  0  0  0
    1.6077    1.3520   -0.8098 N   0  0  0  0  0  0  0  0  0  0  0  0
    2.9696    1.5306   -1.3291 C   0  0  2  0  0  0  0  0  0  0  0  0
    3.5469    2.8967   -0.9034 C   0  0  0  0  0  0  0  0  0  0  0  0
    2.8074    3.7572   -0.4358 O   0  0  0  0  0  0  0  0  0  0  0  0
    2.9299    1.4139   -2.8556 C   0  0  0  0  0  0  0  0  0  0  0  0
    1.1521    2.1966   -0.4673 H   0  0  0  0  0  0  0  0  0  0  0  0
    3.6269    0.7544   -0.9222 H   0  0  0  0  0  0  0  0  0  0  0  0
    2.2834    2.1879   -3.2812 H   0  0  0  0  0  0  0  0  0  0  0  0
    3.9334    1.5263   -3.2763 H   0  0  0  0  0  0  0  0  0  0  0  0
    2.5416    0.4338   -3.1502 H   0  0  0  0  0  0  0  0  0  0  0  0
    4.8972    3.1619   -1.0367 N   0  0  0  0  0  0  0  0  0  0  0  0
    5.5092    4.4220   -0.6328 C   0  0  0  0  0  0  0  0  0  0  0  0
    5.4887    2.4206   -1.4010 H   0  0  0  0  0  0  0  0  0  0  0  0
    5.0472    5.2609   -1.1641 H   0  0  0  0  0  0  0  0  0  0  0  0
    5.3895    4.5782    0.4445 H   0  0  0  0  0  0  0  0  0  0  0  0
    6.5785    4.4147   -0.8649 H   0  0  0  0  0  0  0  0  0  0  0  0
  1  2  2  0  0  0  0
  1  3  1  0  0  0  0
  1  7  1  0  0  0  0
  3  4  1  0  0  0  0
  3  5  1  0  0  0  0
  3  6  1  0  0  0  0
  7  8  1  0  0  0  0
  7 12  1  0  0  0  0
  8  9  1  0  0  0  0
  8 11  1  0  0  0  0
  8 13  1  0  0  0  0
  9 10  2  0  0  0  0
  9 17  1  0  0  0  0
 11 14  1  0  0  0  0
 11 15  1  0  0  0  0
 11 16  1  0  0  0  0
 17 18  1  0  0  0  0
 17 25  1  0  0  0  0
 18 19  1  0  0  0  0
 18 21  1  0  0  0  0
 18 26  1  0  0  0  0
 19 20  2  0  0  0  0
 19 36  1  0  0  0  0
 21 22  1  0  0  0  0
 21 23  1  0  0  0  0
 21 27  1  0  0  0  0
 22 24  1  0  0  0  0
 22 28  1  0  0  0  0
 22 29  1  0  0  0  0
 23 30  1  0  0  0  0
 23 31  1  0  0  0  0
 23 32  1  0  0  0  0
 24 33  1  0  0  0  0
 24 34  1  0  0  0  0
 24 35  1  0  0  0  0
 36 37  1  0  0  0  0
 36 41  1  0  0  0  0
 37 38  1  0  0  0  0
 37 40  1  0  0  0  0
 37 42  1  0  0  0  0
 38 39  2  0  0  0  0
 38 46  1  0  0  0  0
 40 43  1  0  0  0  0
 40 44  1  0  0  0  0
 40 45  1  0  0  0  0
 46 47  1  0  0  0  0
 46 48  1  0  0  0  0
 47 49  1  0  0  0  0
 47 50  1  0  0  0  0
 47 51  1  0  0  0  0
M  END
$$$$

  -OEChem-05262216503D

 51 50  0     1  0  0  0  0  0999 V2000
    1.4588   -5.6140    1.2761 C   0  0  0  0  0  0  0  0  0  0  0  0
    0.7395   -6.2577    0.5279 O   0  0  0  0  0  0  0  0  0  0  0  0
    2.7791   -6.1942    1.7467 C   0  0  0  0  0  0  0  0  0  0  0  0
    2.9113   -7.2034    1.3464 H   0  0  0  0  0  0  0  0  0  0  0  0
    3.6055   -5.5676    1.4028 H   0  0  0  0  0  0  0  0  0  0  0  0
    2.7972   -6.2426    2.8382 H   0  0  0  0  0  0  0  0  0  0  0  0
    1.0715   -4.3613    1.7009 N   0  0  0  0  0  0  0  0  0  0  0  0
   -0.1018   -3.6407    1.1932 C   0  0  2  0  0  0  0  0  0  0  0  0
    0.1032   -2.1128    1.2512 C   0  0  0  0  0  0  0  0  0  0  0  0
    0.9801   -1.6414    1.9702 O   0  0  0  0  0  0  0  0  0  0  0  0
   -1.3216   -4.0490    2.0256 C   0  0  0  0  0  0  0  0  0  0  0  0
    1.7520   -3.8101    2.2232 H   0  0  0  0  0  0  0  0  0  0  0  0
   -0.2695   -3.9081    0.1444 H   0  0  0  0  0  0  0  0  0  0  0  0
   -1.1689   -3.7899    3.0781 H   0  0  0  0  0  0  0  0  0  0  0  0
   -2.2212   -3.5391    1.6683 H   0  0  0  0  0  0  0  0  0  0  0  0
   -1.4858   -5.1288    1.9528 H   0  0  0  0  0  0  0  0  0  0  0  0
   -0.7499   -1.2740    0.5484 N   0  0  0  0  0  0  0  0  0  0  0  0
   -0.4295    0.1302    0.1975 C   0  0  2  0  0  0  0  0  0  0  0  0
    1.0251    0.2588   -0.3661 C   0  0  0  0  0  0  0  0  0  0  0  0
    1.5229   -0.6909   -0.9644 O   0  0  0  0  0  0  0  0  0  0  0  0
   -0.8106    1.0043    1.4480 C   0  0  2  0  0  0  0  0  0  0  0  0
   -2.3423    0.8957    1.7012 C   0  0  0  0  0  0  0  0  0  0  0  0
   -0.4292    2.4934    1.3042 C   0  0  0  0  0  0  0  0  0  0  0  0
   -2.7986    1.4834    3.0431 C   0  0  0  0  0  0  0  0  0  0  0  0
   -1.3779   -1.7606   -0.0835 H   0  0  0  0  0  0  0  0  0  0  0  0
   -1.0785    0.4404   -0.6267 H   0  0  0  0  0  0  0  0  0  0  0  0
   -0.2859    0.6133    2.3263 H   0  0  0  0  0  0  0  0  0  0  0  0
   -2.8851    1.3889    0.8883 H   0  0  0  0  0  0  0  0  0  0  0  0
   -2.6455   -0.1548    1.7047 H   0  0  0  0  0  0  0  0  0  0  0  0
   -0.6705    2.8613    0.3020 H   0  0  0  0  0  0  0  0  0  0  0  0
   -0.9495    3.1225    2.0280 H   0  0  0  0  0  0  0  0  0  0  0  0
    0.6368    2.6339    1.5004 H   0  0  0  0  0  0  0  0  0  0  0  0
   -2.1756    1.1034    3.8590 H   0  0  0  0  0  0  0  0  0  0  0  0
   -3.8356    1.1936    3.2384 H   0  0  0  0  0  0  0  0  0  0  0  0
   -2.7543    2.5753    3.0435 H   0  0  0  0  0  0  0  0  0  0  0  0
    1.6916    1.4630   -0.4911 N   0  0  0  0  0  0  0  0  0  0  0  0
    3.0827    1.6089   -0.9373 C   0  0  2  0  0  0  0  0  0  0  0  0
    3.7637    2.8026   -0.2359 C   0  0  0  0  0  0  0  0  0  0  0  0
    3.0852    3.6368    0.3554 O   0  0  0  0  0  0  0  0  0  0  0  0
    3.0974    1.8008   -2.4570 C   0  0  0  0  0  0  0  0  0  0  0  0
    1.3065    2.2550    0.0190 H   0  0  0  0  0  0  0  0  0  0  0  0
    3.6494    0.7081   -0.6786 H   0  0  0  0  0  0  0  0  0  0  0  0
    2.5397    2.7009   -2.7342 H   0  0  0  0  0  0  0  0  0  0  0  0
    4.1239    1.8999   -2.8220 H   0  0  0  0  0  0  0  0  0  0  0  0
    2.6378    0.9400   -2.9527 H   0  0  0  0  0  0  0  0  0  0  0  0
    5.1389    2.9436   -0.2618 N   0  0  0  0  0  0  0  0  0  0  0  0
    5.8423    4.0379    0.3970 C   0  0  0  0  0  0  0  0  0  0  0  0
    5.6775    2.2258   -0.7380 H   0  0  0  0  0  0  0  0  0  0  0  0
    5.5256    5.0013   -0.0163 H   0  0  0  0  0  0  0  0  0  0  0  0
    5.6371    4.0324    1.4728 H   0  0  0  0  0  0  0  0  0  0  0  0
    6.9221    3.9375    0.2503 H   0  0  0  0  0  0  0  0  0  0  0  0
  1  2  2  0  0  0  0
  1  3  1  0  0  0  0
  1  7  1  0  0  0  0
  3  4  1  0  0  0  0
  3  5  1  0  0  0  0
  3  6  1  0  0  0  0
  7  8  1  0  0  0  0
  7 12  1  0  0  0  0
  8  9  1  0  0  0  0
  8 11  1  0  0  0  0
  8 13  1  0  0  0  0
  9 10  2  0  0  0  0
  9 17  1  0  0  0  0
 11 14  1  0  0  0  0
 11 15  1  0  0  0  0
 11 16  1  0  0  0  0
 17 18  1  0  0  0  0
 17 25  1  0  0  0  0
 18 19  1  0  0  0  0
 18 21  1  0  0  0  0
 18 26  1  0  0  0  0
 19 20  2  0  0  0  0
 19 36  1  0  0  0  0
 21 22  1  0  0  0  0
 21 23  1  0  0  0  0
 21 27  1  0  0  0  0
 22 24  1  0  0  0  0
 22 28  1  0  0  0  0
 22 29  1  0  0  0  0
 23 30  1  0  0  0  0
 23 31  1  0  0  0  0
 23 32  1  0  0  0  0
 24 33  1  0  0  0  0
 24 34  1  0  0  0  0
 24 35  1  0  0  0  0
 36 37  1  0  0  0  0
 36 41  1  0  0  0  0
 37 38  1  0  0  0  0
 37 40  1  0  0  0  0
 37 42  1  0  0  0  0
 38 39  2  0  0  0  0
 38 46  1  0  0  0  0
 40 43  1  0  0  0  0
 40 44  1  0  0  0  0
 40 45  1  0  0  0  0
 46 47  1  0  0  0  0
 46 48  1  0  0  0  0
 47 49  1  0  0  0  0
 47 50  1  0  0  0  0
 47 51  1  0  0  0  0
M  END
$$$$

  -OEChem-05262216503D

 51 50  0     1  0  0  0  0  0999 V2000
    1.2633   -5.6326    0.8606 C   0  0  0  0  0  0  0  0  0  0  0  0
    0.3154   -6.2414    0.3904 O   0  0  0  0  0  0  0  0  0  0  0  0
    2.6095   -6.3164    1.0083 C   0  0  0  0  0  0  0  0  0  0  0  0
    2.5348   -7.3647    0.7060 H   0  0  0  0  0  0  0  0  0  0  0  0
    3.3506   -5.8197    0.3774 H   0  0  0  0  0  0  0  0  0  0  0  0
    2.9386   -6.2735    2.0493 H   0  0  0  0  0  0  0  0  0  0  0  0
    1.1132   -4.3206    1.2573 N   0  0  0  0  0  0  0  0  0  0  0  0
   -0.0998   -3.5216    1.0413 C   0  0  2  0  0  0  0  0  0  0  0  0
    0.2161   -2.0129    0.9742 C   0  0  0  0  0  0  0  0  0  0  0  0
    1.3020   -1.5937    1.3706 O   0  0  0  0  0  0  0  0  0  0  0  0
   -1.0857   -3.8083    2.1798 C   0  0  0  0  0  0  0  0  0  0  0  0
    1.9501   -3.8170    1.5481 H   0  0  0  0  0  0  0  0  0  0  0  0
   -0.5555   -3.8034    0.0857 H   0  0  0  0  0  0  0  0  0  0  0  0
   -0.6472   -3.5306    3.1436 H   0  0  0  0  0  0  0  0  0  0  0  0
   -2.0103   -3.2405    2.0405 H   0  0  0  0  0  0  0  0  0  0  0  0
   -1.3386   -4.8731    2.2065 H   0  0  0  0  0  0  0  0  0  0  0  0
   -0.7505   -1.1199    0.5365 N   0  0  0  0  0  0  0  0  0  0  0  0
   -0.4650    0.2660    0.0994 C   0  0  2  0  0  0  0  0  0  0  0  0
    0.7822    0.2114   -0.8437 C   0  0  0  0  0  0  0  0  0  0  0  0
    0.7022   -0.5148   -1.8251 O   0  0  0  0  0  0  0  0  0  0  0  0
   -0.4354    1.1932    1.3592 C   0  0  2  0  0  0  0  0  0  0  0  0
   -1.8406    1.1790    2.0266 C   0  0  0  0  0  0  0  0  0  0  0  0
   -0.1706    2.6750    0.9947 C   0  0  0  0  0  0  0  0  0  0  0  0
   -1.8670    1.8332    3.4130 C   0  0  0  0  0  0  0  0  0  0  0  0
   -1.5733   -1.5565    0.1310 H   0  0  0  0  0  0  0  0  0  0  0  0
   -1.2858    0.6150   -0.5350 H   0  0  0  0  0  0  0  0  0  0  0  0
    0.3251    0.8382    2.0621 H   0  0  0  0  0  0  0  0  0  0  0  0
   -2.5741    1.6687    1.3774 H   0  0  0  0  0  0  0  0  0  0  0  0
   -2.1718    0.1461    2.1650 H   0  0  0  0  0  0  0  0  0  0  0  0
   -0.9376    3.0424    0.3054 H   0  0  0  0  0  0  0  0  0  0  0  0
    0.7959    2.8300    0.5270 H   0  0  0  0  0  0  0  0  0  0  0  0
   -0.1767    3.3049    1.8869 H   0  0  0  0  0  0  0  0  0  0  0  0
   -1.0679    1.4290    4.0424 H   0  0  0  0  0  0  0  0  0  0  0  0
   -2.8257    1.6287    3.8992 H   0  0  0  0  0  0  0  0  0  0  0  0
   -1.7514    2.9181    3.3468 H   0  0  0  0  0  0  0  0  0  0  0  0
    1.7445    1.1697   -1.0401 N   0  0  0  0  0  0  0  0  0  0  0  0
    2.8208    1.2787   -0.0408 C   0  0  2  0  0  0  0  0  0  0  0  0
    3.5042    2.6630   -0.0153 C   0  0  0  0  0  0  0  0  0  0  0  0
    3.5380    3.3694   -1.0144 O   0  0  0  0  0  0  0  0  0  0  0  0
    3.8672    0.1988   -0.3392 C   0  0  0  0  0  0  0  0  0  0  0  0
    2.0825    1.1399   -1.9995 H   0  0  0  0  0  0  0  0  0  0  0  0
    2.4135    1.0959    0.9582 H   0  0  0  0  0  0  0  0  0  0  0  0
    4.3063    0.3550   -1.3299 H   0  0  0  0  0  0  0  0  0  0  0  0
    4.6686    0.2274    0.4053 H   0  0  0  0  0  0  0  0  0  0  0  0
    3.4125   -0.7966   -0.3137 H   0  0  0  0  0  0  0  0  0  0  0  0
    4.1047    3.1120    1.1471 N   0  0  0  0  0  0  0  0  0  0  0  0
    4.7839    4.3978    1.2517 C   0  0  0  0  0  0  0  0  0  0  0  0
    4.0833    2.4990    1.9567 H   0  0  0  0  0  0  0  0  0  0  0  0
    5.6465    4.4313    0.5779 H   0  0  0  0  0  0  0  0  0  0  0  0
    4.1019    5.2144    0.9917 H   0  0  0  0  0  0  0  0  0  0  0  0
    5.1373    4.5570    2.2751 H   0  0  0  0  0  0  0  0  0  0  0  0
  1  2  2  0  0  0  0
  1  3  1  0  0  0  0
  1  7  1  0  0  0  0
  3  4  1  0  0  0  0
  3  5  1  0  0  0  0
  3  6  1  0  0  0  0
  7  8  1  0  0  0  0
  7 12  1  0  0  0  0
  8  9  1  0  0  0  0
  8 11  1  0  0  0  0
  8 13  1  0  0  0  0
  9 10  2  0  0  0  0
  9 17  1  0  0  0  0
 11 14  1  0  0  0  0
 11 15  1  0  0  0  0
 11 16  1  0  0  0  0
 17 18  1  0  0  0  0
 17 25  1  0  0  0  0
 18 19  1  0  0  0  0
 18 21  1  0  0  0  0
 18 26  1  0  0  0  0
 19 20  2  0  0  0  0
 19 36  1  0  0  0  0
 21 22  1  0  0  0  0
 21 23  1  0  0  0  0
 21 27  1  0  0  0  0
 22 24  1  0  0  0  0
 22 28  1  0  0  0  0
 22 29  1  0  0  0  0
 23 30  1  0  0  0  0
 23 31  1  0  0  0  0
 23 32  1  0  0  0  0
 24 33  1  0  0  0  0
 24 34  1  0  0  0  0
 24 35  1  0  0  0  0
 36 37  1  0  0  0  0
 36 41  1  0  0  0  0
 37 38  1  0  0  0  0
 37 40  1  0  0  0  0
 37 42  1  0  0  0  0
 38 39  2  0  0  0  0
 38 46  1  0  0  0  0
 40 43  1  0  0  0  0
 40 44  1  0  0  0  0
 40 45  1  0  0  0  0
 46 47  1  0  0  0  0
 46 48  1  0  0  0  0
 47 49  1  0  0  0  0
 47 50  1  0  0  0  0
 47 51  1  0  0  0  0
M  END
$$$$

  -OEChem-05262216503D

 51 50  0     1  0  0  0  0  0999 V2000
    1.4766   -5.5615    1.3171 C   0  0  0  0  0  0  0  0  0  0  0  0
    0.7947   -6.2020    0.5323 O   0  0  0  0  0  0  0  0  0  0  0  0
    2.7633   -6.1528    1.8619 C   0  0  0  0  0  0  0  0  0  0  0  0
    2.9024   -7.1682    1.4800 H   0  0  0  0  0  0  0  0  0  0  0  0
    3.6147   -5.5410    1.5537 H   0  0  0  0  0  0  0  0  0  0  0  0
    2.7250   -6.1894    2.9534 H   0  0  0  0  0  0  0  0  0  0  0  0
    1.0811   -4.2987    1.7049 N   0  0  0  0  0  0  0  0  0  0  0  0
   -0.0597   -3.5737    1.1307 C   0  0  2  0  0  0  0  0  0  0  0  0
    0.1331   -2.0445    1.2155 C   0  0  0  0  0  0  0  0  0  0  0  0
    0.9914   -1.5767    1.9582 O   0  0  0  0  0  0  0  0  0  0  0  0
   -1.3305   -3.9934    1.8774 C   0  0  0  0  0  0  0  0  0  0  0  0
    1.7284   -3.7552    2.2753 H   0  0  0  0  0  0  0  0  0  0  0  0
   -0.1586   -3.8320    0.0707 H   0  0  0  0  0  0  0  0  0  0  0  0
   -1.2488   -3.7428    2.9399 H   0  0  0  0  0  0  0  0  0  0  0  0
   -2.2061   -3.4839    1.4645 H   0  0  0  0  0  0  0  0  0  0  0  0
   -1.4871   -5.0729    1.7853 H   0  0  0  0  0  0  0  0  0  0  0  0
   -0.6988   -1.1999    0.4962 N   0  0  0  0  0  0  0  0  0  0  0  0
   -0.4119    0.2287    0.2335 C   0  0  2  0  0  0  0  0  0  0  0  0
    1.0741    0.3834   -0.2143 C   0  0  0  0  0  0  0  0  0  0  0  0
    1.4663   -0.3157   -1.1437 O   0  0  0  0  0  0  0  0  0  0  0  0
   -0.9025    1.0742    1.4591 C   0  0  2  0  0  0  0  0  0  0  0  0
   -2.4439    0.9142    1.5932 C   0  0  0  0  0  0  0  0  0  0  0  0
   -0.5951    2.5838    1.2926 C   0  0  0  0  0  0  0  0  0  0  0  0
   -3.0188    1.4691    2.9031 C   0  0  0  0  0  0  0  0  0  0  0  0
   -1.2994   -1.6708   -0.1738 H   0  0  0  0  0  0  0  0  0  0  0  0
   -1.0007    0.5479   -0.6314 H   0  0  0  0  0  0  0  0  0  0  0  0
   -0.4184    0.7092    2.3716 H   0  0  0  0  0  0  0  0  0  0  0  0
   -2.9414    1.3981    0.7461 H   0  0  0  0  0  0  0  0  0  0  0  0
   -2.7076   -0.1465    1.5637 H   0  0  0  0  0  0  0  0  0  0  0  0
   -0.7374    2.8937    0.2524 H   0  0  0  0  0  0  0  0  0  0  0  0
    0.4263    2.8178    1.5976 H   0  0  0  0  0  0  0  0  0  0  0  0
   -1.2387    3.2053    1.9166 H   0  0  0  0  0  0  0  0  0  0  0  0
   -2.4520    1.0904    3.7591 H   0  0  0  0  0  0  0  0  0  0  0  0
   -4.0599    1.1505    3.0114 H   0  0  0  0  0  0  0  0  0  0  0  0
   -3.0036    2.5613    2.9252 H   0  0  0  0  0  0  0  0  0  0  0  0
    1.9367    1.3505    0.2609 N   0  0  0  0  0  0  0  0  0  0  0  0
    3.3613    1.4375   -0.0778 C   0  0  2  0  0  0  0  0  0  0  0  0
    4.1669    2.0641    1.0797 C   0  0  0  0  0  0  0  0  0  0  0  0
    3.5899    2.6759    1.9732 O   0  0  0  0  0  0  0  0  0  0  0  0
    3.5147    2.2755   -1.3511 C   0  0  0  0  0  0  0  0  0  0  0  0
    1.6649    1.7981    1.1348 H   0  0  0  0  0  0  0  0  0  0  0  0
    3.7602    0.4325   -0.2523 H   0  0  0  0  0  0  0  0  0  0  0  0
    3.1249    3.2863   -1.1936 H   0  0  0  0  0  0  0  0  0  0  0  0
    4.5676    2.3481   -1.6387 H   0  0  0  0  0  0  0  0  0  0  0  0
    2.9639    1.8149   -2.1771 H   0  0  0  0  0  0  0  0  0  0  0  0
    5.5440    1.9463    1.1193 N   0  0  0  0  0  0  0  0  0  0  0  0
    6.3653    2.5017    2.1880 C   0  0  0  0  0  0  0  0  0  0  0  0
    5.9917    1.4154    0.3781 H   0  0  0  0  0  0  0  0  0  0  0  0
    6.2664    3.5918    2.2209 H   0  0  0  0  0  0  0  0  0  0  0  0
    6.0628    2.0908    3.1570 H   0  0  0  0  0  0  0  0  0  0  0  0
    7.4185    2.2556    2.0220 H   0  0  0  0  0  0  0  0  0  0  0  0
  1  2  2  0  0  0  0
  1  3  1  0  0  0  0
  1  7  1  0  0  0  0
  3  4  1  0  0  0  0
  3  5  1  0  0  0  0
  3  6  1  0  0  0  0
  7  8  1  0  0  0  0
  7 12  1  0  0  0  0
  8  9  1  0  0  0  0
  8 11  1  0  0  0  0
  8 13  1  0  0  0  0
  9 10  2  0  0  0  0
  9 17  1  0  0  0  0
 11 14  1  0  0  0  0
 11 15  1  0  0  0  0
 11 16  1  0  0  0  0
 17 18  1  0  0  0  0
 17 25  1  0  0  0  0
 18 19  1  0  0  0  0
 18 21  1  0  0  0  0
 18 26  1  0  0  0  0
 19 20  2  0  0  0  0
 19 36  1  0  0  0  0
 21 22  1  0  0  0  0
 21 23  1  0  0  0  0
 21 27  1  0  0  0  0
 22 24  1  0  0  0  0
 22 28  1  0  0  0  0
 22 29  1  0  0  0  0
 23 30  1  0  0  0  0
 23 31  1  0  0  0  0
 23 32  1  0  0  0  0
 24 33  1  0  0  0  0
 24 34  1  0  0  0  0
 24 35  1  0  0  0  0
 36 37  1  0  0  0  0
 36 41  1  0  0  0  0
 37 38  1  0  0  0  0
 37 40  1  0  0  0  0
 37 42  1  0  0  0  0
 38 39  2  0  0  0  0
 38 46  1  0  0  0  0
 40 43  1  0  0  0  0
 40 44  1  0  0  0  0
 40 45  1  0  0  0  0
 46 47  1  0  0  0  0
 46 48  1  0  0  0  0
 47 49  1  0  0  0  0
 47 50  1  0  0  0  0
 47 51  1  0  0  0  0
M  END
$$$$

  -OEChem-05262216503D

 51 50  0     1  0  0  0  0  0999 V2000
    1.5002   -5.5494    1.3423 C   0  0  0  0  0  0  0  0  0  0  0  0
    0.8483   -6.1853    0.5289 O   0  0  0  0  0  0  0  0  0  0  0  0
    2.7605   -6.1459    1.9398 C   0  0  0  0  0  0  0  0  0  0  0  0
    2.9112   -7.1617    1.5639 H   0  0  0  0  0  0  0  0  0  0  0  0
    3.6266   -5.5374    1.6685 H   0  0  0  0  0  0  0  0  0  0  0  0
    2.6759   -6.1830    3.0285 H   0  0  0  0  0  0  0  0  0  0  0  0
    1.0932   -4.2870    1.7179 N   0  0  0  0  0  0  0  0  0  0  0  0
   -0.0304   -3.5618    1.1116 C   0  0  2  0  0  0  0  0  0  0  0  0
    0.1668   -2.0342    1.1980 C   0  0  0  0  0  0  0  0  0  0  0  0
    1.0195   -1.5713    1.9496 O   0  0  0  0  0  0  0  0  0  0  0  0
   -1.3205   -3.9746    1.8289 C   0  0  0  0  0  0  0  0  0  0  0  0
    1.7198   -3.7458    2.3132 H   0  0  0  0  0  0  0  0  0  0  0  0
   -0.1041   -3.8231    0.0504 H   0  0  0  0  0  0  0  0  0  0  0  0
   -1.2687   -3.7098    2.8898 H   0  0  0  0  0  0  0  0  0  0  0  0
   -2.1858   -3.4726    1.3863 H   0  0  0  0  0  0  0  0  0  0  0  0
   -1.4724   -5.0554    1.7469 H   0  0  0  0  0  0  0  0  0  0  0  0
   -0.6566   -1.1864    0.4736 N   0  0  0  0  0  0  0  0  0  0  0  0
   -0.3895    0.2503    0.2411 C   0  0  2  0  0  0  0  0  0  0  0  0
    1.1029    0.4290   -0.1657 C   0  0  0  0  0  0  0  0  0  0  0  0
    1.4748   -0.0903   -1.2130 O   0  0  0  0  0  0  0  0  0  0  0  0
   -0.9007    1.0753    1.4683 C   0  0  2  0  0  0  0  0  0  0  0  0
   -2.4404    0.8976    1.5901 C   0  0  0  0  0  0  0  0  0  0  0  0
   -0.6292    2.5912    1.3004 C   0  0  0  0  0  0  0  0  0  0  0  0
   -3.0238    1.4358    2.9027 C   0  0  0  0  0  0  0  0  0  0  0  0
   -1.2606   -1.6506   -0.1982 H   0  0  0  0  0  0  0  0  0  0  0  0
   -0.9652    0.5760   -0.6305 H   0  0  0  0  0  0  0  0  0  0  0  0
   -0.4121    0.7165    2.3809 H   0  0  0  0  0  0  0  0  0  0  0  0
   -2.9409    1.3814    0.7448 H   0  0  0  0  0  0  0  0  0  0  0  0
   -2.6914   -0.1660    1.5500 H   0  0  0  0  0  0  0  0  0  0  0  0
   -0.9868    2.9372    0.3255 H   0  0  0  0  0  0  0  0  0  0  0  0
   -1.1312    3.1741    2.0750 H   0  0  0  0  0  0  0  0  0  0  0  0
    0.4295    2.8344    1.3864 H   0  0  0  0  0  0  0  0  0  0  0  0
   -2.4627    1.0479    3.7586 H   0  0  0  0  0  0  0  0  0  0  0  0
   -4.0662    1.1178    3.0012 H   0  0  0  0  0  0  0  0  0  0  0  0
   -3.0054    2.5280    2.9342 H   0  0  0  0  0  0  0  0  0  0  0  0
    2.0142    1.1873    0.5421 N   0  0  0  0  0  0  0  0  0  0  0  0
    3.4502    1.2462    0.2515 C   0  0  2  0  0  0  0  0  0  0  0  0
    4.2642    1.5360    1.5290 C   0  0  0  0  0  0  0  0  0  0  0  0
    3.7204    2.0347    2.5089 O   0  0  0  0  0  0  0  0  0  0  0  0
    3.6953    2.3375   -0.7952 C   0  0  0  0  0  0  0  0  0  0  0  0
    1.7424    1.4334    1.4942 H   0  0  0  0  0  0  0  0  0  0  0  0
    3.7841    0.2803   -0.1416 H   0  0  0  0  0  0  0  0  0  0  0  0
    3.3691    3.3106   -0.4143 H   0  0  0  0  0  0  0  0  0  0  0  0
    4.7585    2.3984   -1.0455 H   0  0  0  0  0  0  0  0  0  0  0  0
    3.1390    2.1177   -1.7116 H   0  0  0  0  0  0  0  0  0  0  0  0
    5.6149    1.2444    1.5797 N   0  0  0  0  0  0  0  0  0  0  0  0
    6.4391    1.4805    2.7586 C   0  0  0  0  0  0  0  0  0  0  0  0
    6.0339    0.8104    0.7626 H   0  0  0  0  0  0  0  0  0  0  0  0
    6.4631    2.5479    3.0014 H   0  0  0  0  0  0  0  0  0  0  0  0
    6.0424    0.9325    3.6198 H   0  0  0  0  0  0  0  0  0  0  0  0
    7.4644    1.1439    2.5776 H   0  0  0  0  0  0  0  0  0  0  0  0
  1  2  2  0  0  0  0
  1  3  1  0  0  0  0
  1  7  1  0  0  0  0
  3  4  1  0  0  0  0
  3  5  1  0  0  0  0
  3  6  1  0  0  0  0
  7  8  1  0  0  0  0
  7 12  1  0  0  0  0
  8  9  1  0  0  0  0
  8 11  1  0  0  0  0
  8 13  1  0  0  0  0
  9 10  2  0  0  0  0
  9 17  1  0  0  0  0
 11 14  1  0  0  0  0
 11 15  1  0  0  0  0
 11 16  1  0  0  0  0
 17 18  1  0  0  0  0
 17 25  1  0  0  0  0
 18 19  1  0  0  0  0
 18 21  1  0  0  0  0
 18 26  1  0  0  0  0
 19 20  2  0  0  0  0
 19 36  1  0  0  0  0
 21 22  1  0  0  0  0
 21 23  1  0  0  0  0
 21 27  1  0  0  0  0
 22 24  1  0  0  0  0
 22 28  1  0  0  0  0
 22 29  1  0  0  0  0
 23 30  1  0  0  0  0
 23 31  1  0  0  0  0
 23 32  1  0  0  0  0
 24 33  1  0  0  0  0
 24 34  1  0  0  0  0
 24 35  1  0  0  0  0
 36 37  1  0  0  0  0
 36 41  1  0  0  0  0
 37 38  1  0  0  0  0
 37 40  1  0  0  0  0
 37 42  1  0  0  0  0
 38 39  2  0  0  0  0
 38 46  1  0  0  0  0
 40 43  1  0  0  0  0
 40 44  1  0  0  0  0
 40 45  1  0  0  0  0
 46 47  1  0  0  0  0
 46 48  1  0  0  0  0
 47 49  1  0  0  0  0
 47 50  1  0  0  0  0
 47 51  1  0  0  0  0
M  END
$$$$

  -OEChem-05262216503D

 51 50  0     1  0  0  0  0  0999 V2000
    1.4275   -5.5907    1.3594 C   0  0  0  0  0  0  0  0  0  0  0  0
    0.8223   -6.1986    0.4905 O   0  0  0  0  0  0  0  0  0  0  0  0
    2.6607   -6.2007    1.9982 C   0  0  0  0  0  0  0  0  0  0  0  0
    2.8292   -7.2080    1.6069 H   0  0  0  0  0  0  0  0  0  0  0  0
    3.5369   -5.5858    1.7784 H   0  0  0  0  0  0  0  0  0  0  0  0
    2.5286   -6.2613    3.0813 H   0  0  0  0  0  0  0  0  0  0  0  0
    0.9978   -4.3423    1.7553 N   0  0  0  0  0  0  0  0  0  0  0  0
   -0.0817   -3.5909    1.1032 C   0  0  2  0  0  0  0  0  0  0  0  0
    0.1494   -2.0692    1.2047 C   0  0  0  0  0  0  0  0  0  0  0  0
    0.9833   -1.6295    1.9893 O   0  0  0  0  0  0  0  0  0  0  0  0
   -1.4106   -3.9779    1.7603 C   0  0  0  0  0  0  0  0  0  0  0  0
    1.5952   -3.8203    2.3963 H   0  0  0  0  0  0  0  0  0  0  0  0
   -0.1166   -3.8457    0.0384 H   0  0  0  0  0  0  0  0  0  0  0  0
   -1.3973   -3.7290    2.8264 H   0  0  0  0  0  0  0  0  0  0  0  0
   -2.2432   -3.4471    1.2890 H   0  0  0  0  0  0  0  0  0  0  0  0
   -1.5853   -5.0535    1.6558 H   0  0  0  0  0  0  0  0  0  0  0  0
   -0.6211   -1.1991    0.4508 N   0  0  0  0  0  0  0  0  0  0  0  0
   -0.3282    0.2352    0.2393 C   0  0  2  0  0  0  0  0  0  0  0  0
    1.1780    0.4231   -0.0980 C   0  0  0  0  0  0  0  0  0  0  0  0
    1.5547    0.1353   -1.2283 O   0  0  0  0  0  0  0  0  0  0  0  0
   -0.8534    1.0625    1.4541 C   0  0  2  0  0  0  0  0  0  0  0  0
   -2.3962    0.9175    1.5459 C   0  0  0  0  0  0  0  0  0  0  0  0
   -0.5407    2.5703    1.2922 C   0  0  0  0  0  0  0  0  0  0  0  0
   -2.9810    1.4676    2.8513 C   0  0  0  0  0  0  0  0  0  0  0  0
   -1.2330   -1.6439   -0.2273 H   0  0  0  0  0  0  0  0  0  0  0  0
   -0.8719    0.5735   -0.6482 H   0  0  0  0  0  0  0  0  0  0  0  0
   -0.3889    0.6915    2.3745 H   0  0  0  0  0  0  0  0  0  0  0  0
   -2.8718    1.4145    0.6940 H   0  0  0  0  0  0  0  0  0  0  0  0
   -2.6691   -0.1405    1.4984 H   0  0  0  0  0  0  0  0  0  0  0  0
   -0.9941    2.9578    0.3744 H   0  0  0  0  0  0  0  0  0  0  0  0
   -0.9283    3.1431    2.1379 H   0  0  0  0  0  0  0  0  0  0  0  0
    0.5303    2.7707    1.2509 H   0  0  0  0  0  0  0  0  0  0  0  0
   -2.4553    1.0456    3.7136 H   0  0  0  0  0  0  0  0  0  0  0  0
   -4.0386    1.1972    2.9256 H   0  0  0  0  0  0  0  0  0  0  0  0
   -2.9096    2.5574    2.8928 H   0  0  0  0  0  0  0  0  0  0  0  0
    2.1022    0.9203    0.8018 N   0  0  0  0  0  0  0  0  0  0  0  0
    3.5478    0.9768    0.5596 C   0  0  2  0  0  0  0  0  0  0  0  0
    4.3468    0.9171    1.8783 C   0  0  0  0  0  0  0  0  0  0  0  0
    3.8126    1.2088    2.9426 O   0  0  0  0  0  0  0  0  0  0  0  0
    3.8685    2.2698   -0.1965 C   0  0  0  0  0  0  0  0  0  0  0  0
    1.8107    0.9127    1.7807 H   0  0  0  0  0  0  0  0  0  0  0  0
    3.8488    0.1158   -0.0461 H   0  0  0  0  0  0  0  0  0  0  0  0
    3.5667    3.1414    0.3932 H   0  0  0  0  0  0  0  0  0  0  0  0
    4.9411    2.3397   -0.3994 H   0  0  0  0  0  0  0  0  0  0  0  0
    3.3353    2.2940   -1.1520 H   0  0  0  0  0  0  0  0  0  0  0  0
    5.6784    0.5422    1.8714 N   0  0  0  0  0  0  0  0  0  0  0  0
    6.4885    0.4445    3.0797 C   0  0  0  0  0  0  0  0  0  0  0  0
    6.0901    0.2855    0.9791 H   0  0  0  0  0  0  0  0  0  0  0  0
    6.5520    1.4174    3.5782 H   0  0  0  0  0  0  0  0  0  0  0  0
    6.0525   -0.2802    3.7755 H   0  0  0  0  0  0  0  0  0  0  0  0
    7.5026    0.1174    2.8305 H   0  0  0  0  0  0  0  0  0  0  0  0
  1  2  2  0  0  0  0
  1  3  1  0  0  0  0
  1  7  1  0  0  0  0
  3  4  1  0  0  0  0
  3  5  1  0  0  0  0
  3  6  1  0  0  0  0
  7  8  1  0  0  0  0
  7 12  1  0  0  0  0
  8  9  1  0  0  0  0
  8 11  1  0  0  0  0
  8 13  1  0  0  0  0
  9 10  2  0  0  0  0
  9 17  1  0  0  0  0
 11 14  1  0  0  0  0
 11 15  1  0  0  0  0
 11 16  1  0  0  0  0
 17 18  1  0  0  0  0
 17 25  1  0  0  0  0
 18 19  1  0  0  0  0
 18 21  1  0  0  0  0
 18 26  1  0  0  0  0
 19 20  2  0  0  0  0
 19 36  1  0  0  0  0
 21 22  1  0  0  0  0
 21 23  1  0  0  0  0
 21 27  1  0  0  0  0
 22 24  1  0  0  0  0
 22 28  1  0  0  0  0
 22 29  1  0  0  0  0
 23 30  1  0  0  0  0
 23 31  1  0  0  0  0
 23 32  1  0  0  0  0
 24 33  1  0  0  0  0
 24 34  1  0  0  0  0
 24 35  1  0  0  0  0
 36 37  1  0  0  0  0
 36 41  1  0  0  0  0
 37 38  1  0  0  0  0
 37 40  1  0  0  0  0
 37 42  1  0  0  0  0
 38 39  2  0  0  0  0
 38 46  1  0  0  0  0
 40 43  1  0  0  0  0
 40 44  1  0  0  0  0
 40 45  1  0  0  0  0
 46 47  1  0  0  0  0
 46 48  1  0  0  0  0
 47 49  1  0  0  0  0
 47 50  1  0  0  0  0
 47 51  1  0  0  0  0
M  END
$$$$

  -OEChem-05262216503D

 51 50  0     1  0  0  0  0  0999 V2000
    1.3493   -5.6470    1.4306 C   0  0  0  0  0  0  0  0  0  0  0  0
    0.8142   -6.2357    0.5043 O   0  0  0  0  0  0  0  0  0  0  0  0
    2.5355   -6.2668    2.1450 C   0  0  0  0  0  0  0  0  0  0  0  0
    2.7700   -7.2423    1.7100 H   0  0  0  0  0  0  0  0  0  0  0  0
    3.4094   -5.6180    2.0482 H   0  0  0  0  0  0  0  0  0  0  0  0
    2.3056   -6.3999    3.2048 H   0  0  0  0  0  0  0  0  0  0  0  0
    0.8876   -4.4075    1.8182 N   0  0  0  0  0  0  0  0  0  0  0  0
   -0.1365   -3.6399    1.0980 C   0  0  2  0  0  0  0  0  0  0  0  0
    0.1031   -2.1217    1.2321 C   0  0  0  0  0  0  0  0  0  0  0  0
    0.8888   -1.7037    2.0747 O   0  0  0  0  0  0  0  0  0  0  0  0
   -1.5106   -4.0231    1.6563 C   0  0  0  0  0  0  0  0  0  0  0  0
    1.4379   -3.8976    2.5097 H   0  0  0  0  0  0  0  0  0  0  0  0
   -0.0982   -3.8839    0.0309 H   0  0  0  0  0  0  0  0  0  0  0  0
   -1.5660   -3.7923    2.7250 H   0  0  0  0  0  0  0  0  0  0  0  0
   -2.3043   -3.4757    1.1394 H   0  0  0  0  0  0  0  0  0  0  0  0
   -1.6886   -5.0948    1.5212 H   0  0  0  0  0  0  0  0  0  0  0  0
   -0.6018   -1.2269    0.4438 N   0  0  0  0  0  0  0  0  0  0  0  0
   -0.2627    0.2011    0.2509 C   0  0  2  0  0  0  0  0  0  0  0  0
    1.2548    0.4019   -0.0130 C   0  0  0  0  0  0  0  0  0  0  0  0
    1.6442    0.4174   -1.1746 O   0  0  0  0  0  0  0  0  0  0  0  0
   -0.8129    1.0422    1.4431 C   0  0  2  0  0  0  0  0  0  0  0  0
   -2.3604    0.9485    1.4781 C   0  0  0  0  0  0  0  0  0  0  0  0
   -0.4151    2.5307    1.3107 C   0  0  0  0  0  0  0  0  0  0  0  0
   -2.9700    1.5187    2.7629 C   0  0  0  0  0  0  0  0  0  0  0  0
   -1.1936   -1.6520   -0.2644 H   0  0  0  0  0  0  0  0  0  0  0  0
   -0.7672    0.5512   -0.6554 H   0  0  0  0  0  0  0  0  0  0  0  0
   -0.4029    0.6487    2.3794 H   0  0  0  0  0  0  0  0  0  0  0  0
   -2.7858    1.4660    0.6118 H   0  0  0  0  0  0  0  0  0  0  0  0
   -2.6671   -0.0998    1.4162 H   0  0  0  0  0  0  0  0  0  0  0  0
   -0.8022    2.9492    0.3764 H   0  0  0  0  0  0  0  0  0  0  0  0
   -0.8105    3.1175    2.1433 H   0  0  0  0  0  0  0  0  0  0  0  0
    0.6687    2.6643    1.3224 H   0  0  0  0  0  0  0  0  0  0  0  0
   -2.4970    1.0709    3.6424 H   0  0  0  0  0  0  0  0  0  0  0  0
   -4.0406    1.2955    2.7959 H   0  0  0  0  0  0  0  0  0  0  0  0
   -2.8515    2.6043    2.8126 H   0  0  0  0  0  0  0  0  0  0  0  0
    2.1722    0.6069    1.0009 N   0  0  0  0  0  0  0  0  0  0  0  0
    3.6209    0.7092    0.7898 C   0  0  2  0  0  0  0  0  0  0  0  0
    4.4224    0.2019    2.0061 C   0  0  0  0  0  0  0  0  0  0  0  0
    3.9174    0.1714    3.1221 O   0  0  0  0  0  0  0  0  0  0  0  0
    3.9652    2.1736    0.5019 C   0  0  0  0  0  0  0  0  0  0  0  0
    1.8688    0.2862    1.9253 H   0  0  0  0  0  0  0  0  0  0  0  0
    3.9098    0.0931   -0.0681 H   0  0  0  0  0  0  0  0  0  0  0  0
    3.6752    2.8065    1.3465 H   0  0  0  0  0  0  0  0  0  0  0  0
    5.0397    2.2894    0.3320 H   0  0  0  0  0  0  0  0  0  0  0  0
    3.4353    2.5194   -0.3911 H   0  0  0  0  0  0  0  0  0  0  0  0
    5.7332   -0.2096    1.8488 N   0  0  0  0  0  0  0  0  0  0  0  0
    6.5564   -0.6940    2.9497 C   0  0  0  0  0  0  0  0  0  0  0  0
    6.1265   -0.1793    0.9129 H   0  0  0  0  0  0  0  0  0  0  0  0
    6.6753    0.0851    3.7100 H   0  0  0  0  0  0  0  0  0  0  0  0
    6.0965   -1.5726    3.4142 H   0  0  0  0  0  0  0  0  0  0  0  0
    7.5488   -0.9754    2.5850 H   0  0  0  0  0  0  0  0  0  0  0  0
  1  2  2  0  0  0  0
  1  3  1  0  0  0  0
  1  7  1  0  0  0  0
  3  4  1  0  0  0  0
  3  5  1  0  0  0  0
  3  6  1  0  0  0  0
  7  8  1  0  0  0  0
  7 12  1  0  0  0  0
  8  9  1  0  0  0  0
  8 11  1  0  0  0  0
  8 13  1  0  0  0  0
  9 10  2  0  0  0  0
  9 17  1  0  0  0  0
 11 14  1  0  0  0  0
 11 15  1  0  0  0  0
 11 16  1  0  0  0  0
 17 18  1  0  0  0  0
 17 25  1  0  0  0  0
 18 19  1  0  0  0  0
 18 21  1  0  0  0  0
 18 26  1  0  0  0  0
 19 20  2  0  0  0  0
 19 36  1  0  0  0  0
 21 22  1  0  0  0  0
 21 23  1  0  0  0  0
 21 27  1  0  0  0  0
 22 24  1  0  0  0  0
 22 28  1  0  0  0  0
 22 29  1  0  0  0  0
 23 30  1  0  0  0  0
 23 31  1  0  0  0  0
 23 32  1  0  0  0  0
 24 33  1  0  0  0  0
 24 34  1  0  0  0  0
 24 35  1  0  0  0  0
 36 37  1  0  0  0  0
 36 41  1  0  0  0  0
 37 38  1  0  0  0  0
 37 40  1  0  0  0  0
 37 42  1  0  0  0  0
 38 39  2  0  0  0  0
 38 46  1  0  0  0  0
 40 43  1  0  0  0  0
 40 44  1  0  0  0  0
 40 45  1  0  0  0  0
 46 47  1  0  0  0  0
 46 48  1  0  0  0  0
 47 49  1  0  0  0  0
 47 50  1  0  0  0  0
 47 51  1  0  0  0  0
M  END
$$$$

  -OEChem-05262216503D

 51 50  0     1  0  0  0  0  0999 V2000
    1.1802   -4.1244    0.5821 C   0  0  0  0  0  0  0  0  0  0  0  0
    0.1162   -4.1570   -0.0226 O   0  0  0  0  0  0  0  0  0  0  0  0
    2.4913   -4.2505   -0.1682 C   0  0  0  0  0  0  0  0  0  0  0  0
    2.3096   -4.5782   -1.1953 H   0  0  0  0  0  0  0  0  0  0  0  0
    2.9978   -3.2820   -0.1910 H   0  0  0  0  0  0  0  0  0  0  0  0
    3.1373   -4.9794    0.3268 H   0  0  0  0  0  0  0  0  0  0  0  0
    1.1815   -3.8465    1.9326 N   0  0  0  0  0  0  0  0  0  0  0  0
   -0.0169   -3.4101    2.6626 C   0  0  2  0  0  0  0  0  0  0  0  0
   -0.3144   -1.9258    2.3563 C   0  0  0  0  0  0  0  0  0  0  0  0
   -0.1412   -1.0492    3.1980 O   0  0  0  0  0  0  0  0  0  0  0  0
    0.2317   -3.6780    4.1516 C   0  0  0  0  0  0  0  0  0  0  0  0
    2.0854   -3.5376    2.3079 H   0  0  0  0  0  0  0  0  0  0  0  0
   -0.8866   -3.9992    2.3527 H   0  0  0  0  0  0  0  0  0  0  0  0
    1.1059   -3.1190    4.5026 H   0  0  0  0  0  0  0  0  0  0  0  0
   -0.6367   -3.3719    4.7434 H   0  0  0  0  0  0  0  0  0  0  0  0
    0.4090   -4.7444    4.3213 H   0  0  0  0  0  0  0  0  0  0  0  0
   -0.6246   -1.5672    1.0545 N   0  0  0  0  0  0  0  0  0  0  0  0
   -0.0769   -0.3638    0.3907 C   0  0  2  0  0  0  0  0  0  0  0  0
    1.4486   -0.2224    0.6362 C   0  0  0  0  0  0  0  0  0  0  0  0
    2.2304   -0.4633   -0.2769 O   0  0  0  0  0  0  0  0  0  0  0  0
   -0.8851    0.9095    0.7792 C   0  0  2  0  0  0  0  0  0  0  0  0
   -2.3456    0.7699    0.2832 C   0  0  0  0  0  0  0  0  0  0  0  0
   -0.2497    2.1771    0.1689 C   0  0  0  0  0  0  0  0  0  0  0  0
   -3.2791    1.8455    0.8469 C   0  0  0  0  0  0  0  0  0  0  0  0
   -0.6840   -2.3914    0.4477 H   0  0  0  0  0  0  0  0  0  0  0  0
   -0.1927   -0.5021   -0.6894 H   0  0  0  0  0  0  0  0  0  0  0  0
   -0.8880    1.0178    1.8683 H   0  0  0  0  0  0  0  0  0  0  0  0
   -2.3723    0.8009   -0.8109 H   0  0  0  0  0  0  0  0  0  0  0  0
   -2.7456   -0.2005    0.5925 H   0  0  0  0  0  0  0  0  0  0  0  0
   -0.2171    2.1030   -0.9227 H   0  0  0  0  0  0  0  0  0  0  0  0
   -0.8186    3.0699    0.4398 H   0  0  0  0  0  0  0  0  0  0  0  0
    0.7691    2.3263    0.5364 H   0  0  0  0  0  0  0  0  0  0  0  0
   -3.2133    1.8755    1.9389 H   0  0  0  0  0  0  0  0  0  0  0  0
   -4.3134    1.6204    0.5694 H   0  0  0  0  0  0  0  0  0  0  0  0
   -3.0308    2.8336    0.4504 H   0  0  0  0  0  0  0  0  0  0  0  0
    1.9632    0.1943    1.8485 N   0  0  0  0  0  0  0  0  0  0  0  0
    3.3999    0.1588    2.1463 C   0  0  2  0  0  0  0  0  0  0  0  0
    4.0168   -1.2614    2.1321 C   0  0  0  0  0  0  0  0  0  0  0  0
    3.4259   -2.2259    2.6109 O   0  0  0  0  0  0  0  0  0  0  0  0
    3.5962    0.7995    3.5214 C   0  0  0  0  0  0  0  0  0  0  0  0
    1.3089    0.0859    2.6301 H   0  0  0  0  0  0  0  0  0  0  0  0
    3.9245    0.7630    1.3992 H   0  0  0  0  0  0  0  0  0  0  0  0
    3.0779    0.2183    4.2916 H   0  0  0  0  0  0  0  0  0  0  0  0
    4.6599    0.8415    3.7746 H   0  0  0  0  0  0  0  0  0  0  0  0
    3.1977    1.8188    3.5270 H   0  0  0  0  0  0  0  0  0  0  0  0
    5.2826   -1.4529    1.6090 N   0  0  0  0  0  0  0  0  0  0  0  0
    5.9222   -2.7590    1.5068 C   0  0  0  0  0  0  0  0  0  0  0  0
    5.6973   -0.6687    1.1136 H   0  0  0  0  0  0  0  0  0  0  0  0
    5.9407   -3.2574    2.4819 H   0  0  0  0  0  0  0  0  0  0  0  0
    5.3844   -3.3938    0.7955 H   0  0  0  0  0  0  0  0  0  0  0  0
    6.9545   -2.6476    1.1608 H   0  0  0  0  0  0  0  0  0  0  0  0
  1  2  2  0  0  0  0
  1  3  1  0  0  0  0
  1  7  1  0  0  0  0
  3  4  1  0  0  0  0
  3  5  1  0  0  0  0
  3  6  1  0  0  0  0
  7  8  1  0  0  0  0
  7 12  1  0  0  0  0
  8  9  1  0  0  0  0
  8 11  1  0  0  0  0
  8 13  1  0  0  0  0
  9 10  2  0  0  0  0
  9 17  1  0  0  0  0
 11 14  1  0  0  0  0
 11 15  1  0  0  0  0
 11 16  1  0  0  0  0
 17 18  1  0  0  0  0
 17 25  1  0  0  0  0
 18 19  1  0  0  0  0
 18 21  1  0  0  0  0
 18 26  1  0  0  0  0
 19 20  2  0  0  0  0
 19 36  1  0  0  0  0
 21 22  1  0  0  0  0
 21 23  1  0  0  0  0
 21 27  1  0  0  0  0
 22 24  1  0  0  0  0
 22 28  1  0  0  0  0
 22 29  1  0  0  0  0
 23 30  1  0  0  0  0
 23 31  1  0  0  0  0
 23 32  1  0  0  0  0
 24 33  1  0  0  0  0
 24 34  1  0  0  0  0
 24 35  1  0  0  0  0
 36 37  1  0  0  0  0
 36 41  1  0  0  0  0
 37 38  1  0  0  0  0
 37 40  1  0  0  0  0
 37 42  1  0  0  0  0
 38 39  2  0  0  0  0
 38 46  1  0  0  0  0
 40 43  1  0  0  0  0
 40 44  1  0  0  0  0
 40 45  1  0  0  0  0
 46 47  1  0  0  0  0
 46 48  1  0  0  0  0
 47 49  1  0  0  0  0
 47 50  1  0  0  0  0
 47 51  1  0  0  0  0
M  END
$$$$

  -OEChem-05262216503D

 51 50  0     1  0  0  0  0  0999 V2000
    0.9448   -4.3435    0.6773 C   0  0  0  0  0  0  0  0  0  0  0  0
   -0.1411   -4.2969    0.1147 O   0  0  0  0  0  0  0  0  0  0  0  0
    2.2059   -4.6085   -0.1206 C   0  0  0  0  0  0  0  0  0  0  0  0
    2.7233   -3.6651   -0.3139 H   0  0  0  0  0  0  0  0  0  0  0  0
    2.8703   -5.2718    0.4385 H   0  0  0  0  0  0  0  0  0  0  0  0
    1.9574   -5.0801   -1.0752 H   0  0  0  0  0  0  0  0  0  0  0  0
    1.0290   -4.0130    2.0128 N   0  0  0  0  0  0  0  0  0  0  0  0
   -0.0990   -3.4594    2.7757 C   0  0  2  0  0  0  0  0  0  0  0  0
   -0.2877   -1.9624    2.4431 C   0  0  0  0  0  0  0  0  0  0  0  0
   -0.0628   -1.0868    3.2724 O   0  0  0  0  0  0  0  0  0  0  0  0
    0.1788   -3.7169    4.2610 C   0  0  0  0  0  0  0  0  0  0  0  0
    1.9725   -3.7732    2.3378 H   0  0  0  0  0  0  0  0  0  0  0  0
   -1.0257   -3.9803    2.5117 H   0  0  0  0  0  0  0  0  0  0  0  0
    1.1068   -3.2248    4.5704 H   0  0  0  0  0  0  0  0  0  0  0  0
   -0.6414   -3.3295    4.8735 H   0  0  0  0  0  0  0  0  0  0  0  0
    0.2742   -4.7907    4.4484 H   0  0  0  0  0  0  0  0  0  0  0  0
   -0.5831   -1.6106    1.1370 N   0  0  0  0  0  0  0  0  0  0  0  0
   -0.0294   -0.4380    0.4205 C   0  0  2  0  0  0  0  0  0  0  0  0
    1.5027   -0.2680    0.6121 C   0  0  0  0  0  0  0  0  0  0  0  0
    2.2416   -0.3576   -0.3620 O   0  0  0  0  0  0  0  0  0  0  0  0
   -0.8187    0.8490    0.8031 C   0  0  2  0  0  0  0  0  0  0  0  0
   -2.2945    0.7128    0.3517 C   0  0  0  0  0  0  0  0  0  0  0  0
   -0.1898    2.1008    0.1539 C   0  0  0  0  0  0  0  0  0  0  0  0
   -3.2019    1.8088    0.9193 C   0  0  0  0  0  0  0  0  0  0  0  0
   -0.7158   -2.4403    0.5499 H   0  0  0  0  0  0  0  0  0  0  0  0
   -0.1785   -0.6073   -0.6512 H   0  0  0  0  0  0  0  0  0  0  0  0
   -0.7898    0.9769    1.8899 H   0  0  0  0  0  0  0  0  0  0  0  0
   -2.3512    0.7219   -0.7417 H   0  0  0  0  0  0  0  0  0  0  0  0
   -2.6957   -0.2466    0.6918 H   0  0  0  0  0  0  0  0  0  0  0  0
   -0.1693    1.9991   -0.9360 H   0  0  0  0  0  0  0  0  0  0  0  0
   -0.7540    3.0015    0.4077 H   0  0  0  0  0  0  0  0  0  0  0  0
    0.8333    2.2576    0.5072 H   0  0  0  0  0  0  0  0  0  0  0  0
   -3.1045    1.8592    2.0083 H   0  0  0  0  0  0  0  0  0  0  0  0
   -4.2456    1.5886    0.6755 H   0  0  0  0  0  0  0  0  0  0  0  0
   -2.9569    2.7867    0.4971 H   0  0  0  0  0  0  0  0  0  0  0  0
    2.0882   -0.0864    1.8498 N   0  0  0  0  0  0  0  0  0  0  0  0
    3.5318   -0.2116    2.0763 C   0  0  2  0  0  0  0  0  0  0  0  0
    4.0586   -1.6542    1.8909 C   0  0  0  0  0  0  0  0  0  0  0  0
    3.4852   -2.6142    2.4003 O   0  0  0  0  0  0  0  0  0  0  0  0
    3.8197    0.2777    3.4971 C   0  0  0  0  0  0  0  0  0  0  0  0
    1.4586   -0.2286    2.6457 H   0  0  0  0  0  0  0  0  0  0  0  0
    4.0590    0.4393    1.3710 H   0  0  0  0  0  0  0  0  0  0  0  0
    3.2974   -0.3462    4.2302 H   0  0  0  0  0  0  0  0  0  0  0  0
    4.8930    0.2344    3.7057 H   0  0  0  0  0  0  0  0  0  0  0  0
    3.4844    1.3125    3.6181 H   0  0  0  0  0  0  0  0  0  0  0  0
    5.2244   -1.8739    1.1807 N   0  0  0  0  0  0  0  0  0  0  0  0
    5.7836   -3.1976    0.9364 C   0  0  0  0  0  0  0  0  0  0  0  0
    5.5982   -1.0847    0.6607 H   0  0  0  0  0  0  0  0  0  0  0  0
    5.9056   -3.7440    1.8778 H   0  0  0  0  0  0  0  0  0  0  0  0
    5.1304   -3.7746    0.2747 H   0  0  0  0  0  0  0  0  0  0  0  0
    6.7661   -3.1097    0.4626 H   0  0  0  0  0  0  0  0  0  0  0  0
  1  2  2  0  0  0  0
  1  3  1  0  0  0  0
  1  7  1  0  0  0  0
  3  4  1  0  0  0  0
  3  5  1  0  0  0  0
  3  6  1  0  0  0  0
  7  8  1  0  0  0  0
  7 12  1  0  0  0  0
  8  9  1  0  0  0  0
  8 11  1  0  0  0  0
  8 13  1  0  0  0  0
  9 10  2  0  0  0  0
  9 17  1  0  0  0  0
 11 14  1  0  0  0  0
 11 15  1  0  0  0  0
 11 16  1  0  0  0  0
 17 18  1  0  0  0  0
 17 25  1  0  0  0  0
 18 19  1  0  0  0  0
 18 21  1  0  0  0  0
 18 26  1  0  0  0  0
 19 20  2  0  0  0  0
 19 36  1  0  0  0  0
 21 22  1  0  0  0  0
 21 23  1  0  0  0  0
 21 27  1  0  0  0  0
 22 24  1  0  0  0  0
 22 28  1  0  0  0  0
 22 29  1  0  0  0  0
 23 30  1  0  0  0  0
 23 31  1  0  0  0  0
 23 32  1  0  0  0  0
 24 33  1  0  0  0  0
 24 34  1  0  0  0  0
 24 35  1  0  0  0  0
 36 37  1  0  0  0  0
 36 41  1  0  0  0  0
 37 38  1  0  0  0  0
 37 40  1  0  0  0  0
 37 42  1  0  0  0  0
 38 39  2  0  0  0  0
 38 46  1  0  0  0  0
 40 43  1  0  0  0  0
 40 44  1  0  0  0  0
 40 45  1  0  0  0  0
 46 47  1  0  0  0  0
 46 48  1  0  0  0  0
 47 49  1  0  0  0  0
 47 50  1  0  0  0  0
 47 51  1  0  0  0  0
M  END
$$$$

  -OEChem-05262216503D

 51 50  0     1  0  0  0  0  0999 V2000
    0.7003   -4.4916    0.6433 C   0  0  0  0  0  0  0  0  0  0  0  0
   -0.4068   -4.3560    0.1406 O   0  0  0  0  0  0  0  0  0  0  0  0
    1.8825   -4.8809   -0.2212 C   0  0  0  0  0  0  0  0  0  0  0  0
    2.3853   -3.9796   -0.5805 H   0  0  0  0  0  0  0  0  0  0  0  0
    2.5921   -5.4778    0.3571 H   0  0  0  0  0  0  0  0  0  0  0  0
    1.5450   -5.4683   -1.0793 H   0  0  0  0  0  0  0  0  0  0  0  0
    0.8890   -4.1433    1.9636 N   0  0  0  0  0  0  0  0  0  0  0  0
   -0.1509   -3.5191    2.7961 C   0  0  2  0  0  0  0  0  0  0  0  0
   -0.2835   -2.0130    2.4720 C   0  0  0  0  0  0  0  0  0  0  0  0
   -0.0336   -1.1535    3.3104 O   0  0  0  0  0  0  0  0  0  0  0  0
    0.2172   -3.7919    4.2596 C   0  0  0  0  0  0  0  0  0  0  0  0
    1.8668   -3.9933    2.2366 H   0  0  0  0  0  0  0  0  0  0  0  0
   -1.1212   -3.9875    2.5994 H   0  0  0  0  0  0  0  0  0  0  0  0
    1.1880   -3.3466    4.5019 H   0  0  0  0  0  0  0  0  0  0  0  0
   -0.5377   -3.3658    4.9281 H   0  0  0  0  0  0  0  0  0  0  0  0
    0.2724   -4.8695    4.4424 H   0  0  0  0  0  0  0  0  0  0  0  0
   -0.5380   -1.6414    1.1630 N   0  0  0  0  0  0  0  0  0  0  0  0
    0.0379   -0.4776    0.4452 C   0  0  2  0  0  0  0  0  0  0  0  0
    1.5706   -0.2978    0.6398 C   0  0  0  0  0  0  0  0  0  0  0  0
    2.2908   -0.2169   -0.3491 O   0  0  0  0  0  0  0  0  0  0  0  0
   -0.7492    0.8130    0.8220 C   0  0  2  0  0  0  0  0  0  0  0  0
   -2.2223    0.6858    0.3581 C   0  0  0  0  0  0  0  0  0  0  0  0
   -0.1112    2.0660    0.1840 C   0  0  0  0  0  0  0  0  0  0  0  0
   -3.1289    1.7861    0.9191 C   0  0  0  0  0  0  0  0  0  0  0  0
   -0.7242   -2.4578    0.5720 H   0  0  0  0  0  0  0  0  0  0  0  0
   -0.1062   -0.6503   -0.6268 H   0  0  0  0  0  0  0  0  0  0  0  0
   -0.7283    0.9365    1.9098 H   0  0  0  0  0  0  0  0  0  0  0  0
   -2.2695    0.6971   -0.7358 H   0  0  0  0  0  0  0  0  0  0  0  0
   -2.6327   -0.2713    0.6931 H   0  0  0  0  0  0  0  0  0  0  0  0
   -0.0714    1.9639   -0.9052 H   0  0  0  0  0  0  0  0  0  0  0  0
   -0.6809    2.9658    0.4276 H   0  0  0  0  0  0  0  0  0  0  0  0
    0.9052    2.2249    0.5559 H   0  0  0  0  0  0  0  0  0  0  0  0
   -3.0330    1.8426    2.0079 H   0  0  0  0  0  0  0  0  0  0  0  0
   -4.1726    1.5656    0.6754 H   0  0  0  0  0  0  0  0  0  0  0  0
   -2.8821    2.7614    0.4911 H   0  0  0  0  0  0  0  0  0  0  0  0
    2.1934   -0.3980    1.8679 N   0  0  0  0  0  0  0  0  0  0  0  0
    3.6307   -0.6220    2.0391 C   0  0  2  0  0  0  0  0  0  0  0  0
    4.0615   -2.0487    1.6290 C   0  0  0  0  0  0  0  0  0  0  0  0
    3.5240   -3.0395    2.1194 O   0  0  0  0  0  0  0  0  0  0  0  0
    3.9663   -0.3589    3.5087 C   0  0  0  0  0  0  0  0  0  0  0  0
    1.5726   -0.5792    2.6615 H   0  0  0  0  0  0  0  0  0  0  0  0
    4.1829    0.0966    1.4251 H   0  0  0  0  0  0  0  0  0  0  0  0
    3.4198   -1.0511    4.1579 H   0  0  0  0  0  0  0  0  0  0  0  0
    5.0383   -0.4907    3.6845 H   0  0  0  0  0  0  0  0  0  0  0  0
    3.6926    0.6646    3.7835 H   0  0  0  0  0  0  0  0  0  0  0  0
    5.0896   -2.2206    0.7213 N   0  0  0  0  0  0  0  0  0  0  0  0
    5.5380   -3.5226    0.2426 C   0  0  0  0  0  0  0  0  0  0  0  0
    5.3895   -1.3900    0.2172 H   0  0  0  0  0  0  0  0  0  0  0  0
    5.6784   -4.2163    1.0783 H   0  0  0  0  0  0  0  0  0  0  0  0
    4.8072   -3.9485   -0.4511 H   0  0  0  0  0  0  0  0  0  0  0  0
    6.4947   -3.4216   -0.2790 H   0  0  0  0  0  0  0  0  0  0  0  0
  1  2  2  0  0  0  0
  1  3  1  0  0  0  0
  1  7  1  0  0  0  0
  3  4  1  0  0  0  0
  3  5  1  0  0  0  0
  3  6  1  0  0  0  0
  7  8  1  0  0  0  0
  7 12  1  0  0  0  0
  8  9  1  0  0  0  0
  8 11  1  0  0  0  0
  8 13  1  0  0  0  0
  9 10  2  0  0  0  0
  9 17  1  0  0  0  0
 11 14  1  0  0  0  0
 11 15  1  0  0  0  0
 11 16  1  0  0  0  0
 17 18  1  0  0  0  0
 17 25  1  0  0  0  0
 18 19  1  0  0  0  0
 18 21  1  0  0  0  0
 18 26  1  0  0  0  0
 19 20  2  0  0  0  0
 19 36  1  0  0  0  0
 21 22  1  0  0  0  0
 21 23  1  0  0  0  0
 21 27  1  0  0  0  0
 22 24  1  0  0  0  0
 22 28  1  0  0  0  0
 22 29  1  0  0  0  0
 23 30  1  0  0  0  0
 23 31  1  0  0  0  0
 23 32  1  0  0  0  0
 24 33  1  0  0  0  0
 24 34  1  0  0  0  0
 24 35  1  0  0  0  0
 36 37  1  0  0  0  0
 36 41  1  0  0  0  0
 37 38  1  0  0  0  0
 37 40  1  0  0  0  0
 37 42  1  0  0  0  0
 38 39  2  0  0  0  0
 38 46  1  0  0  0  0
 40 43  1  0  0  0  0
 40 44  1  0  0  0  0
 40 45  1  0  0  0  0
 46 47  1  0  0  0  0
 46 48  1  0  0  0  0
 47 49  1  0  0  0  0
 47 50  1  0  0  0  0
 47 51  1  0  0  0  0
M  END
$$$$

  -OEChem-05262216503D

 51 50  0     1  0  0  0  0  0999 V2000
    0.4541   -4.5964    0.5355 C   0  0  0  0  0  0  0  0  0  0  0  0
   -0.6678   -4.3701    0.1033 O   0  0  0  0  0  0  0  0  0  0  0  0
    1.5450   -5.0789   -0.4002 C   0  0  0  0  0  0  0  0  0  0  0  0
    2.1466   -4.2296   -0.7332 H   0  0  0  0  0  0  0  0  0  0  0  0
    2.1925   -5.7932    0.1143 H   0  0  0  0  0  0  0  0  0  0  0  0
    1.1043   -5.5679   -1.2730 H   0  0  0  0  0  0  0  0  0  0  0  0
    0.7511   -4.2729    1.8422 N   0  0  0  0  0  0  0  0  0  0  0  0
   -0.1890   -3.5873    2.7440 C   0  0  2  0  0  0  0  0  0  0  0  0
   -0.2352   -2.0707    2.4458 C   0  0  0  0  0  0  0  0  0  0  0  0
    0.1353   -1.2451    3.2726 O   0  0  0  0  0  0  0  0  0  0  0  0
    0.2450   -3.9070    4.1795 C   0  0  0  0  0  0  0  0  0  0  0  0
    1.7530   -4.1905    2.0482 H   0  0  0  0  0  0  0  0  0  0  0  0
   -1.2005   -3.9828    2.6025 H   0  0  0  0  0  0  0  0  0  0  0  0
    1.2588   -3.5382    4.3666 H   0  0  0  0  0  0  0  0  0  0  0  0
   -0.4344   -3.4353    4.8965 H   0  0  0  0  0  0  0  0  0  0  0  0
    0.2304   -4.9880    4.3492 H   0  0  0  0  0  0  0  0  0  0  0  0
   -0.5387   -1.6661    1.1579 N   0  0  0  0  0  0  0  0  0  0  0  0
    0.0023   -0.4940    0.4249 C   0  0  2  0  0  0  0  0  0  0  0  0
    1.5436   -0.2951    0.5301 C   0  0  0  0  0  0  0  0  0  0  0  0
    2.1665   -0.0121   -0.4871 O   0  0  0  0  0  0  0  0  0  0  0  0
   -0.7753    0.7813    0.8741 C   0  0  2  0  0  0  0  0  0  0  0  0
   -2.2716    0.6527    0.4891 C   0  0  0  0  0  0  0  0  0  0  0  0
   -0.1874    2.0610    0.2414 C   0  0  0  0  0  0  0  0  0  0  0  0
   -3.1557    1.7313    1.1237 C   0  0  0  0  0  0  0  0  0  0  0  0
   -0.8087   -2.4579    0.5659 H   0  0  0  0  0  0  0  0  0  0  0  0
   -0.2017   -0.6505   -0.6395 H   0  0  0  0  0  0  0  0  0  0  0  0
   -0.6961    0.8755    1.9621 H   0  0  0  0  0  0  0  0  0  0  0  0
   -2.3777    0.6890   -0.6001 H   0  0  0  0  0  0  0  0  0  0  0  0
   -2.6572   -0.3150    0.8224 H   0  0  0  0  0  0  0  0  0  0  0  0
   -0.2014    1.9903   -0.8509 H   0  0  0  0  0  0  0  0  0  0  0  0
   -0.7552    2.9453    0.5399 H   0  0  0  0  0  0  0  0  0  0  0  0
    0.8440    2.2241    0.5671 H   0  0  0  0  0  0  0  0  0  0  0  0
   -3.0011    1.7637    2.2068 H   0  0  0  0  0  0  0  0  0  0  0  0
   -4.2090    1.5057    0.9317 H   0  0  0  0  0  0  0  0  0  0  0  0
   -2.9418    2.7187    0.7063 H   0  0  0  0  0  0  0  0  0  0  0  0
    2.2858   -0.6789    1.6296 N   0  0  0  0  0  0  0  0  0  0  0  0
    3.7285   -0.9351    1.6271 C   0  0  2  0  0  0  0  0  0  0  0  0
    4.0602   -2.3876    1.2225 C   0  0  0  0  0  0  0  0  0  0  0  0
    3.4546   -3.3358    1.7179 O   0  0  0  0  0  0  0  0  0  0  0  0
    4.2519   -0.6367    3.0332 C   0  0  0  0  0  0  0  0  0  0  0  0
    1.7445   -0.9462    2.4551 H   0  0  0  0  0  0  0  0  0  0  0  0
    4.2252   -0.2564    0.9259 H   0  0  0  0  0  0  0  0  0  0  0  0
    3.7789   -1.2976    3.7671 H   0  0  0  0  0  0  0  0  0  0  0  0
    5.3349   -0.7864    3.0769 H   0  0  0  0  0  0  0  0  0  0  0  0
    4.0336    0.4004    3.3067 H   0  0  0  0  0  0  0  0  0  0  0  0
    5.0778   -2.6406    0.3221 N   0  0  0  0  0  0  0  0  0  0  0  0
    5.4505   -3.9787   -0.1199 C   0  0  0  0  0  0  0  0  0  0  0  0
    5.4880   -1.8381   -0.1483 H   0  0  0  0  0  0  0  0  0  0  0  0
    5.6934   -4.6136    0.7389 H   0  0  0  0  0  0  0  0  0  0  0  0
    4.6315   -4.4406   -0.6803 H   0  0  0  0  0  0  0  0  0  0  0  0
    6.3298   -3.9294   -0.7695 H   0  0  0  0  0  0  0  0  0  0  0  0
  1  2  2  0  0  0  0
  1  3  1  0  0  0  0
  1  7  1  0  0  0  0
  3  4  1  0  0  0  0
  3  5  1  0  0  0  0
  3  6  1  0  0  0  0
  7  8  1  0  0  0  0
  7 12  1  0  0  0  0
  8  9  1  0  0  0  0
  8 11  1  0  0  0  0
  8 13  1  0  0  0  0
  9 10  2  0  0  0  0
  9 17  1  0  0  0  0
 11 14  1  0  0  0  0
 11 15  1  0  0  0  0
 11 16  1  0  0  0  0
 17 18  1  0  0  0  0
 17 25  1  0  0  0  0
 18 19  1  0  0  0  0
 18 21  1  0  0  0  0
 18 26  1  0  0  0  0
 19 20  2  0  0  0  0
 19 36  1  0  0  0  0
 21 22  1  0  0  0  0
 21 23  1  0  0  0  0
 21 27  1  0  0  0  0
 22 24  1  0  0  0  0
 22 28  1  0  0  0  0
 22 29  1  0  0  0  0
 23 30  1  0  0  0  0
 23 31  1  0  0  0  0
 23 32  1  0  0  0  0
 24 33  1  0  0  0  0
 24 34  1  0  0  0  0
 24 35  1  0  0  0  0
 36 37  1  0  0  0  0
 36 41  1  0  0  0  0
 37 38  1  0  0  0  0
 37 40  1  0  0  0  0
 37 42  1  0  0  0  0
 38 39  2  0  0  0  0
 38 46  1  0  0  0  0
 40 43  1  0  0  0  0
 40 44  1  0  0  0  0
 40 45  1  0  0  0  0
 46 47  1  0  0  0  0
 46 48  1  0  0  0  0
 47 49  1  0  0  0  0
 47 50  1  0  0  0  0
 47 51  1  0  0  0  0
M  END
$$$$

  -OEChem-05262216503D

 51 50  0     1  0  0  0  0  0999 V2000
    0.1538   -4.6024    0.2308 C   0  0  0  0  0  0  0  0  0  0  0  0
   -0.9579   -4.2446   -0.1339 O   0  0  0  0  0  0  0  0  0  0  0  0
    1.1434   -5.1617   -0.7728 C   0  0  0  0  0  0  0  0  0  0  0  0
    1.8909   -4.4035   -1.0183 H   0  0  0  0  0  0  0  0  0  0  0  0
    1.6483   -6.0348   -0.3521 H   0  0  0  0  0  0  0  0  0  0  0  0
    0.6257   -5.4600   -1.6885 H   0  0  0  0  0  0  0  0  0  0  0  0
    0.5419   -4.3791    1.5343 N   0  0  0  0  0  0  0  0  0  0  0  0
   -0.2830   -3.6589    2.5172 C   0  0  2  0  0  0  0  0  0  0  0  0
   -0.1920   -2.1305    2.3017 C   0  0  0  0  0  0  0  0  0  0  0  0
    0.3247   -1.3974    3.1363 O   0  0  0  0  0  0  0  0  0  0  0  0
    0.1838   -4.1015    3.9088 C   0  0  0  0  0  0  0  0  0  0  0  0
    1.5556   -4.3972    1.6901 H   0  0  0  0  0  0  0  0  0  0  0  0
   -1.3343   -3.9462    2.4079 H   0  0  0  0  0  0  0  0  0  0  0  0
    1.2370   -3.8435    4.0620 H   0  0  0  0  0  0  0  0  0  0  0  0
   -0.4113   -3.6090    4.6843 H   0  0  0  0  0  0  0  0  0  0  0  0
    0.0705   -5.1841    4.0204 H   0  0  0  0  0  0  0  0  0  0  0  0
   -0.5389   -1.6228    1.0625 N   0  0  0  0  0  0  0  0  0  0  0  0
   -0.0126   -0.4082    0.3899 C   0  0  2  0  0  0  0  0  0  0  0  0
    1.5363   -0.2256    0.4317 C   0  0  0  0  0  0  0  0  0  0  0  0
    2.0814    0.3191   -0.5216 O   0  0  0  0  0  0  0  0  0  0  0  0
   -0.7712    0.8260    0.9750 C   0  0  2  0  0  0  0  0  0  0  0  0
   -2.2843    0.7252    0.6449 C   0  0  0  0  0  0  0  0  0  0  0  0
   -0.2141    2.1603    0.4356 C   0  0  0  0  0  0  0  0  0  0  0  0
   -3.1413    1.7454    1.4017 C   0  0  0  0  0  0  0  0  0  0  0  0
   -0.9095   -2.3460    0.4383 H   0  0  0  0  0  0  0  0  0  0  0  0
   -0.2652   -0.4834   -0.6725 H   0  0  0  0  0  0  0  0  0  0  0  0
   -0.6467    0.8274    2.0632 H   0  0  0  0  0  0  0  0  0  0  0  0
   -2.4367    0.8500   -0.4322 H   0  0  0  0  0  0  0  0  0  0  0  0
   -2.6581   -0.2667    0.9139 H   0  0  0  0  0  0  0  0  0  0  0  0
   -0.2556    2.1786   -0.6579 H   0  0  0  0  0  0  0  0  0  0  0  0
   -0.7813    3.0111    0.8195 H   0  0  0  0  0  0  0  0  0  0  0  0
    0.8234    2.3075    0.7493 H   0  0  0  0  0  0  0  0  0  0  0  0
   -2.9313    1.7004    2.4748 H   0  0  0  0  0  0  0  0  0  0  0  0
   -4.2019    1.5242    1.2480 H   0  0  0  0  0  0  0  0  0  0  0  0
   -2.9559    2.7626    1.0469 H   0  0  0  0  0  0  0  0  0  0  0  0
    2.3522   -0.9363    1.2911 N   0  0  0  0  0  0  0  0  0  0  0  0
    3.7765   -1.2353    1.1020 C   0  0  2  0  0  0  0  0  0  0  0  0
    4.0256   -2.7380    0.8467 C   0  0  0  0  0  0  0  0  0  0  0  0
    3.2881   -3.5962    1.3272 O   0  0  0  0  0  0  0  0  0  0  0  0
    4.5139   -0.7767    2.3611 C   0  0  0  0  0  0  0  0  0  0  0  0
    1.8779   -1.3526    2.0946 H   0  0  0  0  0  0  0  0  0  0  0  0
    4.1736   -0.6796    0.2465 H   0  0  0  0  0  0  0  0  0  0  0  0
    4.1492   -1.3201    3.2389 H   0  0  0  0  0  0  0  0  0  0  0  0
    5.5890   -0.9547    2.2617 H   0  0  0  0  0  0  0  0  0  0  0  0
    4.3538    0.2940    2.5232 H   0  0  0  0  0  0  0  0  0  0  0  0
    5.1046   -3.1433    0.0836 N   0  0  0  0  0  0  0  0  0  0  0  0
    5.4071   -4.5398   -0.2070 C   0  0  0  0  0  0  0  0  0  0  0  0
    5.6783   -2.4180   -0.3382 H   0  0  0  0  0  0  0  0  0  0  0  0
    5.5437   -5.1043    0.7214 H   0  0  0  0  0  0  0  0  0  0  0  0
    4.5948   -4.9967   -0.7818 H   0  0  0  0  0  0  0  0  0  0  0  0
    6.3289   -4.6136   -0.7924 H   0  0  0  0  0  0  0  0  0  0  0  0
  1  2  2  0  0  0  0
  1  3  1  0  0  0  0
  1  7  1  0  0  0  0
  3  4  1  0  0  0  0
  3  5  1  0  0  0  0
  3  6  1  0  0  0  0
  7  8  1  0  0  0  0
  7 12  1  0  0  0  0
  8  9  1  0  0  0  0
  8 11  1  0  0  0  0
  8 13  1  0  0  0  0
  9 10  2  0  0  0  0
  9 17  1  0  0  0  0
 11 14  1  0  0  0  0
 11 15  1  0  0  0  0
 11 16  1  0  0  0  0
 17 18  1  0  0  0  0
 17 25  1  0  0  0  0
 18 19  1  0  0  0  0
 18 21  1  0  0  0  0
 18 26  1  0  0  0  0
 19 20  2  0  0  0  0
 19 36  1  0  0  0  0
 21 22  1  0  0  0  0
 21 23  1  0  0  0  0
 21 27  1  0  0  0  0
 22 24  1  0  0  0  0
 22 28  1  0  0  0  0
 22 29  1  0  0  0  0
 23 30  1  0  0  0  0
 23 31  1  0  0  0  0
 23 32  1  0  0  0  0
 24 33  1  0  0  0  0
 24 34  1  0  0  0  0
 24 35  1  0  0  0  0
 36 37  1  0  0  0  0
 36 41  1  0  0  0  0
 37 38  1  0  0  0  0
 37 40  1  0  0  0  0
 37 42  1  0  0  0  0
 38 39  2  0  0  0  0
 38 46  1  0  0  0  0
 40 43  1  0  0  0  0
 40 44  1  0  0  0  0
 40 45  1  0  0  0  0
 46 47  1  0  0  0  0
 46 48  1  0  0  0  0
 47 49  1  0  0  0  0
 47 50  1  0  0  0  0
 47 51  1  0  0  0  0
M  END
$$$$

  -OEChem-05262216503D

 51 50  0     1  0  0  0  0  0999 V2000
   -0.0711   -4.5172   -0.0648 C   0  0  0  0  0  0  0  0  0  0  0  0
   -1.1779   -4.0793   -0.3478 O   0  0  0  0  0  0  0  0  0  0  0  0
    0.8322   -5.0664   -1.1519 C   0  0  0  0  0  0  0  0  0  0  0  0
    1.5779   -4.3168   -1.4279 H   0  0  0  0  0  0  0  0  0  0  0  0
    1.3459   -5.9623   -0.7945 H   0  0  0  0  0  0  0  0  0  0  0  0
    0.2445   -5.3263   -2.0363 H   0  0  0  0  0  0  0  0  0  0  0  0
    0.3897   -4.3992    1.2291 N   0  0  0  0  0  0  0  0  0  0  0  0
   -0.3534   -3.7113    2.2979 C   0  0  2  0  0  0  0  0  0  0  0  0
   -0.2080   -2.1769    2.1746 C   0  0  0  0  0  0  0  0  0  0  0  0
    0.4579   -1.5378    2.9793 O   0  0  0  0  0  0  0  0  0  0  0  0
    0.1601   -4.2579    3.6354 C   0  0  0  0  0  0  0  0  0  0  0  0
    1.4035   -4.5091    1.3411 H   0  0  0  0  0  0  0  0  0  0  0  0
   -1.4200   -3.9496    2.2257 H   0  0  0  0  0  0  0  0  0  0  0  0
    1.2306   -4.0573    3.7492 H   0  0  0  0  0  0  0  0  0  0  0  0
   -0.3720   -3.7859    4.4674 H   0  0  0  0  0  0  0  0  0  0  0  0
    0.0001   -5.3390    3.6906 H   0  0  0  0  0  0  0  0  0  0  0  0
   -0.6232   -1.5702    1.0023 N   0  0  0  0  0  0  0  0  0  0  0  0
   -0.0717   -0.3393    0.3784 C   0  0  2  0  0  0  0  0  0  0  0  0
    1.4877   -0.2676    0.3240 C   0  0  0  0  0  0  0  0  0  0  0  0
    2.0263    0.4797   -0.4846 O   0  0  0  0  0  0  0  0  0  0  0  0
   -0.7272    0.8821    1.1040 C   0  0  2  0  0  0  0  0  0  0  0  0
   -2.2619    0.8742    0.8683 C   0  0  0  0  0  0  0  0  0  0  0  0
   -0.1422    2.2324    0.6407 C   0  0  0  0  0  0  0  0  0  0  0  0
   -3.0212    1.8698    1.7518 C   0  0  0  0  0  0  0  0  0  0  0  0
   -1.0756   -2.2288    0.3606 H   0  0  0  0  0  0  0  0  0  0  0  0
   -0.3947   -0.3204   -0.6672 H   0  0  0  0  0  0  0  0  0  0  0  0
   -0.5363    0.7903    2.1787 H   0  0  0  0  0  0  0  0  0  0  0  0
   -2.4741    1.0878   -0.1844 H   0  0  0  0  0  0  0  0  0  0  0  0
   -2.6671   -0.1176    1.0873 H   0  0  0  0  0  0  0  0  0  0  0  0
   -0.2265    2.3357   -0.4459 H   0  0  0  0  0  0  0  0  0  0  0  0
   -0.6577    3.0728    1.1104 H   0  0  0  0  0  0  0  0  0  0  0  0
    0.9114    2.3158    0.9217 H   0  0  0  0  0  0  0  0  0  0  0  0
   -2.7423    1.7402    2.8021 H   0  0  0  0  0  0  0  0  0  0  0  0
   -4.0982    1.7014    1.6573 H   0  0  0  0  0  0  0  0  0  0  0  0
   -2.8163    2.9017    1.4556 H   0  0  0  0  0  0  0  0  0  0  0  0
    2.2725   -1.2859    0.8312 N   0  0  0  0  0  0  0  0  0  0  0  0
    3.6832   -1.5506    0.5329 C   0  0  2  0  0  0  0  0  0  0  0  0
    3.9608   -3.0624    0.3823 C   0  0  0  0  0  0  0  0  0  0  0  0
    3.2060   -3.8996    0.8741 O   0  0  0  0  0  0  0  0  0  0  0  0
    4.5230   -0.9569    1.6658 C   0  0  0  0  0  0  0  0  0  0  0  0
    1.8518   -1.8025    1.6037 H   0  0  0  0  0  0  0  0  0  0  0  0
    3.9630   -1.0706   -0.4105 H   0  0  0  0  0  0  0  0  0  0  0  0
    4.2626   -1.4237    2.6215 H   0  0  0  0  0  0  0  0  0  0  0  0
    5.5892   -1.1160    1.4788 H   0  0  0  0  0  0  0  0  0  0  0  0
    4.3421    0.1199    1.7441 H   0  0  0  0  0  0  0  0  0  0  0  0
    5.0608   -3.4967   -0.3333 N   0  0  0  0  0  0  0  0  0  0  0  0
    5.3720   -4.9034   -0.5570 C   0  0  0  0  0  0  0  0  0  0  0  0
    5.6581   -2.7882   -0.7510 H   0  0  0  0  0  0  0  0  0  0  0  0
    5.5192   -5.4198    0.3974 H   0  0  0  0  0  0  0  0  0  0  0  0
    4.5590   -5.3940   -1.1025 H   0  0  0  0  0  0  0  0  0  0  0  0
    6.2893   -4.9985   -1.1462 H   0  0  0  0  0  0  0  0  0  0  0  0
  1  2  2  0  0  0  0
  1  3  1  0  0  0  0
  1  7  1  0  0  0  0
  3  4  1  0  0  0  0
  3  5  1  0  0  0  0
  3  6  1  0  0  0  0
  7  8  1  0  0  0  0
  7 12  1  0  0  0  0
  8  9  1  0  0  0  0
  8 11  1  0  0  0  0
  8 13  1  0  0  0  0
  9 10  2  0  0  0  0
  9 17  1  0  0  0  0
 11 14  1  0  0  0  0
 11 15  1  0  0  0  0
 11 16  1  0  0  0  0
 17 18  1  0  0  0  0
 17 25  1  0  0  0  0
 18 19  1  0  0  0  0
 18 21  1  0  0  0  0
 18 26  1  0  0  0  0
 19 20  2  0  0  0  0
 19 36  1  0  0  0  0
 21 22  1  0  0  0  0
 21 23  1  0  0  0  0
 21 27  1  0  0  0  0
 22 24  1  0  0  0  0
 22 28  1  0  0  0  0
 22 29  1  0  0  0  0
 23 30  1  0  0  0  0
 23 31  1  0  0  0  0
 23 32  1  0  0  0  0
 24 33  1  0  0  0  0
 24 34  1  0  0  0  0
 24 35  1  0  0  0  0
 36 37  1  0  0  0  0
 36 41  1  0  0  0  0
 37 38  1  0  0  0  0
 37 40  1  0  0  0  0
 37 42  1  0  0  0  0
 38 39  2  0  0  0  0
 38 46  1  0  0  0  0
 40 43  1  0  0  0  0
 40 44  1  0  0  0  0
 40 45  1  0  0  0  0
 46 47  1  0  0  0  0
 46 48  1  0  0  0  0
 47 49  1  0  0  0  0
 47 50  1  0  0  0  0
 47 51  1  0  0  0  0
M  END
$$$$

  -OEChem-05262216503D

 51 50  0     1  0  0  0  0  0999 V2000
    1.0763   -5.1423    2.3380 C   0  0  0  0  0  0  0  0  0  0  0  0
    0.4462   -5.1798    3.3824 O   0  0  0  0  0  0  0  0  0  0  0  0
    2.4929   -5.6841    2.3109 C   0  0  0  0  0  0  0  0  0  0  0  0
    2.5733   -6.4838    1.5708 H   0  0  0  0  0  0  0  0  0  0  0  0
    3.1888   -4.8833    2.0478 H   0  0  0  0  0  0  0  0  0  0  0  0
    2.7655   -6.0807    3.2929 H   0  0  0  0  0  0  0  0  0  0  0  0
    0.5454   -4.6380    1.1649 N   0  0  0  0  0  0  0  0  0  0  0  0
   -0.6179   -3.7331    1.0483 C   0  0  2  0  0  0  0  0  0  0  0  0
   -0.2424   -2.2563    1.3139 C   0  0  0  0  0  0  0  0  0  0  0  0
    0.7251   -1.9658    2.0026 O   0  0  0  0  0  0  0  0  0  0  0  0
   -1.8391   -4.1451    1.8830 C   0  0  0  0  0  0  0  0  0  0  0  0
    1.2402   -4.5704    0.4146 H   0  0  0  0  0  0  0  0  0  0  0  0
   -0.9312   -3.7972    0.0022 H   0  0  0  0  0  0  0  0  0  0  0  0
   -1.6872   -3.9122    2.9417 H   0  0  0  0  0  0  0  0  0  0  0  0
   -2.7290   -3.6068    1.5440 H   0  0  0  0  0  0  0  0  0  0  0  0
   -2.0235   -5.2192    1.7834 H   0  0  0  0  0  0  0  0  0  0  0  0
   -0.7840   -1.2764    0.4950 N   0  0  0  0  0  0  0  0  0  0  0  0
   -0.1770    0.0417    0.1568 C   0  0  2  0  0  0  0  0  0  0  0  0
    1.3405   -0.0427   -0.2163 C   0  0  0  0  0  0  0  0  0  0  0  0
    1.9367    0.9320   -0.6574 O   0  0  0  0  0  0  0  0  0  0  0  0
   -0.5028    1.0028    1.3522 C   0  0  2  0  0  0  0  0  0  0  0  0
   -2.0404    1.1929    1.4748 C   0  0  0  0  0  0  0  0  0  0  0  0
    0.1711    2.3841    1.2141 C   0  0  0  0  0  0  0  0  0  0  0  0
   -2.4724    1.8950    2.7675 C   0  0  0  0  0  0  0  0  0  0  0  0
   -1.5464   -1.5872   -0.0997 H   0  0  0  0  0  0  0  0  0  0  0  0
   -0.6703    0.4338   -0.7376 H   0  0  0  0  0  0  0  0  0  0  0  0
   -0.1314    0.5459    2.2759 H   0  0  0  0  0  0  0  0  0  0  0  0
   -2.4111    1.7595    0.6146 H   0  0  0  0  0  0  0  0  0  0  0  0
   -2.5392    0.2201    1.4643 H   0  0  0  0  0  0  0  0  0  0  0  0
   -0.0593    2.8298    0.2413 H   0  0  0  0  0  0  0  0  0  0  0  0
   -0.1558    3.0720    1.9962 H   0  0  0  0  0  0  0  0  0  0  0  0
    1.2563    2.2970    1.3154 H   0  0  0  0  0  0  0  0  0  0  0  0
   -2.0207    1.4070    3.6368 H   0  0  0  0  0  0  0  0  0  0  0  0
   -3.5606    1.8439    2.8704 H   0  0  0  0  0  0  0  0  0  0  0  0
   -2.1864    2.9500    2.7656 H   0  0  0  0  0  0  0  0  0  0  0  0
    1.8985   -1.2742   -0.5039 N   0  0  0  0  0  0  0  0  0  0  0  0
    3.2793   -1.5441   -0.9106 C   0  0  2  0  0  0  0  0  0  0  0  0
    3.4578   -3.0559   -1.1821 C   0  0  0  0  0  0  0  0  0  0  0  0
    2.6362   -3.8720   -0.7611 O   0  0  0  0  0  0  0  0  0  0  0  0
    4.2430   -1.1135    0.2045 C   0  0  0  0  0  0  0  0  0  0  0  0
    1.4542   -2.0373    0.0021 H   0  0  0  0  0  0  0  0  0  0  0  0
    3.5046   -0.9925   -1.8290 H   0  0  0  0  0  0  0  0  0  0  0  0
    3.9937   -1.6232    1.1412 H   0  0  0  0  0  0  0  0  0  0  0  0
    5.2751   -1.3591   -0.0623 H   0  0  0  0  0  0  0  0  0  0  0  0
    4.1839   -0.0339    0.3717 H   0  0  0  0  0  0  0  0  0  0  0  0
    4.5521   -3.5124   -1.8924 N   0  0  0  0  0  0  0  0  0  0  0  0
    4.8031   -4.9220   -2.1667 C   0  0  0  0  0  0  0  0  0  0  0  0
    5.2231   -2.8210   -2.2159 H   0  0  0  0  0  0  0  0  0  0  0  0
    5.7135   -5.0345   -2.7635 H   0  0  0  0  0  0  0  0  0  0  0  0
    4.9318   -5.4774   -1.2318 H   0  0  0  0  0  0  0  0  0  0  0  0
    3.9686   -5.3591   -2.7252 H   0  0  0  0  0  0  0  0  0  0  0  0
  1  2  2  0  0  0  0
  1  3  1  0  0  0  0
  1  7  1  0  0  0  0
  3  4  1  0  0  0  0
  3  5  1  0  0  0  0
  3  6  1  0  0  0  0
  7  8  1  0  0  0  0
  7 12  1  0  0  0  0
  8  9  1  0  0  0  0
  8 11  1  0  0  0  0
  8 13  1  0  0  0  0
  9 10  2  0  0  0  0
  9 17  1  0  0  0  0
 11 14  1  0  0  0  0
 11 15  1  0  0  0  0
 11 16  1  0  0  0  0
 17 18  1  0  0  0  0
 17 25  1  0  0  0  0
 18 19  1  0  0  0  0
 18 21  1  0  0  0  0
 18 26  1  0  0  0  0
 19 20  2  0  0  0  0
 19 36  1  0  0  0  0
 21 22  1  0  0  0  0
 21 23  1  0  0  0  0
 21 27  1  0  0  0  0
 22 24  1  0  0  0  0
 22 28  1  0  0  0  0
 22 29  1  0  0  0  0
 23 30  1  0  0  0  0
 23 31  1  0  0  0  0
 23 32  1  0  0  0  0
 24 33  1  0  0  0  0
 24 34  1  0  0  0  0
 24 35  1  0  0  0  0
 36 37  1  0  0  0  0
 36 41  1  0  0  0  0
 37 38  1  0  0  0  0
 37 40  1  0  0  0  0
 37 42  1  0  0  0  0
 38 39  2  0  0  0  0
 38 46  1  0  0  0  0
 40 43  1  0  0  0  0
 40 44  1  0  0  0  0
 40 45  1  0  0  0  0
 46 47  1  0  0  0  0
 46 48  1  0  0  0  0
 47 49  1  0  0  0  0
 47 50  1  0  0  0  0
 47 51  1  0  0  0  0
M  END
$$$$

  -OEChem-05262216503D

 51 50  0     1  0  0  0  0  0999 V2000
    1.5814   -5.0998    1.7625 C   0  0  0  0  0  0  0  0  0  0  0  0
    1.2940   -5.2388    2.9398 O   0  0  0  0  0  0  0  0  0  0  0  0
    2.9291   -5.5958    1.2718 C   0  0  0  0  0  0  0  0  0  0  0  0
    2.7890   -6.3282    0.4730 H   0  0  0  0  0  0  0  0  0  0  0  0
    3.5143   -4.7566    0.8880 H   0  0  0  0  0  0  0  0  0  0  0  0
    3.4809   -6.0659    2.0905 H   0  0  0  0  0  0  0  0  0  0  0  0
    0.7154   -4.5424    0.8392 N   0  0  0  0  0  0  0  0  0  0  0  0
   -0.4643   -3.6970    1.1223 C   0  0  2  0  0  0  0  0  0  0  0  0
   -0.0854   -2.2085    1.2992 C   0  0  0  0  0  0  0  0  0  0  0  0
    0.9358   -1.8799    1.8837 O   0  0  0  0  0  0  0  0  0  0  0  0
   -1.3400   -4.1772    2.2882 C   0  0  0  0  0  0  0  0  0  0  0  0
    1.1483   -4.4129   -0.0800 H   0  0  0  0  0  0  0  0  0  0  0  0
   -1.0913   -3.7648    0.2289 H   0  0  0  0  0  0  0  0  0  0  0  0
   -0.8638   -3.9605    3.2498 H   0  0  0  0  0  0  0  0  0  0  0  0
   -2.3085   -3.6689    2.2700 H   0  0  0  0  0  0  0  0  0  0  0  0
   -1.5115   -5.2558    2.2162 H   0  0  0  0  0  0  0  0  0  0  0  0
   -0.7797   -1.2519    0.5703 N   0  0  0  0  0  0  0  0  0  0  0  0
   -0.2945    0.1093    0.2139 C   0  0  2  0  0  0  0  0  0  0  0  0
    1.1794    0.0688   -0.3078 C   0  0  0  0  0  0  0  0  0  0  0  0
    1.8774    1.0634   -0.4520 O   0  0  0  0  0  0  0  0  0  0  0  0
   -0.5786    1.0345    1.4485 C   0  0  2  0  0  0  0  0  0  0  0  0
   -2.1120    1.1134    1.6955 C   0  0  0  0  0  0  0  0  0  0  0  0
   -0.0291    2.4665    1.2698 C   0  0  0  0  0  0  0  0  0  0  0  0
   -2.4938    1.7688    3.0286 C   0  0  0  0  0  0  0  0  0  0  0  0
   -1.6239   -1.5768    0.1085 H   0  0  0  0  0  0  0  0  0  0  0  0
   -0.8840    0.4855   -0.6271 H   0  0  0  0  0  0  0  0  0  0  0  0
   -0.0982    0.5980    2.3311 H   0  0  0  0  0  0  0  0  0  0  0  0
   -2.5889    1.6592    0.8749 H   0  0  0  0  0  0  0  0  0  0  0  0
   -2.5390    0.1071    1.7098 H   0  0  0  0  0  0  0  0  0  0  0  0
   -0.3080    2.8671    0.2903 H   0  0  0  0  0  0  0  0  0  0  0  0
   -0.4035    3.1452    2.0377 H   0  0  0  0  0  0  0  0  0  0  0  0
    1.0599    2.4767    1.3617 H   0  0  0  0  0  0  0  0  0  0  0  0
   -1.9312    1.3176    3.8519 H   0  0  0  0  0  0  0  0  0  0  0  0
   -3.5613    1.6227    3.2194 H   0  0  0  0  0  0  0  0  0  0  0  0
   -2.3028    2.8447    3.0173 H   0  0  0  0  0  0  0  0  0  0  0  0
    1.6020   -1.0778   -0.9557 N   0  0  0  0  0  0  0  0  0  0  0  0
    2.9902   -1.4204   -1.2868 C   0  0  2  0  0  0  0  0  0  0  0  0
    3.0498   -2.8774   -1.7963 C   0  0  0  0  0  0  0  0  0  0  0  0
    2.1313   -3.6601   -1.5492 O   0  0  0  0  0  0  0  0  0  0  0  0
    3.8926   -1.3108   -0.0459 C   0  0  0  0  0  0  0  0  0  0  0  0
    0.9933   -1.8786   -0.8125 H   0  0  0  0  0  0  0  0  0  0  0  0
    3.3547   -0.7497   -2.0713 H   0  0  0  0  0  0  0  0  0  0  0  0
    3.5026   -1.9314    0.7677 H   0  0  0  0  0  0  0  0  0  0  0  0
    4.9088   -1.6420   -0.2784 H   0  0  0  0  0  0  0  0  0  0  0  0
    3.9505   -0.2771    0.3069 H   0  0  0  0  0  0  0  0  0  0  0  0
    4.1510   -3.3351   -2.4946 N   0  0  0  0  0  0  0  0  0  0  0  0
    4.3014   -4.7134   -2.9457 C   0  0  0  0  0  0  0  0  0  0  0  0
    4.9121   -2.6800   -2.6531 H   0  0  0  0  0  0  0  0  0  0  0  0
    4.3105   -5.3976   -2.0905 H   0  0  0  0  0  0  0  0  0  0  0  0
    3.4779   -4.9914   -3.6120 H   0  0  0  0  0  0  0  0  0  0  0  0
    5.2418   -4.8319   -3.4928 H   0  0  0  0  0  0  0  0  0  0  0  0
  1  2  2  0  0  0  0
  1  3  1  0  0  0  0
  1  7  1  0  0  0  0
  3  4  1  0  0  0  0
  3  5  1  0  0  0  0
  3  6  1  0  0  0  0
  7  8  1  0  0  0  0
  7 12  1  0  0  0  0
  8  9  1  0  0  0  0
  8 11  1  0  0  0  0
  8 13  1  0  0  0  0
  9 10  2  0  0  0  0
  9 17  1  0  0  0  0
 11 14  1  0  0  0  0
 11 15  1  0  0  0  0
 11 16  1  0  0  0  0
 17 18  1  0  0  0  0
 17 25  1  0  0  0  0
 18 19  1  0  0  0  0
 18 21  1  0  0  0  0
 18 26  1  0  0  0  0
 19 20  2  0  0  0  0
 19 36  1  0  0  0  0
 21 22  1  0  0  0  0
 21 23  1  0  0  0  0
 21 27  1  0  0  0  0
 22 24  1  0  0  0  0
 22 28  1  0  0  0  0
 22 29  1  0  0  0  0
 23 30  1  0  0  0  0
 23 31  1  0  0  0  0
 23 32  1  0  0  0  0
 24 33  1  0  0  0  0
 24 34  1  0  0  0  0
 24 35  1  0  0  0  0
 36 37  1  0  0  0  0
 36 41  1  0  0  0  0
 37 38  1  0  0  0  0
 37 40  1  0  0  0  0
 37 42  1  0  0  0  0
 38 39  2  0  0  0  0
 38 46  1  0  0  0  0
 40 43  1  0  0  0  0
 40 44  1  0  0  0  0
 40 45  1  0  0  0  0
 46 47  1  0  0  0  0
 46 48  1  0  0  0  0
 47 49  1  0  0  0  0
 47 50  1  0  0  0  0
 47 51  1  0  0  0  0
M  END
$$$$

  -OEChem-05262216503D

 51 50  0     1  0  0  0  0  0999 V2000
    0.4712   -5.0380    0.8874 C   0  0  0  0  0  0  0  0  0  0  0  0
   -0.0600   -4.3484    0.0278 O   0  0  0  0  0  0  0  0  0  0  0  0
    1.1816   -6.3235    0.5070 C   0  0  0  0  0  0  0  0  0  0  0  0
    1.2162   -6.4284   -0.5814 H   0  0  0  0  0  0  0  0  0  0  0  0
    2.2046   -6.3184    0.8909 H   0  0  0  0  0  0  0  0  0  0  0  0
    0.6488   -7.1808    0.9258 H   0  0  0  0  0  0  0  0  0  0  0  0
    0.4314   -4.6320    2.2057 N   0  0  0  0  0  0  0  0  0  0  0  0
   -0.3510   -3.4874    2.6986 C   0  0  2  0  0  0  0  0  0  0  0  0
    0.1081   -2.1285    2.1159 C   0  0  0  0  0  0  0  0  0  0  0  0
    0.9812   -1.4699    2.6624 O   0  0  0  0  0  0  0  0  0  0  0  0
   -0.2727   -3.5022    4.2301 C   0  0  0  0  0  0  0  0  0  0  0  0
    0.9349   -5.1991    2.8824 H   0  0  0  0  0  0  0  0  0  0  0  0
   -1.4001   -3.6259    2.4173 H   0  0  0  0  0  0  0  0  0  0  0  0
    0.7643   -3.3978    4.5658 H   0  0  0  0  0  0  0  0  0  0  0  0
   -0.8538   -2.6733    4.6468 H   0  0  0  0  0  0  0  0  0  0  0  0
   -0.6757   -4.4394    4.6257 H   0  0  0  0  0  0  0  0  0  0  0  0
   -0.5008   -1.6680    0.9591 N   0  0  0  0  0  0  0  0  0  0  0  0
    0.0049   -0.5787    0.0929 C   0  0  2  0  0  0  0  0  0  0  0  0
    1.5345   -0.7531   -0.1543 C   0  0  0  0  0  0  0  0  0  0  0  0
    2.3286    0.1714   -0.2822 O   0  0  0  0  0  0  0  0  0  0  0  0
   -0.4837    0.7808    0.7017 C   0  0  2  0  0  0  0  0  0  0  0  0
   -2.0384    0.8225    0.6732 C   0  0  0  0  0  0  0  0  0  0  0  0
    0.0497    2.0065   -0.0756 C   0  0  0  0  0  0  0  0  0  0  0  0
   -2.6453    1.9772    1.4799 C   0  0  0  0  0  0  0  0  0  0  0  0
   -1.0518   -2.3877    0.4911 H   0  0  0  0  0  0  0  0  0  0  0  0
   -0.4563   -0.6777   -0.8941 H   0  0  0  0  0  0  0  0  0  0  0  0
   -0.1384    0.8519    1.7389 H   0  0  0  0  0  0  0  0  0  0  0  0
   -2.3869    0.8827   -0.3631 H   0  0  0  0  0  0  0  0  0  0  0  0
   -2.4420   -0.1003    1.0987 H   0  0  0  0  0  0  0  0  0  0  0  0
   -0.0417    1.8470   -1.1545 H   0  0  0  0  0  0  0  0  0  0  0  0
   -0.4881    2.9201    0.1815 H   0  0  0  0  0  0  0  0  0  0  0  0
    1.0973    2.1974    0.1679 H   0  0  0  0  0  0  0  0  0  0  0  0
   -2.2244    1.9995    2.4898 H   0  0  0  0  0  0  0  0  0  0  0  0
   -3.7280    1.8415    1.5600 H   0  0  0  0  0  0  0  0  0  0  0  0
   -2.4668    2.9429    1.0013 H   0  0  0  0  0  0  0  0  0  0  0  0
    2.0025   -2.0192   -0.4679 N   0  0  0  0  0  0  0  0  0  0  0  0
    3.4165   -2.3434   -0.7137 C   0  0  2  0  0  0  0  0  0  0  0  0
    3.8535   -2.0319   -2.1651 C   0  0  0  0  0  0  0  0  0  0  0  0
    4.2943   -2.9010   -2.9092 O   0  0  0  0  0  0  0  0  0  0  0  0
    3.6307   -3.8101   -0.3282 C   0  0  0  0  0  0  0  0  0  0  0  0
    1.3258   -2.7816   -0.4139 H   0  0  0  0  0  0  0  0  0  0  0  0
    4.0453   -1.7360   -0.0537 H   0  0  0  0  0  0  0  0  0  0  0  0
    3.0305   -4.4651   -0.9673 H   0  0  0  0  0  0  0  0  0  0  0  0
    4.6844   -4.0828   -0.4451 H   0  0  0  0  0  0  0  0  0  0  0  0
    3.3471   -3.9717    0.7159 H   0  0  0  0  0  0  0  0  0  0  0  0
    3.7562   -0.7358   -2.6293 N   0  0  0  0  0  0  0  0  0  0  0  0
    4.1295   -0.3143   -3.9717 C   0  0  0  0  0  0  0  0  0  0  0  0
    3.3628   -0.0546   -1.9735 H   0  0  0  0  0  0  0  0  0  0  0  0
    3.9865    0.7649   -4.0807 H   0  0  0  0  0  0  0  0  0  0  0  0
    5.1820   -0.5450   -4.1668 H   0  0  0  0  0  0  0  0  0  0  0  0
    3.5114   -0.8235   -4.7183 H   0  0  0  0  0  0  0  0  0  0  0  0
  1  2  2  0  0  0  0
  1  3  1  0  0  0  0
  1  7  1  0  0  0  0
  3  4  1  0  0  0  0
  3  5  1  0  0  0  0
  3  6  1  0  0  0  0
  7  8  1  0  0  0  0
  7 12  1  0  0  0  0
  8  9  1  0  0  0  0
  8 11  1  0  0  0  0
  8 13  1  0  0  0  0
  9 10  2  0  0  0  0
  9 17  1  0  0  0  0
 11 14  1  0  0  0  0
 11 15  1  0  0  0  0
 11 16  1  0  0  0  0
 17 18  1  0  0  0  0
 17 25  1  0  0  0  0
 18 19  1  0  0  0  0
 18 21  1  0  0  0  0
 18 26  1  0  0  0  0
 19 20  2  0  0  0  0
 19 36  1  0  0  0  0
 21 22  1  0  0  0  0
 21 23  1  0  0  0  0
 21 27  1  0  0  0  0
 22 24  1  0  0  0  0
 22 28  1  0  0  0  0
 22 29  1  0  0  0  0
 23 30  1  0  0  0  0
 23 31  1  0  0  0  0
 23 32  1  0  0  0  0
 24 33  1  0  0  0  0
 24 34  1  0  0  0  0
 24 35  1  0  0  0  0
 36 37  1  0  0  0  0
 36 41  1  0  0  0  0
 37 38  1  0  0  0  0
 37 40  1  0  0  0  0
 37 42  1  0  0  0  0
 38 39  2  0  0  0  0
 38 46  1  0  0  0  0
 40 43  1  0  0  0  0
 40 44  1  0  0  0  0
 40 45  1  0  0  0  0
 46 47  1  0  0  0  0
 46 48  1  0  0  0  0
 47 49  1  0  0  0  0
 47 50  1  0  0  0  0
 47 51  1  0  0  0  0
M  END
$$$$

  -OEChem-05262216503D

 51 50  0     1  0  0  0  0  0999 V2000
    0.3855   -4.9548    0.7488 C   0  0  0  0  0  0  0  0  0  0  0  0
   -0.2938   -4.2770   -0.0103 O   0  0  0  0  0  0  0  0  0  0  0  0
    1.0636   -6.2143    0.2429 C   0  0  0  0  0  0  0  0  0  0  0  0
    1.0370   -6.2446   -0.8502 H   0  0  0  0  0  0  0  0  0  0  0  0
    2.1063   -6.2391    0.5683 H   0  0  0  0  0  0  0  0  0  0  0  0
    0.5492   -7.0965    0.6322 H   0  0  0  0  0  0  0  0  0  0  0  0
    0.5424   -4.5668    2.0643 N   0  0  0  0  0  0  0  0  0  0  0  0
   -0.1769   -3.4505    2.6993 C   0  0  2  0  0  0  0  0  0  0  0  0
    0.1912   -2.0657    2.1135 C   0  0  0  0  0  0  0  0  0  0  0  0
    1.0577   -1.3707    2.6228 O   0  0  0  0  0  0  0  0  0  0  0  0
    0.1024   -3.5255    4.2052 C   0  0  0  0  0  0  0  0  0  0  0  0
    1.1615   -5.1287    2.6424 H   0  0  0  0  0  0  0  0  0  0  0  0
   -1.2529   -3.5897    2.5523 H   0  0  0  0  0  0  0  0  0  0  0  0
    1.1740   -3.4196    4.4053 H   0  0  0  0  0  0  0  0  0  0  0  0
   -0.4261   -2.7219    4.7284 H   0  0  0  0  0  0  0  0  0  0  0  0
   -0.2370   -4.4833    4.6110 H   0  0  0  0  0  0  0  0  0  0  0  0
   -0.4904   -1.6359    0.9879 N   0  0  0  0  0  0  0  0  0  0  0  0
   -0.0585   -0.5580    0.0731 C   0  0  2  0  0  0  0  0  0  0  0  0
    1.4553   -0.7359   -0.2444 C   0  0  0  0  0  0  0  0  0  0  0  0
    2.3034    0.1430   -0.1444 O   0  0  0  0  0  0  0  0  0  0  0  0
   -0.5086    0.8168    0.6702 C   0  0  2  0  0  0  0  0  0  0  0  0
   -2.0609    0.8547    0.7468 C   0  0  0  0  0  0  0  0  0  0  0  0
   -0.0510    2.0095   -0.2031 C   0  0  0  0  0  0  0  0  0  0  0  0
   -2.6118    2.0344    1.5568 C   0  0  0  0  0  0  0  0  0  0  0  0
   -1.0336   -2.3861    0.5575 H   0  0  0  0  0  0  0  0  0  0  0  0
   -0.5767   -0.6813   -0.8826 H   0  0  0  0  0  0  0  0  0  0  0  0
   -0.0848    0.9296    1.6743 H   0  0  0  0  0  0  0  0  0  0  0  0
   -2.4831    0.8796   -0.2632 H   0  0  0  0  0  0  0  0  0  0  0  0
   -2.4278   -0.0546    1.2303 H   0  0  0  0  0  0  0  0  0  0  0  0
   -0.3077    1.8372   -1.2529 H   0  0  0  0  0  0  0  0  0  0  0  0
   -0.5175    2.9433    0.1158 H   0  0  0  0  0  0  0  0  0  0  0  0
    1.0252    2.1729   -0.1276 H   0  0  0  0  0  0  0  0  0  0  0  0
   -2.1168    2.0926    2.5312 H   0  0  0  0  0  0  0  0  0  0  0  0
   -3.6848    1.8986    1.7227 H   0  0  0  0  0  0  0  0  0  0  0  0
   -2.4730    2.9831    1.0325 H   0  0  0  0  0  0  0  0  0  0  0  0
    1.8437   -1.9203   -0.8491 N   0  0  0  0  0  0  0  0  0  0  0  0
    3.2320   -2.2454   -1.2130 C   0  0  2  0  0  0  0  0  0  0  0  0
    3.6485   -1.6169   -2.5639 C   0  0  0  0  0  0  0  0  0  0  0  0
    3.9983   -2.3037   -3.5172 O   0  0  0  0  0  0  0  0  0  0  0  0
    3.3751   -3.7703   -1.1932 C   0  0  0  0  0  0  0  0  0  0  0  0
    1.1384   -2.6544   -0.9049 H   0  0  0  0  0  0  0  0  0  0  0  0
    3.9102   -1.8429   -0.4528 H   0  0  0  0  0  0  0  0  0  0  0  0
    2.6882   -4.2322   -1.9097 H   0  0  0  0  0  0  0  0  0  0  0  0
    4.3974   -4.0592   -1.4572 H   0  0  0  0  0  0  0  0  0  0  0  0
    3.1584   -4.1536   -0.1930 H   0  0  0  0  0  0  0  0  0  0  0  0
    3.6347   -0.2428   -2.6930 N   0  0  0  0  0  0  0  0  0  0  0  0
    3.9973    0.4700   -3.9095 C   0  0  0  0  0  0  0  0  0  0  0  0
    3.3086    0.2807   -1.8753 H   0  0  0  0  0  0  0  0  0  0  0  0
    5.0350    0.2544   -4.1842 H   0  0  0  0  0  0  0  0  0  0  0  0
    3.3440    0.1733   -4.7364 H   0  0  0  0  0  0  0  0  0  0  0  0
    3.8965    1.5487   -3.7575 H   0  0  0  0  0  0  0  0  0  0  0  0
  1  2  2  0  0  0  0
  1  3  1  0  0  0  0
  1  7  1  0  0  0  0
  3  4  1  0  0  0  0
  3  5  1  0  0  0  0
  3  6  1  0  0  0  0
  7  8  1  0  0  0  0
  7 12  1  0  0  0  0
  8  9  1  0  0  0  0
  8 11  1  0  0  0  0
  8 13  1  0  0  0  0
  9 10  2  0  0  0  0
  9 17  1  0  0  0  0
 11 14  1  0  0  0  0
 11 15  1  0  0  0  0
 11 16  1  0  0  0  0
 17 18  1  0  0  0  0
 17 25  1  0  0  0  0
 18 19  1  0  0  0  0
 18 21  1  0  0  0  0
 18 26  1  0  0  0  0
 19 20  2  0  0  0  0
 19 36  1  0  0  0  0
 21 22  1  0  0  0  0
 21 23  1  0  0  0  0
 21 27  1  0  0  0  0
 22 24  1  0  0  0  0
 22 28  1  0  0  0  0
 22 29  1  0  0  0  0
 23 30  1  0  0  0  0
 23 31  1  0  0  0  0
 23 32  1  0  0  0  0
 24 33  1  0  0  0  0
 24 34  1  0  0  0  0
 24 35  1  0  0  0  0
 36 37  1  0  0  0  0
 36 41  1  0  0  0  0
 37 38  1  0  0  0  0
 37 40  1  0  0  0  0
 37 42  1  0  0  0  0
 38 39  2  0  0  0  0
 38 46  1  0  0  0  0
 40 43  1  0  0  0  0
 40 44  1  0  0  0  0
 40 45  1  0  0  0  0
 46 47  1  0  0  0  0
 46 48  1  0  0  0  0
 47 49  1  0  0  0  0
 47 50  1  0  0  0  0
 47 51  1  0  0  0  0
M  END
$$$$

  -OEChem-05262216503D

 51 50  0     1  0  0  0  0  0999 V2000
    0.2387   -4.6788    0.2450 C   0  0  0  0  0  0  0  0  0  0  0  0
   -0.6872   -4.0878   -0.2930 O   0  0  0  0  0  0  0  0  0  0  0  0
    1.1776   -5.5382   -0.5794 C   0  0  0  0  0  0  0  0  0  0  0  0
    1.0724   -5.2991   -1.6417 H   0  0  0  0  0  0  0  0  0  0  0  0
    2.2134   -5.3592   -0.2812 H   0  0  0  0  0  0  0  0  0  0  0  0
    0.9418   -6.5946   -0.4292 H   0  0  0  0  0  0  0  0  0  0  0  0
    0.4492   -4.5258    1.6003 N   0  0  0  0  0  0  0  0  0  0  0  0
   -0.3613   -3.6513    2.4612 C   0  0  2  0  0  0  0  0  0  0  0  0
   -0.0861   -2.1537    2.1860 C   0  0  0  0  0  0  0  0  0  0  0  0
    0.6313   -1.4986    2.9265 O   0  0  0  0  0  0  0  0  0  0  0  0
   -0.0869   -4.0473    3.9172 C   0  0  0  0  0  0  0  0  0  0  0  0
    1.3004   -4.9249    1.9867 H   0  0  0  0  0  0  0  0  0  0  0  0
   -1.4239   -3.8296    2.2647 H   0  0  0  0  0  0  0  0  0  0  0  0
    0.9705   -3.9069    4.1640 H   0  0  0  0  0  0  0  0  0  0  0  0
   -0.6840   -3.4294    4.5956 H   0  0  0  0  0  0  0  0  0  0  0  0
   -0.3496   -5.0963    4.0838 H   0  0  0  0  0  0  0  0  0  0  0  0
   -0.6628   -1.5835    1.0643 N   0  0  0  0  0  0  0  0  0  0  0  0
   -0.1716   -0.3820    0.3568 C   0  0  2  0  0  0  0  0  0  0  0  0
    1.3707   -0.4704    0.1679 C   0  0  0  0  0  0  0  0  0  0  0  0
    2.1851    0.2305    0.7551 O   0  0  0  0  0  0  0  0  0  0  0  0
   -0.6943    0.9007    1.0777 C   0  0  2  0  0  0  0  0  0  0  0  0
   -2.2453    0.9322    1.0125 C   0  0  0  0  0  0  0  0  0  0  0  0
   -0.1690    2.1907    0.4036 C   0  0  0  0  0  0  0  0  0  0  0  0
   -2.8718    2.0018    1.9143 C   0  0  0  0  0  0  0  0  0  0  0  0
   -1.1167   -2.2848    0.4731 H   0  0  0  0  0  0  0  0  0  0  0  0
   -0.5976   -0.3778   -0.6508 H   0  0  0  0  0  0  0  0  0  0  0  0
   -0.3647    0.8850    2.1224 H   0  0  0  0  0  0  0  0  0  0  0  0
   -2.5740    1.0868   -0.0202 H   0  0  0  0  0  0  0  0  0  0  0  0
   -2.6451   -0.0316    1.3404 H   0  0  0  0  0  0  0  0  0  0  0  0
   -0.4365    2.2052   -0.6574 H   0  0  0  0  0  0  0  0  0  0  0  0
   -0.5865    3.0811    0.8788 H   0  0  0  0  0  0  0  0  0  0  0  0
    0.9152    2.2811    0.4867 H   0  0  0  0  0  0  0  0  0  0  0  0
   -2.4794    1.9200    2.9326 H   0  0  0  0  0  0  0  0  0  0  0  0
   -3.9569    1.8664    1.9502 H   0  0  0  0  0  0  0  0  0  0  0  0
   -2.6720    3.0087    1.5385 H   0  0  0  0  0  0  0  0  0  0  0  0
    1.8430   -1.3384   -0.8022 N   0  0  0  0  0  0  0  0  0  0  0  0
    3.2090   -1.3176   -1.3438 C   0  0  2  0  0  0  0  0  0  0  0  0
    3.2006   -1.0966   -2.8690 C   0  0  0  0  0  0  0  0  0  0  0  0
    2.2539   -1.4942   -3.5392 O   0  0  0  0  0  0  0  0  0  0  0  0
    3.8735   -2.6511   -1.0012 C   0  0  0  0  0  0  0  0  0  0  0  0
    1.1347   -1.7892   -1.3797 H   0  0  0  0  0  0  0  0  0  0  0  0
    3.7938   -0.5082   -0.8951 H   0  0  0  0  0  0  0  0  0  0  0  0
    3.3385   -3.4776   -1.4786 H   0  0  0  0  0  0  0  0  0  0  0  0
    4.9108   -2.6611   -1.3491 H   0  0  0  0  0  0  0  0  0  0  0  0
    3.8693   -2.8068    0.0823 H   0  0  0  0  0  0  0  0  0  0  0  0
    4.2637   -0.4728   -3.4952 N   0  0  0  0  0  0  0  0  0  0  0  0
    4.2942   -0.1939   -4.9259 C   0  0  0  0  0  0  0  0  0  0  0  0
    5.0021   -0.0996   -2.9052 H   0  0  0  0  0  0  0  0  0  0  0  0
    4.2144   -1.1236   -5.4990 H   0  0  0  0  0  0  0  0  0  0  0  0
    3.4654    0.4649   -5.2057 H   0  0  0  0  0  0  0  0  0  0  0  0
    5.2335    0.2981   -5.1963 H   0  0  0  0  0  0  0  0  0  0  0  0
  1  2  2  0  0  0  0
  1  3  1  0  0  0  0
  1  7  1  0  0  0  0
  3  4  1  0  0  0  0
  3  5  1  0  0  0  0
  3  6  1  0  0  0  0
  7  8  1  0  0  0  0
  7 12  1  0  0  0  0
  8  9  1  0  0  0  0
  8 11  1  0  0  0  0
  8 13  1  0  0  0  0
  9 10  2  0  0  0  0
  9 17  1  0  0  0  0
 11 14  1  0  0  0  0
 11 15  1  0  0  0  0
 11 16  1  0  0  0  0
 17 18  1  0  0  0  0
 17 25  1  0  0  0  0
 18 19  1  0  0  0  0
 18 21  1  0  0  0  0
 18 26  1  0  0  0  0
 19 20  2  0  0  0  0
 19 36  1  0  0  0  0
 21 22  1  0  0  0  0
 21 23  1  0  0  0  0
 21 27  1  0  0  0  0
 22 24  1  0  0  0  0
 22 28  1  0  0  0  0
 22 29  1  0  0  0  0
 23 30  1  0  0  0  0
 23 31  1  0  0  0  0
 23 32  1  0  0  0  0
 24 33  1  0  0  0  0
 24 34  1  0  0  0  0
 24 35  1  0  0  0  0
 36 37  1  0  0  0  0
 36 41  1  0  0  0  0
 37 38  1  0  0  0  0
 37 40  1  0  0  0  0
 37 42  1  0  0  0  0
 38 39  2  0  0  0  0
 38 46  1  0  0  0  0
 40 43  1  0  0  0  0
 40 44  1  0  0  0  0
 40 45  1  0  0  0  0
 46 47  1  0  0  0  0
 46 48  1  0  0  0  0
 47 49  1  0  0  0  0
 47 50  1  0  0  0  0
 47 51  1  0  0  0  0
M  END
$$$$

  -OEChem-05262216503D

 51 50  0     1  0  0  0  0  0999 V2000
    0.1099   -4.4352   -0.1738 C   0  0  0  0  0  0  0  0  0  0  0  0
   -0.9492   -3.9082   -0.4834 O   0  0  0  0  0  0  0  0  0  0  0  0
    0.9791   -5.0847   -1.2335 C   0  0  0  0  0  0  0  0  0  0  0  0
    0.4641   -5.0802   -2.1984 H   0  0  0  0  0  0  0  0  0  0  0  0
    1.9179   -4.5355   -1.3355 H   0  0  0  0  0  0  0  0  0  0  0  0
    1.1975   -6.1190   -0.9567 H   0  0  0  0  0  0  0  0  0  0  0  0
    0.5429   -4.3706    1.1355 N   0  0  0  0  0  0  0  0  0  0  0  0
   -0.1834   -3.6702    2.2072 C   0  0  2  0  0  0  0  0  0  0  0  0
   -0.0392   -2.1341    2.0889 C   0  0  0  0  0  0  0  0  0  0  0  0
    0.6331   -1.5001    2.8868 O   0  0  0  0  0  0  0  0  0  0  0  0
    0.3216   -4.2184    3.5478 C   0  0  0  0  0  0  0  0  0  0  0  0
    1.4842   -4.7010    1.3302 H   0  0  0  0  0  0  0  0  0  0  0  0
   -1.2517   -3.9018    2.1374 H   0  0  0  0  0  0  0  0  0  0  0  0
    1.3930   -4.0266    3.6663 H   0  0  0  0  0  0  0  0  0  0  0  0
   -0.2081   -3.7373    4.3764 H   0  0  0  0  0  0  0  0  0  0  0  0
    0.1491   -5.2972    3.6083 H   0  0  0  0  0  0  0  0  0  0  0  0
   -0.6814   -1.5073    1.0355 N   0  0  0  0  0  0  0  0  0  0  0  0
   -0.3046   -0.2186    0.4178 C   0  0  2  0  0  0  0  0  0  0  0  0
    1.2301   -0.1524    0.1729 C   0  0  0  0  0  0  0  0  0  0  0  0
    2.0271    0.3932    0.9259 O   0  0  0  0  0  0  0  0  0  0  0  0
   -0.8730    0.9567    1.2705 C   0  0  2  0  0  0  0  0  0  0  0  0
   -2.4232    0.8937    1.2787 C   0  0  0  0  0  0  0  0  0  0  0  0
   -0.4473    2.3279    0.6973 C   0  0  0  0  0  0  0  0  0  0  0  0
   -3.0615    1.8405    2.3010 C   0  0  0  0  0  0  0  0  0  0  0  0
   -1.1407   -2.1775    0.4123 H   0  0  0  0  0  0  0  0  0  0  0  0
   -0.7772   -0.1593   -0.5667 H   0  0  0  0  0  0  0  0  0  0  0  0
   -0.4938    0.8687    2.2948 H   0  0  0  0  0  0  0  0  0  0  0  0
   -2.8132    1.1172    0.2803 H   0  0  0  0  0  0  0  0  0  0  0  0
   -2.7475   -0.1188    1.5362 H   0  0  0  0  0  0  0  0  0  0  0  0
   -0.7992    2.4404   -0.3328 H   0  0  0  0  0  0  0  0  0  0  0  0
   -0.8560    3.1455    1.2955 H   0  0  0  0  0  0  0  0  0  0  0  0
    0.6378    2.4494    0.7058 H   0  0  0  0  0  0  0  0  0  0  0  0
   -2.6194    1.6883    3.2907 H   0  0  0  0  0  0  0  0  0  0  0  0
   -4.1355    1.6429    2.3685 H   0  0  0  0  0  0  0  0  0  0  0  0
   -2.9294    2.8865    2.0123 H   0  0  0  0  0  0  0  0  0  0  0  0
    1.7167   -0.6140   -1.0374 N   0  0  0  0  0  0  0  0  0  0  0  0
    3.1176   -0.5386   -1.4713 C   0  0  2  0  0  0  0  0  0  0  0  0
    3.2386   -0.7038   -2.9999 C   0  0  0  0  0  0  0  0  0  0  0  0
    2.3086   -1.1815   -3.6415 O   0  0  0  0  0  0  0  0  0  0  0  0
    3.9231   -1.6335   -0.7616 C   0  0  0  0  0  0  0  0  0  0  0  0
    1.0484   -1.0022   -1.7022 H   0  0  0  0  0  0  0  0  0  0  0  0
    3.5260    0.4425   -1.2062 H   0  0  0  0  0  0  0  0  0  0  0  0
    3.5374   -2.6228   -1.0248 H   0  0  0  0  0  0  0  0  0  0  0  0
    4.9771   -1.5815   -1.0504 H   0  0  0  0  0  0  0  0  0  0  0  0
    3.8600   -1.5125    0.3246 H   0  0  0  0  0  0  0  0  0  0  0  0
    4.3963   -0.3309   -3.6574 N   0  0  0  0  0  0  0  0  0  0  0  0
    4.5725   -0.4498   -5.0998 C   0  0  0  0  0  0  0  0  0  0  0  0
    5.1397    0.0842   -3.1029 H   0  0  0  0  0  0  0  0  0  0  0  0
    4.4329   -1.4880   -5.4195 H   0  0  0  0  0  0  0  0  0  0  0  0
    3.8503    0.1818   -5.6277 H   0  0  0  0  0  0  0  0  0  0  0  0
    5.5810   -0.1350   -5.3848 H   0  0  0  0  0  0  0  0  0  0  0  0
  1  2  2  0  0  0  0
  1  3  1  0  0  0  0
  1  7  1  0  0  0  0
  3  4  1  0  0  0  0
  3  5  1  0  0  0  0
  3  6  1  0  0  0  0
  7  8  1  0  0  0  0
  7 12  1  0  0  0  0
  8  9  1  0  0  0  0
  8 11  1  0  0  0  0
  8 13  1  0  0  0  0
  9 10  2  0  0  0  0
  9 17  1  0  0  0  0
 11 14  1  0  0  0  0
 11 15  1  0  0  0  0
 11 16  1  0  0  0  0
 17 18  1  0  0  0  0
 17 25  1  0  0  0  0
 18 19  1  0  0  0  0
 18 21  1  0  0  0  0
 18 26  1  0  0  0  0
 19 20  2  0  0  0  0
 19 36  1  0  0  0  0
 21 22  1  0  0  0  0
 21 23  1  0  0  0  0
 21 27  1  0  0  0  0
 22 24  1  0  0  0  0
 22 28  1  0  0  0  0
 22 29  1  0  0  0  0
 23 30  1  0  0  0  0
 23 31  1  0  0  0  0
 23 32  1  0  0  0  0
 24 33  1  0  0  0  0
 24 34  1  0  0  0  0
 24 35  1  0  0  0  0
 36 37  1  0  0  0  0
 36 41  1  0  0  0  0
 37 38  1  0  0  0  0
 37 40  1  0  0  0  0
 37 42  1  0  0  0  0
 38 39  2  0  0  0  0
 38 46  1  0  0  0  0
 40 43  1  0  0  0  0
 40 44  1  0  0  0  0
 40 45  1  0  0  0  0
 46 47  1  0  0  0  0
 46 48  1  0  0  0  0
 47 49  1  0  0  0  0
 47 50  1  0  0  0  0
 47 51  1  0  0  0  0
M  END
$$$$

  -OEChem-05262216503D

 51 50  0     1  0  0  0  0  0999 V2000
    0.2495   -4.3932   -0.1288 C   0  0  0  0  0  0  0  0  0  0  0  0
   -0.8153   -3.9406   -0.5250 O   0  0  0  0  0  0  0  0  0  0  0  0
    1.2582   -4.9491   -1.1156 C   0  0  0  0  0  0  0  0  0  0  0  0
    0.9391   -4.7382   -2.1403 H   0  0  0  0  0  0  0  0  0  0  0  0
    2.2358   -4.4902   -0.9516 H   0  0  0  0  0  0  0  0  0  0  0  0
    1.3459   -6.0309   -0.9884 H   0  0  0  0  0  0  0  0  0  0  0  0
    0.5525   -4.3421    1.2164 N   0  0  0  0  0  0  0  0  0  0  0  0
   -0.3167   -3.7274    2.2323 C   0  0  2  0  0  0  0  0  0  0  0  0
   -0.2765   -2.1825    2.1611 C   0  0  0  0  0  0  0  0  0  0  0  0
    0.2317   -1.5219    3.0542 O   0  0  0  0  0  0  0  0  0  0  0  0
    0.1134   -4.2756    3.5987 C   0  0  0  0  0  0  0  0  0  0  0  0
    1.4995   -4.5935    1.4869 H   0  0  0  0  0  0  0  0  0  0  0  0
   -1.3542   -4.0343    2.0630 H   0  0  0  0  0  0  0  0  0  0  0  0
    1.1490   -3.9961    3.8185 H   0  0  0  0  0  0  0  0  0  0  0  0
   -0.5275   -3.8696    4.3880 H   0  0  0  0  0  0  0  0  0  0  0  0
    0.0330   -5.3666    3.6156 H   0  0  0  0  0  0  0  0  0  0  0  0
   -0.8572   -1.5681    1.0649 N   0  0  0  0  0  0  0  0  0  0  0  0
   -0.3522   -0.3404    0.4143 C   0  0  2  0  0  0  0  0  0  0  0  0
    1.1873   -0.3804    0.1978 C   0  0  0  0  0  0  0  0  0  0  0  0
    2.0093   -0.1369    1.0712 O   0  0  0  0  0  0  0  0  0  0  0  0
   -0.8201    0.9230    1.1960 C   0  0  2  0  0  0  0  0  0  0  0  0
   -2.3667    1.0161    1.1678 C   0  0  0  0  0  0  0  0  0  0  0  0
   -0.2252    2.2097    0.5820 C   0  0  0  0  0  0  0  0  0  0  0  0
   -2.9228    2.0706    2.1301 C   0  0  0  0  0  0  0  0  0  0  0  0
   -1.2331   -2.2631    0.4140 H   0  0  0  0  0  0  0  0  0  0  0  0
   -0.8034   -0.2852   -0.5805 H   0  0  0  0  0  0  0  0  0  0  0  0
   -0.4790    0.8459    2.2342 H   0  0  0  0  0  0  0  0  0  0  0  0
   -2.7106    1.2316    0.1509 H   0  0  0  0  0  0  0  0  0  0  0  0
   -2.7958    0.0536    1.4616 H   0  0  0  0  0  0  0  0  0  0  0  0
   -0.5251    2.3112   -0.4657 H   0  0  0  0  0  0  0  0  0  0  0  0
   -0.5615    3.0950    1.1268 H   0  0  0  0  0  0  0  0  0  0  0  0
    0.8670    2.2063    0.6321 H   0  0  0  0  0  0  0  0  0  0  0  0
   -2.5228    1.9172    3.1372 H   0  0  0  0  0  0  0  0  0  0  0  0
   -4.0131    1.9924    2.1759 H   0  0  0  0  0  0  0  0  0  0  0  0
   -2.6709    3.0818    1.8002 H   0  0  0  0  0  0  0  0  0  0  0  0
    1.6685   -0.6055   -1.0797 N   0  0  0  0  0  0  0  0  0  0  0  0
    3.0657   -0.4081   -1.4883 C   0  0  2  0  0  0  0  0  0  0  0  0
    3.1589    0.0989   -2.9416 C   0  0  0  0  0  0  0  0  0  0  0  0
    2.1874    0.0135   -3.6854 O   0  0  0  0  0  0  0  0  0  0  0  0
    3.8098   -1.7369   -1.3316 C   0  0  0  0  0  0  0  0  0  0  0  0
    0.9825   -0.6674   -1.8316 H   0  0  0  0  0  0  0  0  0  0  0  0
    3.5368    0.3473   -0.8501 H   0  0  0  0  0  0  0  0  0  0  0  0
    3.3771   -2.4968   -1.9896 H   0  0  0  0  0  0  0  0  0  0  0  0
    4.8671   -1.6168   -1.5858 H   0  0  0  0  0  0  0  0  0  0  0  0
    3.7421   -2.0880   -0.2969 H   0  0  0  0  0  0  0  0  0  0  0  0
    4.3303    0.6607   -3.4144 N   0  0  0  0  0  0  0  0  0  0  0  0
    4.4714    1.2012   -4.7610 C   0  0  0  0  0  0  0  0  0  0  0  0
    5.1000    0.7644   -2.7593 H   0  0  0  0  0  0  0  0  0  0  0  0
    4.2364    0.4367   -5.5092 H   0  0  0  0  0  0  0  0  0  0  0  0
    3.7978    2.0527   -4.9043 H   0  0  0  0  0  0  0  0  0  0  0  0
    5.4988    1.5398   -4.9263 H   0  0  0  0  0  0  0  0  0  0  0  0
  1  2  2  0  0  0  0
  1  3  1  0  0  0  0
  1  7  1  0  0  0  0
  3  4  1  0  0  0  0
  3  5  1  0  0  0  0
  3  6  1  0  0  0  0
  7  8  1  0  0  0  0
  7 12  1  0  0  0  0
  8  9  1  0  0  0  0
  8 11  1  0  0  0  0
  8 13  1  0  0  0  0
  9 10  2  0  0  0  0
  9 17  1  0  0  0  0
 11 14  1  0  0  0  0
 11 15  1  0  0  0  0
 11 16  1  0  0  0  0
 17 18  1  0  0  0  0
 17 25  1  0  0  0  0
 18 19  1  0  0  0  0
 18 21  1  0  0  0  0
 18 26  1  0  0  0  0
 19 20  2  0  0  0  0
 19 36  1  0  0  0  0
 21 22  1  0  0  0  0
 21 23  1  0  0  0  0
 21 27  1  0  0  0  0
 22 24  1  0  0  0  0
 22 28  1  0  0  0  0
 22 29  1  0  0  0  0
 23 30  1  0  0  0  0
 23 31  1  0  0  0  0
 23 32  1  0  0  0  0
 24 33  1  0  0  0  0
 24 34  1  0  0  0  0
 24 35  1  0  0  0  0
 36 37  1  0  0  0  0
 36 41  1  0  0  0  0
 37 38  1  0  0  0  0
 37 40  1  0  0  0  0
 37 42  1  0  0  0  0
 38 39  2  0  0  0  0
 38 46  1  0  0  0  0
 40 43  1  0  0  0  0
 40 44  1  0  0  0  0
 40 45  1  0  0  0  0
 46 47  1  0  0  0  0
 46 48  1  0  0  0  0
 47 49  1  0  0  0  0
 47 50  1  0  0  0  0
 47 51  1  0  0  0  0
M  END
$$$$

  -OEChem-05262216503D

 51 50  0     1  0  0  0  0  0999 V2000
    0.7672   -4.2196    0.1739 C   0  0  0  0  0  0  0  0  0  0  0  0
   -0.3749   -4.0335   -0.2254 O   0  0  0  0  0  0  0  0  0  0  0  0
    1.8577   -4.6270   -0.7979 C   0  0  0  0  0  0  0  0  0  0  0  0
    1.4516   -4.7069   -1.8102 H   0  0  0  0  0  0  0  0  0  0  0  0
    2.6561   -3.8812   -0.7962 H   0  0  0  0  0  0  0  0  0  0  0  0
    2.2732   -5.5953   -0.5079 H   0  0  0  0  0  0  0  0  0  0  0  0
    1.0779   -3.9808    1.4967 N   0  0  0  0  0  0  0  0  0  0  0  0
    0.1305   -3.3995    2.4589 C   0  0  2  0  0  0  0  0  0  0  0  0
   -0.0900   -1.8943    2.1830 C   0  0  0  0  0  0  0  0  0  0  0  0
    0.3994   -1.0358    2.9037 O   0  0  0  0  0  0  0  0  0  0  0  0
    0.6705   -3.6733    3.8677 C   0  0  0  0  0  0  0  0  0  0  0  0
    2.0674   -3.9402    1.7286 H   0  0  0  0  0  0  0  0  0  0  0  0
   -0.8398   -3.8996    2.3712 H   0  0  0  0  0  0  0  0  0  0  0  0
    1.6490   -3.2013    4.0050 H   0  0  0  0  0  0  0  0  0  0  0  0
   -0.0153   -3.2701    4.6198 H   0  0  0  0  0  0  0  0  0  0  0  0
    0.7739   -4.7496    4.0352 H   0  0  0  0  0  0  0  0  0  0  0  0
   -0.8666   -1.5284    1.0964 N   0  0  0  0  0  0  0  0  0  0  0  0
   -0.4488   -0.5074    0.1110 C   0  0  2  0  0  0  0  0  0  0  0  0
    1.0253   -0.6705   -0.3564 C   0  0  0  0  0  0  0  0  0  0  0  0
    1.9961   -0.6465    0.3903 O   0  0  0  0  0  0  0  0  0  0  0  0
   -0.7333    0.9283    0.6435 C   0  0  2  0  0  0  0  0  0  0  0  0
   -2.2574    1.1182    0.8453 C   0  0  0  0  0  0  0  0  0  0  0  0
   -0.1996    2.0034   -0.3281 C   0  0  0  0  0  0  0  0  0  0  0  0
   -2.6087    2.3960    1.6135 C   0  0  0  0  0  0  0  0  0  0  0  0
   -1.2415   -2.3676    0.6483 H   0  0  0  0  0  0  0  0  0  0  0  0
   -1.0712   -0.6488   -0.7768 H   0  0  0  0  0  0  0  0  0  0  0  0
   -0.2255    1.0596    1.6047 H   0  0  0  0  0  0  0  0  0  0  0  0
   -2.7651    1.1241   -0.1246 H   0  0  0  0  0  0  0  0  0  0  0  0
   -2.6571    0.2768    1.4195 H   0  0  0  0  0  0  0  0  0  0  0  0
   -0.6510    1.8875   -1.3182 H   0  0  0  0  0  0  0  0  0  0  0  0
   -0.4222    3.0084    0.0384 H   0  0  0  0  0  0  0  0  0  0  0  0
    0.8874    1.9397   -0.4290 H   0  0  0  0  0  0  0  0  0  0  0  0
   -2.0490    2.4430    2.5528 H   0  0  0  0  0  0  0  0  0  0  0  0
   -3.6774    2.4056    1.8479 H   0  0  0  0  0  0  0  0  0  0  0  0
   -2.3850    3.2886    1.0235 H   0  0  0  0  0  0  0  0  0  0  0  0
    1.2771   -0.8811   -1.7014 N   0  0  0  0  0  0  0  0  0  0  0  0
    2.6224   -0.9915   -2.2868 C   0  0  2  0  0  0  0  0  0  0  0  0
    3.3298    0.3807   -2.4057 C   0  0  0  0  0  0  0  0  0  0  0  0
    3.6356    0.8550   -3.4929 O   0  0  0  0  0  0  0  0  0  0  0  0
    2.4746   -1.7076   -3.6347 C   0  0  0  0  0  0  0  0  0  0  0  0
    0.4822   -0.8426   -2.3331 H   0  0  0  0  0  0  0  0  0  0  0  0
    3.2505   -1.6176   -1.6451 H   0  0  0  0  0  0  0  0  0  0  0  0
    1.8621   -1.1144   -4.3217 H   0  0  0  0  0  0  0  0  0  0  0  0
    3.4575   -1.8600   -4.0921 H   0  0  0  0  0  0  0  0  0  0  0  0
    2.0024   -2.6850   -3.4986 H   0  0  0  0  0  0  0  0  0  0  0  0
    3.6145    1.0906   -1.2564 N   0  0  0  0  0  0  0  0  0  0  0  0
    4.2264    2.4115   -1.2419 C   0  0  0  0  0  0  0  0  0  0  0  0
    3.2790    0.6826   -0.3786 H   0  0  0  0  0  0  0  0  0  0  0  0
    5.2113    2.3820   -1.7194 H   0  0  0  0  0  0  0  0  0  0  0  0
    3.5964    3.1319   -1.7737 H   0  0  0  0  0  0  0  0  0  0  0  0
    4.3526    2.7562   -0.2110 H   0  0  0  0  0  0  0  0  0  0  0  0
  1  2  2  0  0  0  0
  1  3  1  0  0  0  0
  1  7  1  0  0  0  0
  3  4  1  0  0  0  0
  3  5  1  0  0  0  0
  3  6  1  0  0  0  0
  7  8  1  0  0  0  0
  7 12  1  0  0  0  0
  8  9  1  0  0  0  0
  8 11  1  0  0  0  0
  8 13  1  0  0  0  0
  9 10  2  0  0  0  0
  9 17  1  0  0  0  0
 11 14  1  0  0  0  0
 11 15  1  0  0  0  0
 11 16  1  0  0  0  0
 17 18  1  0  0  0  0
 17 25  1  0  0  0  0
 18 19  1  0  0  0  0
 18 21  1  0  0  0  0
 18 26  1  0  0  0  0
 19 20  2  0  0  0  0
 19 36  1  0  0  0  0
 21 22  1  0  0  0  0
 21 23  1  0  0  0  0
 21 27  1  0  0  0  0
 22 24  1  0  0  0  0
 22 28  1  0  0  0  0
 22 29  1  0  0  0  0
 23 30  1  0  0  0  0
 23 31  1  0  0  0  0
 23 32  1  0  0  0  0
 24 33  1  0  0  0  0
 24 34  1  0  0  0  0
 24 35  1  0  0  0  0
 36 37  1  0  0  0  0
 36 41  1  0  0  0  0
 37 38  1  0  0  0  0
 37 40  1  0  0  0  0
 37 42  1  0  0  0  0
 38 39  2  0  0  0  0
 38 46  1  0  0  0  0
 40 43  1  0  0  0  0
 40 44  1  0  0  0  0
 40 45  1  0  0  0  0
 46 47  1  0  0  0  0
 46 48  1  0  0  0  0
 47 49  1  0  0  0  0
 47 50  1  0  0  0  0
 47 51  1  0  0  0  0
M  END
$$$$

  -OEChem-05262216503D

 51 50  0     1  0  0  0  0  0999 V2000
    1.4923   -5.3480    0.9698 C   0  0  0  0  0  0  0  0  0  0  0  0
    0.9818   -5.7345   -0.0709 O   0  0  0  0  0  0  0  0  0  0  0  0
    2.9134   -5.7532    1.3131 C   0  0  0  0  0  0  0  0  0  0  0  0
    3.3025   -6.4415    0.5578 H   0  0  0  0  0  0  0  0  0  0  0  0
    3.5538   -4.8683    1.3480 H   0  0  0  0  0  0  0  0  0  0  0  0
    2.9356   -6.2492    2.2864 H   0  0  0  0  0  0  0  0  0  0  0  0
    0.7866   -4.5431    1.8391 N   0  0  0  0  0  0  0  0  0  0  0  0
   -0.4524   -3.8450    1.4751 C   0  0  2  0  0  0  0  0  0  0  0  0
   -0.2598   -2.3215    1.5975 C   0  0  0  0  0  0  0  0  0  0  0  0
    0.4078   -1.8784    2.5245 O   0  0  0  0  0  0  0  0  0  0  0  0
   -1.5652   -4.3321    2.4044 C   0  0  0  0  0  0  0  0  0  0  0  0
    1.3368   -4.1022    2.5759 H   0  0  0  0  0  0  0  0  0  0  0  0
   -0.7342   -4.0651    0.4406 H   0  0  0  0  0  0  0  0  0  0  0  0
   -1.3156   -4.1139    3.4478 H   0  0  0  0  0  0  0  0  0  0  0  0
   -2.5102   -3.8373    2.1615 H   0  0  0  0  0  0  0  0  0  0  0  0
   -1.7007   -5.4128    2.2963 H   0  0  0  0  0  0  0  0  0  0  0  0
   -0.9346   -1.4607    0.7457 N   0  0  0  0  0  0  0  0  0  0  0  0
   -0.3879   -0.1729    0.2524 C   0  0  2  0  0  0  0  0  0  0  0  0
    1.0878   -0.2255   -0.2495 C   0  0  0  0  0  0  0  0  0  0  0  0
    1.9663   -0.9154    0.2495 O   0  0  0  0  0  0  0  0  0  0  0  0
   -0.5912    0.9354    1.3315 C   0  0  2  0  0  0  0  0  0  0  0  0
   -2.1052    1.1593    1.5783 C   0  0  0  0  0  0  0  0  0  0  0  0
    0.0675    2.2686    0.9141 C   0  0  0  0  0  0  0  0  0  0  0  0
   -2.3967    2.0315    2.8039 C   0  0  0  0  0  0  0  0  0  0  0  0
   -1.5248   -1.9524    0.0822 H   0  0  0  0  0  0  0  0  0  0  0  0
   -0.9860    0.1113   -0.6184 H   0  0  0  0  0  0  0  0  0  0  0  0
   -0.1229    0.6089    2.2659 H   0  0  0  0  0  0  0  0  0  0  0  0
   -2.5642    1.6108    0.6927 H   0  0  0  0  0  0  0  0  0  0  0  0
   -2.5953    0.1958    1.7464 H   0  0  0  0  0  0  0  0  0  0  0  0
   -0.3337    2.6157   -0.0433 H   0  0  0  0  0  0  0  0  0  0  0  0
   -0.1060    3.0446    1.6634 H   0  0  0  0  0  0  0  0  0  0  0  0
    1.1522    2.1597    0.8218 H   0  0  0  0  0  0  0  0  0  0  0  0
   -1.8748    1.6419    3.6835 H   0  0  0  0  0  0  0  0  0  0  0  0
   -3.4709    2.0313    3.0115 H   0  0  0  0  0  0  0  0  0  0  0  0
   -2.0864    3.0664    2.6382 H   0  0  0  0  0  0  0  0  0  0  0  0
    1.3933    0.4100   -1.4401 N   0  0  0  0  0  0  0  0  0  0  0  0
    2.7481    0.5321   -1.9942 C   0  0  2  0  0  0  0  0  0  0  0  0
    2.9361    1.8893   -2.7036 C   0  0  0  0  0  0  0  0  0  0  0  0
    1.9652    2.6088   -2.9173 O   0  0  0  0  0  0  0  0  0  0  0  0
    2.9788   -0.6287   -2.9665 C   0  0  0  0  0  0  0  0  0  0  0  0
    0.7092    1.0772   -1.7952 H   0  0  0  0  0  0  0  0  0  0  0  0
    3.4880    0.4811   -1.1882 H   0  0  0  0  0  0  0  0  0  0  0  0
    2.2578   -0.5880   -3.7892 H   0  0  0  0  0  0  0  0  0  0  0  0
    3.9890   -0.5865   -3.3842 H   0  0  0  0  0  0  0  0  0  0  0  0
    2.8616   -1.5857   -2.4475 H   0  0  0  0  0  0  0  0  0  0  0  0
    4.1940    2.3156   -3.0876 N   0  0  0  0  0  0  0  0  0  0  0  0
    4.4399    3.5922   -3.7478 C   0  0  0  0  0  0  0  0  0  0  0  0
    4.9814    1.7072   -2.8820 H   0  0  0  0  0  0  0  0  0  0  0  0
    3.9147    3.6344   -4.7078 H   0  0  0  0  0  0  0  0  0  0  0  0
    4.0948    4.4213   -3.1208 H   0  0  0  0  0  0  0  0  0  0  0  0
    5.5106    3.7223   -3.9335 H   0  0  0  0  0  0  0  0  0  0  0  0
  1  2  2  0  0  0  0
  1  3  1  0  0  0  0
  1  7  1  0  0  0  0
  3  4  1  0  0  0  0
  3  5  1  0  0  0  0
  3  6  1  0  0  0  0
  7  8  1  0  0  0  0
  7 12  1  0  0  0  0
  8  9  1  0  0  0  0
  8 11  1  0  0  0  0
  8 13  1  0  0  0  0
  9 10  2  0  0  0  0
  9 17  1  0  0  0  0
 11 14  1  0  0  0  0
 11 15  1  0  0  0  0
 11 16  1  0  0  0  0
 17 18  1  0  0  0  0
 17 25  1  0  0  0  0
 18 19  1  0  0  0  0
 18 21  1  0  0  0  0
 18 26  1  0  0  0  0
 19 20  2  0  0  0  0
 19 36  1  0  0  0  0
 21 22  1  0  0  0  0
 21 23  1  0  0  0  0
 21 27  1  0  0  0  0
 22 24  1  0  0  0  0
 22 28  1  0  0  0  0
 22 29  1  0  0  0  0
 23 30  1  0  0  0  0
 23 31  1  0  0  0  0
 23 32  1  0  0  0  0
 24 33  1  0  0  0  0
 24 34  1  0  0  0  0
 24 35  1  0  0  0  0
 36 37  1  0  0  0  0
 36 41  1  0  0  0  0
 37 38  1  0  0  0  0
 37 40  1  0  0  0  0
 37 42  1  0  0  0  0
 38 39  2  0  0  0  0
 38 46  1  0  0  0  0
 40 43  1  0  0  0  0
 40 44  1  0  0  0  0
 40 45  1  0  0  0  0
 46 47  1  0  0  0  0
 46 48  1  0  0  0  0
 47 49  1  0  0  0  0
 47 50  1  0  0  0  0
 47 51  1  0  0  0  0
M  END
$$$$

  -OEChem-05262216503D

 51 50  0     1  0  0  0  0  0999 V2000
    1.4485   -5.5206    1.1074 C   0  0  0  0  0  0  0  0  0  0  0  0
    0.8181   -6.0702    0.2167 O   0  0  0  0  0  0  0  0  0  0  0  0
    2.8713   -5.9513    1.4097 C   0  0  0  0  0  0  0  0  0  0  0  0
    3.1568   -6.7913    0.7701 H   0  0  0  0  0  0  0  0  0  0  0  0
    3.5566   -5.1197    1.2269 H   0  0  0  0  0  0  0  0  0  0  0  0
    2.9538   -6.2597    2.4548 H   0  0  0  0  0  0  0  0  0  0  0  0
    0.8785   -4.5006    1.8385 N   0  0  0  0  0  0  0  0  0  0  0  0
   -0.3512   -3.8031    1.4462 C   0  0  2  0  0  0  0  0  0  0  0  0
   -0.1565   -2.2772    1.5408 C   0  0  0  0  0  0  0  0  0  0  0  0
    0.5754   -1.8175    2.4111 O   0  0  0  0  0  0  0  0  0  0  0  0
   -1.4845   -4.2685    2.3626 C   0  0  0  0  0  0  0  0  0  0  0  0
    1.5065   -3.9774    2.4486 H   0  0  0  0  0  0  0  0  0  0  0  0
   -0.6076   -4.0398    0.4084 H   0  0  0  0  0  0  0  0  0  0  0  0
   -1.2550   -4.0308    3.4064 H   0  0  0  0  0  0  0  0  0  0  0  0
   -2.4234   -3.7768    2.0915 H   0  0  0  0  0  0  0  0  0  0  0  0
   -1.6210   -5.3507    2.2723 H   0  0  0  0  0  0  0  0  0  0  0  0
   -0.8706   -1.4296    0.7070 N   0  0  0  0  0  0  0  0  0  0  0  0
   -0.3721   -0.1172    0.2271 C   0  0  2  0  0  0  0  0  0  0  0  0
    1.1017   -0.1132   -0.2891 C   0  0  0  0  0  0  0  0  0  0  0  0
    1.8872   -1.0361   -0.1106 O   0  0  0  0  0  0  0  0  0  0  0  0
   -0.6323    0.9551    1.3355 C   0  0  2  0  0  0  0  0  0  0  0  0
   -2.1583    1.1015    1.5746 C   0  0  0  0  0  0  0  0  0  0  0  0
   -0.0321    2.3326    0.9812 C   0  0  0  0  0  0  0  0  0  0  0  0
   -2.5047    1.9261    2.8189 C   0  0  0  0  0  0  0  0  0  0  0  0
   -1.4646   -1.9289    0.0527 H   0  0  0  0  0  0  0  0  0  0  0  0
   -0.9793    0.1591   -0.6397 H   0  0  0  0  0  0  0  0  0  0  0  0
   -0.1606    0.6205    2.2653 H   0  0  0  0  0  0  0  0  0  0  0  0
   -2.6288    1.5560    0.6967 H   0  0  0  0  0  0  0  0  0  0  0  0
   -2.6069    0.1134    1.7117 H   0  0  0  0  0  0  0  0  0  0  0  0
   -0.4310    2.6964    0.0291 H   0  0  0  0  0  0  0  0  0  0  0  0
   -0.2577    3.0713    1.7540 H   0  0  0  0  0  0  0  0  0  0  0  0
    1.0582    2.2793    0.9123 H   0  0  0  0  0  0  0  0  0  0  0  0
   -1.9740    1.5385    3.6942 H   0  0  0  0  0  0  0  0  0  0  0  0
   -3.5800    1.8682    3.0135 H   0  0  0  0  0  0  0  0  0  0  0  0
   -2.2444    2.9792    2.6848 H   0  0  0  0  0  0  0  0  0  0  0  0
    1.4469    0.7906   -1.2788 N   0  0  0  0  0  0  0  0  0  0  0  0
    2.7943    0.9287   -1.8472 C   0  0  2  0  0  0  0  0  0  0  0  0
    3.1154    2.4071   -2.1511 C   0  0  0  0  0  0  0  0  0  0  0  0
    2.2251    3.2503   -2.0995 O   0  0  0  0  0  0  0  0  0  0  0  0
    2.8728    0.0802   -3.1200 C   0  0  0  0  0  0  0  0  0  0  0  0
    0.8387    1.6018   -1.3874 H   0  0  0  0  0  0  0  0  0  0  0  0
    3.5411    0.5732   -1.1290 H   0  0  0  0  0  0  0  0  0  0  0  0
    2.1419    0.4272   -3.8571 H   0  0  0  0  0  0  0  0  0  0  0  0
    3.8713    0.1413   -3.5625 H   0  0  0  0  0  0  0  0  0  0  0  0
    2.6632   -0.9690   -2.8885 H   0  0  0  0  0  0  0  0  0  0  0  0
    4.4028    2.7986   -2.4690 N   0  0  0  0  0  0  0  0  0  0  0  0
    4.7704    4.1794   -2.7594 C   0  0  0  0  0  0  0  0  0  0  0  0
    5.1235    2.0825   -2.4843 H   0  0  0  0  0  0  0  0  0  0  0  0
    4.2205    4.5466   -3.6324 H   0  0  0  0  0  0  0  0  0  0  0  0
    4.5449    4.8253   -1.9041 H   0  0  0  0  0  0  0  0  0  0  0  0
    5.8417    4.2492   -2.9717 H   0  0  0  0  0  0  0  0  0  0  0  0
  1  2  2  0  0  0  0
  1  3  1  0  0  0  0
  1  7  1  0  0  0  0
  3  4  1  0  0  0  0
  3  5  1  0  0  0  0
  3  6  1  0  0  0  0
  7  8  1  0  0  0  0
  7 12  1  0  0  0  0
  8  9  1  0  0  0  0
  8 11  1  0  0  0  0
  8 13  1  0  0  0  0
  9 10  2  0  0  0  0
  9 17  1  0  0  0  0
 11 14  1  0  0  0  0
 11 15  1  0  0  0  0
 11 16  1  0  0  0  0
 17 18  1  0  0  0  0
 17 25  1  0  0  0  0
 18 19  1  0  0  0  0
 18 21  1  0  0  0  0
 18 26  1  0  0  0  0
 19 20  2  0  0  0  0
 19 36  1  0  0  0  0
 21 22  1  0  0  0  0
 21 23  1  0  0  0  0
 21 27  1  0  0  0  0
 22 24  1  0  0  0  0
 22 28  1  0  0  0  0
 22 29  1  0  0  0  0
 23 30  1  0  0  0  0
 23 31  1  0  0  0  0
 23 32  1  0  0  0  0
 24 33  1  0  0  0  0
 24 34  1  0  0  0  0
 24 35  1  0  0  0  0
 36 37  1  0  0  0  0
 36 41  1  0  0  0  0
 37 38  1  0  0  0  0
 37 40  1  0  0  0  0
 37 42  1  0  0  0  0
 38 39  2  0  0  0  0
 38 46  1  0  0  0  0
 40 43  1  0  0  0  0
 40 44  1  0  0  0  0
 40 45  1  0  0  0  0
 46 47  1  0  0  0  0
 46 48  1  0  0  0  0
 47 49  1  0  0  0  0
 47 50  1  0  0  0  0
 47 51  1  0  0  0  0
M  END
$$$$

  -OEChem-05262216503D

 51 50  0     1  0  0  0  0  0999 V2000
    1.4069   -5.6638    1.2843 C   0  0  0  0  0  0  0  0  0  0  0  0
    0.6943   -6.2863    0.5116 O   0  0  0  0  0  0  0  0  0  0  0  0
    2.7769   -6.2002    1.6536 C   0  0  0  0  0  0  0  0  0  0  0  0
    2.9546   -7.1559    1.1527 H   0  0  0  0  0  0  0  0  0  0  0  0
    3.5493   -5.4914    1.3453 H   0  0  0  0  0  0  0  0  0  0  0  0
    2.8405   -6.3507    2.7339 H   0  0  0  0  0  0  0  0  0  0  0  0
    0.9728   -4.4688    1.8167 N   0  0  0  0  0  0  0  0  0  0  0  0
   -0.2220   -3.7513    1.3568 C   0  0  2  0  0  0  0  0  0  0  0  0
   -0.0134   -2.2252    1.4183 C   0  0  0  0  0  0  0  0  0  0  0  0
    0.7996   -1.7556    2.2089 O   0  0  0  0  0  0  0  0  0  0  0  0
   -1.4101   -4.1684    2.2276 C   0  0  0  0  0  0  0  0  0  0  0  0
    1.6533   -3.9191    2.3412 H   0  0  0  0  0  0  0  0  0  0  0  0
   -0.4281   -4.0099    0.3128 H   0  0  0  0  0  0  0  0  0  0  0  0
   -1.2277   -3.9055    3.2745 H   0  0  0  0  0  0  0  0  0  0  0  0
   -2.3237   -3.6659    1.8965 H   0  0  0  0  0  0  0  0  0  0  0  0
   -1.5661   -5.2498    2.1608 H   0  0  0  0  0  0  0  0  0  0  0  0
   -0.7937   -1.3871    0.6346 N   0  0  0  0  0  0  0  0  0  0  0  0
   -0.3666   -0.0412    0.1800 C   0  0  2  0  0  0  0  0  0  0  0  0
    1.0921    0.0135   -0.3783 C   0  0  0  0  0  0  0  0  0  0  0  0
    1.7750   -0.9956   -0.5188 O   0  0  0  0  0  0  0  0  0  0  0  0
   -0.6653    0.9710    1.3400 C   0  0  2  0  0  0  0  0  0  0  0  0
   -2.1955    1.0209    1.6026 C   0  0  0  0  0  0  0  0  0  0  0  0
   -0.1431    2.3968    1.0664 C   0  0  0  0  0  0  0  0  0  0  0  0
   -2.5784    1.7701    2.8836 C   0  0  0  0  0  0  0  0  0  0  0  0
   -1.4104   -1.8877    0.0027 H   0  0  0  0  0  0  0  0  0  0  0  0
   -1.0003    0.2385   -0.6667 H   0  0  0  0  0  0  0  0  0  0  0  0
   -0.1680    0.6148    2.2481 H   0  0  0  0  0  0  0  0  0  0  0  0
   -2.7008    1.4833    0.7486 H   0  0  0  0  0  0  0  0  0  0  0  0
   -2.5880    0.0051    1.7032 H   0  0  0  0  0  0  0  0  0  0  0  0
   -0.5383    2.7811    0.1208 H   0  0  0  0  0  0  0  0  0  0  0  0
   -0.4320    3.0848    1.8639 H   0  0  0  0  0  0  0  0  0  0  0  0
    0.9499    2.4105    1.0338 H   0  0  0  0  0  0  0  0  0  0  0  0
   -2.0086    1.3880    3.7363 H   0  0  0  0  0  0  0  0  0  0  0  0
   -3.6439    1.6290    3.0887 H   0  0  0  0  0  0  0  0  0  0  0  0
   -2.3963    2.8436    2.7881 H   0  0  0  0  0  0  0  0  0  0  0  0
    1.5011    1.1139   -1.1104 N   0  0  0  0  0  0  0  0  0  0  0  0
    2.8489    1.2885   -1.6664 C   0  0  2  0  0  0  0  0  0  0  0  0
    3.3058    2.7573   -1.5484 C   0  0  0  0  0  0  0  0  0  0  0  0
    2.4952    3.6304   -1.2533 O   0  0  0  0  0  0  0  0  0  0  0  0
    2.8311    0.8392   -3.1303 C   0  0  0  0  0  0  0  0  0  0  0  0
    0.9715    1.9732   -0.9667 H   0  0  0  0  0  0  0  0  0  0  0  0
    3.5665    0.6772   -1.1084 H   0  0  0  0  0  0  0  0  0  0  0  0
    2.1235    1.4428   -3.7074 H   0  0  0  0  0  0  0  0  0  0  0  0
    3.8244    0.9419   -3.5772 H   0  0  0  0  0  0  0  0  0  0  0  0
    2.5298   -0.2110   -3.1989 H   0  0  0  0  0  0  0  0  0  0  0  0
    4.6286    3.1009   -1.7573 N   0  0  0  0  0  0  0  0  0  0  0  0
    5.1302    4.4643   -1.6347 C   0  0  0  0  0  0  0  0  0  0  0  0
    5.2829    2.3523   -1.9668 H   0  0  0  0  0  0  0  0  0  0  0  0
    4.6036    5.1304   -2.3264 H   0  0  0  0  0  0  0  0  0  0  0  0
    4.9893    4.8337   -0.6132 H   0  0  0  0  0  0  0  0  0  0  0  0
    6.1983    4.4971   -1.8712 H   0  0  0  0  0  0  0  0  0  0  0  0
  1  2  2  0  0  0  0
  1  3  1  0  0  0  0
  1  7  1  0  0  0  0
  3  4  1  0  0  0  0
  3  5  1  0  0  0  0
  3  6  1  0  0  0  0
  7  8  1  0  0  0  0
  7 12  1  0  0  0  0
  8  9  1  0  0  0  0
  8 11  1  0  0  0  0
  8 13  1  0  0  0  0
  9 10  2  0  0  0  0
  9 17  1  0  0  0  0
 11 14  1  0  0  0  0
 11 15  1  0  0  0  0
 11 16  1  0  0  0  0
 17 18  1  0  0  0  0
 17 25  1  0  0  0  0
 18 19  1  0  0  0  0
 18 21  1  0  0  0  0
 18 26  1  0  0  0  0
 19 20  2  0  0  0  0
 19 36  1  0  0  0  0
 21 22  1  0  0  0  0
 21 23  1  0  0  0  0
 21 27  1  0  0  0  0
 22 24  1  0  0  0  0
 22 28  1  0  0  0  0
 22 29  1  0  0  0  0
 23 30  1  0  0  0  0
 23 31  1  0  0  0  0
 23 32  1  0  0  0  0
 24 33  1  0  0  0  0
 24 34  1  0  0  0  0
 24 35  1  0  0  0  0
 36 37  1  0  0  0  0
 36 41  1  0  0  0  0
 37 38  1  0  0  0  0
 37 40  1  0  0  0  0
 37 42  1  0  0  0  0
 38 39  2  0  0  0  0
 38 46  1  0  0  0  0
 40 43  1  0  0  0  0
 40 44  1  0  0  0  0
 40 45  1  0  0  0  0
 46 47  1  0  0  0  0
 46 48  1  0  0  0  0
 47 49  1  0  0  0  0
 47 50  1  0  0  0  0
 47 51  1  0  0  0  0
M  END
$$$$

  -OEChem-05262216503D

 51 50  0     1  0  0  0  0  0999 V2000
    1.4169   -5.7637    1.2553 C   0  0  0  0  0  0  0  0  0  0  0  0
    0.6108   -6.4081    0.6021 O   0  0  0  0  0  0  0  0  0  0  0  0
    2.7519   -6.3751    1.6353 C   0  0  0  0  0  0  0  0  0  0  0  0
    2.8208   -7.3983    1.2554 H   0  0  0  0  0  0  0  0  0  0  0  0
    3.5667   -5.7850    1.2086 H   0  0  0  0  0  0  0  0  0  0  0  0
    2.8554   -6.3949    2.7229 H   0  0  0  0  0  0  0  0  0  0  0  0
    1.1188   -4.4774    1.6499 N   0  0  0  0  0  0  0  0  0  0  0  0
   -0.0575   -3.7244    1.1991 C   0  0  2  0  0  0  0  0  0  0  0  0
    0.2098   -2.2050    1.1985 C   0  0  0  0  0  0  0  0  0  0  0  0
    1.1847   -1.7627    1.7986 O   0  0  0  0  0  0  0  0  0  0  0  0
   -1.2354   -4.0591    2.1199 C   0  0  0  0  0  0  0  0  0  0  0  0
    1.8647   -3.9347    2.0850 H   0  0  0  0  0  0  0  0  0  0  0  0
   -0.3041   -4.0127    0.1715 H   0  0  0  0  0  0  0  0  0  0  0  0
   -1.0039   -3.7767    3.1518 H   0  0  0  0  0  0  0  0  0  0  0  0
   -2.1357   -3.5236    1.8046 H   0  0  0  0  0  0  0  0  0  0  0  0
   -1.4467   -5.1327    2.0910 H   0  0  0  0  0  0  0  0  0  0  0  0
   -0.6642   -1.3585    0.5315 N   0  0  0  0  0  0  0  0  0  0  0  0
   -0.3910    0.0632    0.2161 C   0  0  2  0  0  0  0  0  0  0  0  0
    0.8750    0.1979   -0.6890 C   0  0  0  0  0  0  0  0  0  0  0  0
    1.3487   -0.7858   -1.2500 O   0  0  0  0  0  0  0  0  0  0  0  0
   -0.4276    0.9015    1.5453 C   0  0  2  0  0  0  0  0  0  0  0  0
   -1.8567    0.8234    2.1501 C   0  0  0  0  0  0  0  0  0  0  0  0
   -0.0345    2.3802    1.3514 C   0  0  0  0  0  0  0  0  0  0  0  0
   -1.9569    1.3738    3.5775 C   0  0  0  0  0  0  0  0  0  0  0  0
   -1.3425   -1.8339   -0.0555 H   0  0  0  0  0  0  0  0  0  0  0  0
   -1.2122    0.4300   -0.4061 H   0  0  0  0  0  0  0  0  0  0  0  0
    0.2777    0.4770    2.2649 H   0  0  0  0  0  0  0  0  0  0  0  0
   -2.5609    1.3601    1.5062 H   0  0  0  0  0  0  0  0  0  0  0  0
   -2.1826   -0.2197    2.1919 H   0  0  0  0  0  0  0  0  0  0  0  0
   -0.5873    2.8241    0.5174 H   0  0  0  0  0  0  0  0  0  0  0  0
   -0.2361    2.9713    2.2469 H   0  0  0  0  0  0  0  0  0  0  0  0
    1.0392    2.4697    1.1662 H   0  0  0  0  0  0  0  0  0  0  0  0
   -1.1807    0.9342    4.2116 H   0  0  0  0  0  0  0  0  0  0  0  0
   -2.9333    1.1216    4.0026 H   0  0  0  0  0  0  0  0  0  0  0  0
   -1.8559    2.4618    3.5968 H   0  0  0  0  0  0  0  0  0  0  0  0
    1.3375    1.4265   -1.1221 N   0  0  0  0  0  0  0  0  0  0  0  0
    2.5537    1.6313   -1.9183 C   0  0  2  0  0  0  0  0  0  0  0  0
    3.2185    2.9804   -1.5724 C   0  0  0  0  0  0  0  0  0  0  0  0
    2.6063    3.8164   -0.9147 O   0  0  0  0  0  0  0  0  0  0  0  0
    2.1847    1.5783   -3.4044 C   0  0  0  0  0  0  0  0  0  0  0  0
    0.9842    2.2480   -0.6334 H   0  0  0  0  0  0  0  0  0  0  0  0
    3.2780    0.8402   -1.6956 H   0  0  0  0  0  0  0  0  0  0  0  0
    1.4639    2.3654   -3.6477 H   0  0  0  0  0  0  0  0  0  0  0  0
    3.0743    1.7146   -4.0265 H   0  0  0  0  0  0  0  0  0  0  0  0
    1.7389    0.6095   -3.6511 H   0  0  0  0  0  0  0  0  0  0  0  0
    4.5068    3.2583   -1.9906 N   0  0  0  0  0  0  0  0  0  0  0  0
    5.1953    4.5071   -1.6872 C   0  0  0  0  0  0  0  0  0  0  0  0
    4.9982    2.5388   -2.5132 H   0  0  0  0  0  0  0  0  0  0  0  0
    4.6417    5.3591   -2.0957 H   0  0  0  0  0  0  0  0  0  0  0  0
    5.2939    4.6371   -0.6044 H   0  0  0  0  0  0  0  0  0  0  0  0
    6.1969    4.5036   -2.1278 H   0  0  0  0  0  0  0  0  0  0  0  0
  1  2  2  0  0  0  0
  1  3  1  0  0  0  0
  1  7  1  0  0  0  0
  3  4  1  0  0  0  0
  3  5  1  0  0  0  0
  3  6  1  0  0  0  0
  7  8  1  0  0  0  0
  7 12  1  0  0  0  0
  8  9  1  0  0  0  0
  8 11  1  0  0  0  0
  8 13  1  0  0  0  0
  9 10  2  0  0  0  0
  9 17  1  0  0  0  0
 11 14  1  0  0  0  0
 11 15  1  0  0  0  0
 11 16  1  0  0  0  0
 17 18  1  0  0  0  0
 17 25  1  0  0  0  0
 18 19  1  0  0  0  0
 18 21  1  0  0  0  0
 18 26  1  0  0  0  0
 19 20  2  0  0  0  0
 19 36  1  0  0  0  0
 21 22  1  0  0  0  0
 21 23  1  0  0  0  0
 21 27  1  0  0  0  0
 22 24  1  0  0  0  0
 22 28  1  0  0  0  0
 22 29  1  0  0  0  0
 23 30  1  0  0  0  0
 23 31  1  0  0  0  0
 23 32  1  0  0  0  0
 24 33  1  0  0  0  0
 24 34  1  0  0  0  0
 24 35  1  0  0  0  0
 36 37  1  0  0  0  0
 36 41  1  0  0  0  0
 37 38  1  0  0  0  0
 37 40  1  0  0  0  0
 37 42  1  0  0  0  0
 38 39  2  0  0  0  0
 38 46  1  0  0  0  0
 40 43  1  0  0  0  0
 40 44  1  0  0  0  0
 40 45  1  0  0  0  0
 46 47  1  0  0  0  0
 46 48  1  0  0  0  0
 47 49  1  0  0  0  0
 47 50  1  0  0  0  0
 47 51  1  0  0  0  0
M  END
$$$$

  -OEChem-05262216503D

 51 50  0     1  0  0  0  0  0999 V2000
    1.4611   -5.7090    1.2054 C   0  0  0  0  0  0  0  0  0  0  0  0
    0.6677   -6.3464    0.5304 O   0  0  0  0  0  0  0  0  0  0  0  0
    2.7882   -6.3272    1.6034 C   0  0  0  0  0  0  0  0  0  0  0  0
    2.8635   -7.3449    1.2102 H   0  0  0  0  0  0  0  0  0  0  0  0
    3.6124   -5.7330    1.2015 H   0  0  0  0  0  0  0  0  0  0  0  0
    2.8709   -6.3634    2.6923 H   0  0  0  0  0  0  0  0  0  0  0  0
    1.1529   -4.4277    1.6098 N   0  0  0  0  0  0  0  0  0  0  0  0
   -0.0241   -3.6764    1.1565 C   0  0  2  0  0  0  0  0  0  0  0  0
    0.2287   -2.1538    1.1740 C   0  0  0  0  0  0  0  0  0  0  0  0
    1.2034   -1.7075    1.7714 O   0  0  0  0  0  0  0  0  0  0  0  0
   -1.2089   -4.0299    2.0619 C   0  0  0  0  0  0  0  0  0  0  0  0
    1.8888   -3.8882    2.0647 H   0  0  0  0  0  0  0  0  0  0  0  0
   -0.2587   -3.9562    0.1239 H   0  0  0  0  0  0  0  0  0  0  0  0
   -0.9914   -3.7561    3.0993 H   0  0  0  0  0  0  0  0  0  0  0  0
   -2.1100   -3.4982    1.7420 H   0  0  0  0  0  0  0  0  0  0  0  0
   -1.4118   -5.1048    2.0208 H   0  0  0  0  0  0  0  0  0  0  0  0
   -0.6532   -1.3047    0.5215 N   0  0  0  0  0  0  0  0  0  0  0  0
   -0.4052    0.1327    0.2614 C   0  0  2  0  0  0  0  0  0  0  0  0
    0.8779    0.2955   -0.6158 C   0  0  0  0  0  0  0  0  0  0  0  0
    1.2189   -0.6205   -1.3591 O   0  0  0  0  0  0  0  0  0  0  0  0
   -0.5000    0.9244    1.6173 C   0  0  2  0  0  0  0  0  0  0  0  0
   -1.9456    0.7879    2.1721 C   0  0  0  0  0  0  0  0  0  0  0  0
   -0.1554    2.4227    1.4783 C   0  0  0  0  0  0  0  0  0  0  0  0
   -2.1107    1.2832    3.6144 C   0  0  0  0  0  0  0  0  0  0  0  0
   -1.3174   -1.7718   -0.0883 H   0  0  0  0  0  0  0  0  0  0  0  0
   -1.2154    0.5063   -0.3716 H   0  0  0  0  0  0  0  0  0  0  0  0
    0.1956    0.4955    2.3446 H   0  0  0  0  0  0  0  0  0  0  0  0
   -2.6430    1.3274    1.5231 H   0  0  0  0  0  0  0  0  0  0  0  0
   -2.2432   -0.2643    2.1676 H   0  0  0  0  0  0  0  0  0  0  0  0
   -0.6056    2.8432    0.5735 H   0  0  0  0  0  0  0  0  0  0  0  0
   -0.5077    3.0047    2.3313 H   0  0  0  0  0  0  0  0  0  0  0  0
    0.9280    2.5636    1.4483 H   0  0  0  0  0  0  0  0  0  0  0  0
   -1.3379    0.8511    4.2579 H   0  0  0  0  0  0  0  0  0  0  0  0
   -3.0889    0.9783    3.9988 H   0  0  0  0  0  0  0  0  0  0  0  0
   -2.0544    2.3728    3.6773 H   0  0  0  0  0  0  0  0  0  0  0  0
    1.5420    1.4961   -0.7821 N   0  0  0  0  0  0  0  0  0  0  0  0
    2.7851    1.6741   -1.5422 C   0  0  2  0  0  0  0  0  0  0  0  0
    3.6268    2.8310   -0.9643 C   0  0  0  0  0  0  0  0  0  0  0  0
    3.1291    3.6134   -0.1607 O   0  0  0  0  0  0  0  0  0  0  0  0
    2.4342    1.9499   -3.0081 C   0  0  0  0  0  0  0  0  0  0  0  0
    1.3006    2.2502   -0.1427 H   0  0  0  0  0  0  0  0  0  0  0  0
    3.3886    0.7623   -1.4776 H   0  0  0  0  0  0  0  0  0  0  0  0
    1.8316    2.8598   -3.0922 H   0  0  0  0  0  0  0  0  0  0  0  0
    3.3433    2.0764   -3.6037 H   0  0  0  0  0  0  0  0  0  0  0  0
    1.8637    1.1146   -3.4262 H   0  0  0  0  0  0  0  0  0  0  0  0
    4.9450    2.9990   -1.3459 N   0  0  0  0  0  0  0  0  0  0  0  0
    5.7961    4.0663   -0.8348 C   0  0  0  0  0  0  0  0  0  0  0  0
    5.3364    2.3249   -1.9973 H   0  0  0  0  0  0  0  0  0  0  0  0
    5.3686    5.0453   -1.0758 H   0  0  0  0  0  0  0  0  0  0  0  0
    5.9018    3.9855    0.2522 H   0  0  0  0  0  0  0  0  0  0  0  0
    6.7918    4.0043   -1.2840 H   0  0  0  0  0  0  0  0  0  0  0  0
  1  2  2  0  0  0  0
  1  3  1  0  0  0  0
  1  7  1  0  0  0  0
  3  4  1  0  0  0  0
  3  5  1  0  0  0  0
  3  6  1  0  0  0  0
  7  8  1  0  0  0  0
  7 12  1  0  0  0  0
  8  9  1  0  0  0  0
  8 11  1  0  0  0  0
  8 13  1  0  0  0  0
  9 10  2  0  0  0  0
  9 17  1  0  0  0  0
 11 14  1  0  0  0  0
 11 15  1  0  0  0  0
 11 16  1  0  0  0  0
 17 18  1  0  0  0  0
 17 25  1  0  0  0  0
 18 19  1  0  0  0  0
 18 21  1  0  0  0  0
 18 26  1  0  0  0  0
 19 20  2  0  0  0  0
 19 36  1  0  0  0  0
 21 22  1  0  0  0  0
 21 23  1  0  0  0  0
 21 27  1  0  0  0  0
 22 24  1  0  0  0  0
 22 28  1  0  0  0  0
 22 29  1  0  0  0  0
 23 30  1  0  0  0  0
 23 31  1  0  0  0  0
 23 32  1  0  0  0  0
 24 33  1  0  0  0  0
 24 34  1  0  0  0  0
 24 35  1  0  0  0  0
 36 37  1  0  0  0  0
 36 41  1  0  0  0  0
 37 38  1  0  0  0  0
 37 40  1  0  0  0  0
 37 42  1  0  0  0  0
 38 39  2  0  0  0  0
 38 46  1  0  0  0  0
 40 43  1  0  0  0  0
 40 44  1  0  0  0  0
 40 45  1  0  0  0  0
 46 47  1  0  0  0  0
 46 48  1  0  0  0  0
 47 49  1  0  0  0  0
 47 50  1  0  0  0  0
 47 51  1  0  0  0  0
M  END
$$$$

  -OEChem-05262216503D

 51 50  0     1  0  0  0  0  0999 V2000
    1.2747   -5.6302    0.7653 C   0  0  0  0  0  0  0  0  0  0  0  0
    0.2868   -6.2467    0.3991 O   0  0  0  0  0  0  0  0  0  0  0  0
    2.6295   -6.3122    0.7967 C   0  0  0  0  0  0  0  0  0  0  0  0
    2.5380   -7.3476    0.4567 H   0  0  0  0  0  0  0  0  0  0  0  0
    3.3271   -5.7866    0.1401 H   0  0  0  0  0  0  0  0  0  0  0  0
    3.0249   -6.3098    1.8153 H   0  0  0  0  0  0  0  0  0  0  0  0
    1.1624   -4.3102    1.1476 N   0  0  0  0  0  0  0  0  0  0  0  0
   -0.0625   -3.5101    1.0190 C   0  0  2  0  0  0  0  0  0  0  0  0
    0.2507   -2.0050    0.8826 C   0  0  0  0  0  0  0  0  0  0  0  0
    1.3894   -1.5945    1.0967 O   0  0  0  0  0  0  0  0  0  0  0  0
   -0.9423   -3.7609    2.2488 C   0  0  0  0  0  0  0  0  0  0  0  0
    2.0237   -3.8017    1.3431 H   0  0  0  0  0  0  0  0  0  0  0  0
   -0.6042   -3.8149    0.1169 H   0  0  0  0  0  0  0  0  0  0  0  0
   -0.4202   -3.4547    3.1608 H   0  0  0  0  0  0  0  0  0  0  0  0
   -1.8771   -3.1972    2.1757 H   0  0  0  0  0  0  0  0  0  0  0  0
   -1.1895   -4.8241    2.3295 H   0  0  0  0  0  0  0  0  0  0  0  0
   -0.7530   -1.1177    0.5262 N   0  0  0  0  0  0  0  0  0  0  0  0
   -0.5275    0.3042    0.1873 C   0  0  2  0  0  0  0  0  0  0  0  0
    0.4313    0.2976   -1.0461 C   0  0  0  0  0  0  0  0  0  0  0  0
    0.0803   -0.3419   -2.0283 O   0  0  0  0  0  0  0  0  0  0  0  0
   -0.1581    1.1288    1.4666 C   0  0  2  0  0  0  0  0  0  0  0  0
   -1.3586    1.0766    2.4525 C   0  0  0  0  0  0  0  0  0  0  0  0
    0.0549    2.6302    1.1531 C   0  0  0  0  0  0  0  0  0  0  0  0
   -1.0274    1.6172    3.8483 C   0  0  0  0  0  0  0  0  0  0  0  0
   -1.6054   -1.5448    0.1739 H   0  0  0  0  0  0  0  0  0  0  0  0
   -1.4653    0.7254   -0.1880 H   0  0  0  0  0  0  0  0  0  0  0  0
    0.7396    0.7190    1.9382 H   0  0  0  0  0  0  0  0  0  0  0  0
   -2.2127    1.6251    2.0415 H   0  0  0  0  0  0  0  0  0  0  0  0
   -1.6753    0.0383    2.5855 H   0  0  0  0  0  0  0  0  0  0  0  0
    0.8727    2.8059    0.4614 H   0  0  0  0  0  0  0  0  0  0  0  0
    0.3002    3.1875    2.0601 H   0  0  0  0  0  0  0  0  0  0  0  0
   -0.8505    3.0620    0.7149 H   0  0  0  0  0  0  0  0  0  0  0  0
   -0.1126    1.1545    4.2316 H   0  0  0  0  0  0  0  0  0  0  0  0
   -1.8453    1.3858    4.5374 H   0  0  0  0  0  0  0  0  0  0  0  0
   -0.8968    2.7024    3.8358 H   0  0  0  0  0  0  0  0  0  0  0  0
    1.3686    1.2372   -1.3939 N   0  0  0  0  0  0  0  0  0  0  0  0
    2.6476    1.2416   -0.6647 C   0  0  2  0  0  0  0  0  0  0  0  0
    3.3955    2.5891   -0.7535 C   0  0  0  0  0  0  0  0  0  0  0  0
    3.2693    3.3167   -1.7299 O   0  0  0  0  0  0  0  0  0  0  0  0
    3.5322    0.1251   -1.2322 C   0  0  0  0  0  0  0  0  0  0  0  0
    1.4767    1.2773   -2.4052 H   0  0  0  0  0  0  0  0  0  0  0  0
    2.4700    1.0329    0.3943 H   0  0  0  0  0  0  0  0  0  0  0  0
    3.7382    0.3016   -2.2930 H   0  0  0  0  0  0  0  0  0  0  0  0
    4.4846    0.0819   -0.6951 H   0  0  0  0  0  0  0  0  0  0  0  0
    3.0389   -0.8470   -1.1316 H   0  0  0  0  0  0  0  0  0  0  0  0
    4.2382    2.9778    0.2721 N   0  0  0  0  0  0  0  0  0  0  0  0
    4.9912    4.2263    0.2594 C   0  0  0  0  0  0  0  0  0  0  0  0
    4.3420    2.3477    1.0619 H   0  0  0  0  0  0  0  0  0  0  0  0
    5.6872    4.2451   -0.5857 H   0  0  0  0  0  0  0  0  0  0  0  0
    4.3143    5.0832    0.1768 H   0  0  0  0  0  0  0  0  0  0  0  0
    5.5663    4.3298    1.1845 H   0  0  0  0  0  0  0  0  0  0  0  0
  1  2  2  0  0  0  0
  1  3  1  0  0  0  0
  1  7  1  0  0  0  0
  3  4  1  0  0  0  0
  3  5  1  0  0  0  0
  3  6  1  0  0  0  0
  7  8  1  0  0  0  0
  7 12  1  0  0  0  0
  8  9  1  0  0  0  0
  8 11  1  0  0  0  0
  8 13  1  0  0  0  0
  9 10  2  0  0  0  0
  9 17  1  0  0  0  0
 11 14  1  0  0  0  0
 11 15  1  0  0  0  0
 11 16  1  0  0  0  0
 17 18  1  0  0  0  0
 17 25  1  0  0  0  0
 18 19  1  0  0  0  0
 18 21  1  0  0  0  0
 18 26  1  0  0  0  0
 19 20  2  0  0  0  0
 19 36  1  0  0  0  0
 21 22  1  0  0  0  0
 21 23  1  0  0  0  0
 21 27  1  0  0  0  0
 22 24  1  0  0  0  0
 22 28  1  0  0  0  0
 22 29  1  0  0  0  0
 23 30  1  0  0  0  0
 23 31  1  0  0  0  0
 23 32  1  0  0  0  0
 24 33  1  0  0  0  0
 24 34  1  0  0  0  0
 24 35  1  0  0  0  0
 36 37  1  0  0  0  0
 36 41  1  0  0  0  0
 37 38  1  0  0  0  0
 37 40  1  0  0  0  0
 37 42  1  0  0  0  0
 38 39  2  0  0  0  0
 38 46  1  0  0  0  0
 40 43  1  0  0  0  0
 40 44  1  0  0  0  0
 40 45  1  0  0  0  0
 46 47  1  0  0  0  0
 46 48  1  0  0  0  0
 47 49  1  0  0  0  0
 47 50  1  0  0  0  0
 47 51  1  0  0  0  0
M  END
$$$$

  -OEChem-05262216503D

 51 50  0     1  0  0  0  0  0999 V2000
    1.4667   -5.6411    1.2318 C   0  0  0  0  0  0  0  0  0  0  0  0
    0.7139   -6.2790    0.5124 O   0  0  0  0  0  0  0  0  0  0  0  0
    2.7687   -6.2570    1.7079 C   0  0  0  0  0  0  0  0  0  0  0  0
    2.8477   -7.2899    1.3573 H   0  0  0  0  0  0  0  0  0  0  0  0
    3.6148   -5.6861    1.3177 H   0  0  0  0  0  0  0  0  0  0  0  0
    2.8067   -6.2520    2.8000 H   0  0  0  0  0  0  0  0  0  0  0  0
    1.1399   -4.3560    1.6083 N   0  0  0  0  0  0  0  0  0  0  0  0
   -0.0131   -3.6073    1.0932 C   0  0  2  0  0  0  0  0  0  0  0  0
    0.2362   -2.0847    1.1319 C   0  0  0  0  0  0  0  0  0  0  0  0
    1.1899   -1.6384    1.7622 O   0  0  0  0  0  0  0  0  0  0  0  0
   -1.2440   -3.9679    1.9319 C   0  0  0  0  0  0  0  0  0  0  0  0
    1.8451   -3.8182    2.1117 H   0  0  0  0  0  0  0  0  0  0  0  0
   -0.1914   -3.8842    0.0484 H   0  0  0  0  0  0  0  0  0  0  0  0
   -1.0887   -3.6857    2.9781 H   0  0  0  0  0  0  0  0  0  0  0  0
   -2.1311   -3.4481    1.5583 H   0  0  0  0  0  0  0  0  0  0  0  0
   -1.4333   -5.0450    1.8861 H   0  0  0  0  0  0  0  0  0  0  0  0
   -0.6154   -1.2271    0.4545 N   0  0  0  0  0  0  0  0  0  0  0  0
   -0.3824    0.2226    0.2778 C   0  0  2  0  0  0  0  0  0  0  0  0
    0.9592    0.4009   -0.4933 C   0  0  0  0  0  0  0  0  0  0  0  0
    1.1139   -0.2297   -1.5348 O   0  0  0  0  0  0  0  0  0  0  0  0
   -0.5719    0.9800    1.6378 C   0  0  2  0  0  0  0  0  0  0  0  0
   -2.0458    0.8051    2.0984 C   0  0  0  0  0  0  0  0  0  0  0  0
   -0.2928    2.4965    1.4959 C   0  0  0  0  0  0  0  0  0  0  0  0
   -2.3040    1.2652    3.5394 C   0  0  0  0  0  0  0  0  0  0  0  0
   -1.2576   -1.6745   -0.1932 H   0  0  0  0  0  0  0  0  0  0  0  0
   -1.1473    0.6097   -0.4021 H   0  0  0  0  0  0  0  0  0  0  0  0
    0.0979    0.5674    2.3987 H   0  0  0  0  0  0  0  0  0  0  0  0
   -2.7141    1.3456    1.4200 H   0  0  0  0  0  0  0  0  0  0  0  0
   -2.3212   -0.2523    2.0524 H   0  0  0  0  0  0  0  0  0  0  0  0
   -0.6795    2.8708    0.5429 H   0  0  0  0  0  0  0  0  0  0  0  0
    0.7753    2.7121    1.5547 H   0  0  0  0  0  0  0  0  0  0  0  0
   -0.7565    3.0749    2.2960 H   0  0  0  0  0  0  0  0  0  0  0  0
   -1.5721    0.8176    4.2195 H   0  0  0  0  0  0  0  0  0  0  0  0
   -3.3035    0.9490    3.8535 H   0  0  0  0  0  0  0  0  0  0  0  0
   -2.2545    2.3526    3.6354 H   0  0  0  0  0  0  0  0  0  0  0  0
    1.9390    1.3104   -0.1483 N   0  0  0  0  0  0  0  0  0  0  0  0
    3.2431    1.4294   -0.8105 C   0  0  2  0  0  0  0  0  0  0  0  0
    4.3093    1.9861    0.1566 C   0  0  0  0  0  0  0  0  0  0  0  0
    3.9699    2.5281    1.2035 O   0  0  0  0  0  0  0  0  0  0  0  0
    3.0972    2.3487   -2.0276 C   0  0  0  0  0  0  0  0  0  0  0  0
    1.8843    1.6917    0.7954 H   0  0  0  0  0  0  0  0  0  0  0  0
    3.5787    0.4399   -1.1387 H   0  0  0  0  0  0  0  0  0  0  0  0
    2.7586    3.3422   -1.7171 H   0  0  0  0  0  0  0  0  0  0  0  0
    4.0537    2.4525   -2.5483 H   0  0  0  0  0  0  0  0  0  0  0  0
    2.3670    1.9360   -2.7306 H   0  0  0  0  0  0  0  0  0  0  0  0
    5.6547    1.8827   -0.1467 N   0  0  0  0  0  0  0  0  0  0  0  0
    6.7128    2.3818    0.7235 C   0  0  0  0  0  0  0  0  0  0  0  0
    5.9071    1.4211   -1.0156 H   0  0  0  0  0  0  0  0  0  0  0  0
    6.6394    3.4691    0.8307 H   0  0  0  0  0  0  0  0  0  0  0  0
    6.6419    1.9244    1.7160 H   0  0  0  0  0  0  0  0  0  0  0  0
    7.6939    2.1408    0.3031 H   0  0  0  0  0  0  0  0  0  0  0  0
  1  2  2  0  0  0  0
  1  3  1  0  0  0  0
  1  7  1  0  0  0  0
  3  4  1  0  0  0  0
  3  5  1  0  0  0  0
  3  6  1  0  0  0  0
  7  8  1  0  0  0  0
  7 12  1  0  0  0  0
  8  9  1  0  0  0  0
  8 11  1  0  0  0  0
  8 13  1  0  0  0  0
  9 10  2  0  0  0  0
  9 17  1  0  0  0  0
 11 14  1  0  0  0  0
 11 15  1  0  0  0  0
 11 16  1  0  0  0  0
 17 18  1  0  0  0  0
 17 25  1  0  0  0  0
 18 19  1  0  0  0  0
 18 21  1  0  0  0  0
 18 26  1  0  0  0  0
 19 20  2  0  0  0  0
 19 36  1  0  0  0  0
 21 22  1  0  0  0  0
 21 23  1  0  0  0  0
 21 27  1  0  0  0  0
 22 24  1  0  0  0  0
 22 28  1  0  0  0  0
 22 29  1  0  0  0  0
 23 30  1  0  0  0  0
 23 31  1  0  0  0  0
 23 32  1  0  0  0  0
 24 33  1  0  0  0  0
 24 34  1  0  0  0  0
 24 35  1  0  0  0  0
 36 37  1  0  0  0  0
 36 41  1  0  0  0  0
 37 38  1  0  0  0  0
 37 40  1  0  0  0  0
 37 42  1  0  0  0  0
 38 39  2  0  0  0  0
 38 46  1  0  0  0  0
 40 43  1  0  0  0  0
 40 44  1  0  0  0  0
 40 45  1  0  0  0  0
 46 47  1  0  0  0  0
 46 48  1  0  0  0  0
 47 49  1  0  0  0  0
 47 50  1  0  0  0  0
 47 51  1  0  0  0  0
M  END
$$$$

  -OEChem-05262216503D

 51 50  0     1  0  0  0  0  0999 V2000
    1.4835   -5.6356    1.2159 C   0  0  0  0  0  0  0  0  0  0  0  0
    0.7453   -6.2565    0.4673 O   0  0  0  0  0  0  0  0  0  0  0  0
    2.7736   -6.2657    1.7070 C   0  0  0  0  0  0  0  0  0  0  0  0
    2.8665   -7.2845    1.3203 H   0  0  0  0  0  0  0  0  0  0  0  0
    3.6301   -5.6798    1.3644 H   0  0  0  0  0  0  0  0  0  0  0  0
    2.7792   -6.3022    2.7991 H   0  0  0  0  0  0  0  0  0  0  0  0
    1.1467   -4.3594    1.6141 N   0  0  0  0  0  0  0  0  0  0  0  0
   -0.0028   -3.6043    1.0991 C   0  0  2  0  0  0  0  0  0  0  0  0
    0.2537   -2.0831    1.1342 C   0  0  0  0  0  0  0  0  0  0  0  0
    1.1972   -1.6378    1.7796 O   0  0  0  0  0  0  0  0  0  0  0  0
   -1.2334   -3.9555    1.9421 C   0  0  0  0  0  0  0  0  0  0  0  0
    1.8380   -3.8336    2.1483 H   0  0  0  0  0  0  0  0  0  0  0  0
   -0.1859   -3.8817    0.0552 H   0  0  0  0  0  0  0  0  0  0  0  0
   -1.0722   -3.6748    2.9878 H   0  0  0  0  0  0  0  0  0  0  0  0
   -2.1177   -3.4282    1.5722 H   0  0  0  0  0  0  0  0  0  0  0  0
   -1.4306   -5.0312    1.8964 H   0  0  0  0  0  0  0  0  0  0  0  0
   -0.5809   -1.2238    0.4384 N   0  0  0  0  0  0  0  0  0  0  0  0
   -0.3571    0.2285    0.2820 C   0  0  2  0  0  0  0  0  0  0  0  0
    1.0055    0.4145   -0.4429 C   0  0  0  0  0  0  0  0  0  0  0  0
    1.1174   -0.0280   -1.5813 O   0  0  0  0  0  0  0  0  0  0  0  0
   -0.5690    0.9840    1.6364 C   0  0  2  0  0  0  0  0  0  0  0  0
   -2.0462    0.8024    2.0803 C   0  0  0  0  0  0  0  0  0  0  0  0
   -0.3180    2.5051    1.4901 C   0  0  0  0  0  0  0  0  0  0  0  0
   -2.3171    1.2653    3.5169 C   0  0  0  0  0  0  0  0  0  0  0  0
   -1.2286   -1.6666   -0.2070 H   0  0  0  0  0  0  0  0  0  0  0  0
   -1.1063    0.6176   -0.4145 H   0  0  0  0  0  0  0  0  0  0  0  0
    0.1019    0.5826    2.4024 H   0  0  0  0  0  0  0  0  0  0  0  0
   -2.7129    1.3356    1.3941 H   0  0  0  0  0  0  0  0  0  0  0  0
   -2.3125   -0.2577    2.0350 H   0  0  0  0  0  0  0  0  0  0  0  0
   -0.9064    2.9116    0.6614 H   0  0  0  0  0  0  0  0  0  0  0  0
   -0.5922    3.0413    2.4012 H   0  0  0  0  0  0  0  0  0  0  0  0
    0.7322    2.7359    1.3117 H   0  0  0  0  0  0  0  0  0  0  0  0
   -1.5940    0.8169    4.2052 H   0  0  0  0  0  0  0  0  0  0  0  0
   -3.3215    0.9560    3.8217 H   0  0  0  0  0  0  0  0  0  0  0  0
   -2.2621    2.3530    3.6062 H   0  0  0  0  0  0  0  0  0  0  0  0
    2.0776    1.0958    0.0989 N   0  0  0  0  0  0  0  0  0  0  0  0
    3.4072    1.1875   -0.5148 C   0  0  2  0  0  0  0  0  0  0  0  0
    4.5023    1.4127    0.5486 C   0  0  0  0  0  0  0  0  0  0  0  0
    4.2048    1.8120    1.6694 O   0  0  0  0  0  0  0  0  0  0  0  0
    3.4065    2.3407   -1.5241 C   0  0  0  0  0  0  0  0  0  0  0  0
    2.0327    1.2728    1.1032 H   0  0  0  0  0  0  0  0  0  0  0  0
    3.6357    0.2493   -1.0313 H   0  0  0  0  0  0  0  0  0  0  0  0
    3.1755    3.2857   -1.0221 H   0  0  0  0  0  0  0  0  0  0  0  0
    4.3848    2.4309   -2.0054 H   0  0  0  0  0  0  0  0  0  0  0  0
    2.6563    2.1673   -2.3019 H   0  0  0  0  0  0  0  0  0  0  0  0
    5.8312    1.1778    0.2456 N   0  0  0  0  0  0  0  0  0  0  0  0
    6.9164    1.3717    1.2000 C   0  0  0  0  0  0  0  0  0  0  0  0
    6.0485    0.8361   -0.6860 H   0  0  0  0  0  0  0  0  0  0  0  0
    6.9710    2.4204    1.5107 H   0  0  0  0  0  0  0  0  0  0  0  0
    6.7624    0.7488    2.0876 H   0  0  0  0  0  0  0  0  0  0  0  0
    7.8731    1.0955    0.7463 H   0  0  0  0  0  0  0  0  0  0  0  0
  1  2  2  0  0  0  0
  1  3  1  0  0  0  0
  1  7  1  0  0  0  0
  3  4  1  0  0  0  0
  3  5  1  0  0  0  0
  3  6  1  0  0  0  0
  7  8  1  0  0  0  0
  7 12  1  0  0  0  0
  8  9  1  0  0  0  0
  8 11  1  0  0  0  0
  8 13  1  0  0  0  0
  9 10  2  0  0  0  0
  9 17  1  0  0  0  0
 11 14  1  0  0  0  0
 11 15  1  0  0  0  0
 11 16  1  0  0  0  0
 17 18  1  0  0  0  0
 17 25  1  0  0  0  0
 18 19  1  0  0  0  0
 18 21  1  0  0  0  0
 18 26  1  0  0  0  0
 19 20  2  0  0  0  0
 19 36  1  0  0  0  0
 21 22  1  0  0  0  0
 21 23  1  0  0  0  0
 21 27  1  0  0  0  0
 22 24  1  0  0  0  0
 22 28  1  0  0  0  0
 22 29  1  0  0  0  0
 23 30  1  0  0  0  0
 23 31  1  0  0  0  0
 23 32  1  0  0  0  0
 24 33  1  0  0  0  0
 24 34  1  0  0  0  0
 24 35  1  0  0  0  0
 36 37  1  0  0  0  0
 36 41  1  0  0  0  0
 37 38  1  0  0  0  0
 37 40  1  0  0  0  0
 37 42  1  0  0  0  0
 38 39  2  0  0  0  0
 38 46  1  0  0  0  0
 40 43  1  0  0  0  0
 40 44  1  0  0  0  0
 40 45  1  0  0  0  0
 46 47  1  0  0  0  0
 46 48  1  0  0  0  0
 47 49  1  0  0  0  0
 47 50  1  0  0  0  0
 47 51  1  0  0  0  0
M  END
$$$$

  -OEChem-05262216503D

 51 50  0     1  0  0  0  0  0999 V2000
    1.4696   -5.6492    1.2965 C   0  0  0  0  0  0  0  0  0  0  0  0
    0.7826   -6.2702    0.5009 O   0  0  0  0  0  0  0  0  0  0  0  0
    2.7239   -6.2781    1.8734 C   0  0  0  0  0  0  0  0  0  0  0  0
    2.8299   -7.3057    1.5144 H   0  0  0  0  0  0  0  0  0  0  0  0
    3.6032   -5.7052    1.5686 H   0  0  0  0  0  0  0  0  0  0  0  0
    2.6660   -6.2910    2.9644 H   0  0  0  0  0  0  0  0  0  0  0  0
    1.1100   -4.3716    1.6688 N   0  0  0  0  0  0  0  0  0  0  0  0
    0.0007   -3.6139    1.0754 C   0  0  2  0  0  0  0  0  0  0  0  0
    0.2573   -2.0934    1.1342 C   0  0  0  0  0  0  0  0  0  0  0  0
    1.1827   -1.6566    1.8102 O   0  0  0  0  0  0  0  0  0  0  0  0
   -1.2889   -3.9702    1.8225 C   0  0  0  0  0  0  0  0  0  0  0  0
    1.7705   -3.8444    2.2399 H   0  0  0  0  0  0  0  0  0  0  0  0
   -0.1053   -3.8862    0.0198 H   0  0  0  0  0  0  0  0  0  0  0  0
   -1.2042   -3.7016    2.8803 H   0  0  0  0  0  0  0  0  0  0  0  0
   -2.1426   -3.4368    1.3941 H   0  0  0  0  0  0  0  0  0  0  0  0
   -1.4848   -5.0449    1.7506 H   0  0  0  0  0  0  0  0  0  0  0  0
   -0.5450   -1.2239    0.4136 N   0  0  0  0  0  0  0  0  0  0  0  0
   -0.3112    0.2280    0.2690 C   0  0  2  0  0  0  0  0  0  0  0  0
    1.0711    0.4331   -0.4051 C   0  0  0  0  0  0  0  0  0  0  0  0
    1.1657    0.2336   -1.6108 O   0  0  0  0  0  0  0  0  0  0  0  0
   -0.5420    0.9899    1.6128 C   0  0  2  0  0  0  0  0  0  0  0  0
   -2.0244    0.8289    2.0387 C   0  0  0  0  0  0  0  0  0  0  0  0
   -0.2588    2.5024    1.4578 C   0  0  0  0  0  0  0  0  0  0  0  0
   -2.2995    1.3067    3.4686 C   0  0  0  0  0  0  0  0  0  0  0  0
   -1.2020   -1.6567   -0.2296 H   0  0  0  0  0  0  0  0  0  0  0  0
   -1.0425    0.6203   -0.4447 H   0  0  0  0  0  0  0  0  0  0  0  0
    0.1128    0.5840    2.3904 H   0  0  0  0  0  0  0  0  0  0  0  0
   -2.6764    1.3663    1.3422 H   0  0  0  0  0  0  0  0  0  0  0  0
   -2.3022   -0.2283    1.9960 H   0  0  0  0  0  0  0  0  0  0  0  0
   -0.9034    2.9355    0.6864 H   0  0  0  0  0  0  0  0  0  0  0  0
   -0.4393    3.0311    2.3969 H   0  0  0  0  0  0  0  0  0  0  0  0
    0.7786    2.7010    1.1849 H   0  0  0  0  0  0  0  0  0  0  0  0
   -1.5972    0.8437    4.1686 H   0  0  0  0  0  0  0  0  0  0  0  0
   -3.3153    1.0269    3.7633 H   0  0  0  0  0  0  0  0  0  0  0  0
   -2.2135    2.3935    3.5492 H   0  0  0  0  0  0  0  0  0  0  0  0
    2.1907    0.8482    0.2907 N   0  0  0  0  0  0  0  0  0  0  0  0
    3.5389    0.9312   -0.2827 C   0  0  2  0  0  0  0  0  0  0  0  0
    4.6287    0.7277    0.7902 C   0  0  0  0  0  0  0  0  0  0  0  0
    4.3758    0.9102    1.9757 O   0  0  0  0  0  0  0  0  0  0  0  0
    3.7034    2.3000   -0.9512 C   0  0  0  0  0  0  0  0  0  0  0  0
    2.1354    0.7605    1.3074 H   0  0  0  0  0  0  0  0  0  0  0  0
    3.6654    0.1431   -1.0323 H   0  0  0  0  0  0  0  0  0  0  0  0
    3.5830    3.1013   -0.2149 H   0  0  0  0  0  0  0  0  0  0  0  0
    4.6950    2.3887   -1.4049 H   0  0  0  0  0  0  0  0  0  0  0  0
    2.9525    2.4326   -1.7365 H   0  0  0  0  0  0  0  0  0  0  0  0
    5.9074    0.3482    0.4240 N   0  0  0  0  0  0  0  0  0  0  0  0
    6.9824    0.1307    1.3845 C   0  0  0  0  0  0  0  0  0  0  0  0
    6.0869    0.1868   -0.5625 H   0  0  0  0  0  0  0  0  0  0  0  0
    7.1897    1.0504    1.9418 H   0  0  0  0  0  0  0  0  0  0  0  0
    6.7084   -0.6574    2.0939 H   0  0  0  0  0  0  0  0  0  0  0  0
    7.8975   -0.1730    0.8670 H   0  0  0  0  0  0  0  0  0  0  0  0
  1  2  2  0  0  0  0
  1  3  1  0  0  0  0
  1  7  1  0  0  0  0
  3  4  1  0  0  0  0
  3  5  1  0  0  0  0
  3  6  1  0  0  0  0
  7  8  1  0  0  0  0
  7 12  1  0  0  0  0
  8  9  1  0  0  0  0
  8 11  1  0  0  0  0
  8 13  1  0  0  0  0
  9 10  2  0  0  0  0
  9 17  1  0  0  0  0
 11 14  1  0  0  0  0
 11 15  1  0  0  0  0
 11 16  1  0  0  0  0
 17 18  1  0  0  0  0
 17 25  1  0  0  0  0
 18 19  1  0  0  0  0
 18 21  1  0  0  0  0
 18 26  1  0  0  0  0
 19 20  2  0  0  0  0
 19 36  1  0  0  0  0
 21 22  1  0  0  0  0
 21 23  1  0  0  0  0
 21 27  1  0  0  0  0
 22 24  1  0  0  0  0
 22 28  1  0  0  0  0
 22 29  1  0  0  0  0
 23 30  1  0  0  0  0
 23 31  1  0  0  0  0
 23 32  1  0  0  0  0
 24 33  1  0  0  0  0
 24 34  1  0  0  0  0
 24 35  1  0  0  0  0
 36 37  1  0  0  0  0
 36 41  1  0  0  0  0
 37 38  1  0  0  0  0
 37 40  1  0  0  0  0
 37 42  1  0  0  0  0
 38 39  2  0  0  0  0
 38 46  1  0  0  0  0
 40 43  1  0  0  0  0
 40 44  1  0  0  0  0
 40 45  1  0  0  0  0
 46 47  1  0  0  0  0
 46 48  1  0  0  0  0
 47 49  1  0  0  0  0
 47 50  1  0  0  0  0
 47 51  1  0  0  0  0
M  END
$$$$

  -OEChem-05262216503D

 51 50  0     1  0  0  0  0  0999 V2000
    1.4587   -5.6370    1.2846 C   0  0  0  0  0  0  0  0  0  0  0  0
    0.7799   -6.2408    0.4686 O   0  0  0  0  0  0  0  0  0  0  0  0
    2.7630   -6.2326    1.7810 C   0  0  0  0  0  0  0  0  0  0  0  0
    2.9128   -7.2258    1.3484 H   0  0  0  0  0  0  0  0  0  0  0  0
    3.5997   -5.5917    1.4917 H   0  0  0  0  0  0  0  0  0  0  0  0
    2.7420   -6.3226    2.8697 H   0  0  0  0  0  0  0  0  0  0  0  0
    1.0503   -4.4025    1.7420 N   0  0  0  0  0  0  0  0  0  0  0  0
   -0.0856   -3.6498    1.1937 C   0  0  2  0  0  0  0  0  0  0  0  0
    0.1803   -2.1313    1.2314 C   0  0  0  0  0  0  0  0  0  0  0  0
    1.0632   -1.6896    1.9577 O   0  0  0  0  0  0  0  0  0  0  0  0
   -1.3370   -3.9963    2.0049 C   0  0  0  0  0  0  0  0  0  0  0  0
    1.7072   -3.8791    2.3217 H   0  0  0  0  0  0  0  0  0  0  0  0
   -0.2447   -3.9292    0.1466 H   0  0  0  0  0  0  0  0  0  0  0  0
   -1.1964   -3.7297    3.0574 H   0  0  0  0  0  0  0  0  0  0  0  0
   -2.2066   -3.4546    1.6208 H   0  0  0  0  0  0  0  0  0  0  0  0
   -1.5440   -5.0695    1.9414 H   0  0  0  0  0  0  0  0  0  0  0  0
   -0.5519   -1.2676    0.4327 N   0  0  0  0  0  0  0  0  0  0  0  0
   -0.2652    0.1715    0.2527 C   0  0  2  0  0  0  0  0  0  0  0  0
    1.1545    0.3518   -0.3417 C   0  0  0  0  0  0  0  0  0  0  0  0
    1.2769    0.4297   -1.5583 O   0  0  0  0  0  0  0  0  0  0  0  0
   -0.5392    0.9928    1.5499 C   0  0  2  0  0  0  0  0  0  0  0  0
   -2.0437    0.9025    1.9083 C   0  0  0  0  0  0  0  0  0  0  0  0
   -0.1612    2.4777    1.3548 C   0  0  0  0  0  0  0  0  0  0  0  0
   -2.3642    1.4496    3.3029 C   0  0  0  0  0  0  0  0  0  0  0  0
   -1.1952   -1.7027   -0.2229 H   0  0  0  0  0  0  0  0  0  0  0  0
   -0.9499    0.5545   -0.5108 H   0  0  0  0  0  0  0  0  0  0  0  0
    0.0548    0.5904    2.3758 H   0  0  0  0  0  0  0  0  0  0  0  0
   -2.6395    1.4374    1.1612 H   0  0  0  0  0  0  0  0  0  0  0  0
   -2.3607   -0.1446    1.8915 H   0  0  0  0  0  0  0  0  0  0  0  0
   -0.7402    2.9174    0.5366 H   0  0  0  0  0  0  0  0  0  0  0  0
   -0.3539    3.0522    2.2644 H   0  0  0  0  0  0  0  0  0  0  0  0
    0.9006    2.5960    1.1259 H   0  0  0  0  0  0  0  0  0  0  0  0
   -1.7238    0.9790    4.0552 H   0  0  0  0  0  0  0  0  0  0  0  0
   -3.4073    1.2352    3.5542 H   0  0  0  0  0  0  0  0  0  0  0  0
   -2.2231    2.5327    3.3467 H   0  0  0  0  0  0  0  0  0  0  0  0
    2.2746    0.4799    0.4583 N   0  0  0  0  0  0  0  0  0  0  0  0
    3.6457    0.5706   -0.0596 C   0  0  2  0  0  0  0  0  0  0  0  0
    4.6774   -0.0969    0.8740 C   0  0  0  0  0  0  0  0  0  0  0  0
    4.4141   -0.3121    2.0508 O   0  0  0  0  0  0  0  0  0  0  0  0
    3.9824    2.0519   -0.2522 C   0  0  0  0  0  0  0  0  0  0  0  0
    2.1664    0.1161    1.4111 H   0  0  0  0  0  0  0  0  0  0  0  0
    3.7087    0.0575   -1.0248 H   0  0  0  0  0  0  0  0  0  0  0  0
    3.9347    2.5810    0.7050 H   0  0  0  0  0  0  0  0  0  0  0  0
    4.9888    2.1668   -0.6654 H   0  0  0  0  0  0  0  0  0  0  0  0
    3.2713    2.5157   -0.9432 H   0  0  0  0  0  0  0  0  0  0  0  0
    5.9237   -0.4512    0.3896 N   0  0  0  0  0  0  0  0  0  0  0  0
    6.9577   -1.0670    1.2124 C   0  0  0  0  0  0  0  0  0  0  0  0
    6.1188   -0.2629   -0.5891 H   0  0  0  0  0  0  0  0  0  0  0  0
    7.2578   -0.3908    2.0198 H   0  0  0  0  0  0  0  0  0  0  0  0
    6.5927   -2.0010    1.6523 H   0  0  0  0  0  0  0  0  0  0  0  0
    7.8392   -1.2937    0.6053 H   0  0  0  0  0  0  0  0  0  0  0  0
  1  2  2  0  0  0  0
  1  3  1  0  0  0  0
  1  7  1  0  0  0  0
  3  4  1  0  0  0  0
  3  5  1  0  0  0  0
  3  6  1  0  0  0  0
  7  8  1  0  0  0  0
  7 12  1  0  0  0  0
  8  9  1  0  0  0  0
  8 11  1  0  0  0  0
  8 13  1  0  0  0  0
  9 10  2  0  0  0  0
  9 17  1  0  0  0  0
 11 14  1  0  0  0  0
 11 15  1  0  0  0  0
 11 16  1  0  0  0  0
 17 18  1  0  0  0  0
 17 25  1  0  0  0  0
 18 19  1  0  0  0  0
 18 21  1  0  0  0  0
 18 26  1  0  0  0  0
 19 20  2  0  0  0  0
 19 36  1  0  0  0  0
 21 22  1  0  0  0  0
 21 23  1  0  0  0  0
 21 27  1  0  0  0  0
 22 24  1  0  0  0  0
 22 28  1  0  0  0  0
 22 29  1  0  0  0  0
 23 30  1  0  0  0  0
 23 31  1  0  0  0  0
 23 32  1  0  0  0  0
 24 33  1  0  0  0  0
 24 34  1  0  0  0  0
 24 35  1  0  0  0  0
 36 37  1  0  0  0  0
 36 41  1  0  0  0  0
 37 38  1  0  0  0  0
 37 40  1  0  0  0  0
 37 42  1  0  0  0  0
 38 39  2  0  0  0  0
 38 46  1  0  0  0  0
 40 43  1  0  0  0  0
 40 44  1  0  0  0  0
 40 45  1  0  0  0  0
 46 47  1  0  0  0  0
 46 48  1  0  0  0  0
 47 49  1  0  0  0  0
 47 50  1  0  0  0  0
 47 51  1  0  0  0  0
M  END
$$$$

  -OEChem-05262216503D

 51 50  0     1  0  0  0  0  0999 V2000
    1.1554   -4.2884    0.3972 C   0  0  0  0  0  0  0  0  0  0  0  0
    0.0021   -4.3028   -0.0115 O   0  0  0  0  0  0  0  0  0  0  0  0
    2.3066   -4.4930   -0.5666 C   0  0  0  0  0  0  0  0  0  0  0  0
    1.9577   -5.0009   -1.4697 H   0  0  0  0  0  0  0  0  0  0  0  0
    2.7293   -3.5237   -0.8443 H   0  0  0  0  0  0  0  0  0  0  0  0
    3.0842   -5.1009   -0.0977 H   0  0  0  0  0  0  0  0  0  0  0  0
    1.4054   -3.9408    1.7076 N   0  0  0  0  0  0  0  0  0  0  0  0
    0.3676   -3.4241    2.6122 C   0  0  2  0  0  0  0  0  0  0  0  0
    0.0840   -1.9364    2.3053 C   0  0  0  0  0  0  0  0  0  0  0  0
    0.4436   -1.0512    3.0754 O   0  0  0  0  0  0  0  0  0  0  0  0
    0.8534   -3.6629    4.0467 C   0  0  0  0  0  0  0  0  0  0  0  0
    2.3676   -3.6346    1.8906 H   0  0  0  0  0  0  0  0  0  0  0  0
   -0.5665   -3.9789    2.4746 H   0  0  0  0  0  0  0  0  0  0  0  0
    1.7972   -3.1373    4.2262 H   0  0  0  0  0  0  0  0  0  0  0  0
    0.1115   -3.2999    4.7646 H   0  0  0  0  0  0  0  0  0  0  0  0
    1.0114   -4.7315    4.2211 H   0  0  0  0  0  0  0  0  0  0  0  0
   -0.3658   -1.6113    1.0351 N   0  0  0  0  0  0  0  0  0  0  0  0
   -0.0679   -0.3457    0.3336 C   0  0  2  0  0  0  0  0  0  0  0  0
    1.4643   -0.2085    0.1658 C   0  0  0  0  0  0  0  0  0  0  0  0
    1.9895   -0.4187   -0.9217 O   0  0  0  0  0  0  0  0  0  0  0  0
   -0.7492    0.8995    0.9756 C   0  0  2  0  0  0  0  0  0  0  0  0
   -2.2862    0.7453    0.8926 C   0  0  0  0  0  0  0  0  0  0  0  0
   -0.3145    2.1905    0.2520 C   0  0  0  0  0  0  0  0  0  0  0  0
   -3.0385    1.7840    1.7299 C   0  0  0  0  0  0  0  0  0  0  0  0
   -0.5032   -2.4348    0.4402 H   0  0  0  0  0  0  0  0  0  0  0  0
   -0.4712   -0.4338   -0.6807 H   0  0  0  0  0  0  0  0  0  0  0  0
   -0.4556    0.9876    2.0247 H   0  0  0  0  0  0  0  0  0  0  0  0
   -2.6138    0.8096   -0.1501 H   0  0  0  0  0  0  0  0  0  0  0  0
   -2.5716   -0.2430    1.2656 H   0  0  0  0  0  0  0  0  0  0  0  0
   -0.5764    2.1434   -0.8097 H   0  0  0  0  0  0  0  0  0  0  0  0
   -0.7982    3.0667    0.6907 H   0  0  0  0  0  0  0  0  0  0  0  0
    0.7649    2.3452    0.3363 H   0  0  0  0  0  0  0  0  0  0  0  0
   -2.6748    1.7797    2.7622 H   0  0  0  0  0  0  0  0  0  0  0  0
   -4.1071    1.5488    1.7393 H   0  0  0  0  0  0  0  0  0  0  0  0
   -2.9175    2.7891    1.3170 H   0  0  0  0  0  0  0  0  0  0  0  0
    2.2652    0.1259    1.2403 N   0  0  0  0  0  0  0  0  0  0  0  0
    3.7283    0.0362    1.1874 C   0  0  2  0  0  0  0  0  0  0  0  0
    4.2609   -1.4125    1.0738 C   0  0  0  0  0  0  0  0  0  0  0  0
    3.7597   -2.3339    1.7133 O   0  0  0  0  0  0  0  0  0  0  0  0
    4.2755    0.6997    2.4524 C   0  0  0  0  0  0  0  0  0  0  0  0
    1.8089   -0.0042    2.1489 H   0  0  0  0  0  0  0  0  0  0  0  0
    4.0834    0.5984    0.3177 H   0  0  0  0  0  0  0  0  0  0  0  0
    3.9361    0.1622    3.3443 H   0  0  0  0  0  0  0  0  0  0  0  0
    5.3697    0.6982    2.4409 H   0  0  0  0  0  0  0  0  0  0  0  0
    3.9308    1.7364    2.5181 H   0  0  0  0  0  0  0  0  0  0  0  0
    5.3584   -1.6787    0.2755 N   0  0  0  0  0  0  0  0  0  0  0  0
    5.9155   -3.0126    0.0856 C   0  0  0  0  0  0  0  0  0  0  0  0
    5.6803   -0.9267   -0.3275 H   0  0  0  0  0  0  0  0  0  0  0  0
    6.1067   -3.4932    1.0509 H   0  0  0  0  0  0  0  0  0  0  0  0
    5.2261   -3.6380   -0.4895 H   0  0  0  0  0  0  0  0  0  0  0  0
    6.8630   -2.9505   -0.4580 H   0  0  0  0  0  0  0  0  0  0  0  0
  1  2  2  0  0  0  0
  1  3  1  0  0  0  0
  1  7  1  0  0  0  0
  3  4  1  0  0  0  0
  3  5  1  0  0  0  0
  3  6  1  0  0  0  0
  7  8  1  0  0  0  0
  7 12  1  0  0  0  0
  8  9  1  0  0  0  0
  8 11  1  0  0  0  0
  8 13  1  0  0  0  0
  9 10  2  0  0  0  0
  9 17  1  0  0  0  0
 11 14  1  0  0  0  0
 11 15  1  0  0  0  0
 11 16  1  0  0  0  0
 17 18  1  0  0  0  0
 17 25  1  0  0  0  0
 18 19  1  0  0  0  0
 18 21  1  0  0  0  0
 18 26  1  0  0  0  0
 19 20  2  0  0  0  0
 19 36  1  0  0  0  0
 21 22  1  0  0  0  0
 21 23  1  0  0  0  0
 21 27  1  0  0  0  0
 22 24  1  0  0  0  0
 22 28  1  0  0  0  0
 22 29  1  0  0  0  0
 23 30  1  0  0  0  0
 23 31  1  0  0  0  0
 23 32  1  0  0  0  0
 24 33  1  0  0  0  0
 24 34  1  0  0  0  0
 24 35  1  0  0  0  0
 36 37  1  0  0  0  0
 36 41  1  0  0  0  0
 37 38  1  0  0  0  0
 37 40  1  0  0  0  0
 37 42  1  0  0  0  0
 38 39  2  0  0  0  0
 38 46  1  0  0  0  0
 40 43  1  0  0  0  0
 40 44  1  0  0  0  0
 40 45  1  0  0  0  0
 46 47  1  0  0  0  0
 46 48  1  0  0  0  0
 47 49  1  0  0  0  0
 47 50  1  0  0  0  0
 47 51  1  0  0  0  0
M  END
$$$$

  -OEChem-05262216503D

 51 50  0     1  0  0  0  0  0999 V2000
    0.8763   -4.5026    0.4772 C   0  0  0  0  0  0  0  0  0  0  0  0
   -0.2945   -4.4099    0.1343 O   0  0  0  0  0  0  0  0  0  0  0  0
    1.9355   -4.8899   -0.5353 C   0  0  0  0  0  0  0  0  0  0  0  0
    2.4478   -3.9930   -0.8923 H   0  0  0  0  0  0  0  0  0  0  0  0
    2.6663   -5.5594   -0.0750 H   0  0  0  0  0  0  0  0  0  0  0  0
    1.4764   -5.3996   -1.3866 H   0  0  0  0  0  0  0  0  0  0  0  0
    1.2426   -4.1139    1.7480 N   0  0  0  0  0  0  0  0  0  0  0  0
    0.3144   -3.4758    2.6943 C   0  0  2  0  0  0  0  0  0  0  0  0
    0.1405   -1.9775    2.3562 C   0  0  0  0  0  0  0  0  0  0  0  0
    0.5598   -1.1045    3.1087 O   0  0  0  0  0  0  0  0  0  0  0  0
    0.8636   -3.7171    4.1053 C   0  0  0  0  0  0  0  0  0  0  0  0
    2.2385   -3.8908    1.8532 H   0  0  0  0  0  0  0  0  0  0  0  0
   -0.6722   -3.9473    2.6327 H   0  0  0  0  0  0  0  0  0  0  0  0
    1.8599   -3.2755    4.2112 H   0  0  0  0  0  0  0  0  0  0  0  0
    0.2025   -3.2672    4.8525 H   0  0  0  0  0  0  0  0  0  0  0  0
    0.9345   -4.7902    4.3070 H   0  0  0  0  0  0  0  0  0  0  0  0
   -0.3092   -1.6467    1.0882 N   0  0  0  0  0  0  0  0  0  0  0  0
   -0.0212   -0.3989    0.3464 C   0  0  2  0  0  0  0  0  0  0  0  0
    1.5029   -0.2306    0.1259 C   0  0  0  0  0  0  0  0  0  0  0  0
    1.9666   -0.2628   -1.0081 O   0  0  0  0  0  0  0  0  0  0  0  0
   -0.6819    0.8511    0.9996 C   0  0  2  0  0  0  0  0  0  0  0  0
   -2.2215    0.6985    0.9712 C   0  0  0  0  0  0  0  0  0  0  0  0
   -0.2702    2.1387    0.2560 C   0  0  0  0  0  0  0  0  0  0  0  0
   -2.9422    1.7461    1.8252 C   0  0  0  0  0  0  0  0  0  0  0  0
   -0.5370   -2.4688    0.5202 H   0  0  0  0  0  0  0  0  0  0  0  0
   -0.4577   -0.5054   -0.6522 H   0  0  0  0  0  0  0  0  0  0  0  0
   -0.3515    0.9435    2.0380 H   0  0  0  0  0  0  0  0  0  0  0  0
   -2.5841    0.7552   -0.0604 H   0  0  0  0  0  0  0  0  0  0  0  0
   -2.4969   -0.2860    1.3614 H   0  0  0  0  0  0  0  0  0  0  0  0
   -0.5597    2.0840   -0.7982 H   0  0  0  0  0  0  0  0  0  0  0  0
   -0.7434    3.0174    0.7009 H   0  0  0  0  0  0  0  0  0  0  0  0
    0.8109    2.2961    0.3117 H   0  0  0  0  0  0  0  0  0  0  0  0
   -2.5399    1.7518    2.8431 H   0  0  0  0  0  0  0  0  0  0  0  0
   -4.0097    1.5119    1.8772 H   0  0  0  0  0  0  0  0  0  0  0  0
   -2.8366    2.7470    1.3982 H   0  0  0  0  0  0  0  0  0  0  0  0
    2.3769   -0.1516    1.1922 N   0  0  0  0  0  0  0  0  0  0  0  0
    3.8251   -0.3306    1.0549 C   0  0  2  0  0  0  0  0  0  0  0  0
    4.2353   -1.7992    0.7999 C   0  0  0  0  0  0  0  0  0  0  0  0
    3.7211   -2.7253    1.4234 O   0  0  0  0  0  0  0  0  0  0  0  0
    4.4778    0.1834    2.3392 C   0  0  0  0  0  0  0  0  0  0  0  0
    1.9506   -0.3345    2.1060 H   0  0  0  0  0  0  0  0  0  0  0  0
    4.1829    0.2770    0.2171 H   0  0  0  0  0  0  0  0  0  0  0  0
    4.1351   -0.3975    3.2021 H   0  0  0  0  0  0  0  0  0  0  0  0
    5.5669    0.0991    2.2736 H   0  0  0  0  0  0  0  0  0  0  0  0
    4.2205    1.2346    2.5021 H   0  0  0  0  0  0  0  0  0  0  0  0
    5.2458   -2.0814   -0.1003 N   0  0  0  0  0  0  0  0  0  0  0  0
    5.7062   -3.4307   -0.4030 C   0  0  0  0  0  0  0  0  0  0  0  0
    5.5779   -1.3120   -0.6754 H   0  0  0  0  0  0  0  0  0  0  0  0
    5.9805   -3.9589    0.5165 H   0  0  0  0  0  0  0  0  0  0  0  0
    4.9238   -3.9977   -0.9167 H   0  0  0  0  0  0  0  0  0  0  0  0
    6.5872   -3.3910   -1.0509 H   0  0  0  0  0  0  0  0  0  0  0  0
  1  2  2  0  0  0  0
  1  3  1  0  0  0  0
  1  7  1  0  0  0  0
  3  4  1  0  0  0  0
  3  5  1  0  0  0  0
  3  6  1  0  0  0  0
  7  8  1  0  0  0  0
  7 12  1  0  0  0  0
  8  9  1  0  0  0  0
  8 11  1  0  0  0  0
  8 13  1  0  0  0  0
  9 10  2  0  0  0  0
  9 17  1  0  0  0  0
 11 14  1  0  0  0  0
 11 15  1  0  0  0  0
 11 16  1  0  0  0  0
 17 18  1  0  0  0  0
 17 25  1  0  0  0  0
 18 19  1  0  0  0  0
 18 21  1  0  0  0  0
 18 26  1  0  0  0  0
 19 20  2  0  0  0  0
 19 36  1  0  0  0  0
 21 22  1  0  0  0  0
 21 23  1  0  0  0  0
 21 27  1  0  0  0  0
 22 24  1  0  0  0  0
 22 28  1  0  0  0  0
 22 29  1  0  0  0  0
 23 30  1  0  0  0  0
 23 31  1  0  0  0  0
 23 32  1  0  0  0  0
 24 33  1  0  0  0  0
 24 34  1  0  0  0  0
 24 35  1  0  0  0  0
 36 37  1  0  0  0  0
 36 41  1  0  0  0  0
 37 38  1  0  0  0  0
 37 40  1  0  0  0  0
 37 42  1  0  0  0  0
 38 39  2  0  0  0  0
 38 46  1  0  0  0  0
 40 43  1  0  0  0  0
 40 44  1  0  0  0  0
 40 45  1  0  0  0  0
 46 47  1  0  0  0  0
 46 48  1  0  0  0  0
 47 49  1  0  0  0  0
 47 50  1  0  0  0  0
 47 51  1  0  0  0  0
M  END
$$$$

  -OEChem-05262216503D

 51 50  0     1  0  0  0  0  0999 V2000
    0.7028   -4.6389    0.5290 C   0  0  0  0  0  0  0  0  0  0  0  0
   -0.4700   -4.4725    0.2245 O   0  0  0  0  0  0  0  0  0  0  0  0
    1.6859   -5.1463   -0.5070 C   0  0  0  0  0  0  0  0  0  0  0  0
    2.0124   -4.3168   -1.1388 H   0  0  0  0  0  0  0  0  0  0  0  0
    2.5597   -5.5844   -0.0175 H   0  0  0  0  0  0  0  0  0  0  0  0
    1.2125   -5.9084   -1.1314 H   0  0  0  0  0  0  0  0  0  0  0  0
    1.1437   -4.2242    1.7675 N   0  0  0  0  0  0  0  0  0  0  0  0
    0.2880   -3.5220    2.7386 C   0  0  2  0  0  0  0  0  0  0  0  0
    0.1685   -2.0212    2.3859 C   0  0  0  0  0  0  0  0  0  0  0  0
    0.6108   -1.1573    3.1350 O   0  0  0  0  0  0  0  0  0  0  0  0
    0.8792   -3.7718    4.1313 C   0  0  0  0  0  0  0  0  0  0  0  0
    2.1564   -4.0730    1.8312 H   0  0  0  0  0  0  0  0  0  0  0  0
   -0.7222   -3.9448    2.7228 H   0  0  0  0  0  0  0  0  0  0  0  0
    1.8958   -3.3704    4.1973 H   0  0  0  0  0  0  0  0  0  0  0  0
    0.2649   -3.2885    4.8975 H   0  0  0  0  0  0  0  0  0  0  0  0
    0.9136   -4.8450    4.3417 H   0  0  0  0  0  0  0  0  0  0  0  0
   -0.2410   -1.6875    1.1055 N   0  0  0  0  0  0  0  0  0  0  0  0
    0.0572   -0.4468    0.3512 C   0  0  2  0  0  0  0  0  0  0  0  0
    1.5825   -0.2480    0.1483 C   0  0  0  0  0  0  0  0  0  0  0  0
    2.0308   -0.1049   -0.9835 O   0  0  0  0  0  0  0  0  0  0  0  0
   -0.6305    0.7971    0.9885 C   0  0  2  0  0  0  0  0  0  0  0  0
   -2.1684    0.6262    0.9321 C   0  0  0  0  0  0  0  0  0  0  0  0
   -0.2227    2.0914    0.2535 C   0  0  0  0  0  0  0  0  0  0  0  0
   -2.9196    1.6662    1.7687 C   0  0  0  0  0  0  0  0  0  0  0  0
   -0.5188   -2.5029    0.5504 H   0  0  0  0  0  0  0  0  0  0  0  0
   -0.3630   -0.5663   -0.6528 H   0  0  0  0  0  0  0  0  0  0  0  0
   -0.3192    0.8922    2.0330 H   0  0  0  0  0  0  0  0  0  0  0  0
   -2.5109    0.6771   -0.1066 H   0  0  0  0  0  0  0  0  0  0  0  0
   -2.4413   -0.3602    1.3188 H   0  0  0  0  0  0  0  0  0  0  0  0
   -0.4938    2.0345   -0.8055 H   0  0  0  0  0  0  0  0  0  0  0  0
   -0.7142    2.9634    0.6916 H   0  0  0  0  0  0  0  0  0  0  0  0
    0.8550    2.2639    0.3271 H   0  0  0  0  0  0  0  0  0  0  0  0
   -2.5440    1.6734    2.7967 H   0  0  0  0  0  0  0  0  0  0  0  0
   -3.9860    1.4227    1.7921 H   0  0  0  0  0  0  0  0  0  0  0  0
   -2.8119    2.6686    1.3460 H   0  0  0  0  0  0  0  0  0  0  0  0
    2.4815   -0.4350    1.1797 N   0  0  0  0  0  0  0  0  0  0  0  0
    3.9074   -0.7039    0.9816 C   0  0  2  0  0  0  0  0  0  0  0  0
    4.1697   -2.1516    0.5115 C   0  0  0  0  0  0  0  0  0  0  0  0
    3.7200   -3.1107    1.1358 O   0  0  0  0  0  0  0  0  0  0  0  0
    4.6207   -0.4306    2.3075 C   0  0  0  0  0  0  0  0  0  0  0  0
    2.0625   -0.6675    2.0845 H   0  0  0  0  0  0  0  0  0  0  0  0
    4.3063   -0.0162    0.2288 H   0  0  0  0  0  0  0  0  0  0  0  0
    4.2370   -1.0895    3.0937 H   0  0  0  0  0  0  0  0  0  0  0  0
    5.6965   -0.6028    2.2043 H   0  0  0  0  0  0  0  0  0  0  0  0
    4.4631    0.6076    2.6155 H   0  0  0  0  0  0  0  0  0  0  0  0
    4.9528   -2.3778   -0.6047 N   0  0  0  0  0  0  0  0  0  0  0  0
    5.2239   -3.7019   -1.1503 C   0  0  0  0  0  0  0  0  0  0  0  0
    5.1748   -1.5650   -1.1743 H   0  0  0  0  0  0  0  0  0  0  0  0
    5.4959   -4.4028   -0.3539 H   0  0  0  0  0  0  0  0  0  0  0  0
    4.3447   -4.0872   -1.6753 H   0  0  0  0  0  0  0  0  0  0  0  0
    6.0571   -3.6523   -1.8580 H   0  0  0  0  0  0  0  0  0  0  0  0
  1  2  2  0  0  0  0
  1  3  1  0  0  0  0
  1  7  1  0  0  0  0
  3  4  1  0  0  0  0
  3  5  1  0  0  0  0
  3  6  1  0  0  0  0
  7  8  1  0  0  0  0
  7 12  1  0  0  0  0
  8  9  1  0  0  0  0
  8 11  1  0  0  0  0
  8 13  1  0  0  0  0
  9 10  2  0  0  0  0
  9 17  1  0  0  0  0
 11 14  1  0  0  0  0
 11 15  1  0  0  0  0
 11 16  1  0  0  0  0
 17 18  1  0  0  0  0
 17 25  1  0  0  0  0
 18 19  1  0  0  0  0
 18 21  1  0  0  0  0
 18 26  1  0  0  0  0
 19 20  2  0  0  0  0
 19 36  1  0  0  0  0
 21 22  1  0  0  0  0
 21 23  1  0  0  0  0
 21 27  1  0  0  0  0
 22 24  1  0  0  0  0
 22 28  1  0  0  0  0
 22 29  1  0  0  0  0
 23 30  1  0  0  0  0
 23 31  1  0  0  0  0
 23 32  1  0  0  0  0
 24 33  1  0  0  0  0
 24 34  1  0  0  0  0
 24 35  1  0  0  0  0
 36 37  1  0  0  0  0
 36 41  1  0  0  0  0
 37 38  1  0  0  0  0
 37 40  1  0  0  0  0
 37 42  1  0  0  0  0
 38 39  2  0  0  0  0
 38 46  1  0  0  0  0
 40 43  1  0  0  0  0
 40 44  1  0  0  0  0
 40 45  1  0  0  0  0
 46 47  1  0  0  0  0
 46 48  1  0  0  0  0
 47 49  1  0  0  0  0
 47 50  1  0  0  0  0
 47 51  1  0  0  0  0
M  END
$$$$

  -OEChem-05262216503D

 51 50  0     1  0  0  0  0  0999 V2000
    0.3568   -4.7053    0.4151 C   0  0  0  0  0  0  0  0  0  0  0  0
   -0.8190   -4.4304    0.2206 O   0  0  0  0  0  0  0  0  0  0  0  0
    1.1902   -5.3061   -0.6996 C   0  0  0  0  0  0  0  0  0  0  0  0
    1.7661   -4.5206   -1.1944 H   0  0  0  0  0  0  0  0  0  0  0  0
    1.8799   -6.0498   -0.2929 H   0  0  0  0  0  0  0  0  0  0  0  0
    0.5430   -5.7907   -1.4355 H   0  0  0  0  0  0  0  0  0  0  0  0
    0.9467   -4.3421    1.6069 N   0  0  0  0  0  0  0  0  0  0  0  0
    0.2505   -3.5856    2.6614 C   0  0  2  0  0  0  0  0  0  0  0  0
    0.2148   -2.0748    2.3327 C   0  0  0  0  0  0  0  0  0  0  0  0
    0.7823   -1.2565    3.0469 O   0  0  0  0  0  0  0  0  0  0  0  0
    0.9589   -3.8988    3.9850 C   0  0  0  0  0  0  0  0  0  0  0  0
    1.9699   -4.2776    1.5741 H   0  0  0  0  0  0  0  0  0  0  0  0
   -0.7864   -3.9277    2.7461 H   0  0  0  0  0  0  0  0  0  0  0  0
    2.0068   -3.5837    3.9452 H   0  0  0  0  0  0  0  0  0  0  0  0
    0.4696   -3.3745    4.8120 H   0  0  0  0  0  0  0  0  0  0  0  0
    0.9251   -4.9733    4.1888 H   0  0  0  0  0  0  0  0  0  0  0  0
   -0.2608   -1.6939    1.0897 N   0  0  0  0  0  0  0  0  0  0  0  0
    0.0020   -0.4372    0.3483 C   0  0  2  0  0  0  0  0  0  0  0  0
    1.5115   -0.2227    0.0459 C   0  0  0  0  0  0  0  0  0  0  0  0
    1.8492    0.1534   -1.0706 O   0  0  0  0  0  0  0  0  0  0  0  0
   -0.6510    0.7794    1.0726 C   0  0  2  0  0  0  0  0  0  0  0  0
   -2.1902    0.6044    1.1012 C   0  0  0  0  0  0  0  0  0  0  0  0
   -0.2886    2.1074    0.3767 C   0  0  0  0  0  0  0  0  0  0  0  0
   -2.8960    1.6073    2.0190 C   0  0  0  0  0  0  0  0  0  0  0  0
   -0.6495   -2.4732    0.5503 H   0  0  0  0  0  0  0  0  0  0  0  0
   -0.4820   -0.5287   -0.6295 H   0  0  0  0  0  0  0  0  0  0  0  0
   -0.2803    0.8296    2.1007 H   0  0  0  0  0  0  0  0  0  0  0  0
   -2.5929    0.6925    0.0868 H   0  0  0  0  0  0  0  0  0  0  0  0
   -2.4387   -0.3967    1.4656 H   0  0  0  0  0  0  0  0  0  0  0  0
   -0.6033    2.0907   -0.6716 H   0  0  0  0  0  0  0  0  0  0  0  0
   -0.7694    2.9552    0.8705 H   0  0  0  0  0  0  0  0  0  0  0  0
    0.7898    2.2877    0.4139 H   0  0  0  0  0  0  0  0  0  0  0  0
   -2.4545    1.5862    3.0202 H   0  0  0  0  0  0  0  0  0  0  0  0
   -3.9560    1.3493    2.1026 H   0  0  0  0  0  0  0  0  0  0  0  0
   -2.8275    2.6241    1.6238 H   0  0  0  0  0  0  0  0  0  0  0  0
    2.4955   -0.7080    0.8853 N   0  0  0  0  0  0  0  0  0  0  0  0
    3.8772   -1.0063    0.4985 C   0  0  2  0  0  0  0  0  0  0  0  0
    4.0679   -2.4894    0.1129 C   0  0  0  0  0  0  0  0  0  0  0  0
    3.5219   -3.3869    0.7521 O   0  0  0  0  0  0  0  0  0  0  0  0
    4.7746   -0.6431    1.6831 C   0  0  0  0  0  0  0  0  0  0  0  0
    2.1638   -1.0438    1.7926 H   0  0  0  0  0  0  0  0  0  0  0  0
    4.1695   -0.3877   -0.3561 H   0  0  0  0  0  0  0  0  0  0  0  0
    4.5140   -1.2439    2.5609 H   0  0  0  0  0  0  0  0  0  0  0  0
    5.8253   -0.8240    1.4365 H   0  0  0  0  0  0  0  0  0  0  0  0
    4.6560    0.4147    1.9379 H   0  0  0  0  0  0  0  0  0  0  0  0
    4.8997   -2.8276   -0.9381 N   0  0  0  0  0  0  0  0  0  0  0  0
    5.1350   -4.1980   -1.3760 C   0  0  0  0  0  0  0  0  0  0  0  0
    5.2786   -2.0648   -1.4931 H   0  0  0  0  0  0  0  0  0  0  0  0
    5.4790   -4.8160   -0.5398 H   0  0  0  0  0  0  0  0  0  0  0  0
    4.2174   -4.6340   -1.7834 H   0  0  0  0  0  0  0  0  0  0  0  0
    5.9030   -4.2175   -2.1554 H   0  0  0  0  0  0  0  0  0  0  0  0
  1  2  2  0  0  0  0
  1  3  1  0  0  0  0
  1  7  1  0  0  0  0
  3  4  1  0  0  0  0
  3  5  1  0  0  0  0
  3  6  1  0  0  0  0
  7  8  1  0  0  0  0
  7 12  1  0  0  0  0
  8  9  1  0  0  0  0
  8 11  1  0  0  0  0
  8 13  1  0  0  0  0
  9 10  2  0  0  0  0
  9 17  1  0  0  0  0
 11 14  1  0  0  0  0
 11 15  1  0  0  0  0
 11 16  1  0  0  0  0
 17 18  1  0  0  0  0
 17 25  1  0  0  0  0
 18 19  1  0  0  0  0
 18 21  1  0  0  0  0
 18 26  1  0  0  0  0
 19 20  2  0  0  0  0
 19 36  1  0  0  0  0
 21 22  1  0  0  0  0
 21 23  1  0  0  0  0
 21 27  1  0  0  0  0
 22 24  1  0  0  0  0
 22 28  1  0  0  0  0
 22 29  1  0  0  0  0
 23 30  1  0  0  0  0
 23 31  1  0  0  0  0
 23 32  1  0  0  0  0
 24 33  1  0  0  0  0
 24 34  1  0  0  0  0
 24 35  1  0  0  0  0
 36 37  1  0  0  0  0
 36 41  1  0  0  0  0
 37 38  1  0  0  0  0
 37 40  1  0  0  0  0
 37 42  1  0  0  0  0
 38 39  2  0  0  0  0
 38 46  1  0  0  0  0
 40 43  1  0  0  0  0
 40 44  1  0  0  0  0
 40 45  1  0  0  0  0
 46 47  1  0  0  0  0
 46 48  1  0  0  0  0
 47 49  1  0  0  0  0
 47 50  1  0  0  0  0
 47 51  1  0  0  0  0
M  END
$$$$

  -OEChem-05262216503D

 51 50  0     1  0  0  0  0  0999 V2000
    0.0316   -4.6786    0.2429 C   0  0  0  0  0  0  0  0  0  0  0  0
   -1.1206   -4.2940    0.0992 O   0  0  0  0  0  0  0  0  0  0  0  0
    0.7628   -5.3342   -0.9126 C   0  0  0  0  0  0  0  0  0  0  0  0
    1.4207   -4.6076   -1.3952 H   0  0  0  0  0  0  0  0  0  0  0  0
    1.3644   -6.1705   -0.5485 H   0  0  0  0  0  0  0  0  0  0  0  0
    0.0460   -5.7088   -1.6483 H   0  0  0  0  0  0  0  0  0  0  0  0
    0.6951   -4.3961    1.4180 N   0  0  0  0  0  0  0  0  0  0  0  0
    0.1084   -3.6092    2.5170 C   0  0  2  0  0  0  0  0  0  0  0  0
    0.1888   -2.0925    2.2243 C   0  0  0  0  0  0  0  0  0  0  0  0
    0.8697   -1.3481    2.9182 O   0  0  0  0  0  0  0  0  0  0  0  0
    0.8385   -4.0152    3.8033 C   0  0  0  0  0  0  0  0  0  0  0  0
    1.7177   -4.4325    1.3514 H   0  0  0  0  0  0  0  0  0  0  0  0
   -0.9497   -3.8649    2.6366 H   0  0  0  0  0  0  0  0  0  0  0  0
    1.9063   -3.7842    3.7293 H   0  0  0  0  0  0  0  0  0  0  0  0
    0.4254   -3.4765    4.6621 H   0  0  0  0  0  0  0  0  0  0  0  0
    0.7255   -5.0889    3.9823 H   0  0  0  0  0  0  0  0  0  0  0  0
   -0.2893   -1.6431    1.0061 N   0  0  0  0  0  0  0  0  0  0  0  0
    0.0102   -0.3697    0.3069 C   0  0  2  0  0  0  0  0  0  0  0  0
    1.5230   -0.1988   -0.0156 C   0  0  0  0  0  0  0  0  0  0  0  0
    1.8523    0.3936   -1.0366 O   0  0  0  0  0  0  0  0  0  0  0  0
   -0.5920    0.8308    1.1015 C   0  0  2  0  0  0  0  0  0  0  0  0
   -2.1359    0.7010    1.1496 C   0  0  0  0  0  0  0  0  0  0  0  0
   -0.2042    2.1836    0.4696 C   0  0  0  0  0  0  0  0  0  0  0  0
   -2.7946    1.6789    2.1275 C   0  0  0  0  0  0  0  0  0  0  0  0
   -0.7720   -2.3668    0.4653 H   0  0  0  0  0  0  0  0  0  0  0  0
   -0.4917   -0.4024   -0.6655 H   0  0  0  0  0  0  0  0  0  0  0  0
   -0.2024    0.8169    2.1240 H   0  0  0  0  0  0  0  0  0  0  0  0
   -2.5519    0.8513    0.1478 H   0  0  0  0  0  0  0  0  0  0  0  0
   -2.4114   -0.3082    1.4693 H   0  0  0  0  0  0  0  0  0  0  0  0
   -0.5229    2.2248   -0.5768 H   0  0  0  0  0  0  0  0  0  0  0  0
   -0.6630    3.0174    1.0057 H   0  0  0  0  0  0  0  0  0  0  0  0
    0.8778    2.3378    0.5113 H   0  0  0  0  0  0  0  0  0  0  0  0
   -2.3304    1.6024    3.1157 H   0  0  0  0  0  0  0  0  0  0  0  0
   -3.8584    1.4430    2.2268 H   0  0  0  0  0  0  0  0  0  0  0  0
   -2.7100    2.7103    1.7758 H   0  0  0  0  0  0  0  0  0  0  0  0
    2.4764   -0.9899    0.5961 N   0  0  0  0  0  0  0  0  0  0  0  0
    3.8018   -1.3348    0.0738 C   0  0  2  0  0  0  0  0  0  0  0  0
    3.9227   -2.8448   -0.2266 C   0  0  0  0  0  0  0  0  0  0  0  0
    3.3116   -3.6757    0.4432 O   0  0  0  0  0  0  0  0  0  0  0  0
    4.8341   -0.9136    1.1211 C   0  0  0  0  0  0  0  0  0  0  0  0
    2.1704   -1.4412    1.4597 H   0  0  0  0  0  0  0  0  0  0  0  0
    4.0010   -0.7884   -0.8536 H   0  0  0  0  0  0  0  0  0  0  0  0
    4.6661   -1.4478    2.0622 H   0  0  0  0  0  0  0  0  0  0  0  0
    5.8472   -1.1341    0.7711 H   0  0  0  0  0  0  0  0  0  0  0  0
    4.7598    0.1616    1.3133 H   0  0  0  0  0  0  0  0  0  0  0  0
    4.7420   -3.2843   -1.2495 N   0  0  0  0  0  0  0  0  0  0  0  0
    4.8986   -4.6876   -1.6126 C   0  0  0  0  0  0  0  0  0  0  0  0
    5.2007   -2.5762   -1.8166 H   0  0  0  0  0  0  0  0  0  0  0  0
    5.2238   -5.2754   -0.7477 H   0  0  0  0  0  0  0  0  0  0  0  0
    3.9522   -5.0957   -1.9816 H   0  0  0  0  0  0  0  0  0  0  0  0
    5.6509   -4.7923   -2.4003 H   0  0  0  0  0  0  0  0  0  0  0  0
  1  2  2  0  0  0  0
  1  3  1  0  0  0  0
  1  7  1  0  0  0  0
  3  4  1  0  0  0  0
  3  5  1  0  0  0  0
  3  6  1  0  0  0  0
  7  8  1  0  0  0  0
  7 12  1  0  0  0  0
  8  9  1  0  0  0  0
  8 11  1  0  0  0  0
  8 13  1  0  0  0  0
  9 10  2  0  0  0  0
  9 17  1  0  0  0  0
 11 14  1  0  0  0  0
 11 15  1  0  0  0  0
 11 16  1  0  0  0  0
 17 18  1  0  0  0  0
 17 25  1  0  0  0  0
 18 19  1  0  0  0  0
 18 21  1  0  0  0  0
 18 26  1  0  0  0  0
 19 20  2  0  0  0  0
 19 36  1  0  0  0  0
 21 22  1  0  0  0  0
 21 23  1  0  0  0  0
 21 27  1  0  0  0  0
 22 24  1  0  0  0  0
 22 28  1  0  0  0  0
 22 29  1  0  0  0  0
 23 30  1  0  0  0  0
 23 31  1  0  0  0  0
 23 32  1  0  0  0  0
 24 33  1  0  0  0  0
 24 34  1  0  0  0  0
 24 35  1  0  0  0  0
 36 37  1  0  0  0  0
 36 41  1  0  0  0  0
 37 38  1  0  0  0  0
 37 40  1  0  0  0  0
 37 42  1  0  0  0  0
 38 39  2  0  0  0  0
 38 46  1  0  0  0  0
 40 43  1  0  0  0  0
 40 44  1  0  0  0  0
 40 45  1  0  0  0  0
 46 47  1  0  0  0  0
 46 48  1  0  0  0  0
 47 49  1  0  0  0  0
 47 50  1  0  0  0  0
 47 51  1  0  0  0  0
M  END
$$$$

  -OEChem-05262216503D

 51 50  0     1  0  0  0  0  0999 V2000
   -0.0887   -4.2980    3.1442 C   0  0  0  0  0  0  0  0  0  0  0  0
   -0.8668   -3.3608    3.2033 O   0  0  0  0  0  0  0  0  0  0  0  0
    0.4478   -4.9150    4.4219 C   0  0  0  0  0  0  0  0  0  0  0  0
    1.5356   -4.8166    4.4566 H   0  0  0  0  0  0  0  0  0  0  0  0
    0.0215   -4.4088    5.2926 H   0  0  0  0  0  0  0  0  0  0  0  0
    0.1819   -5.9738    4.4662 H   0  0  0  0  0  0  0  0  0  0  0  0
    0.3225   -4.7922    1.9207 N   0  0  0  0  0  0  0  0  0  0  0  0
   -0.0004   -4.1858    0.6167 C   0  0  2  0  0  0  0  0  0  0  0  0
    0.5643   -2.7503    0.4766 C   0  0  0  0  0  0  0  0  0  0  0  0
    1.7825   -2.6104    0.4816 O   0  0  0  0  0  0  0  0  0  0  0  0
   -1.5073   -4.2921    0.3223 C   0  0  0  0  0  0  0  0  0  0  0  0
    1.0674   -5.4827    1.9503 H   0  0  0  0  0  0  0  0  0  0  0  0
    0.5067   -4.7775   -0.1522 H   0  0  0  0  0  0  0  0  0  0  0  0
   -2.0958   -3.6690    1.0019 H   0  0  0  0  0  0  0  0  0  0  0  0
   -1.7165   -3.9751   -0.7041 H   0  0  0  0  0  0  0  0  0  0  0  0
   -1.8393   -5.3288    0.4344 H   0  0  0  0  0  0  0  0  0  0  0  0
   -0.2558   -1.6689    0.1825 N   0  0  0  0  0  0  0  0  0  0  0  0
    0.1039   -0.2230    0.1726 C   0  0  2  0  0  0  0  0  0  0  0  0
    1.2335    0.1710   -0.8245 C   0  0  0  0  0  0  0  0  0  0  0  0
    1.3967    1.3427   -1.1368 O   0  0  0  0  0  0  0  0  0  0  0  0
    0.3844    0.1974    1.6548 C   0  0  2  0  0  0  0  0  0  0  0  0
   -0.9074    0.0345    2.5009 C   0  0  0  0  0  0  0  0  0  0  0  0
    0.9017    1.6453    1.7819 C   0  0  0  0  0  0  0  0  0  0  0  0
   -0.6731    0.1623    4.0098 C   0  0  0  0  0  0  0  0  0  0  0  0
   -1.2460   -1.8718    0.2950 H   0  0  0  0  0  0  0  0  0  0  0  0
   -0.7711    0.3370   -0.1718 H   0  0  0  0  0  0  0  0  0  0  0  0
    1.1564   -0.4638    2.0629 H   0  0  0  0  0  0  0  0  0  0  0  0
   -1.6460    0.7796    2.1879 H   0  0  0  0  0  0  0  0  0  0  0  0
   -1.3498   -0.9488    2.3281 H   0  0  0  0  0  0  0  0  0  0  0  0
    0.2122    2.3440    1.2974 H   0  0  0  0  0  0  0  0  0  0  0  0
    1.0157    1.9397    2.8273 H   0  0  0  0  0  0  0  0  0  0  0  0
    1.8885    1.7469    1.3213 H   0  0  0  0  0  0  0  0  0  0  0  0
    0.1346   -0.5038    4.3285 H   0  0  0  0  0  0  0  0  0  0  0  0
   -1.5826   -0.1188    4.5490 H   0  0  0  0  0  0  0  0  0  0  0  0
   -0.4200    1.1878    4.2902 H   0  0  0  0  0  0  0  0  0  0  0  0
    1.8262   -0.7938   -1.6118 N   0  0  0  0  0  0  0  0  0  0  0  0
    2.9735   -0.6230   -2.5179 C   0  0  2  0  0  0  0  0  0  0  0  0
    3.4948   -2.0093   -2.9441 C   0  0  0  0  0  0  0  0  0  0  0  0
    3.8983   -2.2026   -4.0825 O   0  0  0  0  0  0  0  0  0  0  0  0
    4.1344    0.1246   -1.8416 C   0  0  0  0  0  0  0  0  0  0  0  0
    1.6735   -1.7325   -1.2492 H   0  0  0  0  0  0  0  0  0  0  0  0
    2.6582   -0.0768   -3.4131 H   0  0  0  0  0  0  0  0  0  0  0  0
    4.3940   -0.3479   -0.8892 H   0  0  0  0  0  0  0  0  0  0  0  0
    5.0177    0.1145   -2.4883 H   0  0  0  0  0  0  0  0  0  0  0  0
    3.8717    1.1690   -1.6532 H   0  0  0  0  0  0  0  0  0  0  0  0
    3.5242   -3.0472   -2.0256 N   0  0  0  0  0  0  0  0  0  0  0  0
    4.0996   -4.3528   -2.3172 C   0  0  0  0  0  0  0  0  0  0  0  0
    3.2717   -2.8241   -1.0608 H   0  0  0  0  0  0  0  0  0  0  0  0
    5.1616   -4.2560   -2.5662 H   0  0  0  0  0  0  0  0  0  0  0  0
    4.0059   -5.0084   -1.4463 H   0  0  0  0  0  0  0  0  0  0  0  0
    3.5807   -4.8207   -3.1604 H   0  0  0  0  0  0  0  0  0  0  0  0
  1  2  2  0  0  0  0
  1  3  1  0  0  0  0
  1  7  1  0  0  0  0
  3  4  1  0  0  0  0
  3  5  1  0  0  0  0
  3  6  1  0  0  0  0
  7  8  1  0  0  0  0
  7 12  1  0  0  0  0
  8  9  1  0  0  0  0
  8 11  1  0  0  0  0
  8 13  1  0  0  0  0
  9 10  2  0  0  0  0
  9 17  1  0  0  0  0
 11 14  1  0  0  0  0
 11 15  1  0  0  0  0
 11 16  1  0  0  0  0
 17 18  1  0  0  0  0
 17 25  1  0  0  0  0
 18 19  1  0  0  0  0
 18 21  1  0  0  0  0
 18 26  1  0  0  0  0
 19 20  2  0  0  0  0
 19 36  1  0  0  0  0
 21 22  1  0  0  0  0
 21 23  1  0  0  0  0
 21 27  1  0  0  0  0
 22 24  1  0  0  0  0
 22 28  1  0  0  0  0
 22 29  1  0  0  0  0
 23 30  1  0  0  0  0
 23 31  1  0  0  0  0
 23 32  1  0  0  0  0
 24 33  1  0  0  0  0
 24 34  1  0  0  0  0
 24 35  1  0  0  0  0
 36 37  1  0  0  0  0
 36 41  1  0  0  0  0
 37 38  1  0  0  0  0
 37 40  1  0  0  0  0
 37 42  1  0  0  0  0
 38 39  2  0  0  0  0
 38 46  1  0  0  0  0
 40 43  1  0  0  0  0
 40 44  1  0  0  0  0
 40 45  1  0  0  0  0
 46 47  1  0  0  0  0
 46 48  1  0  0  0  0
 47 49  1  0  0  0  0
 47 50  1  0  0  0  0
 47 51  1  0  0  0  0
M  END
$$$$

  -OEChem-05262216503D

 51 50  0     1  0  0  0  0  0999 V2000
    1.5050   -5.1722    1.7562 C   0  0  0  0  0  0  0  0  0  0  0  0
    1.2301   -5.2777    2.9404 O   0  0  0  0  0  0  0  0  0  0  0  0
    2.8431   -5.6908    1.2630 C   0  0  0  0  0  0  0  0  0  0  0  0
    2.6890   -6.4456    0.4883 H   0  0  0  0  0  0  0  0  0  0  0  0
    3.4280   -4.8668    0.8469 H   0  0  0  0  0  0  0  0  0  0  0  0
    3.4027   -6.1393    2.0884 H   0  0  0  0  0  0  0  0  0  0  0  0
    0.6347   -4.6222    0.8324 N   0  0  0  0  0  0  0  0  0  0  0  0
   -0.5049   -3.7252    1.1222 C   0  0  2  0  0  0  0  0  0  0  0  0
   -0.0578   -2.2514    1.2565 C   0  0  0  0  0  0  0  0  0  0  0  0
    1.0390   -1.9673    1.7149 O   0  0  0  0  0  0  0  0  0  0  0  0
   -1.3761   -4.1396    2.3166 C   0  0  0  0  0  0  0  0  0  0  0  0
    1.0637   -4.5097   -0.0912 H   0  0  0  0  0  0  0  0  0  0  0  0
   -1.1530   -3.7860    0.2435 H   0  0  0  0  0  0  0  0  0  0  0  0
   -0.8744   -3.9156    3.2633 H   0  0  0  0  0  0  0  0  0  0  0  0
   -2.3245   -3.5948    2.3010 H   0  0  0  0  0  0  0  0  0  0  0  0
   -1.5907   -5.2121    2.2781 H   0  0  0  0  0  0  0  0  0  0  0  0
   -0.7391   -1.2856    0.5283 N   0  0  0  0  0  0  0  0  0  0  0  0
   -0.2650    0.0925    0.2272 C   0  0  2  0  0  0  0  0  0  0  0  0
    1.0717    0.0467   -0.5788 C   0  0  0  0  0  0  0  0  0  0  0  0
    1.6289    1.0569   -0.9881 O   0  0  0  0  0  0  0  0  0  0  0  0
   -0.2439    0.9246    1.5549 C   0  0  2  0  0  0  0  0  0  0  0  0
   -1.6886    1.0422    2.1102 C   0  0  0  0  0  0  0  0  0  0  0  0
    0.3432    2.3374    1.3591 C   0  0  0  0  0  0  0  0  0  0  0  0
   -1.7532    1.6022    3.5355 C   0  0  0  0  0  0  0  0  0  0  0  0
   -1.6251   -1.5736    0.1232 H   0  0  0  0  0  0  0  0  0  0  0  0
   -0.9856    0.5679   -0.4448 H   0  0  0  0  0  0  0  0  0  0  0  0
    0.3781    0.4103    2.2940 H   0  0  0  0  0  0  0  0  0  0  0  0
   -2.2890    1.6724    1.4461 H   0  0  0  0  0  0  0  0  0  0  0  0
   -2.1571    0.0545    2.1363 H   0  0  0  0  0  0  0  0  0  0  0  0
   -0.1499    2.8478    0.5260 H   0  0  0  0  0  0  0  0  0  0  0  0
    0.2287    2.9490    2.2560 H   0  0  0  0  0  0  0  0  0  0  0  0
    1.4162    2.2843    1.1572 H   0  0  0  0  0  0  0  0  0  0  0  0
   -1.0744    1.0509    4.1940 H   0  0  0  0  0  0  0  0  0  0  0  0
   -2.7701    1.5016    3.9267 H   0  0  0  0  0  0  0  0  0  0  0  0
   -1.4881    2.6622    3.5618 H   0  0  0  0  0  0  0  0  0  0  0  0
    1.4498   -1.1516   -1.1548 N   0  0  0  0  0  0  0  0  0  0  0  0
    2.7425   -1.4565   -1.7729 C   0  0  2  0  0  0  0  0  0  0  0  0
    2.7861   -2.9557   -2.1490 C   0  0  0  0  0  0  0  0  0  0  0  0
    2.0080   -3.7544   -1.6241 O   0  0  0  0  0  0  0  0  0  0  0  0
    3.8864   -1.1648   -0.7892 C   0  0  0  0  0  0  0  0  0  0  0  0
    0.9844   -1.9563   -0.7433 H   0  0  0  0  0  0  0  0  0  0  0  0
    2.8674   -0.8548   -2.6786 H   0  0  0  0  0  0  0  0  0  0  0  0
    3.7321   -1.7115    0.1473 H   0  0  0  0  0  0  0  0  0  0  0  0
    4.8472   -1.4679   -1.2154 H   0  0  0  0  0  0  0  0  0  0  0  0
    3.9412   -0.0964   -0.5604 H   0  0  0  0  0  0  0  0  0  0  0  0
    3.7123   -3.4236   -3.0622 N   0  0  0  0  0  0  0  0  0  0  0  0
    3.8319   -4.8265   -3.4406 C   0  0  0  0  0  0  0  0  0  0  0  0
    4.3547   -2.7485   -3.4681 H   0  0  0  0  0  0  0  0  0  0  0  0
    4.0787   -5.4395   -2.5673 H   0  0  0  0  0  0  0  0  0  0  0  0
    2.8934   -5.1892   -3.8730 H   0  0  0  0  0  0  0  0  0  0  0  0
    4.6244   -4.9511   -4.1849 H   0  0  0  0  0  0  0  0  0  0  0  0
  1  2  2  0  0  0  0
  1  3  1  0  0  0  0
  1  7  1  0  0  0  0
  3  4  1  0  0  0  0
  3  5  1  0  0  0  0
  3  6  1  0  0  0  0
  7  8  1  0  0  0  0
  7 12  1  0  0  0  0
  8  9  1  0  0  0  0
  8 11  1  0  0  0  0
  8 13  1  0  0  0  0
  9 10  2  0  0  0  0
  9 17  1  0  0  0  0
 11 14  1  0  0  0  0
 11 15  1  0  0  0  0
 11 16  1  0  0  0  0
 17 18  1  0  0  0  0
 17 25  1  0  0  0  0
 18 19  1  0  0  0  0
 18 21  1  0  0  0  0
 18 26  1  0  0  0  0
 19 20  2  0  0  0  0
 19 36  1  0  0  0  0
 21 22  1  0  0  0  0
 21 23  1  0  0  0  0
 21 27  1  0  0  0  0
 22 24  1  0  0  0  0
 22 28  1  0  0  0  0
 22 29  1  0  0  0  0
 23 30  1  0  0  0  0
 23 31  1  0  0  0  0
 23 32  1  0  0  0  0
 24 33  1  0  0  0  0
 24 34  1  0  0  0  0
 24 35  1  0  0  0  0
 36 37  1  0  0  0  0
 36 41  1  0  0  0  0
 37 38  1  0  0  0  0
 37 40  1  0  0  0  0
 37 42  1  0  0  0  0
 38 39  2  0  0  0  0
 38 46  1  0  0  0  0
 40 43  1  0  0  0  0
 40 44  1  0  0  0  0
 40 45  1  0  0  0  0
 46 47  1  0  0  0  0
 46 48  1  0  0  0  0
 47 49  1  0  0  0  0
 47 50  1  0  0  0  0
 47 51  1  0  0  0  0
M  END
$$$$

  -OEChem-05262216503D

 51 50  0     1  0  0  0  0  0999 V2000
    0.6040   -5.1101    0.8830 C   0  0  0  0  0  0  0  0  0  0  0  0
   -0.0292   -4.4665    0.0576 O   0  0  0  0  0  0  0  0  0  0  0  0
    1.3394   -6.3719    0.4735 C   0  0  0  0  0  0  0  0  0  0  0  0
    1.2761   -6.5106   -0.6098 H   0  0  0  0  0  0  0  0  0  0  0  0
    2.3924   -6.3028    0.7574 H   0  0  0  0  0  0  0  0  0  0  0  0
    0.8944   -7.2400    0.9660 H   0  0  0  0  0  0  0  0  0  0  0  0
    0.6668   -4.6630    2.1866 N   0  0  0  0  0  0  0  0  0  0  0  0
   -0.0967   -3.5189    2.7085 C   0  0  2  0  0  0  0  0  0  0  0  0
    0.2891   -2.1705    2.0531 C   0  0  0  0  0  0  0  0  0  0  0  0
    1.2024   -1.4927    2.5019 O   0  0  0  0  0  0  0  0  0  0  0  0
    0.1079   -3.4881    4.2279 C   0  0  0  0  0  0  0  0  0  0  0  0
    1.2559   -5.1845    2.8303 H   0  0  0  0  0  0  0  0  0  0  0  0
   -1.1622   -3.6827    2.5166 H   0  0  0  0  0  0  0  0  0  0  0  0
    1.1675   -3.3592    4.4726 H   0  0  0  0  0  0  0  0  0  0  0  0
   -0.4507   -2.6562    4.6685 H   0  0  0  0  0  0  0  0  0  0  0  0
   -0.2448   -4.4195    4.6809 H   0  0  0  0  0  0  0  0  0  0  0  0
   -0.3893   -1.7693    0.9127 N   0  0  0  0  0  0  0  0  0  0  0  0
   -0.0487   -0.6023    0.0675 C   0  0  2  0  0  0  0  0  0  0  0  0
    1.3944   -0.7742   -0.4972 C   0  0  0  0  0  0  0  0  0  0  0  0
    2.0669    0.1512   -0.9368 O   0  0  0  0  0  0  0  0  0  0  0  0
   -0.3815    0.7152    0.8533 C   0  0  2  0  0  0  0  0  0  0  0  0
   -1.9104    0.7648    1.1277 C   0  0  0  0  0  0  0  0  0  0  0  0
    0.0223    1.9892    0.0792 C   0  0  0  0  0  0  0  0  0  0  0  0
   -2.3282    1.8612    2.1148 C   0  0  0  0  0  0  0  0  0  0  0  0
   -0.9355   -2.5137    0.4765 H   0  0  0  0  0  0  0  0  0  0  0  0
   -0.6975   -0.6193   -0.8130 H   0  0  0  0  0  0  0  0  0  0  0  0
    0.1550    0.7187    1.8072 H   0  0  0  0  0  0  0  0  0  0  0  0
   -2.4509    0.9015    0.1854 H   0  0  0  0  0  0  0  0  0  0  0  0
   -2.2388   -0.1861    1.5560 H   0  0  0  0  0  0  0  0  0  0  0  0
   -0.3032    1.9258   -0.9638 H   0  0  0  0  0  0  0  0  0  0  0  0
   -0.4116    2.8881    0.5199 H   0  0  0  0  0  0  0  0  0  0  0  0
    1.1054    2.1310    0.1057 H   0  0  0  0  0  0  0  0  0  0  0  0
   -1.7152    1.8130    3.0201 H   0  0  0  0  0  0  0  0  0  0  0  0
   -3.3754    1.7219    2.3992 H   0  0  0  0  0  0  0  0  0  0  0  0
   -2.2322    2.8569    1.6752 H   0  0  0  0  0  0  0  0  0  0  0  0
    1.8815   -2.0518   -0.7246 N   0  0  0  0  0  0  0  0  0  0  0  0
    3.2475   -2.3550   -1.1783 C   0  0  2  0  0  0  0  0  0  0  0  0
    3.4079   -2.2512   -2.7141 C   0  0  0  0  0  0  0  0  0  0  0  0
    3.8129   -3.1930   -3.3868 O   0  0  0  0  0  0  0  0  0  0  0  0
    3.6133   -3.7400   -0.6357 C   0  0  0  0  0  0  0  0  0  0  0  0
    1.2747   -2.8242   -0.4489 H   0  0  0  0  0  0  0  0  0  0  0  0
    3.9415   -1.6327   -0.7354 H   0  0  0  0  0  0  0  0  0  0  0  0
    2.9717   -4.5049   -1.0830 H   0  0  0  0  0  0  0  0  0  0  0  0
    4.6545   -3.9784   -0.8754 H   0  0  0  0  0  0  0  0  0  0  0  0
    3.4946   -3.7661    0.4517 H   0  0  0  0  0  0  0  0  0  0  0  0
    3.1077   -1.0594   -3.3421 N   0  0  0  0  0  0  0  0  0  0  0  0
    3.2290   -0.8340   -4.7751 C   0  0  0  0  0  0  0  0  0  0  0  0
    2.7683   -0.3074   -2.7356 H   0  0  0  0  0  0  0  0  0  0  0  0
    2.9518    0.1958   -5.0188 H   0  0  0  0  0  0  0  0  0  0  0  0
    4.2603   -1.0010   -5.1027 H   0  0  0  0  0  0  0  0  0  0  0  0
    2.5684   -1.5112   -5.3262 H   0  0  0  0  0  0  0  0  0  0  0  0
  1  2  2  0  0  0  0
  1  3  1  0  0  0  0
  1  7  1  0  0  0  0
  3  4  1  0  0  0  0
  3  5  1  0  0  0  0
  3  6  1  0  0  0  0
  7  8  1  0  0  0  0
  7 12  1  0  0  0  0
  8  9  1  0  0  0  0
  8 11  1  0  0  0  0
  8 13  1  0  0  0  0
  9 10  2  0  0  0  0
  9 17  1  0  0  0  0
 11 14  1  0  0  0  0
 11 15  1  0  0  0  0
 11 16  1  0  0  0  0
 17 18  1  0  0  0  0
 17 25  1  0  0  0  0
 18 19  1  0  0  0  0
 18 21  1  0  0  0  0
 18 26  1  0  0  0  0
 19 20  2  0  0  0  0
 19 36  1  0  0  0  0
 21 22  1  0  0  0  0
 21 23  1  0  0  0  0
 21 27  1  0  0  0  0
 22 24  1  0  0  0  0
 22 28  1  0  0  0  0
 22 29  1  0  0  0  0
 23 30  1  0  0  0  0
 23 31  1  0  0  0  0
 23 32  1  0  0  0  0
 24 33  1  0  0  0  0
 24 34  1  0  0  0  0
 24 35  1  0  0  0  0
 36 37  1  0  0  0  0
 36 41  1  0  0  0  0
 37 38  1  0  0  0  0
 37 40  1  0  0  0  0
 37 42  1  0  0  0  0
 38 39  2  0  0  0  0
 38 46  1  0  0  0  0
 40 43  1  0  0  0  0
 40 44  1  0  0  0  0
 40 45  1  0  0  0  0
 46 47  1  0  0  0  0
 46 48  1  0  0  0  0
 47 49  1  0  0  0  0
 47 50  1  0  0  0  0
 47 51  1  0  0  0  0
M  END
$$$$

  -OEChem-05262216503D

 51 50  0     1  0  0  0  0  0999 V2000
    0.5605   -5.0466    0.7699 C   0  0  0  0  0  0  0  0  0  0  0  0
   -0.1424   -4.3997    0.0045 O   0  0  0  0  0  0  0  0  0  0  0  0
    1.2631   -6.3018    0.2877 C   0  0  0  0  0  0  0  0  0  0  0  0
    1.1182   -6.4266   -0.7892 H   0  0  0  0  0  0  0  0  0  0  0  0
    2.3345   -6.2362    0.4924 H   0  0  0  0  0  0  0  0  0  0  0  0
    0.8564   -7.1771    0.8003 H   0  0  0  0  0  0  0  0  0  0  0  0
    0.7262   -4.6220    2.0726 N   0  0  0  0  0  0  0  0  0  0  0  0
   -0.0045   -3.5014    2.6853 C   0  0  2  0  0  0  0  0  0  0  0  0
    0.3356   -2.1281    2.0572 C   0  0  0  0  0  0  0  0  0  0  0  0
    1.2341   -1.4309    2.5053 O   0  0  0  0  0  0  0  0  0  0  0  0
    0.2920   -3.5299    4.1896 C   0  0  0  0  0  0  0  0  0  0  0  0
    1.3700   -5.1510    2.6548 H   0  0  0  0  0  0  0  0  0  0  0  0
   -1.0796   -3.6622    2.5541 H   0  0  0  0  0  0  0  0  0  0  0  0
    1.3634   -3.3992    4.3747 H   0  0  0  0  0  0  0  0  0  0  0  0
   -0.2457   -2.7227    4.6972 H   0  0  0  0  0  0  0  0  0  0  0  0
   -0.0244   -4.4826    4.6249 H   0  0  0  0  0  0  0  0  0  0  0  0
   -0.3720   -1.7346    0.9343 N   0  0  0  0  0  0  0  0  0  0  0  0
   -0.0591   -0.5778    0.0683 C   0  0  2  0  0  0  0  0  0  0  0  0
    1.3676   -0.7803   -0.5213 C   0  0  0  0  0  0  0  0  0  0  0  0
    2.1513    0.1301   -0.7620 O   0  0  0  0  0  0  0  0  0  0  0  0
   -0.3641    0.7581    0.8311 C   0  0  2  0  0  0  0  0  0  0  0  0
   -1.8839    0.8175    1.1488 C   0  0  0  0  0  0  0  0  0  0  0  0
    0.0088    2.0095    0.0034 C   0  0  0  0  0  0  0  0  0  0  0  0
   -2.2684    1.9391    2.1214 C   0  0  0  0  0  0  0  0  0  0  0  0
   -0.9079   -2.4943    0.5107 H   0  0  0  0  0  0  0  0  0  0  0  0
   -0.7305   -0.6067   -0.7949 H   0  0  0  0  0  0  0  0  0  0  0  0
    0.2039    0.7859    1.7662 H   0  0  0  0  0  0  0  0  0  0  0  0
   -2.4531    0.9317    0.2206 H   0  0  0  0  0  0  0  0  0  0  0  0
   -2.1990   -0.1222    1.6113 H   0  0  0  0  0  0  0  0  0  0  0  0
   -0.3453    1.9094   -1.0271 H   0  0  0  0  0  0  0  0  0  0  0  0
   -0.4200    2.9192    0.4264 H   0  0  0  0  0  0  0  0  0  0  0  0
    1.0899    2.1639   -0.0068 H   0  0  0  0  0  0  0  0  0  0  0  0
   -1.6221    1.9173    3.0045 H   0  0  0  0  0  0  0  0  0  0  0  0
   -3.3041    1.8056    2.4478 H   0  0  0  0  0  0  0  0  0  0  0  0
   -2.1919    2.9232    1.6523 H   0  0  0  0  0  0  0  0  0  0  0  0
    1.6994   -2.0305   -1.0202 N   0  0  0  0  0  0  0  0  0  0  0  0
    2.9813   -2.3540   -1.6669 C   0  0  2  0  0  0  0  0  0  0  0  0
    3.0114   -1.9355   -3.1563 C   0  0  0  0  0  0  0  0  0  0  0  0
    3.2012   -2.7485   -4.0540 O   0  0  0  0  0  0  0  0  0  0  0  0
    3.2422   -3.8490   -1.4611 C   0  0  0  0  0  0  0  0  0  0  0  0
    1.0307   -2.7833   -0.8527 H   0  0  0  0  0  0  0  0  0  0  0  0
    3.7880   -1.8080   -1.1659 H   0  0  0  0  0  0  0  0  0  0  0  0
    2.4565   -4.4448   -1.9364 H   0  0  0  0  0  0  0  0  0  0  0  0
    4.2046   -4.1302   -1.9006 H   0  0  0  0  0  0  0  0  0  0  0  0
    3.2707   -4.0826   -0.3932 H   0  0  0  0  0  0  0  0  0  0  0  0
    2.8290   -0.6064   -3.4810 N   0  0  0  0  0  0  0  0  0  0  0  0
    2.8352   -0.0855   -4.8405 C   0  0  0  0  0  0  0  0  0  0  0  0
    2.6626    0.0281   -2.6946 H   0  0  0  0  0  0  0  0  0  0  0  0
    3.8007   -0.2783   -5.3195 H   0  0  0  0  0  0  0  0  0  0  0  0
    2.0457   -0.5566   -5.4349 H   0  0  0  0  0  0  0  0  0  0  0  0
    2.6634    0.9951   -4.8306 H   0  0  0  0  0  0  0  0  0  0  0  0
  1  2  2  0  0  0  0
  1  3  1  0  0  0  0
  1  7  1  0  0  0  0
  3  4  1  0  0  0  0
  3  5  1  0  0  0  0
  3  6  1  0  0  0  0
  7  8  1  0  0  0  0
  7 12  1  0  0  0  0
  8  9  1  0  0  0  0
  8 11  1  0  0  0  0
  8 13  1  0  0  0  0
  9 10  2  0  0  0  0
  9 17  1  0  0  0  0
 11 14  1  0  0  0  0
 11 15  1  0  0  0  0
 11 16  1  0  0  0  0
 17 18  1  0  0  0  0
 17 25  1  0  0  0  0
 18 19  1  0  0  0  0
 18 21  1  0  0  0  0
 18 26  1  0  0  0  0
 19 20  2  0  0  0  0
 19 36  1  0  0  0  0
 21 22  1  0  0  0  0
 21 23  1  0  0  0  0
 21 27  1  0  0  0  0
 22 24  1  0  0  0  0
 22 28  1  0  0  0  0
 22 29  1  0  0  0  0
 23 30  1  0  0  0  0
 23 31  1  0  0  0  0
 23 32  1  0  0  0  0
 24 33  1  0  0  0  0
 24 34  1  0  0  0  0
 24 35  1  0  0  0  0
 36 37  1  0  0  0  0
 36 41  1  0  0  0  0
 37 38  1  0  0  0  0
 37 40  1  0  0  0  0
 37 42  1  0  0  0  0
 38 39  2  0  0  0  0
 38 46  1  0  0  0  0
 40 43  1  0  0  0  0
 40 44  1  0  0  0  0
 40 45  1  0  0  0  0
 46 47  1  0  0  0  0
 46 48  1  0  0  0  0
 47 49  1  0  0  0  0
 47 50  1  0  0  0  0
 47 51  1  0  0  0  0
M  END
$$$$

  -OEChem-05262216503D

 51 50  0     1  0  0  0  0  0999 V2000
   -0.0557   -4.4410   -0.3133 C   0  0  0  0  0  0  0  0  0  0  0  0
   -1.1032   -3.8280   -0.4663 O   0  0  0  0  0  0  0  0  0  0  0  0
    0.5283   -5.2631   -1.4453 C   0  0  0  0  0  0  0  0  0  0  0  0
   -0.0196   -5.0695   -2.3723 H   0  0  0  0  0  0  0  0  0  0  0  0
    1.5771   -4.9984   -1.6010 H   0  0  0  0  0  0  0  0  0  0  0  0
    0.4597   -6.3273   -1.2086 H   0  0  0  0  0  0  0  0  0  0  0  0
    0.6060   -4.3561    0.8956 N   0  0  0  0  0  0  0  0  0  0  0  0
    0.1166   -3.6009    2.0615 C   0  0  2  0  0  0  0  0  0  0  0  0
    0.2848   -2.0719    1.8863 C   0  0  0  0  0  0  0  0  0  0  0  0
    1.1333   -1.4528    2.5110 O   0  0  0  0  0  0  0  0  0  0  0  0
    0.8489   -4.1399    3.2970 C   0  0  0  0  0  0  0  0  0  0  0  0
    1.5122   -4.8111    0.9608 H   0  0  0  0  0  0  0  0  0  0  0  0
   -0.9526   -3.7952    2.1984 H   0  0  0  0  0  0  0  0  0  0  0  0
    1.9284   -3.9802    3.2067 H   0  0  0  0  0  0  0  0  0  0  0  0
    0.4992   -3.6264    4.1984 H   0  0  0  0  0  0  0  0  0  0  0  0
    0.6615   -5.2114    3.4157 H   0  0  0  0  0  0  0  0  0  0  0  0
   -0.4897   -1.4447    0.9266 N   0  0  0  0  0  0  0  0  0  0  0  0
   -0.3025   -0.0833    0.3835 C   0  0  2  0  0  0  0  0  0  0  0  0
    1.1083   -0.0422   -0.2675 C   0  0  0  0  0  0  0  0  0  0  0  0
    1.9984    0.7391    0.0426 O   0  0  0  0  0  0  0  0  0  0  0  0
   -0.6231    0.9993    1.4648 C   0  0  2  0  0  0  0  0  0  0  0  0
   -2.1170    0.8816    1.8704 C   0  0  0  0  0  0  0  0  0  0  0  0
   -0.3938    2.4316    0.9273 C   0  0  0  0  0  0  0  0  0  0  0  0
   -2.4814    1.7080    3.1090 C   0  0  0  0  0  0  0  0  0  0  0  0
   -1.0667   -2.0918    0.3810 H   0  0  0  0  0  0  0  0  0  0  0  0
   -1.0141    0.0644   -0.4339 H   0  0  0  0  0  0  0  0  0  0  0  0
    0.0150    0.8465    2.3409 H   0  0  0  0  0  0  0  0  0  0  0  0
   -2.7568    1.1788    1.0332 H   0  0  0  0  0  0  0  0  0  0  0  0
   -2.3501   -0.1609    2.1045 H   0  0  0  0  0  0  0  0  0  0  0  0
   -0.9596    2.5906    0.0042 H   0  0  0  0  0  0  0  0  0  0  0  0
   -0.7045    3.1814    1.6578 H   0  0  0  0  0  0  0  0  0  0  0  0
    0.6605    2.6247    0.7242 H   0  0  0  0  0  0  0  0  0  0  0  0
   -1.7879    1.4941    3.9285 H   0  0  0  0  0  0  0  0  0  0  0  0
   -3.4934    1.4541    3.4383 H   0  0  0  0  0  0  0  0  0  0  0  0
   -2.4572    2.7799    2.8970 H   0  0  0  0  0  0  0  0  0  0  0  0
    1.3659   -0.9240   -1.3027 N   0  0  0  0  0  0  0  0  0  0  0  0
    2.6936   -1.1623   -1.8822 C   0  0  2  0  0  0  0  0  0  0  0  0
    2.6004   -1.9880   -3.1794 C   0  0  0  0  0  0  0  0  0  0  0  0
    1.7007   -2.8098   -3.3202 O   0  0  0  0  0  0  0  0  0  0  0  0
    3.5607   -1.9160   -0.8641 C   0  0  0  0  0  0  0  0  0  0  0  0
    0.6358   -1.5995   -1.5244 H   0  0  0  0  0  0  0  0  0  0  0  0
    3.1617   -0.2016   -2.1208 H   0  0  0  0  0  0  0  0  0  0  0  0
    3.0935   -2.8685   -0.5960 H   0  0  0  0  0  0  0  0  0  0  0  0
    4.5521   -2.1172   -1.2810 H   0  0  0  0  0  0  0  0  0  0  0  0
    3.6883   -1.3252    0.0485 H   0  0  0  0  0  0  0  0  0  0  0  0
    3.5521   -1.8459   -4.1718 N   0  0  0  0  0  0  0  0  0  0  0  0
    3.5295   -2.6024   -5.4176 C   0  0  0  0  0  0  0  0  0  0  0  0
    4.2768   -1.1474   -4.0322 H   0  0  0  0  0  0  0  0  0  0  0  0
    3.6358   -3.6736   -5.2170 H   0  0  0  0  0  0  0  0  0  0  0  0
    2.5877   -2.4348   -5.9511 H   0  0  0  0  0  0  0  0  0  0  0  0
    4.3531   -2.2885   -6.0661 H   0  0  0  0  0  0  0  0  0  0  0  0
  1  2  2  0  0  0  0
  1  3  1  0  0  0  0
  1  7  1  0  0  0  0
  3  4  1  0  0  0  0
  3  5  1  0  0  0  0
  3  6  1  0  0  0  0
  7  8  1  0  0  0  0
  7 12  1  0  0  0  0
  8  9  1  0  0  0  0
  8 11  1  0  0  0  0
  8 13  1  0  0  0  0
  9 10  2  0  0  0  0
  9 17  1  0  0  0  0
 11 14  1  0  0  0  0
 11 15  1  0  0  0  0
 11 16  1  0  0  0  0
 17 18  1  0  0  0  0
 17 25  1  0  0  0  0
 18 19  1  0  0  0  0
 18 21  1  0  0  0  0
 18 26  1  0  0  0  0
 19 20  2  0  0  0  0
 19 36  1  0  0  0  0
 21 22  1  0  0  0  0
 21 23  1  0  0  0  0
 21 27  1  0  0  0  0
 22 24  1  0  0  0  0
 22 28  1  0  0  0  0
 22 29  1  0  0  0  0
 23 30  1  0  0  0  0
 23 31  1  0  0  0  0
 23 32  1  0  0  0  0
 24 33  1  0  0  0  0
 24 34  1  0  0  0  0
 24 35  1  0  0  0  0
 36 37  1  0  0  0  0
 36 41  1  0  0  0  0
 37 38  1  0  0  0  0
 37 40  1  0  0  0  0
 37 42  1  0  0  0  0
 38 39  2  0  0  0  0
 38 46  1  0  0  0  0
 40 43  1  0  0  0  0
 40 44  1  0  0  0  0
 40 45  1  0  0  0  0
 46 47  1  0  0  0  0
 46 48  1  0  0  0  0
 47 49  1  0  0  0  0
 47 50  1  0  0  0  0
 47 51  1  0  0  0  0
M  END
$$$$

  -OEChem-05262216503D

 51 50  0     1  0  0  0  0  0999 V2000
   -0.0892   -4.3370   -0.3943 C   0  0  0  0  0  0  0  0  0  0  0  0
   -1.1800   -3.7954   -0.5037 O   0  0  0  0  0  0  0  0  0  0  0  0
    0.5736   -4.9710   -1.6026 C   0  0  0  0  0  0  0  0  0  0  0  0
   -0.0956   -4.9260   -2.4666 H   0  0  0  0  0  0  0  0  0  0  0  0
    1.4943   -4.4382   -1.8506 H   0  0  0  0  0  0  0  0  0  0  0  0
    0.8104   -6.0174   -1.3957 H   0  0  0  0  0  0  0  0  0  0  0  0
    0.5600   -4.3072    0.8245 N   0  0  0  0  0  0  0  0  0  0  0  0
    0.0228   -3.6634    2.0371 C   0  0  2  0  0  0  0  0  0  0  0  0
    0.1480   -2.1209    1.9806 C   0  0  0  0  0  0  0  0  0  0  0  0
    0.9182   -1.5195    2.7136 O   0  0  0  0  0  0  0  0  0  0  0  0
    0.7448   -4.2790    3.2423 C   0  0  0  0  0  0  0  0  0  0  0  0
    1.5096   -4.6681    0.8525 H   0  0  0  0  0  0  0  0  0  0  0  0
   -1.0428   -3.8972    2.1342 H   0  0  0  0  0  0  0  0  0  0  0  0
    1.8185   -4.0691    3.1981 H   0  0  0  0  0  0  0  0  0  0  0  0
    0.3495   -3.8613    4.1740 H   0  0  0  0  0  0  0  0  0  0  0  0
    0.5998   -5.3635    3.2619 H   0  0  0  0  0  0  0  0  0  0  0  0
   -0.5585   -1.4648    0.9887 N   0  0  0  0  0  0  0  0  0  0  0  0
   -0.3092   -0.1094    0.4594 C   0  0  2  0  0  0  0  0  0  0  0  0
    1.1283   -0.0970   -0.1270 C   0  0  0  0  0  0  0  0  0  0  0  0
    2.0703    0.5057    0.3713 O   0  0  0  0  0  0  0  0  0  0  0  0
   -0.6255    0.9921    1.5185 C   0  0  2  0  0  0  0  0  0  0  0  0
   -2.1330    0.9369    1.8771 C   0  0  0  0  0  0  0  0  0  0  0  0
   -0.3212    2.4040    0.9662 C   0  0  0  0  0  0  0  0  0  0  0  0
   -2.4973    1.7910    3.0961 C   0  0  0  0  0  0  0  0  0  0  0  0
   -1.0932   -2.1018    0.3909 H   0  0  0  0  0  0  0  0  0  0  0  0
   -0.9855    0.0602   -0.3835 H   0  0  0  0  0  0  0  0  0  0  0  0
   -0.0196    0.8275    2.4152 H   0  0  0  0  0  0  0  0  0  0  0  0
   -2.7350    1.2511    1.0183 H   0  0  0  0  0  0  0  0  0  0  0  0
   -2.4133   -0.0940    2.1127 H   0  0  0  0  0  0  0  0  0  0  0  0
   -0.9000    2.5942    0.0572 H   0  0  0  0  0  0  0  0  0  0  0  0
   -0.5674    3.1729    1.7021 H   0  0  0  0  0  0  0  0  0  0  0  0
    0.7373    2.5291    0.7309 H   0  0  0  0  0  0  0  0  0  0  0  0
   -1.8476    1.5455    3.9419 H   0  0  0  0  0  0  0  0  0  0  0  0
   -3.5333    1.5959    3.3885 H   0  0  0  0  0  0  0  0  0  0  0  0
   -2.4048    2.8582    2.8783 H   0  0  0  0  0  0  0  0  0  0  0  0
    1.3422   -0.7303   -1.3379 N   0  0  0  0  0  0  0  0  0  0  0  0
    2.6445   -0.8665   -2.0027 C   0  0  2  0  0  0  0  0  0  0  0  0
    2.4727   -1.4185   -3.4311 C   0  0  0  0  0  0  0  0  0  0  0  0
    1.5197   -2.1449   -3.6949 O   0  0  0  0  0  0  0  0  0  0  0  0
    3.5485   -1.8135   -1.1999 C   0  0  0  0  0  0  0  0  0  0  0  0
    0.5646   -1.2566   -1.7348 H   0  0  0  0  0  0  0  0  0  0  0  0
    3.1178    0.1187   -2.0691 H   0  0  0  0  0  0  0  0  0  0  0  0
    3.0721   -2.7910   -1.0848 H   0  0  0  0  0  0  0  0  0  0  0  0
    4.5070   -1.9502   -1.7096 H   0  0  0  0  0  0  0  0  0  0  0  0
    3.7493   -1.4080   -0.2036 H   0  0  0  0  0  0  0  0  0  0  0  0
    3.3954   -1.1201   -4.4161 N   0  0  0  0  0  0  0  0  0  0  0  0
    3.2714   -1.5804   -5.7937 C   0  0  0  0  0  0  0  0  0  0  0  0
    4.1557   -0.4908   -4.1737 H   0  0  0  0  0  0  0  0  0  0  0  0
    3.2449   -2.6746   -5.8321 H   0  0  0  0  0  0  0  0  0  0  0  0
    2.3544   -1.1893   -6.2470 H   0  0  0  0  0  0  0  0  0  0  0  0
    4.1247   -1.2355   -6.3855 H   0  0  0  0  0  0  0  0  0  0  0  0
  1  2  2  0  0  0  0
  1  3  1  0  0  0  0
  1  7  1  0  0  0  0
  3  4  1  0  0  0  0
  3  5  1  0  0  0  0
  3  6  1  0  0  0  0
  7  8  1  0  0  0  0
  7 12  1  0  0  0  0
  8  9  1  0  0  0  0
  8 11  1  0  0  0  0
  8 13  1  0  0  0  0
  9 10  2  0  0  0  0
  9 17  1  0  0  0  0
 11 14  1  0  0  0  0
 11 15  1  0  0  0  0
 11 16  1  0  0  0  0
 17 18  1  0  0  0  0
 17 25  1  0  0  0  0
 18 19  1  0  0  0  0
 18 21  1  0  0  0  0
 18 26  1  0  0  0  0
 19 20  2  0  0  0  0
 19 36  1  0  0  0  0
 21 22  1  0  0  0  0
 21 23  1  0  0  0  0
 21 27  1  0  0  0  0
 22 24  1  0  0  0  0
 22 28  1  0  0  0  0
 22 29  1  0  0  0  0
 23 30  1  0  0  0  0
 23 31  1  0  0  0  0
 23 32  1  0  0  0  0
 24 33  1  0  0  0  0
 24 34  1  0  0  0  0
 24 35  1  0  0  0  0
 36 37  1  0  0  0  0
 36 41  1  0  0  0  0
 37 38  1  0  0  0  0
 37 40  1  0  0  0  0
 37 42  1  0  0  0  0
 38 39  2  0  0  0  0
 38 46  1  0  0  0  0
 40 43  1  0  0  0  0
 40 44  1  0  0  0  0
 40 45  1  0  0  0  0
 46 47  1  0  0  0  0
 46 48  1  0  0  0  0
 47 49  1  0  0  0  0
 47 50  1  0  0  0  0
 47 51  1  0  0  0  0
M  END
$$$$

  -OEChem-05262216503D

 51 50  0     1  0  0  0  0  0999 V2000
    0.2661   -4.5459   -0.0490 C   0  0  0  0  0  0  0  0  0  0  0  0
   -0.7874   -4.0484   -0.4219 O   0  0  0  0  0  0  0  0  0  0  0  0
    1.1963   -5.2076   -1.0475 C   0  0  0  0  0  0  0  0  0  0  0  0
    0.8180   -5.0698   -2.0646 H   0  0  0  0  0  0  0  0  0  0  0  0
    2.1931   -4.7654   -0.9797 H   0  0  0  0  0  0  0  0  0  0  0  0
    1.2660   -6.2781   -0.8393 H   0  0  0  0  0  0  0  0  0  0  0  0
    0.6314   -4.4540    1.2785 N   0  0  0  0  0  0  0  0  0  0  0  0
   -0.1496   -3.7301    2.2931 C   0  0  2  0  0  0  0  0  0  0  0  0
   -0.0175   -2.1976    2.1288 C   0  0  0  0  0  0  0  0  0  0  0  0
    0.6794   -1.5449    2.8907 O   0  0  0  0  0  0  0  0  0  0  0  0
    0.3066   -4.2255    3.6710 C   0  0  0  0  0  0  0  0  0  0  0  0
    1.5792   -4.7339    1.5166 H   0  0  0  0  0  0  0  0  0  0  0  0
   -1.2107   -3.9796    2.1864 H   0  0  0  0  0  0  0  0  0  0  0  0
    1.3711   -4.0195    3.8230 H   0  0  0  0  0  0  0  0  0  0  0  0
   -0.2586   -3.7201    4.4607 H   0  0  0  0  0  0  0  0  0  0  0  0
    0.1410   -5.3031    3.7630 H   0  0  0  0  0  0  0  0  0  0  0  0
   -0.6833   -1.6092    1.0669 N   0  0  0  0  0  0  0  0  0  0  0  0
   -0.3357   -0.3256    0.4238 C   0  0  2  0  0  0  0  0  0  0  0  0
    1.1020   -0.4073   -0.1561 C   0  0  0  0  0  0  0  0  0  0  0  0
    2.1034   -0.0609    0.4574 O   0  0  0  0  0  0  0  0  0  0  0  0
   -0.5801    0.8968    1.3608 C   0  0  2  0  0  0  0  0  0  0  0  0
   -2.0884    0.9929    1.7004 C   0  0  0  0  0  0  0  0  0  0  0  0
   -0.1417    2.2111    0.6774 C   0  0  0  0  0  0  0  0  0  0  0  0
   -2.3919    1.9928    2.8211 C   0  0  0  0  0  0  0  0  0  0  0  0
   -1.1137   -2.3074    0.4542 H   0  0  0  0  0  0  0  0  0  0  0  0
   -1.0030   -0.1942   -0.4328 H   0  0  0  0  0  0  0  0  0  0  0  0
   -0.0005    0.7790    2.2814 H   0  0  0  0  0  0  0  0  0  0  0  0
   -2.6581    1.2625    0.8053 H   0  0  0  0  0  0  0  0  0  0  0  0
   -2.4469    0.0148    2.0346 H   0  0  0  0  0  0  0  0  0  0  0  0
   -0.6901    2.3601   -0.2579 H   0  0  0  0  0  0  0  0  0  0  0  0
   -0.3243    3.0693    1.3285 H   0  0  0  0  0  0  0  0  0  0  0  0
    0.9281    2.2082    0.4543 H   0  0  0  0  0  0  0  0  0  0  0  0
   -1.7741    1.7824    3.6999 H   0  0  0  0  0  0  0  0  0  0  0  0
   -3.4439    1.9150    3.1117 H   0  0  0  0  0  0  0  0  0  0  0  0
   -2.2065    3.0202    2.4972 H   0  0  0  0  0  0  0  0  0  0  0  0
    1.2651   -0.8494   -1.4568 N   0  0  0  0  0  0  0  0  0  0  0  0
    2.5089   -0.7174   -2.2272 C   0  0  2  0  0  0  0  0  0  0  0  0
    2.2253   -0.3319   -3.6933 C   0  0  0  0  0  0  0  0  0  0  0  0
    1.1013   -0.4791   -4.1614 O   0  0  0  0  0  0  0  0  0  0  0  0
    3.2631   -2.0468   -2.1526 C   0  0  0  0  0  0  0  0  0  0  0  0
    0.4170   -1.0256   -1.9946 H   0  0  0  0  0  0  0  0  0  0  0  0
    3.1328    0.0748   -1.8000 H   0  0  0  0  0  0  0  0  0  0  0  0
    2.6709   -2.8469   -2.6076 H   0  0  0  0  0  0  0  0  0  0  0  0
    4.2188   -1.9762   -2.6807 H   0  0  0  0  0  0  0  0  0  0  0  0
    3.4641   -2.3080   -1.1086 H   0  0  0  0  0  0  0  0  0  0  0  0
    3.2292    0.1905   -4.4879 N   0  0  0  0  0  0  0  0  0  0  0  0
    3.0178    0.6143   -5.8667 C   0  0  0  0  0  0  0  0  0  0  0  0
    4.1364    0.3479   -4.0583 H   0  0  0  0  0  0  0  0  0  0  0  0
    2.6565   -0.2223   -6.4740 H   0  0  0  0  0  0  0  0  0  0  0  0
    2.2827    1.4250   -5.9098 H   0  0  0  0  0  0  0  0  0  0  0  0
    3.9558    0.9745   -6.3001 H   0  0  0  0  0  0  0  0  0  0  0  0
  1  2  2  0  0  0  0
  1  3  1  0  0  0  0
  1  7  1  0  0  0  0
  3  4  1  0  0  0  0
  3  5  1  0  0  0  0
  3  6  1  0  0  0  0
  7  8  1  0  0  0  0
  7 12  1  0  0  0  0
  8  9  1  0  0  0  0
  8 11  1  0  0  0  0
  8 13  1  0  0  0  0
  9 10  2  0  0  0  0
  9 17  1  0  0  0  0
 11 14  1  0  0  0  0
 11 15  1  0  0  0  0
 11 16  1  0  0  0  0
 17 18  1  0  0  0  0
 17 25  1  0  0  0  0
 18 19  1  0  0  0  0
 18 21  1  0  0  0  0
 18 26  1  0  0  0  0
 19 20  2  0  0  0  0
 19 36  1  0  0  0  0
 21 22  1  0  0  0  0
 21 23  1  0  0  0  0
 21 27  1  0  0  0  0
 22 24  1  0  0  0  0
 22 28  1  0  0  0  0
 22 29  1  0  0  0  0
 23 30  1  0  0  0  0
 23 31  1  0  0  0  0
 23 32  1  0  0  0  0
 24 33  1  0  0  0  0
 24 34  1  0  0  0  0
 24 35  1  0  0  0  0
 36 37  1  0  0  0  0
 36 41  1  0  0  0  0
 37 38  1  0  0  0  0
 37 40  1  0  0  0  0
 37 42  1  0  0  0  0
 38 39  2  0  0  0  0
 38 46  1  0  0  0  0
 40 43  1  0  0  0  0
 40 44  1  0  0  0  0
 40 45  1  0  0  0  0
 46 47  1  0  0  0  0
 46 48  1  0  0  0  0
 47 49  1  0  0  0  0
 47 50  1  0  0  0  0
 47 51  1  0  0  0  0
M  END
$$$$

  -OEChem-05262216503D

 51 50  0     1  0  0  0  0  0999 V2000
    1.3390   -5.4434    0.8681 C   0  0  0  0  0  0  0  0  0  0  0  0
    0.7693   -5.6011   -0.2013 O   0  0  0  0  0  0  0  0  0  0  0  0
    2.7357   -5.9982    1.0744 C   0  0  0  0  0  0  0  0  0  0  0  0
    3.0323   -6.6040    0.2140 H   0  0  0  0  0  0  0  0  0  0  0  0
    3.4476   -5.1770    1.1902 H   0  0  0  0  0  0  0  0  0  0  0  0
    2.7618   -6.6235    1.9701 H   0  0  0  0  0  0  0  0  0  0  0  0
    0.7313   -4.7398    1.8871 N   0  0  0  0  0  0  0  0  0  0  0  0
   -0.4503   -3.8930    1.6766 C   0  0  2  0  0  0  0  0  0  0  0  0
   -0.0477   -2.4085    1.5644 C   0  0  0  0  0  0  0  0  0  0  0  0
    0.8506   -1.9911    2.2812 O   0  0  0  0  0  0  0  0  0  0  0  0
   -1.4024   -4.1092    2.8548 C   0  0  0  0  0  0  0  0  0  0  0  0
    1.3549   -4.4469    2.6372 H   0  0  0  0  0  0  0  0  0  0  0  0
   -0.9724   -4.1782    0.7575 H   0  0  0  0  0  0  0  0  0  0  0  0
   -0.9238   -3.8143    3.7945 H   0  0  0  0  0  0  0  0  0  0  0  0
   -2.3111   -3.5134    2.7254 H   0  0  0  0  0  0  0  0  0  0  0  0
   -1.6865   -5.1642    2.9232 H   0  0  0  0  0  0  0  0  0  0  0  0
   -0.7515   -1.5707    0.7122 N   0  0  0  0  0  0  0  0  0  0  0  0
   -0.3221   -0.2330    0.2421 C   0  0  2  0  0  0  0  0  0  0  0  0
    1.0156   -0.3078   -0.5445 C   0  0  0  0  0  0  0  0  0  0  0  0
    2.1111   -0.3940   -0.0061 O   0  0  0  0  0  0  0  0  0  0  0  0
   -0.2931    0.8122    1.3984 C   0  0  2  0  0  0  0  0  0  0  0  0
   -1.7223    1.0032    1.9640 C   0  0  0  0  0  0  0  0  0  0  0  0
    0.2405    2.1724    0.8972 C   0  0  0  0  0  0  0  0  0  0  0  0
   -1.7501    1.8039    3.2701 C   0  0  0  0  0  0  0  0  0  0  0  0
   -1.4519   -2.0437    0.1493 H   0  0  0  0  0  0  0  0  0  0  0  0
   -1.0729    0.1184   -0.4711 H   0  0  0  0  0  0  0  0  0  0  0  0
    0.3707    0.4610    2.1939 H   0  0  0  0  0  0  0  0  0  0  0  0
   -2.3560    1.4970    1.2200 H   0  0  0  0  0  0  0  0  0  0  0  0
   -2.1639    0.0246    2.1746 H   0  0  0  0  0  0  0  0  0  0  0  0
   -0.3795    2.5535    0.0798 H   0  0  0  0  0  0  0  0  0  0  0  0
    0.2468    2.9113    1.7019 H   0  0  0  0  0  0  0  0  0  0  0  0
    1.2708    2.0863    0.5409 H   0  0  0  0  0  0  0  0  0  0  0  0
   -1.0671    1.3620    4.0025 H   0  0  0  0  0  0  0  0  0  0  0  0
   -2.7604    1.7938    3.6899 H   0  0  0  0  0  0  0  0  0  0  0  0
   -1.4642    2.8458    3.1054 H   0  0  0  0  0  0  0  0  0  0  0  0
    0.9817   -0.1886   -1.9219 N   0  0  0  0  0  0  0  0  0  0  0  0
    2.1652   -0.0282   -2.7757 C   0  0  2  0  0  0  0  0  0  0  0  0
    1.8569    0.8760   -3.9876 C   0  0  0  0  0  0  0  0  0  0  0  0
    0.6951    1.1633   -4.2597 O   0  0  0  0  0  0  0  0  0  0  0  0
    2.6215   -1.4173   -3.2307 C   0  0  0  0  0  0  0  0  0  0  0  0
    0.0865    0.0397   -2.3516 H   0  0  0  0  0  0  0  0  0  0  0  0
    2.9719    0.4498   -2.2100 H   0  0  0  0  0  0  0  0  0  0  0  0
    1.8323   -1.9104   -3.8074 H   0  0  0  0  0  0  0  0  0  0  0  0
    3.5166   -1.3434   -3.8553 H   0  0  0  0  0  0  0  0  0  0  0  0
    2.8584   -2.0399   -2.3617 H   0  0  0  0  0  0  0  0  0  0  0  0
    2.8814    1.3912   -4.7602 N   0  0  0  0  0  0  0  0  0  0  0  0
    2.6593    2.2775   -5.8965 C   0  0  0  0  0  0  0  0  0  0  0  0
    3.8342    1.1553   -4.4972 H   0  0  0  0  0  0  0  0  0  0  0  0
    2.0682    1.7714   -6.6669 H   0  0  0  0  0  0  0  0  0  0  0  0
    2.1268    3.1808   -5.5803 H   0  0  0  0  0  0  0  0  0  0  0  0
    3.6154    2.5773   -6.3361 H   0  0  0  0  0  0  0  0  0  0  0  0
  1  2  2  0  0  0  0
  1  3  1  0  0  0  0
  1  7  1  0  0  0  0
  3  4  1  0  0  0  0
  3  5  1  0  0  0  0
  3  6  1  0  0  0  0
  7  8  1  0  0  0  0
  7 12  1  0  0  0  0
  8  9  1  0  0  0  0
  8 11  1  0  0  0  0
  8 13  1  0  0  0  0
  9 10  2  0  0  0  0
  9 17  1  0  0  0  0
 11 14  1  0  0  0  0
 11 15  1  0  0  0  0
 11 16  1  0  0  0  0
 17 18  1  0  0  0  0
 17 25  1  0  0  0  0
 18 19  1  0  0  0  0
 18 21  1  0  0  0  0
 18 26  1  0  0  0  0
 19 20  2  0  0  0  0
 19 36  1  0  0  0  0
 21 22  1  0  0  0  0
 21 23  1  0  0  0  0
 21 27  1  0  0  0  0
 22 24  1  0  0  0  0
 22 28  1  0  0  0  0
 22 29  1  0  0  0  0
 23 30  1  0  0  0  0
 23 31  1  0  0  0  0
 23 32  1  0  0  0  0
 24 33  1  0  0  0  0
 24 34  1  0  0  0  0
 24 35  1  0  0  0  0
 36 37  1  0  0  0  0
 36 41  1  0  0  0  0
 37 38  1  0  0  0  0
 37 40  1  0  0  0  0
 37 42  1  0  0  0  0
 38 39  2  0  0  0  0
 38 46  1  0  0  0  0
 40 43  1  0  0  0  0
 40 44  1  0  0  0  0
 40 45  1  0  0  0  0
 46 47  1  0  0  0  0
 46 48  1  0  0  0  0
 47 49  1  0  0  0  0
 47 50  1  0  0  0  0
 47 51  1  0  0  0  0
M  END
$$$$

  -OEChem-05262216503D

 51 50  0     1  0  0  0  0  0999 V2000
    1.4202   -5.5877    0.9663 C   0  0  0  0  0  0  0  0  0  0  0  0
    0.7833   -6.0249    0.0200 O   0  0  0  0  0  0  0  0  0  0  0  0
    2.8297   -6.0854    1.2262 C   0  0  0  0  0  0  0  0  0  0  0  0
    3.0922   -6.8670    0.5077 H   0  0  0  0  0  0  0  0  0  0  0  0
    3.5397   -5.2604    1.1257 H   0  0  0  0  0  0  0  0  0  0  0  0
    2.9007   -6.4970    2.2359 H   0  0  0  0  0  0  0  0  0  0  0  0
    0.8715   -4.6325    1.7957 N   0  0  0  0  0  0  0  0  0  0  0  0
   -0.3427   -3.8707    1.4761 C   0  0  2  0  0  0  0  0  0  0  0  0
   -0.0585   -2.3559    1.5153 C   0  0  0  0  0  0  0  0  0  0  0  0
    0.7751   -1.9368    2.3077 O   0  0  0  0  0  0  0  0  0  0  0  0
   -1.4244   -4.2453    2.4910 C   0  0  0  0  0  0  0  0  0  0  0  0
    1.5198   -4.1750    2.4365 H   0  0  0  0  0  0  0  0  0  0  0  0
   -0.6988   -4.1161    0.4705 H   0  0  0  0  0  0  0  0  0  0  0  0
   -1.1014   -3.9920    3.5060 H   0  0  0  0  0  0  0  0  0  0  0  0
   -2.3530   -3.7078    2.2771 H   0  0  0  0  0  0  0  0  0  0  0  0
   -1.6270   -5.3199    2.4468 H   0  0  0  0  0  0  0  0  0  0  0  0
   -0.7929   -1.5003    0.7064 N   0  0  0  0  0  0  0  0  0  0  0  0
   -0.3732   -0.1476    0.2695 C   0  0  2  0  0  0  0  0  0  0  0  0
    0.9441   -0.1774   -0.5535 C   0  0  0  0  0  0  0  0  0  0  0  0
    1.9927   -0.6428   -0.1299 O   0  0  0  0  0  0  0  0  0  0  0  0
   -0.3124    0.8672    1.4509 C   0  0  2  0  0  0  0  0  0  0  0  0
   -1.7263    1.0457    2.0559 C   0  0  0  0  0  0  0  0  0  0  0  0
    0.2270    2.2344    0.9786 C   0  0  0  0  0  0  0  0  0  0  0  0
   -1.7198    1.8122    3.3823 C   0  0  0  0  0  0  0  0  0  0  0  0
   -1.4478   -1.9792    0.0962 H   0  0  0  0  0  0  0  0  0  0  0  0
   -1.1464    0.2175   -0.4123 H   0  0  0  0  0  0  0  0  0  0  0  0
    0.3663    0.4930    2.2226 H   0  0  0  0  0  0  0  0  0  0  0  0
   -2.3757    1.5612    1.3411 H   0  0  0  0  0  0  0  0  0  0  0  0
   -2.1659    0.0629    2.2502 H   0  0  0  0  0  0  0  0  0  0  0  0
   -0.3972    2.6407    0.1766 H   0  0  0  0  0  0  0  0  0  0  0  0
    0.2466    2.9530    1.8014 H   0  0  0  0  0  0  0  0  0  0  0  0
    1.2541    2.1465    0.6121 H   0  0  0  0  0  0  0  0  0  0  0  0
   -1.0192    1.3508    4.0855 H   0  0  0  0  0  0  0  0  0  0  0  0
   -2.7190    1.7921    3.8278 H   0  0  0  0  0  0  0  0  0  0  0  0
   -1.4364    2.8580    3.2368 H   0  0  0  0  0  0  0  0  0  0  0  0
    0.9320    0.2995   -1.8515 N   0  0  0  0  0  0  0  0  0  0  0  0
    2.1226    0.4324   -2.7004 C   0  0  2  0  0  0  0  0  0  0  0  0
    1.9653    1.5964   -3.7009 C   0  0  0  0  0  0  0  0  0  0  0  0
    0.8788    2.1522   -3.8294 O   0  0  0  0  0  0  0  0  0  0  0  0
    2.3431   -0.8927   -3.4370 C   0  0  0  0  0  0  0  0  0  0  0  0
    0.1034    0.8073   -2.1593 H   0  0  0  0  0  0  0  0  0  0  0  0
    2.9978    0.6519   -2.0791 H   0  0  0  0  0  0  0  0  0  0  0  0
    1.4798   -1.1278   -4.0675 H   0  0  0  0  0  0  0  0  0  0  0  0
    3.2340   -0.8384   -4.0694 H   0  0  0  0  0  0  0  0  0  0  0  0
    2.4815   -1.7075   -2.7189 H   0  0  0  0  0  0  0  0  0  0  0  0
    3.0447    2.0361   -4.4447 N   0  0  0  0  0  0  0  0  0  0  0  0
    2.9680    3.1421   -5.3915 C   0  0  0  0  0  0  0  0  0  0  0  0
    3.9354    1.5673   -4.3057 H   0  0  0  0  0  0  0  0  0  0  0  0
    2.2466    2.9187   -6.1846 H   0  0  0  0  0  0  0  0  0  0  0  0
    2.6596    4.0617   -4.8829 H   0  0  0  0  0  0  0  0  0  0  0  0
    3.9455    3.3139   -5.8524 H   0  0  0  0  0  0  0  0  0  0  0  0
  1  2  2  0  0  0  0
  1  3  1  0  0  0  0
  1  7  1  0  0  0  0
  3  4  1  0  0  0  0
  3  5  1  0  0  0  0
  3  6  1  0  0  0  0
  7  8  1  0  0  0  0
  7 12  1  0  0  0  0
  8  9  1  0  0  0  0
  8 11  1  0  0  0  0
  8 13  1  0  0  0  0
  9 10  2  0  0  0  0
  9 17  1  0  0  0  0
 11 14  1  0  0  0  0
 11 15  1  0  0  0  0
 11 16  1  0  0  0  0
 17 18  1  0  0  0  0
 17 25  1  0  0  0  0
 18 19  1  0  0  0  0
 18 21  1  0  0  0  0
 18 26  1  0  0  0  0
 19 20  2  0  0  0  0
 19 36  1  0  0  0  0
 21 22  1  0  0  0  0
 21 23  1  0  0  0  0
 21 27  1  0  0  0  0
 22 24  1  0  0  0  0
 22 28  1  0  0  0  0
 22 29  1  0  0  0  0
 23 30  1  0  0  0  0
 23 31  1  0  0  0  0
 23 32  1  0  0  0  0
 24 33  1  0  0  0  0
 24 34  1  0  0  0  0
 24 35  1  0  0  0  0
 36 37  1  0  0  0  0
 36 41  1  0  0  0  0
 37 38  1  0  0  0  0
 37 40  1  0  0  0  0
 37 42  1  0  0  0  0
 38 39  2  0  0  0  0
 38 46  1  0  0  0  0
 40 43  1  0  0  0  0
 40 44  1  0  0  0  0
 40 45  1  0  0  0  0
 46 47  1  0  0  0  0
 46 48  1  0  0  0  0
 47 49  1  0  0  0  0
 47 50  1  0  0  0  0
 47 51  1  0  0  0  0
M  END
$$$$

  -OEChem-05262216503D

 51 50  0     1  0  0  0  0  0999 V2000
    1.4350   -5.7040    1.1245 C   0  0  0  0  0  0  0  0  0  0  0  0
    0.7164   -6.2780    0.3202 O   0  0  0  0  0  0  0  0  0  0  0  0
    2.8361   -6.2184    1.3957 C   0  0  0  0  0  0  0  0  0  0  0  0
    3.0382   -7.1040    0.7870 H   0  0  0  0  0  0  0  0  0  0  0  0
    3.5692   -5.4464    1.1492 H   0  0  0  0  0  0  0  0  0  0  0  0
    2.9384   -6.4846    2.4504 H   0  0  0  0  0  0  0  0  0  0  0  0
    0.9809   -4.5823    1.7842 N   0  0  0  0  0  0  0  0  0  0  0  0
   -0.2418   -3.8548    1.4236 C   0  0  2  0  0  0  0  0  0  0  0  0
   -0.0109   -2.3309    1.4787 C   0  0  0  0  0  0  0  0  0  0  0  0
    0.8300   -1.8864    2.2512 O   0  0  0  0  0  0  0  0  0  0  0  0
   -1.3549   -4.2722    2.3872 C   0  0  0  0  0  0  0  0  0  0  0  0
    1.6698   -4.0558    2.3218 H   0  0  0  0  0  0  0  0  0  0  0  0
   -0.5386   -4.1055    0.3997 H   0  0  0  0  0  0  0  0  0  0  0  0
   -1.0789   -4.0298    3.4184 H   0  0  0  0  0  0  0  0  0  0  0  0
   -2.2874   -3.7539    2.1449 H   0  0  0  0  0  0  0  0  0  0  0  0
   -1.5296   -5.3505    2.3168 H   0  0  0  0  0  0  0  0  0  0  0  0
   -0.7861   -1.4927    0.6888 N   0  0  0  0  0  0  0  0  0  0  0  0
   -0.3917   -0.1370    0.2354 C   0  0  2  0  0  0  0  0  0  0  0  0
    0.9014   -0.1415   -0.6296 C   0  0  0  0  0  0  0  0  0  0  0  0
    1.8391   -0.9041   -0.4361 O   0  0  0  0  0  0  0  0  0  0  0  0
   -0.3201    0.8870    1.4108 C   0  0  2  0  0  0  0  0  0  0  0  0
   -1.7245    1.0504    2.0414 C   0  0  0  0  0  0  0  0  0  0  0  0
    0.1944    2.2616    0.9309 C   0  0  0  0  0  0  0  0  0  0  0  0
   -1.7043    1.8251    3.3634 C   0  0  0  0  0  0  0  0  0  0  0  0
   -1.4293   -1.9907    0.0815 H   0  0  0  0  0  0  0  0  0  0  0  0
   -1.1880    0.2102   -0.4297 H   0  0  0  0  0  0  0  0  0  0  0  0
    0.3754    0.5241    2.1723 H   0  0  0  0  0  0  0  0  0  0  0  0
   -2.3951    1.5508    1.3355 H   0  0  0  0  0  0  0  0  0  0  0  0
   -2.1450    0.0622    2.2506 H   0  0  0  0  0  0  0  0  0  0  0  0
   -0.4443    2.6586    0.1356 H   0  0  0  0  0  0  0  0  0  0  0  0
    0.2131    2.9830    1.7514 H   0  0  0  0  0  0  0  0  0  0  0  0
    1.2190    2.1876    0.5544 H   0  0  0  0  0  0  0  0  0  0  0  0
   -0.9753    1.3864    4.0519 H   0  0  0  0  0  0  0  0  0  0  0  0
   -2.6913    1.7827    3.8333 H   0  0  0  0  0  0  0  0  0  0  0  0
   -1.4514    2.8768    3.2049 H   0  0  0  0  0  0  0  0  0  0  0  0
    0.9283    0.6115   -1.7896 N   0  0  0  0  0  0  0  0  0  0  0  0
    2.1152    0.7807   -2.6374 C   0  0  2  0  0  0  0  0  0  0  0  0
    2.1662    2.2015   -3.2364 C   0  0  0  0  0  0  0  0  0  0  0  0
    1.1908    2.9405   -3.1447 O   0  0  0  0  0  0  0  0  0  0  0  0
    2.0775   -0.2807   -3.7412 C   0  0  0  0  0  0  0  0  0  0  0  0
    0.2066    1.3244   -1.8932 H   0  0  0  0  0  0  0  0  0  0  0  0
    3.0237    0.6475   -2.0399 H   0  0  0  0  0  0  0  0  0  0  0  0
    1.1834   -0.1588   -4.3608 H   0  0  0  0  0  0  0  0  0  0  0  0
    2.9604   -0.2019   -4.3822 H   0  0  0  0  0  0  0  0  0  0  0  0
    2.0617   -1.2828   -3.3005 H   0  0  0  0  0  0  0  0  0  0  0  0
    3.3119    2.6629   -3.8576 N   0  0  0  0  0  0  0  0  0  0  0  0
    3.4311    3.9993   -4.4285 C   0  0  0  0  0  0  0  0  0  0  0  0
    4.1113    2.0370   -3.8968 H   0  0  0  0  0  0  0  0  0  0  0  0
    2.7005    4.1388   -5.2322 H   0  0  0  0  0  0  0  0  0  0  0  0
    3.2607    4.7621   -3.6614 H   0  0  0  0  0  0  0  0  0  0  0  0
    4.4330    4.1462   -4.8434 H   0  0  0  0  0  0  0  0  0  0  0  0
  1  2  2  0  0  0  0
  1  3  1  0  0  0  0
  1  7  1  0  0  0  0
  3  4  1  0  0  0  0
  3  5  1  0  0  0  0
  3  6  1  0  0  0  0
  7  8  1  0  0  0  0
  7 12  1  0  0  0  0
  8  9  1  0  0  0  0
  8 11  1  0  0  0  0
  8 13  1  0  0  0  0
  9 10  2  0  0  0  0
  9 17  1  0  0  0  0
 11 14  1  0  0  0  0
 11 15  1  0  0  0  0
 11 16  1  0  0  0  0
 17 18  1  0  0  0  0
 17 25  1  0  0  0  0
 18 19  1  0  0  0  0
 18 21  1  0  0  0  0
 18 26  1  0  0  0  0
 19 20  2  0  0  0  0
 19 36  1  0  0  0  0
 21 22  1  0  0  0  0
 21 23  1  0  0  0  0
 21 27  1  0  0  0  0
 22 24  1  0  0  0  0
 22 28  1  0  0  0  0
 22 29  1  0  0  0  0
 23 30  1  0  0  0  0
 23 31  1  0  0  0  0
 23 32  1  0  0  0  0
 24 33  1  0  0  0  0
 24 34  1  0  0  0  0
 24 35  1  0  0  0  0
 36 37  1  0  0  0  0
 36 41  1  0  0  0  0
 37 38  1  0  0  0  0
 37 40  1  0  0  0  0
 37 42  1  0  0  0  0
 38 39  2  0  0  0  0
 38 46  1  0  0  0  0
 40 43  1  0  0  0  0
 40 44  1  0  0  0  0
 40 45  1  0  0  0  0
 46 47  1  0  0  0  0
 46 48  1  0  0  0  0
 47 49  1  0  0  0  0
 47 50  1  0  0  0  0
 47 51  1  0  0  0  0
M  END
$$$$

  -OEChem-05262216503D

 51 50  0     1  0  0  0  0  0999 V2000
    1.4379   -5.7706    1.2506 C   0  0  0  0  0  0  0  0  0  0  0  0
    0.6602   -6.4041    0.5532 O   0  0  0  0  0  0  0  0  0  0  0  0
    2.8216   -6.3200    1.5414 C   0  0  0  0  0  0  0  0  0  0  0  0
    2.9330   -7.3147    1.1011 H   0  0  0  0  0  0  0  0  0  0  0  0
    3.5811   -5.6590    1.1165 H   0  0  0  0  0  0  0  0  0  0  0  0
    2.9745   -6.3930    2.6208 H   0  0  0  0  0  0  0  0  0  0  0  0
    1.0653   -4.5508    1.7719 N   0  0  0  0  0  0  0  0  0  0  0  0
   -0.1469   -3.8234    1.3799 C   0  0  2  0  0  0  0  0  0  0  0  0
    0.0961   -2.3004    1.3788 C   0  0  0  0  0  0  0  0  0  0  0  0
    1.0012   -1.8405    2.0667 O   0  0  0  0  0  0  0  0  0  0  0  0
   -1.2710   -4.1902    2.3524 C   0  0  0  0  0  0  0  0  0  0  0  0
    1.7930   -3.9969    2.2239 H   0  0  0  0  0  0  0  0  0  0  0  0
   -0.4373   -4.1100    0.3636 H   0  0  0  0  0  0  0  0  0  0  0  0
   -1.0002   -3.9045    3.3739 H   0  0  0  0  0  0  0  0  0  0  0  0
   -2.1973   -3.6758    2.0801 H   0  0  0  0  0  0  0  0  0  0  0  0
   -1.4547   -5.2692    2.3289 H   0  0  0  0  0  0  0  0  0  0  0  0
   -0.7307   -1.4764    0.6273 N   0  0  0  0  0  0  0  0  0  0  0  0
   -0.3897   -0.1031    0.1853 C   0  0  2  0  0  0  0  0  0  0  0  0
    0.8777   -0.0570   -0.7193 C   0  0  0  0  0  0  0  0  0  0  0  0
    1.6613   -0.9945   -0.8117 O   0  0  0  0  0  0  0  0  0  0  0  0
   -0.3445    0.8889    1.3943 C   0  0  2  0  0  0  0  0  0  0  0  0
   -1.7519    0.9769    2.0377 C   0  0  0  0  0  0  0  0  0  0  0  0
    0.1239    2.2988    0.9770 C   0  0  0  0  0  0  0  0  0  0  0  0
   -1.7605    1.7086    3.3840 C   0  0  0  0  0  0  0  0  0  0  0  0
   -1.3914   -1.9816    0.0454 H   0  0  0  0  0  0  0  0  0  0  0  0
   -1.2085    0.2296   -0.4591 H   0  0  0  0  0  0  0  0  0  0  0  0
    0.3637    0.5226    2.1421 H   0  0  0  0  0  0  0  0  0  0  0  0
   -2.4449    1.4734    1.3507 H   0  0  0  0  0  0  0  0  0  0  0  0
   -2.1349   -0.0321    2.2173 H   0  0  0  0  0  0  0  0  0  0  0  0
   -0.5216    2.7071    0.1930 H   0  0  0  0  0  0  0  0  0  0  0  0
    0.1112    2.9857    1.8265 H   0  0  0  0  0  0  0  0  0  0  0  0
    1.1546    2.2751    0.6120 H   0  0  0  0  0  0  0  0  0  0  0  0
   -1.0143    1.2773    4.0587 H   0  0  0  0  0  0  0  0  0  0  0  0
   -2.7451    1.6123    3.8516 H   0  0  0  0  0  0  0  0  0  0  0  0
   -1.5506    2.7741    3.2594 H   0  0  0  0  0  0  0  0  0  0  0  0
    0.9796    0.9328   -1.6804 N   0  0  0  0  0  0  0  0  0  0  0  0
    2.1556    1.1335   -2.5367 C   0  0  2  0  0  0  0  0  0  0  0  0
    2.4665    2.6357   -2.6984 C   0  0  0  0  0  0  0  0  0  0  0  0
    1.6437    3.4734   -2.3413 O   0  0  0  0  0  0  0  0  0  0  0  0
    1.8789    0.4827   -3.8947 C   0  0  0  0  0  0  0  0  0  0  0  0
    0.3916    1.7548   -1.5453 H   0  0  0  0  0  0  0  0  0  0  0  0
    3.0371    0.6657   -2.0844 H   0  0  0  0  0  0  0  0  0  0  0  0
    1.0079    0.9441   -4.3709 H   0  0  0  0  0  0  0  0  0  0  0  0
    2.7409    0.5957   -4.5586 H   0  0  0  0  0  0  0  0  0  0  0  0
    1.6808   -0.5863   -3.7668 H   0  0  0  0  0  0  0  0  0  0  0  0
    3.6762    3.0514   -3.2227 N   0  0  0  0  0  0  0  0  0  0  0  0
    4.0440    4.4542   -3.3705 C   0  0  0  0  0  0  0  0  0  0  0  0
    4.3503    2.3353   -3.4782 H   0  0  0  0  0  0  0  0  0  0  0  0
    3.3384    4.9677   -4.0321 H   0  0  0  0  0  0  0  0  0  0  0  0
    4.0430    4.9551   -2.3967 H   0  0  0  0  0  0  0  0  0  0  0  0
    5.0461    4.5390   -3.8016 H   0  0  0  0  0  0  0  0  0  0  0  0
  1  2  2  0  0  0  0
  1  3  1  0  0  0  0
  1  7  1  0  0  0  0
  3  4  1  0  0  0  0
  3  5  1  0  0  0  0
  3  6  1  0  0  0  0
  7  8  1  0  0  0  0
  7 12  1  0  0  0  0
  8  9  1  0  0  0  0
  8 11  1  0  0  0  0
  8 13  1  0  0  0  0
  9 10  2  0  0  0  0
  9 17  1  0  0  0  0
 11 14  1  0  0  0  0
 11 15  1  0  0  0  0
 11 16  1  0  0  0  0
 17 18  1  0  0  0  0
 17 25  1  0  0  0  0
 18 19  1  0  0  0  0
 18 21  1  0  0  0  0
 18 26  1  0  0  0  0
 19 20  2  0  0  0  0
 19 36  1  0  0  0  0
 21 22  1  0  0  0  0
 21 23  1  0  0  0  0
 21 27  1  0  0  0  0
 22 24  1  0  0  0  0
 22 28  1  0  0  0  0
 22 29  1  0  0  0  0
 23 30  1  0  0  0  0
 23 31  1  0  0  0  0
 23 32  1  0  0  0  0
 24 33  1  0  0  0  0
 24 34  1  0  0  0  0
 24 35  1  0  0  0  0
 36 37  1  0  0  0  0
 36 41  1  0  0  0  0
 37 38  1  0  0  0  0
 37 40  1  0  0  0  0
 37 42  1  0  0  0  0
 38 39  2  0  0  0  0
 38 46  1  0  0  0  0
 40 43  1  0  0  0  0
 40 44  1  0  0  0  0
 40 45  1  0  0  0  0
 46 47  1  0  0  0  0
 46 48  1  0  0  0  0
 47 49  1  0  0  0  0
 47 50  1  0  0  0  0
 47 51  1  0  0  0  0
M  END
$$$$

  -OEChem-05262216503D

 51 50  0     1  0  0  0  0  0999 V2000
    1.4149   -5.7996    1.3015 C   0  0  0  0  0  0  0  0  0  0  0  0
    0.6000   -6.4487    0.6640 O   0  0  0  0  0  0  0  0  0  0  0  0
    2.7696   -6.3964    1.6345 C   0  0  0  0  0  0  0  0  0  0  0  0
    2.8441   -7.4107    1.2328 H   0  0  0  0  0  0  0  0  0  0  0  0
    3.5636   -5.7855    1.1983 H   0  0  0  0  0  0  0  0  0  0  0  0
    2.9040   -6.4362    2.7180 H   0  0  0  0  0  0  0  0  0  0  0  0
    1.1082   -4.5215    1.7165 N   0  0  0  0  0  0  0  0  0  0  0  0
   -0.0857   -3.7782    1.2955 C   0  0  2  0  0  0  0  0  0  0  0  0
    0.1756   -2.2574    1.2713 C   0  0  0  0  0  0  0  0  0  0  0  0
    1.1254   -1.8022    1.9004 O   0  0  0  0  0  0  0  0  0  0  0  0
   -1.2319   -4.1080    2.2571 C   0  0  0  0  0  0  0  0  0  0  0  0
    1.8582   -3.9717    2.1351 H   0  0  0  0  0  0  0  0  0  0  0  0
   -0.3634   -4.0789    0.2796 H   0  0  0  0  0  0  0  0  0  0  0  0
   -0.9695   -3.8142    3.2785 H   0  0  0  0  0  0  0  0  0  0  0  0
   -2.1436   -3.5782    1.9653 H   0  0  0  0  0  0  0  0  0  0  0  0
   -1.4392   -5.1827    2.2462 H   0  0  0  0  0  0  0  0  0  0  0  0
   -0.6804   -1.4260    0.5613 N   0  0  0  0  0  0  0  0  0  0  0  0
   -0.3796   -0.0263    0.1772 C   0  0  2  0  0  0  0  0  0  0  0  0
    0.8841    0.0728   -0.7320 C   0  0  0  0  0  0  0  0  0  0  0  0
    1.5083   -0.9243   -1.0796 O   0  0  0  0  0  0  0  0  0  0  0  0
   -0.3839    0.8934    1.4479 C   0  0  2  0  0  0  0  0  0  0  0  0
   -1.8050    0.8909    2.0706 C   0  0  0  0  0  0  0  0  0  0  0  0
    0.0471    2.3440    1.1500 C   0  0  0  0  0  0  0  0  0  0  0  0
   -1.8690    1.5355    3.4597 C   0  0  0  0  0  0  0  0  0  0  0  0
   -1.3522   -1.9189   -0.0183 H   0  0  0  0  0  0  0  0  0  0  0  0
   -1.2013    0.3180   -0.4578 H   0  0  0  0  0  0  0  0  0  0  0  0
    0.3204    0.4986    2.1849 H   0  0  0  0  0  0  0  0  0  0  0  0
   -2.5035    1.4045    1.4019 H   0  0  0  0  0  0  0  0  0  0  0  0
   -2.1554   -0.1393    2.1811 H   0  0  0  0  0  0  0  0  0  0  0  0
   -0.5586    2.7739    0.3460 H   0  0  0  0  0  0  0  0  0  0  0  0
   -0.0563    2.9783    2.0332 H   0  0  0  0  0  0  0  0  0  0  0  0
    1.1027    2.3825    0.8664 H   0  0  0  0  0  0  0  0  0  0  0  0
   -1.1052    1.1077    4.1168 H   0  0  0  0  0  0  0  0  0  0  0  0
   -2.8505    1.3521    3.9074 H   0  0  0  0  0  0  0  0  0  0  0  0
   -1.7230    2.6174    3.4046 H   0  0  0  0  0  0  0  0  0  0  0  0
    1.1425    1.2338   -1.4377 N   0  0  0  0  0  0  0  0  0  0  0  0
    2.3294    1.4526   -2.2739 C   0  0  2  0  0  0  0  0  0  0  0  0
    2.8331    2.9050   -2.1431 C   0  0  0  0  0  0  0  0  0  0  0  0
    2.1350    3.7489   -1.5892 O   0  0  0  0  0  0  0  0  0  0  0  0
    1.9644    1.1316   -3.7263 C   0  0  0  0  0  0  0  0  0  0  0  0
    0.6779    2.0779   -1.1046 H   0  0  0  0  0  0  0  0  0  0  0  0
    3.1422    0.7935   -1.9499 H   0  0  0  0  0  0  0  0  0  0  0  0
    1.1595    1.7880   -4.0723 H   0  0  0  0  0  0  0  0  0  0  0  0
    2.8309    1.2666   -4.3806 H   0  0  0  0  0  0  0  0  0  0  0  0
    1.6285    0.0929   -3.8106 H   0  0  0  0  0  0  0  0  0  0  0  0
    4.0743    3.2660   -2.6330 N   0  0  0  0  0  0  0  0  0  0  0  0
    4.6235    4.6108   -2.5081 C   0  0  0  0  0  0  0  0  0  0  0  0
    4.6455    2.5375   -3.0516 H   0  0  0  0  0  0  0  0  0  0  0  0
    3.9478    5.3451   -2.9599 H   0  0  0  0  0  0  0  0  0  0  0  0
    4.7700    4.8683   -1.4537 H   0  0  0  0  0  0  0  0  0  0  0  0
    5.5900    4.6737   -3.0176 H   0  0  0  0  0  0  0  0  0  0  0  0
  1  2  2  0  0  0  0
  1  3  1  0  0  0  0
  1  7  1  0  0  0  0
  3  4  1  0  0  0  0
  3  5  1  0  0  0  0
  3  6  1  0  0  0  0
  7  8  1  0  0  0  0
  7 12  1  0  0  0  0
  8  9  1  0  0  0  0
  8 11  1  0  0  0  0
  8 13  1  0  0  0  0
  9 10  2  0  0  0  0
  9 17  1  0  0  0  0
 11 14  1  0  0  0  0
 11 15  1  0  0  0  0
 11 16  1  0  0  0  0
 17 18  1  0  0  0  0
 17 25  1  0  0  0  0
 18 19  1  0  0  0  0
 18 21  1  0  0  0  0
 18 26  1  0  0  0  0
 19 20  2  0  0  0  0
 19 36  1  0  0  0  0
 21 22  1  0  0  0  0
 21 23  1  0  0  0  0
 21 27  1  0  0  0  0
 22 24  1  0  0  0  0
 22 28  1  0  0  0  0
 22 29  1  0  0  0  0
 23 30  1  0  0  0  0
 23 31  1  0  0  0  0
 23 32  1  0  0  0  0
 24 33  1  0  0  0  0
 24 34  1  0  0  0  0
 24 35  1  0  0  0  0
 36 37  1  0  0  0  0
 36 41  1  0  0  0  0
 37 38  1  0  0  0  0
 37 40  1  0  0  0  0
 37 42  1  0  0  0  0
 38 39  2  0  0  0  0
 38 46  1  0  0  0  0
 40 43  1  0  0  0  0
 40 44  1  0  0  0  0
 40 45  1  0  0  0  0
 46 47  1  0  0  0  0
 46 48  1  0  0  0  0
 47 49  1  0  0  0  0
 47 50  1  0  0  0  0
 47 51  1  0  0  0  0
M  END
$$$$

  -OEChem-05262216503D

 51 50  0     1  0  0  0  0  0999 V2000
    1.4381   -5.8544    1.1598 C   0  0  0  0  0  0  0  0  0  0  0  0
    0.5861   -6.4782    0.5462 O   0  0  0  0  0  0  0  0  0  0  0  0
    2.7603   -6.5119    1.5072 C   0  0  0  0  0  0  0  0  0  0  0  0
    2.7805   -7.5391    1.1326 H   0  0  0  0  0  0  0  0  0  0  0  0
    3.5842   -5.9552    1.0542 H   0  0  0  0  0  0  0  0  0  0  0  0
    2.8941   -6.5291    2.5916 H   0  0  0  0  0  0  0  0  0  0  0  0
    1.2011   -4.5519    1.5436 N   0  0  0  0  0  0  0  0  0  0  0  0
    0.0296   -3.7660    1.1371 C   0  0  2  0  0  0  0  0  0  0  0  0
    0.3360   -2.2531    1.1180 C   0  0  0  0  0  0  0  0  0  0  0  0
    1.3784   -1.8476    1.6206 O   0  0  0  0  0  0  0  0  0  0  0  0
   -1.1174   -4.0634    2.1084 C   0  0  0  0  0  0  0  0  0  0  0  0
    1.9819   -4.0290    1.9399 H   0  0  0  0  0  0  0  0  0  0  0  0
   -0.2669   -4.0527    0.1221 H   0  0  0  0  0  0  0  0  0  0  0  0
   -0.8360   -3.7826    3.1284 H   0  0  0  0  0  0  0  0  0  0  0  0
   -2.0148   -3.5045    1.8275 H   0  0  0  0  0  0  0  0  0  0  0  0
   -1.3587   -5.1308    2.0947 H   0  0  0  0  0  0  0  0  0  0  0  0
   -0.5590   -1.3883    0.5053 N   0  0  0  0  0  0  0  0  0  0  0  0
   -0.3650    0.0627    0.2689 C   0  0  2  0  0  0  0  0  0  0  0  0
    0.6373    0.2688   -0.9093 C   0  0  0  0  0  0  0  0  0  0  0  0
    0.9824   -0.6812   -1.6056 O   0  0  0  0  0  0  0  0  0  0  0  0
   -0.1016    0.8357    1.6133 C   0  0  2  0  0  0  0  0  0  0  0  0
   -1.3583    0.6965    2.5145 C   0  0  0  0  0  0  0  0  0  0  0  0
    0.2104    2.3317    1.4059 C   0  0  0  0  0  0  0  0  0  0  0  0
   -1.1410    1.1720    3.9556 C   0  0  0  0  0  0  0  0  0  0  0  0
   -1.2750   -1.8474   -0.0494 H   0  0  0  0  0  0  0  0  0  0  0  0
   -1.3108    0.4547   -0.1157 H   0  0  0  0  0  0  0  0  0  0  0  0
    0.7570    0.4084    2.1356 H   0  0  0  0  0  0  0  0  0  0  0  0
   -2.1938    1.2503    2.0737 H   0  0  0  0  0  0  0  0  0  0  0  0
   -1.6553   -0.3549    2.5680 H   0  0  0  0  0  0  0  0  0  0  0  0
   -0.5195    2.7923    0.7330 H   0  0  0  0  0  0  0  0  0  0  0  0
    0.1973    2.8808    2.3494 H   0  0  0  0  0  0  0  0  0  0  0  0
    1.2160    2.4587    0.9963 H   0  0  0  0  0  0  0  0  0  0  0  0
   -0.2416    0.7119    4.3766 H   0  0  0  0  0  0  0  0  0  0  0  0
   -1.9970    0.8831    4.5729 H   0  0  0  0  0  0  0  0  0  0  0  0
   -1.0417    2.2590    4.0104 H   0  0  0  0  0  0  0  0  0  0  0  0
    1.0088    1.5236   -1.3552 N   0  0  0  0  0  0  0  0  0  0  0  0
    2.0102    1.7818   -2.3982 C   0  0  2  0  0  0  0  0  0  0  0  0
    2.7529    3.1086   -2.1358 C   0  0  0  0  0  0  0  0  0  0  0  0
    2.3231    3.8986   -1.3007 O   0  0  0  0  0  0  0  0  0  0  0  0
    1.3075    1.8219   -3.7590 C   0  0  0  0  0  0  0  0  0  0  0  0
    0.7803    2.3130   -0.7525 H   0  0  0  0  0  0  0  0  0  0  0  0
    2.7573    0.9805   -2.3984 H   0  0  0  0  0  0  0  0  0  0  0  0
    0.5707    2.6310   -3.7853 H   0  0  0  0  0  0  0  0  0  0  0  0
    2.0329    1.9840   -4.5617 H   0  0  0  0  0  0  0  0  0  0  0  0
    0.7925    0.8748   -3.9480 H   0  0  0  0  0  0  0  0  0  0  0  0
    3.9041    3.4207   -2.8352 N   0  0  0  0  0  0  0  0  0  0  0  0
    4.6567    4.6520   -2.6281 C   0  0  0  0  0  0  0  0  0  0  0  0
    4.2494    2.7383   -3.5040 H   0  0  0  0  0  0  0  0  0  0  0  0
    4.0231    5.5250   -2.8185 H   0  0  0  0  0  0  0  0  0  0  0  0
    5.0297    4.7045   -1.5998 H   0  0  0  0  0  0  0  0  0  0  0  0
    5.5126    4.6918   -3.3090 H   0  0  0  0  0  0  0  0  0  0  0  0
  1  2  2  0  0  0  0
  1  3  1  0  0  0  0
  1  7  1  0  0  0  0
  3  4  1  0  0  0  0
  3  5  1  0  0  0  0
  3  6  1  0  0  0  0
  7  8  1  0  0  0  0
  7 12  1  0  0  0  0
  8  9  1  0  0  0  0
  8 11  1  0  0  0  0
  8 13  1  0  0  0  0
  9 10  2  0  0  0  0
  9 17  1  0  0  0  0
 11 14  1  0  0  0  0
 11 15  1  0  0  0  0
 11 16  1  0  0  0  0
 17 18  1  0  0  0  0
 17 25  1  0  0  0  0
 18 19  1  0  0  0  0
 18 21  1  0  0  0  0
 18 26  1  0  0  0  0
 19 20  2  0  0  0  0
 19 36  1  0  0  0  0
 21 22  1  0  0  0  0
 21 23  1  0  0  0  0
 21 27  1  0  0  0  0
 22 24  1  0  0  0  0
 22 28  1  0  0  0  0
 22 29  1  0  0  0  0
 23 30  1  0  0  0  0
 23 31  1  0  0  0  0
 23 32  1  0  0  0  0
 24 33  1  0  0  0  0
 24 34  1  0  0  0  0
 24 35  1  0  0  0  0
 36 37  1  0  0  0  0
 36 41  1  0  0  0  0
 37 38  1  0  0  0  0
 37 40  1  0  0  0  0
 37 42  1  0  0  0  0
 38 39  2  0  0  0  0
 38 46  1  0  0  0  0
 40 43  1  0  0  0  0
 40 44  1  0  0  0  0
 40 45  1  0  0  0  0
 46 47  1  0  0  0  0
 46 48  1  0  0  0  0
 47 49  1  0  0  0  0
 47 50  1  0  0  0  0
 47 51  1  0  0  0  0
M  END
$$$$

  -OEChem-05262216503D

 51 50  0     1  0  0  0  0  0999 V2000
    1.4542   -5.8090    1.1061 C   0  0  0  0  0  0  0  0  0  0  0  0
    0.6171   -6.4178    0.4579 O   0  0  0  0  0  0  0  0  0  0  0  0
    2.7708   -6.4729    1.4631 C   0  0  0  0  0  0  0  0  0  0  0  0
    2.8102   -7.4818    1.0431 H   0  0  0  0  0  0  0  0  0  0  0  0
    3.6037   -5.8913    1.0606 H   0  0  0  0  0  0  0  0  0  0  0  0
    2.8724   -6.5384    2.5491 H   0  0  0  0  0  0  0  0  0  0  0  0
    1.2048   -4.5181    1.5200 N   0  0  0  0  0  0  0  0  0  0  0  0
    0.0417   -3.7244    1.1045 C   0  0  2  0  0  0  0  0  0  0  0  0
    0.3491   -2.2117    1.1149 C   0  0  0  0  0  0  0  0  0  0  0  0
    1.3889   -1.8114    1.6272 O   0  0  0  0  0  0  0  0  0  0  0  0
   -1.1259   -4.0388    2.0464 C   0  0  0  0  0  0  0  0  0  0  0  0
    1.9759   -4.0045    1.9459 H   0  0  0  0  0  0  0  0  0  0  0  0
   -0.2361   -3.9936    0.0797 H   0  0  0  0  0  0  0  0  0  0  0  0
   -0.8682   -3.7723    3.0764 H   0  0  0  0  0  0  0  0  0  0  0  0
   -2.0189   -3.4784    1.7541 H   0  0  0  0  0  0  0  0  0  0  0  0
   -1.3645   -5.1066    2.0119 H   0  0  0  0  0  0  0  0  0  0  0  0
   -0.5367   -1.3363    0.5067 N   0  0  0  0  0  0  0  0  0  0  0  0
   -0.3490    0.1222    0.3234 C   0  0  2  0  0  0  0  0  0  0  0  0
    0.6864    0.3481   -0.8233 C   0  0  0  0  0  0  0  0  0  0  0  0
    0.8493   -0.5269   -1.6692 O   0  0  0  0  0  0  0  0  0  0  0  0
   -0.1450    0.8518    1.7031 C   0  0  2  0  0  0  0  0  0  0  0  0
   -1.4369    0.6662    2.5464 C   0  0  0  0  0  0  0  0  0  0  0  0
    0.1415    2.3617    1.5562 C   0  0  0  0  0  0  0  0  0  0  0  0
   -1.2920    1.0907    4.0129 C   0  0  0  0  0  0  0  0  0  0  0  0
   -1.2359   -1.7816   -0.0805 H   0  0  0  0  0  0  0  0  0  0  0  0
   -1.2824    0.5216   -0.0834 H   0  0  0  0  0  0  0  0  0  0  0  0
    0.6982    0.4176    2.2453 H   0  0  0  0  0  0  0  0  0  0  0  0
   -2.2621    1.2226    2.0898 H   0  0  0  0  0  0  0  0  0  0  0  0
   -1.7191   -0.3907    2.5513 H   0  0  0  0  0  0  0  0  0  0  0  0
   -0.5014    2.8085    0.7914 H   0  0  0  0  0  0  0  0  0  0  0  0
   -0.0224    2.9011    2.4903 H   0  0  0  0  0  0  0  0  0  0  0  0
    1.1898    2.5263    1.2954 H   0  0  0  0  0  0  0  0  0  0  0  0
   -0.3994    0.6380    4.4559 H   0  0  0  0  0  0  0  0  0  0  0  0
   -2.1655    0.7563    4.5805 H   0  0  0  0  0  0  0  0  0  0  0  0
   -1.2256    2.1765    4.1145 H   0  0  0  0  0  0  0  0  0  0  0  0
    1.3177    1.5543   -1.0605 N   0  0  0  0  0  0  0  0  0  0  0  0
    2.3454    1.7860   -2.0835 C   0  0  2  0  0  0  0  0  0  0  0  0
    3.3043    2.9185   -1.6586 C   0  0  0  0  0  0  0  0  0  0  0  0
    3.0172    3.6442   -0.7116 O   0  0  0  0  0  0  0  0  0  0  0  0
    1.6568    2.1385   -3.4065 C   0  0  0  0  0  0  0  0  0  0  0  0
    1.2391    2.2684   -0.3394 H   0  0  0  0  0  0  0  0  0  0  0  0
    2.9442    0.8782   -2.2145 H   0  0  0  0  0  0  0  0  0  0  0  0
    1.0572    3.0474   -3.2948 H   0  0  0  0  0  0  0  0  0  0  0  0
    2.3981    2.3035   -4.1938 H   0  0  0  0  0  0  0  0  0  0  0  0
    0.9982    1.3233   -3.7217 H   0  0  0  0  0  0  0  0  0  0  0  0
    4.4891    3.1309   -2.3392 N   0  0  0  0  0  0  0  0  0  0  0  0
    5.4306    4.1896   -1.9945 C   0  0  0  0  0  0  0  0  0  0  0  0
    4.7073    2.5084   -3.1119 H   0  0  0  0  0  0  0  0  0  0  0  0
    4.9474    5.1698   -2.0660 H   0  0  0  0  0  0  0  0  0  0  0  0
    5.8034    4.0541   -0.9738 H   0  0  0  0  0  0  0  0  0  0  0  0
    6.2841    4.1754   -2.6791 H   0  0  0  0  0  0  0  0  0  0  0  0
  1  2  2  0  0  0  0
  1  3  1  0  0  0  0
  1  7  1  0  0  0  0
  3  4  1  0  0  0  0
  3  5  1  0  0  0  0
  3  6  1  0  0  0  0
  7  8  1  0  0  0  0
  7 12  1  0  0  0  0
  8  9  1  0  0  0  0
  8 11  1  0  0  0  0
  8 13  1  0  0  0  0
  9 10  2  0  0  0  0
  9 17  1  0  0  0  0
 11 14  1  0  0  0  0
 11 15  1  0  0  0  0
 11 16  1  0  0  0  0
 17 18  1  0  0  0  0
 17 25  1  0  0  0  0
 18 19  1  0  0  0  0
 18 21  1  0  0  0  0
 18 26  1  0  0  0  0
 19 20  2  0  0  0  0
 19 36  1  0  0  0  0
 21 22  1  0  0  0  0
 21 23  1  0  0  0  0
 21 27  1  0  0  0  0
 22 24  1  0  0  0  0
 22 28  1  0  0  0  0
 22 29  1  0  0  0  0
 23 30  1  0  0  0  0
 23 31  1  0  0  0  0
 23 32  1  0  0  0  0
 24 33  1  0  0  0  0
 24 34  1  0  0  0  0
 24 35  1  0  0  0  0
 36 37  1  0  0  0  0
 36 41  1  0  0  0  0
 37 38  1  0  0  0  0
 37 40  1  0  0  0  0
 37 42  1  0  0  0  0
 38 39  2  0  0  0  0
 38 46  1  0  0  0  0
 40 43  1  0  0  0  0
 40 44  1  0  0  0  0
 40 45  1  0  0  0  0
 46 47  1  0  0  0  0
 46 48  1  0  0  0  0
 47 49  1  0  0  0  0
 47 50  1  0  0  0  0
 47 51  1  0  0  0  0
M  END
$$$$

  -OEChem-05262216503D

 51 50  0     1  0  0  0  0  0999 V2000
    1.2311   -5.6781    0.6707 C   0  0  0  0  0  0  0  0  0  0  0  0
    0.2087   -6.2779    0.3794 O   0  0  0  0  0  0  0  0  0  0  0  0
    2.5712   -6.3878    0.6244 C   0  0  0  0  0  0  0  0  0  0  0  0
    2.4301   -7.4437    0.3771 H   0  0  0  0  0  0  0  0  0  0  0  0
    3.2095   -5.9295   -0.1349 H   0  0  0  0  0  0  0  0  0  0  0  0
    3.0648   -6.3176    1.5967 H   0  0  0  0  0  0  0  0  0  0  0  0
    1.1717   -4.3506    1.0380 N   0  0  0  0  0  0  0  0  0  0  0  0
   -0.0421   -3.5256    0.9809 C   0  0  2  0  0  0  0  0  0  0  0  0
    0.2929   -2.0310    0.7924 C   0  0  0  0  0  0  0  0  0  0  0  0
    1.4593   -1.6516    0.8632 O   0  0  0  0  0  0  0  0  0  0  0  0
   -0.8363   -3.7322    2.2758 C   0  0  0  0  0  0  0  0  0  0  0  0
    2.0553   -3.8570    1.1573 H   0  0  0  0  0  0  0  0  0  0  0  0
   -0.6542   -3.8348    0.1263 H   0  0  0  0  0  0  0  0  0  0  0  0
   -0.2429   -3.4222    3.1418 H   0  0  0  0  0  0  0  0  0  0  0  0
   -1.7607   -3.1472    2.2588 H   0  0  0  0  0  0  0  0  0  0  0  0
   -1.1018   -4.7875    2.3950 H   0  0  0  0  0  0  0  0  0  0  0  0
   -0.7158   -1.1309    0.4921 N   0  0  0  0  0  0  0  0  0  0  0  0
   -0.5306    0.3168    0.2585 C   0  0  2  0  0  0  0  0  0  0  0  0
    0.1022    0.4064   -1.1645 C   0  0  0  0  0  0  0  0  0  0  0  0
   -0.4917   -0.1375   -2.0855 O   0  0  0  0  0  0  0  0  0  0  0  0
    0.1231    1.0548    1.4770 C   0  0  2  0  0  0  0  0  0  0  0  0
   -0.8362    0.9271    2.6921 C   0  0  0  0  0  0  0  0  0  0  0  0
    0.2700    2.5754    1.2213 C   0  0  0  0  0  0  0  0  0  0  0  0
   -0.2057    1.3702    4.0174 C   0  0  0  0  0  0  0  0  0  0  0  0
   -1.6082   -1.5355    0.2214 H   0  0  0  0  0  0  0  0  0  0  0  0
   -1.5216    0.7671    0.1441 H   0  0  0  0  0  0  0  0  0  0  0  0
    1.1011    0.6307    1.7162 H   0  0  0  0  0  0  0  0  0  0  0  0
   -1.7543    1.4975    2.5154 H   0  0  0  0  0  0  0  0  0  0  0  0
   -1.1256   -0.1206    2.8150 H   0  0  0  0  0  0  0  0  0  0  0  0
    0.9282    2.8018    0.3877 H   0  0  0  0  0  0  0  0  0  0  0  0
    0.6980    3.0781    2.0917 H   0  0  0  0  0  0  0  0  0  0  0  0
   -0.7052    3.0238    1.0065 H   0  0  0  0  0  0  0  0  0  0  0  0
    0.7644    0.8842    4.1615 H   0  0  0  0  0  0  0  0  0  0  0  0
   -0.8582    1.0883    4.8493 H   0  0  0  0  0  0  0  0  0  0  0  0
   -0.0675    2.4540    4.0520 H   0  0  0  0  0  0  0  0  0  0  0  0
    0.9674    1.3577   -1.6427 N   0  0  0  0  0  0  0  0  0  0  0  0
    2.3723    1.3072   -1.2036 C   0  0  2  0  0  0  0  0  0  0  0  0
    3.1237    2.6386   -1.4157 C   0  0  0  0  0  0  0  0  0  0  0  0
    2.7861    3.4188   -2.2964 O   0  0  0  0  0  0  0  0  0  0  0  0
    3.0846    0.1855   -1.9689 C   0  0  0  0  0  0  0  0  0  0  0  0
    0.8542    1.4758   -2.6478 H   0  0  0  0  0  0  0  0  0  0  0  0
    2.4182    1.0719   -0.1369 H   0  0  0  0  0  0  0  0  0  0  0  0
    3.0524    0.3770   -3.0464 H   0  0  0  0  0  0  0  0  0  0  0  0
    4.1318    0.1162   -1.6590 H   0  0  0  0  0  0  0  0  0  0  0  0
    2.6063   -0.7795   -1.7719 H   0  0  0  0  0  0  0  0  0  0  0  0
    4.2055    2.9542   -0.6138 N   0  0  0  0  0  0  0  0  0  0  0  0
    4.9714    4.1868   -0.7529 C   0  0  0  0  0  0  0  0  0  0  0  0
    4.4755    2.2850    0.1010 H   0  0  0  0  0  0  0  0  0  0  0  0
    5.4154    4.2524   -1.7518 H   0  0  0  0  0  0  0  0  0  0  0  0
    4.3265    5.0580   -0.5962 H   0  0  0  0  0  0  0  0  0  0  0  0
    5.7781    4.2162   -0.0141 H   0  0  0  0  0  0  0  0  0  0  0  0
  1  2  2  0  0  0  0
  1  3  1  0  0  0  0
  1  7  1  0  0  0  0
  3  4  1  0  0  0  0
  3  5  1  0  0  0  0
  3  6  1  0  0  0  0
  7  8  1  0  0  0  0
  7 12  1  0  0  0  0
  8  9  1  0  0  0  0
  8 11  1  0  0  0  0
  8 13  1  0  0  0  0
  9 10  2  0  0  0  0
  9 17  1  0  0  0  0
 11 14  1  0  0  0  0
 11 15  1  0  0  0  0
 11 16  1  0  0  0  0
 17 18  1  0  0  0  0
 17 25  1  0  0  0  0
 18 19  1  0  0  0  0
 18 21  1  0  0  0  0
 18 26  1  0  0  0  0
 19 20  2  0  0  0  0
 19 36  1  0  0  0  0
 21 22  1  0  0  0  0
 21 23  1  0  0  0  0
 21 27  1  0  0  0  0
 22 24  1  0  0  0  0
 22 28  1  0  0  0  0
 22 29  1  0  0  0  0
 23 30  1  0  0  0  0
 23 31  1  0  0  0  0
 23 32  1  0  0  0  0
 24 33  1  0  0  0  0
 24 34  1  0  0  0  0
 24 35  1  0  0  0  0
 36 37  1  0  0  0  0
 36 41  1  0  0  0  0
 37 38  1  0  0  0  0
 37 40  1  0  0  0  0
 37 42  1  0  0  0  0
 38 39  2  0  0  0  0
 38 46  1  0  0  0  0
 40 43  1  0  0  0  0
 40 44  1  0  0  0  0
 40 45  1  0  0  0  0
 46 47  1  0  0  0  0
 46 48  1  0  0  0  0
 47 49  1  0  0  0  0
 47 50  1  0  0  0  0
 47 51  1  0  0  0  0
M  END
$$$$

  -OEChem-05262216503D

 51 50  0     1  0  0  0  0  0999 V2000
    1.4291   -5.7613    1.1319 C   0  0  0  0  0  0  0  0  0  0  0  0
    0.6031   -6.3664    0.4668 O   0  0  0  0  0  0  0  0  0  0  0  0
    2.7266   -6.4379    1.5339 C   0  0  0  0  0  0  0  0  0  0  0  0
    2.7598   -7.4565    1.1368 H   0  0  0  0  0  0  0  0  0  0  0  0
    3.5778   -5.8782    1.1388 H   0  0  0  0  0  0  0  0  0  0  0  0
    2.8023   -6.4823    2.6231 H   0  0  0  0  0  0  0  0  0  0  0  0
    1.1848   -4.4609    1.5188 N   0  0  0  0  0  0  0  0  0  0  0  0
    0.0313   -3.6647    1.0806 C   0  0  2  0  0  0  0  0  0  0  0  0
    0.3501   -2.1547    1.0795 C   0  0  0  0  0  0  0  0  0  0  0  0
    1.3745   -1.7500    1.6184 O   0  0  0  0  0  0  0  0  0  0  0  0
   -1.1478   -3.9581    2.0146 C   0  0  0  0  0  0  0  0  0  0  0  0
    1.9448   -3.9528    1.9708 H   0  0  0  0  0  0  0  0  0  0  0  0
   -0.2389   -3.9437    0.0564 H   0  0  0  0  0  0  0  0  0  0  0  0
   -0.8988   -3.6805    3.0440 H   0  0  0  0  0  0  0  0  0  0  0  0
   -2.0335   -3.3946    1.7063 H   0  0  0  0  0  0  0  0  0  0  0  0
   -1.3942   -5.0243    1.9914 H   0  0  0  0  0  0  0  0  0  0  0  0
   -0.4985   -1.2722    0.4324 N   0  0  0  0  0  0  0  0  0  0  0  0
   -0.3115    0.1907    0.3215 C   0  0  2  0  0  0  0  0  0  0  0  0
    0.8114    0.4255   -0.7285 C   0  0  0  0  0  0  0  0  0  0  0  0
    0.7140   -0.1357   -1.8155 O   0  0  0  0  0  0  0  0  0  0  0  0
   -0.2101    0.8940    1.7209 C   0  0  2  0  0  0  0  0  0  0  0  0
   -1.5554    0.6781    2.4671 C   0  0  0  0  0  0  0  0  0  0  0  0
    0.0178    2.4189    1.5821 C   0  0  0  0  0  0  0  0  0  0  0  0
   -1.5150    1.0755    3.9480 C   0  0  0  0  0  0  0  0  0  0  0  0
   -1.1956   -1.6966   -0.1732 H   0  0  0  0  0  0  0  0  0  0  0  0
   -1.2100    0.6007   -0.1493 H   0  0  0  0  0  0  0  0  0  0  0  0
    0.6094    0.4758    2.3113 H   0  0  0  0  0  0  0  0  0  0  0  0
   -2.3538    1.2344    1.9648 H   0  0  0  0  0  0  0  0  0  0  0  0
   -1.8241   -0.3819    2.4319 H   0  0  0  0  0  0  0  0  0  0  0  0
   -0.5937    2.8282    0.7717 H   0  0  0  0  0  0  0  0  0  0  0  0
    1.0663    2.6484    1.3856 H   0  0  0  0  0  0  0  0  0  0  0  0
   -0.2368    2.9530    2.4987 H   0  0  0  0  0  0  0  0  0  0  0  0
   -0.6583    0.6094    4.4445 H   0  0  0  0  0  0  0  0  0  0  0  0
   -2.4279    0.7348    4.4455 H   0  0  0  0  0  0  0  0  0  0  0  0
   -1.4509    2.1586    4.0764 H   0  0  0  0  0  0  0  0  0  0  0  0
    1.8561    1.3123   -0.5608 N   0  0  0  0  0  0  0  0  0  0  0  0
    2.9614    1.4983   -1.5089 C   0  0  2  0  0  0  0  0  0  0  0  0
    4.2353    1.9920   -0.7908 C   0  0  0  0  0  0  0  0  0  0  0  0
    4.1683    2.4247    0.3551 O   0  0  0  0  0  0  0  0  0  0  0  0
    2.5295    2.5082   -2.5776 C   0  0  0  0  0  0  0  0  0  0  0  0
    2.0266    1.6335    0.3917 H   0  0  0  0  0  0  0  0  0  0  0  0
    3.2005    0.5418   -1.9859 H   0  0  0  0  0  0  0  0  0  0  0  0
    2.2849    3.4699   -2.1155 H   0  0  0  0  0  0  0  0  0  0  0  0
    3.3304    2.6642   -3.3063 H   0  0  0  0  0  0  0  0  0  0  0  0
    1.6468    2.1434   -3.1118 H   0  0  0  0  0  0  0  0  0  0  0  0
    5.4607    1.9570   -1.4311 N   0  0  0  0  0  0  0  0  0  0  0  0
    6.7018    2.4026   -0.8096 C   0  0  0  0  0  0  0  0  0  0  0  0
    5.4896    1.5749   -2.3719 H   0  0  0  0  0  0  0  0  0  0  0  0
    6.6283    3.4559   -0.5191 H   0  0  0  0  0  0  0  0  0  0  0  0
    6.9202    1.8055    0.0819 H   0  0  0  0  0  0  0  0  0  0  0  0
    7.5355    2.2953   -1.5100 H   0  0  0  0  0  0  0  0  0  0  0  0
  1  2  2  0  0  0  0
  1  3  1  0  0  0  0
  1  7  1  0  0  0  0
  3  4  1  0  0  0  0
  3  5  1  0  0  0  0
  3  6  1  0  0  0  0
  7  8  1  0  0  0  0
  7 12  1  0  0  0  0
  8  9  1  0  0  0  0
  8 11  1  0  0  0  0
  8 13  1  0  0  0  0
  9 10  2  0  0  0  0
  9 17  1  0  0  0  0
 11 14  1  0  0  0  0
 11 15  1  0  0  0  0
 11 16  1  0  0  0  0
 17 18  1  0  0  0  0
 17 25  1  0  0  0  0
 18 19  1  0  0  0  0
 18 21  1  0  0  0  0
 18 26  1  0  0  0  0
 19 20  2  0  0  0  0
 19 36  1  0  0  0  0
 21 22  1  0  0  0  0
 21 23  1  0  0  0  0
 21 27  1  0  0  0  0
 22 24  1  0  0  0  0
 22 28  1  0  0  0  0
 22 29  1  0  0  0  0
 23 30  1  0  0  0  0
 23 31  1  0  0  0  0
 23 32  1  0  0  0  0
 24 33  1  0  0  0  0
 24 34  1  0  0  0  0
 24 35  1  0  0  0  0
 36 37  1  0  0  0  0
 36 41  1  0  0  0  0
 37 38  1  0  0  0  0
 37 40  1  0  0  0  0
 37 42  1  0  0  0  0
 38 39  2  0  0  0  0
 38 46  1  0  0  0  0
 40 43  1  0  0  0  0
 40 44  1  0  0  0  0
 40 45  1  0  0  0  0
 46 47  1  0  0  0  0
 46 48  1  0  0  0  0
 47 49  1  0  0  0  0
 47 50  1  0  0  0  0
 47 51  1  0  0  0  0
M  END
$$$$

  -OEChem-05262216503D

 51 50  0     1  0  0  0  0  0999 V2000
    1.4438   -5.7435    1.1019 C   0  0  0  0  0  0  0  0  0  0  0  0
    0.6365   -6.3377    0.4046 O   0  0  0  0  0  0  0  0  0  0  0  0
    2.7492   -6.4107    1.4925 C   0  0  0  0  0  0  0  0  0  0  0  0
    2.7969   -7.4201    1.0743 H   0  0  0  0  0  0  0  0  0  0  0  0
    3.5939   -5.8312    1.1115 H   0  0  0  0  0  0  0  0  0  0  0  0
    2.8227   -6.4769    2.5806 H   0  0  0  0  0  0  0  0  0  0  0  0
    1.1751   -4.4607    1.5293 N   0  0  0  0  0  0  0  0  0  0  0  0
    0.0271   -3.6619    1.0819 C   0  0  2  0  0  0  0  0  0  0  0  0
    0.3519   -2.1537    1.0769 C   0  0  0  0  0  0  0  0  0  0  0  0
    1.3731   -1.7495    1.6216 O   0  0  0  0  0  0  0  0  0  0  0  0
   -1.1583   -3.9490    2.0094 C   0  0  0  0  0  0  0  0  0  0  0  0
    1.9262   -3.9561    1.9997 H   0  0  0  0  0  0  0  0  0  0  0  0
   -0.2384   -3.9422    0.0567 H   0  0  0  0  0  0  0  0  0  0  0  0
   -0.9155   -3.6667    3.0389 H   0  0  0  0  0  0  0  0  0  0  0  0
   -2.0411   -3.3857    1.6922 H   0  0  0  0  0  0  0  0  0  0  0  0
   -1.4059   -5.0150    1.9892 H   0  0  0  0  0  0  0  0  0  0  0  0
   -0.4820   -1.2702    0.4132 N   0  0  0  0  0  0  0  0  0  0  0  0
   -0.2988    0.1930    0.3197 C   0  0  2  0  0  0  0  0  0  0  0  0
    0.8510    0.4268   -0.6952 C   0  0  0  0  0  0  0  0  0  0  0  0
    0.6884    0.0567   -1.8531 O   0  0  0  0  0  0  0  0  0  0  0  0
   -0.2047    0.8980    1.7149 C   0  0  2  0  0  0  0  0  0  0  0  0
   -1.5479    0.6828    2.4622 C   0  0  0  0  0  0  0  0  0  0  0  0
    0.0016    2.4249    1.5652 C   0  0  0  0  0  0  0  0  0  0  0  0
   -1.4994    1.0888    3.9396 C   0  0  0  0  0  0  0  0  0  0  0  0
   -1.1963   -1.6888   -0.1760 H   0  0  0  0  0  0  0  0  0  0  0  0
   -1.1876    0.6082   -0.1656 H   0  0  0  0  0  0  0  0  0  0  0  0
    0.6212    0.4895    2.3037 H   0  0  0  0  0  0  0  0  0  0  0  0
   -2.3510    1.2322    1.9599 H   0  0  0  0  0  0  0  0  0  0  0  0
   -1.8117   -0.3785    2.4329 H   0  0  0  0  0  0  0  0  0  0  0  0
   -0.7538    2.8500    0.8969 H   0  0  0  0  0  0  0  0  0  0  0  0
   -0.0708    2.9299    2.5305 H   0  0  0  0  0  0  0  0  0  0  0  0
    0.9878    2.6698    1.1703 H   0  0  0  0  0  0  0  0  0  0  0  0
   -0.6429    0.6223    4.4362 H   0  0  0  0  0  0  0  0  0  0  0  0
   -2.4123    0.7578    4.4439 H   0  0  0  0  0  0  0  0  0  0  0  0
   -1.4276    2.1732    4.0558 H   0  0  0  0  0  0  0  0  0  0  0  0
    2.0290    1.0716   -0.3746 N   0  0  0  0  0  0  0  0  0  0  0  0
    3.1784    1.2154   -1.2753 C   0  0  2  0  0  0  0  0  0  0  0  0
    4.4943    1.3791   -0.4858 C   0  0  0  0  0  0  0  0  0  0  0  0
    4.4692    1.6798    0.7028 O   0  0  0  0  0  0  0  0  0  0  0  0
    2.9492    2.4332   -2.1772 C   0  0  0  0  0  0  0  0  0  0  0  0
    2.2168    1.1965    0.6211 H   0  0  0  0  0  0  0  0  0  0  0  0
    3.2721    0.3156   -1.8926 H   0  0  0  0  0  0  0  0  0  0  0  0
    2.8499    3.3411   -1.5737 H   0  0  0  0  0  0  0  0  0  0  0  0
    3.7873    2.5633   -2.8681 H   0  0  0  0  0  0  0  0  0  0  0  0
    2.0359    2.3054   -2.7663 H   0  0  0  0  0  0  0  0  0  0  0  0
    5.7147    1.1996   -1.1116 N   0  0  0  0  0  0  0  0  0  0  0  0
    6.9943    1.3481   -0.4286 C   0  0  0  0  0  0  0  0  0  0  0  0
    5.7071    0.9439   -2.0946 H   0  0  0  0  0  0  0  0  0  0  0  0
    7.1126    2.3706   -0.0544 H   0  0  0  0  0  0  0  0  0  0  0  0
    7.0612    0.6541    0.4160 H   0  0  0  0  0  0  0  0  0  0  0  0
    7.8175    1.1341   -1.1169 H   0  0  0  0  0  0  0  0  0  0  0  0
  1  2  2  0  0  0  0
  1  3  1  0  0  0  0
  1  7  1  0  0  0  0
  3  4  1  0  0  0  0
  3  5  1  0  0  0  0
  3  6  1  0  0  0  0
  7  8  1  0  0  0  0
  7 12  1  0  0  0  0
  8  9  1  0  0  0  0
  8 11  1  0  0  0  0
  8 13  1  0  0  0  0
  9 10  2  0  0  0  0
  9 17  1  0  0  0  0
 11 14  1  0  0  0  0
 11 15  1  0  0  0  0
 11 16  1  0  0  0  0
 17 18  1  0  0  0  0
 17 25  1  0  0  0  0
 18 19  1  0  0  0  0
 18 21  1  0  0  0  0
 18 26  1  0  0  0  0
 19 20  2  0  0  0  0
 19 36  1  0  0  0  0
 21 22  1  0  0  0  0
 21 23  1  0  0  0  0
 21 27  1  0  0  0  0
 22 24  1  0  0  0  0
 22 28  1  0  0  0  0
 22 29  1  0  0  0  0
 23 30  1  0  0  0  0
 23 31  1  0  0  0  0
 23 32  1  0  0  0  0
 24 33  1  0  0  0  0
 24 34  1  0  0  0  0
 24 35  1  0  0  0  0
 36 37  1  0  0  0  0
 36 41  1  0  0  0  0
 37 38  1  0  0  0  0
 37 40  1  0  0  0  0
 37 42  1  0  0  0  0
 38 39  2  0  0  0  0
 38 46  1  0  0  0  0
 40 43  1  0  0  0  0
 40 44  1  0  0  0  0
 40 45  1  0  0  0  0
 46 47  1  0  0  0  0
 46 48  1  0  0  0  0
 47 49  1  0  0  0  0
 47 50  1  0  0  0  0
 47 51  1  0  0  0  0
M  END
$$$$

  -OEChem-05262216503D

 51 50  0     1  0  0  0  0  0999 V2000
    1.3860   -5.7686    1.1167 C   0  0  0  0  0  0  0  0  0  0  0  0
    0.5622   -6.3548    0.4320 O   0  0  0  0  0  0  0  0  0  0  0  0
    2.6904   -6.4479    1.4882 C   0  0  0  0  0  0  0  0  0  0  0  0
    2.7306   -7.4511    1.0544 H   0  0  0  0  0  0  0  0  0  0  0  0
    3.5354   -5.8668    1.1105 H   0  0  0  0  0  0  0  0  0  0  0  0
    2.7702   -6.5301    2.5749 H   0  0  0  0  0  0  0  0  0  0  0  0
    1.1365   -4.4833    1.5478 N   0  0  0  0  0  0  0  0  0  0  0  0
   -0.0099   -3.6730    1.1173 C   0  0  2  0  0  0  0  0  0  0  0  0
    0.3404   -2.1711    1.0803 C   0  0  0  0  0  0  0  0  0  0  0  0
    1.3616   -1.7704    1.6276 O   0  0  0  0  0  0  0  0  0  0  0  0
   -1.1737   -3.9251    2.0807 C   0  0  0  0  0  0  0  0  0  0  0  0
    1.8986   -3.9876    2.0101 H   0  0  0  0  0  0  0  0  0  0  0  0
   -0.3080   -3.9653    0.1046 H   0  0  0  0  0  0  0  0  0  0  0  0
   -0.8987   -3.6294    3.0983 H   0  0  0  0  0  0  0  0  0  0  0  0
   -2.0555   -3.3530    1.7772 H   0  0  0  0  0  0  0  0  0  0  0  0
   -1.4383   -4.9873    2.0859 H   0  0  0  0  0  0  0  0  0  0  0  0
   -0.4604   -1.2872    0.3777 N   0  0  0  0  0  0  0  0  0  0  0  0
   -0.2594    0.1730    0.2834 C   0  0  2  0  0  0  0  0  0  0  0  0
    0.9282    0.4070   -0.6815 C   0  0  0  0  0  0  0  0  0  0  0  0
    0.7427    0.2802   -1.8864 O   0  0  0  0  0  0  0  0  0  0  0  0
   -0.1915    0.8973    1.6662 C   0  0  2  0  0  0  0  0  0  0  0  0
   -1.5481    0.7175    2.3934 C   0  0  0  0  0  0  0  0  0  0  0  0
    0.0534    2.4133    1.4868 C   0  0  0  0  0  0  0  0  0  0  0  0
   -1.5107    1.1535    3.8620 C   0  0  0  0  0  0  0  0  0  0  0  0
   -1.2022   -1.6973   -0.1831 H   0  0  0  0  0  0  0  0  0  0  0  0
   -1.1299    0.5912   -0.2320 H   0  0  0  0  0  0  0  0  0  0  0  0
    0.6162    0.4854    2.2773 H   0  0  0  0  0  0  0  0  0  0  0  0
   -2.3333    1.2717    1.8684 H   0  0  0  0  0  0  0  0  0  0  0  0
   -1.8286   -0.3399    2.3789 H   0  0  0  0  0  0  0  0  0  0  0  0
   -0.7424    2.8616    0.8834 H   0  0  0  0  0  0  0  0  0  0  0  0
    0.0820    2.9208    2.4542 H   0  0  0  0  0  0  0  0  0  0  0  0
    1.0078    2.6188    0.9989 H   0  0  0  0  0  0  0  0  0  0  0  0
   -0.6873    0.6599    4.3875 H   0  0  0  0  0  0  0  0  0  0  0  0
   -2.4484    0.8778    4.3536 H   0  0  0  0  0  0  0  0  0  0  0  0
   -1.3892    2.2361    3.9536 H   0  0  0  0  0  0  0  0  0  0  0  0
    2.1832    0.7710   -0.2326 N   0  0  0  0  0  0  0  0  0  0  0  0
    3.3675    0.8986   -1.0896 C   0  0  2  0  0  0  0  0  0  0  0  0
    4.6728    0.6705   -0.2995 C   0  0  0  0  0  0  0  0  0  0  0  0
    4.6808    0.7468    0.9238 O   0  0  0  0  0  0  0  0  0  0  0  0
    3.3698    2.2963   -1.7182 C   0  0  0  0  0  0  0  0  0  0  0  0
    2.3544    0.6424    0.7670 H   0  0  0  0  0  0  0  0  0  0  0  0
    3.3258    0.1428   -1.8809 H   0  0  0  0  0  0  0  0  0  0  0  0
    3.4034    3.0647   -0.9392 H   0  0  0  0  0  0  0  0  0  0  0  0
    4.2390    2.4228   -2.3704 H   0  0  0  0  0  0  0  0  0  0  0  0
    2.4662    2.4464   -2.3171 H   0  0  0  0  0  0  0  0  0  0  0  0
    5.8523    0.3910   -0.9655 N   0  0  0  0  0  0  0  0  0  0  0  0
    7.1240    0.1813   -0.2841 C   0  0  0  0  0  0  0  0  0  0  0  0
    5.8186    0.3305   -1.9788 H   0  0  0  0  0  0  0  0  0  0  0  0
    7.4108    1.0780    0.2756 H   0  0  0  0  0  0  0  0  0  0  0  0
    7.0511   -0.6607    0.4126 H   0  0  0  0  0  0  0  0  0  0  0  0
    7.9115   -0.0388   -1.0111 H   0  0  0  0  0  0  0  0  0  0  0  0
  1  2  2  0  0  0  0
  1  3  1  0  0  0  0
  1  7  1  0  0  0  0
  3  4  1  0  0  0  0
  3  5  1  0  0  0  0
  3  6  1  0  0  0  0
  7  8  1  0  0  0  0
  7 12  1  0  0  0  0
  8  9  1  0  0  0  0
  8 11  1  0  0  0  0
  8 13  1  0  0  0  0
  9 10  2  0  0  0  0
  9 17  1  0  0  0  0
 11 14  1  0  0  0  0
 11 15  1  0  0  0  0
 11 16  1  0  0  0  0
 17 18  1  0  0  0  0
 17 25  1  0  0  0  0
 18 19  1  0  0  0  0
 18 21  1  0  0  0  0
 18 26  1  0  0  0  0
 19 20  2  0  0  0  0
 19 36  1  0  0  0  0
 21 22  1  0  0  0  0
 21 23  1  0  0  0  0
 21 27  1  0  0  0  0
 22 24  1  0  0  0  0
 22 28  1  0  0  0  0
 22 29  1  0  0  0  0
 23 30  1  0  0  0  0
 23 31  1  0  0  0  0
 23 32  1  0  0  0  0
 24 33  1  0  0  0  0
 24 34  1  0  0  0  0
 24 35  1  0  0  0  0
 36 37  1  0  0  0  0
 36 41  1  0  0  0  0
 37 38  1  0  0  0  0
 37 40  1  0  0  0  0
 37 42  1  0  0  0  0
 38 39  2  0  0  0  0
 38 46  1  0  0  0  0
 40 43  1  0  0  0  0
 40 44  1  0  0  0  0
 40 45  1  0  0  0  0
 46 47  1  0  0  0  0
 46 48  1  0  0  0  0
 47 49  1  0  0  0  0
 47 50  1  0  0  0  0
 47 51  1  0  0  0  0
M  END
$$$$

  -OEChem-05262216503D

 51 50  0     1  0  0  0  0  0999 V2000
    1.3641   -5.7444    1.1043 C   0  0  0  0  0  0  0  0  0  0  0  0
    0.5451   -6.3067    0.3942 O   0  0  0  0  0  0  0  0  0  0  0  0
    2.7055   -6.3956    1.3824 C   0  0  0  0  0  0  0  0  0  0  0  0
    2.7733   -7.3561    0.8636 H   0  0  0  0  0  0  0  0  0  0  0  0
    3.5134   -5.7481    1.0322 H   0  0  0  0  0  0  0  0  0  0  0  0
    2.8226   -6.5650    2.4556 H   0  0  0  0  0  0  0  0  0  0  0  0
    1.0807   -4.5055    1.6381 N   0  0  0  0  0  0  0  0  0  0  0  0
   -0.0766   -3.6876    1.2521 C   0  0  2  0  0  0  0  0  0  0  0  0
    0.3046   -2.1980    1.1414 C   0  0  0  0  0  0  0  0  0  0  0  0
    1.3196   -1.7898    1.6941 O   0  0  0  0  0  0  0  0  0  0  0  0
   -1.1749   -3.8825    2.2999 C   0  0  0  0  0  0  0  0  0  0  0  0
    1.8480   -4.0157    2.0989 H   0  0  0  0  0  0  0  0  0  0  0  0
   -0.4506   -4.0043    0.2725 H   0  0  0  0  0  0  0  0  0  0  0  0
   -0.8239   -3.5614    3.2860 H   0  0  0  0  0  0  0  0  0  0  0  0
   -2.0629   -3.2991    2.0390 H   0  0  0  0  0  0  0  0  0  0  0  0
   -1.4596   -4.9379    2.3577 H   0  0  0  0  0  0  0  0  0  0  0  0
   -0.4518   -1.3342    0.3674 N   0  0  0  0  0  0  0  0  0  0  0  0
   -0.2249    0.1194    0.2353 C   0  0  2  0  0  0  0  0  0  0  0  0
    1.0081    0.3371   -0.6706 C   0  0  0  0  0  0  0  0  0  0  0  0
    0.8475    0.4942   -1.8751 O   0  0  0  0  0  0  0  0  0  0  0  0
   -0.1997    0.8888    1.5928 C   0  0  2  0  0  0  0  0  0  0  0  0
   -1.5832    0.7589    2.2749 C   0  0  0  0  0  0  0  0  0  0  0  0
    0.1116    2.3841    1.3654 C   0  0  0  0  0  0  0  0  0  0  0  0
   -1.5852    1.2471    3.7266 C   0  0  0  0  0  0  0  0  0  0  0  0
   -1.2210   -1.7449   -0.1549 H   0  0  0  0  0  0  0  0  0  0  0  0
   -1.0695    0.5293   -0.3279 H   0  0  0  0  0  0  0  0  0  0  0  0
    0.5715    0.4797    2.2510 H   0  0  0  0  0  0  0  0  0  0  0  0
   -2.3362    1.3113    1.7028 H   0  0  0  0  0  0  0  0  0  0  0  0
   -1.8857   -0.2924    2.2855 H   0  0  0  0  0  0  0  0  0  0  0  0
   -0.6384    2.8387    0.7103 H   0  0  0  0  0  0  0  0  0  0  0  0
    0.1215    2.9295    2.3125 H   0  0  0  0  0  0  0  0  0  0  0  0
    1.0955    2.5226    0.9097 H   0  0  0  0  0  0  0  0  0  0  0  0
   -0.7940    0.7509    4.2972 H   0  0  0  0  0  0  0  0  0  0  0  0
   -2.5464    1.0142    4.1946 H   0  0  0  0  0  0  0  0  0  0  0  0
   -1.4356    2.3284    3.7831 H   0  0  0  0  0  0  0  0  0  0  0  0
    2.2814    0.4103   -0.1381 N   0  0  0  0  0  0  0  0  0  0  0  0
    3.5029    0.5388   -0.9427 C   0  0  2  0  0  0  0  0  0  0  0  0
    4.7178   -0.1538   -0.2900 C   0  0  0  0  0  0  0  0  0  0  0  0
    4.7053   -0.4580    0.8965 O   0  0  0  0  0  0  0  0  0  0  0  0
    3.7878    2.0301   -1.1411 C   0  0  0  0  0  0  0  0  0  0  0  0
    2.3854    0.0150    0.8021 H   0  0  0  0  0  0  0  0  0  0  0  0
    3.3493    0.0665   -1.9187 H   0  0  0  0  0  0  0  0  0  0  0  0
    3.9520    2.5176   -0.1747 H   0  0  0  0  0  0  0  0  0  0  0  0
    4.6786    2.1723   -1.7600 H   0  0  0  0  0  0  0  0  0  0  0  0
    2.9417    2.5152   -1.6379 H   0  0  0  0  0  0  0  0  0  0  0  0
    5.8462   -0.4278   -1.0416 N   0  0  0  0  0  0  0  0  0  0  0  0
    7.0410   -1.0571   -0.4921 C   0  0  0  0  0  0  0  0  0  0  0  0
    5.8332   -0.1654   -2.0227 H   0  0  0  0  0  0  0  0  0  0  0  0
    7.4638   -0.4418    0.3091 H   0  0  0  0  0  0  0  0  0  0  0  0
    6.8017   -2.0467   -0.0884 H   0  0  0  0  0  0  0  0  0  0  0  0
    7.7991   -1.1759   -1.2722 H   0  0  0  0  0  0  0  0  0  0  0  0
  1  2  2  0  0  0  0
  1  3  1  0  0  0  0
  1  7  1  0  0  0  0
  3  4  1  0  0  0  0
  3  5  1  0  0  0  0
  3  6  1  0  0  0  0
  7  8  1  0  0  0  0
  7 12  1  0  0  0  0
  8  9  1  0  0  0  0
  8 11  1  0  0  0  0
  8 13  1  0  0  0  0
  9 10  2  0  0  0  0
  9 17  1  0  0  0  0
 11 14  1  0  0  0  0
 11 15  1  0  0  0  0
 11 16  1  0  0  0  0
 17 18  1  0  0  0  0
 17 25  1  0  0  0  0
 18 19  1  0  0  0  0
 18 21  1  0  0  0  0
 18 26  1  0  0  0  0
 19 20  2  0  0  0  0
 19 36  1  0  0  0  0
 21 22  1  0  0  0  0
 21 23  1  0  0  0  0
 21 27  1  0  0  0  0
 22 24  1  0  0  0  0
 22 28  1  0  0  0  0
 22 29  1  0  0  0  0
 23 30  1  0  0  0  0
 23 31  1  0  0  0  0
 23 32  1  0  0  0  0
 24 33  1  0  0  0  0
 24 34  1  0  0  0  0
 24 35  1  0  0  0  0
 36 37  1  0  0  0  0
 36 41  1  0  0  0  0
 37 38  1  0  0  0  0
 37 40  1  0  0  0  0
 37 42  1  0  0  0  0
 38 39  2  0  0  0  0
 38 46  1  0  0  0  0
 40 43  1  0  0  0  0
 40 44  1  0  0  0  0
 40 45  1  0  0  0  0
 46 47  1  0  0  0  0
 46 48  1  0  0  0  0
 47 49  1  0  0  0  0
 47 50  1  0  0  0  0
 47 51  1  0  0  0  0
M  END
$$$$

  -OEChem-05262216503D

 51 50  0     1  0  0  0  0  0999 V2000
    1.0868   -4.4091    0.1456 C   0  0  0  0  0  0  0  0  0  0  0  0
   -0.1201   -4.4001   -0.0539 O   0  0  0  0  0  0  0  0  0  0  0  0
    2.0421   -4.6845   -0.9987 C   0  0  0  0  0  0  0  0  0  0  0  0
    1.5319   -5.2372   -1.7920 H   0  0  0  0  0  0  0  0  0  0  0  0
    2.4111   -3.7393   -1.4055 H   0  0  0  0  0  0  0  0  0  0  0  0
    2.8897   -5.2767   -0.6452 H   0  0  0  0  0  0  0  0  0  0  0  0
    1.5730   -4.0235    1.3768 N   0  0  0  0  0  0  0  0  0  0  0  0
    0.7184   -3.4623    2.4350 C   0  0  2  0  0  0  0  0  0  0  0  0
    0.4387   -1.9670    2.1606 C   0  0  0  0  0  0  0  0  0  0  0  0
    0.9520   -1.0935    2.8519 O   0  0  0  0  0  0  0  0  0  0  0  0
    1.4255   -3.7111    3.7725 C   0  0  0  0  0  0  0  0  0  0  0  0
    2.5497   -3.7100    1.3630 H   0  0  0  0  0  0  0  0  0  0  0  0
   -0.2455   -3.9817    2.4629 H   0  0  0  0  0  0  0  0  0  0  0  0
    2.4039   -3.2194    3.7879 H   0  0  0  0  0  0  0  0  0  0  0  0
    0.8251   -3.3169    4.5984 H   0  0  0  0  0  0  0  0  0  0  0  0
    1.5721   -4.7840    3.9304 H   0  0  0  0  0  0  0  0  0  0  0  0
   -0.1424   -1.6369    0.9470 N   0  0  0  0  0  0  0  0  0  0  0  0
   -0.0987   -0.3181    0.2862 C   0  0  2  0  0  0  0  0  0  0  0  0
    1.3231   -0.1644   -0.2916 C   0  0  0  0  0  0  0  0  0  0  0  0
    1.5432   -0.3273   -1.4861 O   0  0  0  0  0  0  0  0  0  0  0  0
   -0.5892    0.8918    1.1372 C   0  0  2  0  0  0  0  0  0  0  0  0
   -2.0830    0.6973    1.4849 C   0  0  0  0  0  0  0  0  0  0  0  0
   -0.4030    2.2062    0.3528 C   0  0  0  0  0  0  0  0  0  0  0  0
   -2.5875    1.6906    2.5359 C   0  0  0  0  0  0  0  0  0  0  0  0
   -0.3866   -2.4463    0.3678 H   0  0  0  0  0  0  0  0  0  0  0  0
   -0.7679   -0.3712   -0.5788 H   0  0  0  0  0  0  0  0  0  0  0  0
   -0.0104    0.9739    2.0600 H   0  0  0  0  0  0  0  0  0  0  0  0
   -2.6928    0.7827    0.5797 H   0  0  0  0  0  0  0  0  0  0  0  0
   -2.2310   -0.3099    1.8866 H   0  0  0  0  0  0  0  0  0  0  0  0
   -0.9634    2.1772   -0.5870 H   0  0  0  0  0  0  0  0  0  0  0  0
   -0.7485    3.0629    0.9369 H   0  0  0  0  0  0  0  0  0  0  0  0
    0.6521    2.3788    0.1223 H   0  0  0  0  0  0  0  0  0  0  0  0
   -1.9566    1.6560    3.4295 H   0  0  0  0  0  0  0  0  0  0  0  0
   -3.6115    1.4357    2.8252 H   0  0  0  0  0  0  0  0  0  0  0  0
   -2.5914    2.7120    2.1462 H   0  0  0  0  0  0  0  0  0  0  0  0
    2.3725    0.1052    0.5653 N   0  0  0  0  0  0  0  0  0  0  0  0
    3.7738   -0.0256    0.1524 C   0  0  2  0  0  0  0  0  0  0  0  0
    4.2433   -1.4925    0.0064 C   0  0  0  0  0  0  0  0  0  0  0  0
    3.8308   -2.3781    0.7515 O   0  0  0  0  0  0  0  0  0  0  0  0
    4.6279    0.7009    1.1929 C   0  0  0  0  0  0  0  0  0  0  0  0
    2.1482   -0.0608    1.5514 H   0  0  0  0  0  0  0  0  0  0  0  0
    3.9076    0.4716   -0.8141 H   0  0  0  0  0  0  0  0  0  0  0  0
    4.5202    0.2276    2.1746 H   0  0  0  0  0  0  0  0  0  0  0  0
    5.6840    0.6734    0.9077 H   0  0  0  0  0  0  0  0  0  0  0  0
    4.3186    1.7476    1.2745 H   0  0  0  0  0  0  0  0  0  0  0  0
    5.1901   -1.8164   -0.9480 N   0  0  0  0  0  0  0  0  0  0  0  0
    5.6829   -3.1699   -1.1730 C   0  0  0  0  0  0  0  0  0  0  0  0
    5.4474   -1.0881   -1.6084 H   0  0  0  0  0  0  0  0  0  0  0  0
    5.9998   -3.6286   -0.2303 H   0  0  0  0  0  0  0  0  0  0  0  0
    4.9033   -3.7919   -1.6232 H   0  0  0  0  0  0  0  0  0  0  0  0
    6.5437   -3.1498   -1.8482 H   0  0  0  0  0  0  0  0  0  0  0  0
  1  2  2  0  0  0  0
  1  3  1  0  0  0  0
  1  7  1  0  0  0  0
  3  4  1  0  0  0  0
  3  5  1  0  0  0  0
  3  6  1  0  0  0  0
  7  8  1  0  0  0  0
  7 12  1  0  0  0  0
  8  9  1  0  0  0  0
  8 11  1  0  0  0  0
  8 13  1  0  0  0  0
  9 10  2  0  0  0  0
  9 17  1  0  0  0  0
 11 14  1  0  0  0  0
 11 15  1  0  0  0  0
 11 16  1  0  0  0  0
 17 18  1  0  0  0  0
 17 25  1  0  0  0  0
 18 19  1  0  0  0  0
 18 21  1  0  0  0  0
 18 26  1  0  0  0  0
 19 20  2  0  0  0  0
 19 36  1  0  0  0  0
 21 22  1  0  0  0  0
 21 23  1  0  0  0  0
 21 27  1  0  0  0  0
 22 24  1  0  0  0  0
 22 28  1  0  0  0  0
 22 29  1  0  0  0  0
 23 30  1  0  0  0  0
 23 31  1  0  0  0  0
 23 32  1  0  0  0  0
 24 33  1  0  0  0  0
 24 34  1  0  0  0  0
 24 35  1  0  0  0  0
 36 37  1  0  0  0  0
 36 41  1  0  0  0  0
 37 38  1  0  0  0  0
 37 40  1  0  0  0  0
 37 42  1  0  0  0  0
 38 39  2  0  0  0  0
 38 46  1  0  0  0  0
 40 43  1  0  0  0  0
 40 44  1  0  0  0  0
 40 45  1  0  0  0  0
 46 47  1  0  0  0  0
 46 48  1  0  0  0  0
 47 49  1  0  0  0  0
 47 50  1  0  0  0  0
 47 51  1  0  0  0  0
M  END
$$$$

  -OEChem-05262216503D

 51 50  0     1  0  0  0  0  0999 V2000
    0.8175   -4.5975    0.3004 C   0  0  0  0  0  0  0  0  0  0  0  0
   -0.3954   -4.4791    0.1945 O   0  0  0  0  0  0  0  0  0  0  0  0
    1.6393   -5.0444   -0.8919 C   0  0  0  0  0  0  0  0  0  0  0  0
    1.9879   -4.1686   -1.4446 H   0  0  0  0  0  0  0  0  0  0  0  0
    2.5043   -5.6224   -0.5575 H   0  0  0  0  0  0  0  0  0  0  0  0
    1.0337   -5.6676   -1.5551 H   0  0  0  0  0  0  0  0  0  0  0  0
    1.4414   -4.1726    1.4540 N   0  0  0  0  0  0  0  0  0  0  0  0
    0.7322   -3.4832    2.5446 C   0  0  2  0  0  0  0  0  0  0  0  0
    0.5380   -1.9861    2.2091 C   0  0  0  0  0  0  0  0  0  0  0  0
    1.1012   -1.1150    2.8627 O   0  0  0  0  0  0  0  0  0  0  0  0
    1.5375   -3.7162    3.8289 C   0  0  0  0  0  0  0  0  0  0  0  0
    2.4373   -3.9558    1.3388 H   0  0  0  0  0  0  0  0  0  0  0  0
   -0.2610   -3.9226    2.6868 H   0  0  0  0  0  0  0  0  0  0  0  0
    2.5455   -3.2994    3.7320 H   0  0  0  0  0  0  0  0  0  0  0  0
    1.0437   -3.2369    4.6801 H   0  0  0  0  0  0  0  0  0  0  0  0
    1.6212   -4.7874    4.0360 H   0  0  0  0  0  0  0  0  0  0  0  0
   -0.0411   -1.6690    0.9915 N   0  0  0  0  0  0  0  0  0  0  0  0
   -0.0185   -0.3670    0.2913 C   0  0  2  0  0  0  0  0  0  0  0  0
    1.3899   -0.1752   -0.3127 C   0  0  0  0  0  0  0  0  0  0  0  0
    1.5586   -0.1589   -1.5263 O   0  0  0  0  0  0  0  0  0  0  0  0
   -0.5171    0.8431    1.1350 C   0  0  2  0  0  0  0  0  0  0  0  0
   -2.0035    0.6293    1.5061 C   0  0  0  0  0  0  0  0  0  0  0  0
   -0.3581    2.1541    0.3389 C   0  0  0  0  0  0  0  0  0  0  0  0
   -2.5097    1.6258    2.5530 C   0  0  0  0  0  0  0  0  0  0  0  0
   -0.3826   -2.4809    0.4686 H   0  0  0  0  0  0  0  0  0  0  0  0
   -0.7001   -0.4488   -0.5620 H   0  0  0  0  0  0  0  0  0  0  0  0
    0.0737    0.9376    2.0493 H   0  0  0  0  0  0  0  0  0  0  0  0
   -2.6263    0.6960    0.6078 H   0  0  0  0  0  0  0  0  0  0  0  0
   -2.1324   -0.3754    1.9203 H   0  0  0  0  0  0  0  0  0  0  0  0
   -0.9199    2.1056   -0.5994 H   0  0  0  0  0  0  0  0  0  0  0  0
   -0.7187    3.0094    0.9157 H   0  0  0  0  0  0  0  0  0  0  0  0
    0.6933    2.3451    0.1046 H   0  0  0  0  0  0  0  0  0  0  0  0
   -1.8643    1.6121    3.4367 H   0  0  0  0  0  0  0  0  0  0  0  0
   -3.5237    1.3549    2.8622 H   0  0  0  0  0  0  0  0  0  0  0  0
   -2.5386    2.6425    2.1522 H   0  0  0  0  0  0  0  0  0  0  0  0
    2.4899   -0.1576    0.5224 N   0  0  0  0  0  0  0  0  0  0  0  0
    3.8554   -0.3906    0.0447 C   0  0  2  0  0  0  0  0  0  0  0  0
    4.1374   -1.8747   -0.2847 C   0  0  0  0  0  0  0  0  0  0  0  0
    3.7454   -2.7791    0.4499 O   0  0  0  0  0  0  0  0  0  0  0  0
    4.8134    0.1009    1.1312 C   0  0  0  0  0  0  0  0  0  0  0  0
    2.2771   -0.3834    1.4992 H   0  0  0  0  0  0  0  0  0  0  0  0
    4.0261    0.2009   -0.8608 H   0  0  0  0  0  0  0  0  0  0  0  0
    4.6644   -0.4642    2.0575 H   0  0  0  0  0  0  0  0  0  0  0  0
    5.8520   -0.0249    0.8103 H   0  0  0  0  0  0  0  0  0  0  0  0
    4.6404    1.1615    1.3382 H   0  0  0  0  0  0  0  0  0  0  0  0
    4.9004   -2.1964   -1.3919 N   0  0  0  0  0  0  0  0  0  0  0  0
    5.2261   -3.5623   -1.7827 C   0  0  0  0  0  0  0  0  0  0  0  0
    5.1237   -1.4394   -2.0325 H   0  0  0  0  0  0  0  0  0  0  0  0
    5.6811   -4.1040   -0.9467 H   0  0  0  0  0  0  0  0  0  0  0  0
    4.3258   -4.0957   -2.1018 H   0  0  0  0  0  0  0  0  0  0  0  0
    5.9373   -3.5561   -2.6142 H   0  0  0  0  0  0  0  0  0  0  0  0
  1  2  2  0  0  0  0
  1  3  1  0  0  0  0
  1  7  1  0  0  0  0
  3  4  1  0  0  0  0
  3  5  1  0  0  0  0
  3  6  1  0  0  0  0
  7  8  1  0  0  0  0
  7 12  1  0  0  0  0
  8  9  1  0  0  0  0
  8 11  1  0  0  0  0
  8 13  1  0  0  0  0
  9 10  2  0  0  0  0
  9 17  1  0  0  0  0
 11 14  1  0  0  0  0
 11 15  1  0  0  0  0
 11 16  1  0  0  0  0
 17 18  1  0  0  0  0
 17 25  1  0  0  0  0
 18 19  1  0  0  0  0
 18 21  1  0  0  0  0
 18 26  1  0  0  0  0
 19 20  2  0  0  0  0
 19 36  1  0  0  0  0
 21 22  1  0  0  0  0
 21 23  1  0  0  0  0
 21 27  1  0  0  0  0
 22 24  1  0  0  0  0
 22 28  1  0  0  0  0
 22 29  1  0  0  0  0
 23 30  1  0  0  0  0
 23 31  1  0  0  0  0
 23 32  1  0  0  0  0
 24 33  1  0  0  0  0
 24 34  1  0  0  0  0
 24 35  1  0  0  0  0
 36 37  1  0  0  0  0
 36 41  1  0  0  0  0
 37 38  1  0  0  0  0
 37 40  1  0  0  0  0
 37 42  1  0  0  0  0
 38 39  2  0  0  0  0
 38 46  1  0  0  0  0
 40 43  1  0  0  0  0
 40 44  1  0  0  0  0
 40 45  1  0  0  0  0
 46 47  1  0  0  0  0
 46 48  1  0  0  0  0
 47 49  1  0  0  0  0
 47 50  1  0  0  0  0
 47 51  1  0  0  0  0
M  END
$$$$

  -OEChem-05262216503D

 51 50  0     1  0  0  0  0  0999 V2000
    0.9526   -4.7842    0.3774 C   0  0  0  0  0  0  0  0  0  0  0  0
   -0.2036   -4.4728    0.1279 O   0  0  0  0  0  0  0  0  0  0  0  0
    1.7119   -5.7122   -0.5512 C   0  0  0  0  0  0  0  0  0  0  0  0
    1.2843   -5.6718   -1.5562 H   0  0  0  0  0  0  0  0  0  0  0  0
    2.7637   -5.4227   -0.6021 H   0  0  0  0  0  0  0  0  0  0  0  0
    1.6486   -6.7375   -0.1794 H   0  0  0  0  0  0  0  0  0  0  0  0
    1.5519   -4.2867    1.5142 N   0  0  0  0  0  0  0  0  0  0  0  0
    0.8487   -3.4792    2.5256 C   0  0  2  0  0  0  0  0  0  0  0  0
    0.7512   -1.9891    2.1232 C   0  0  0  0  0  0  0  0  0  0  0  0
    1.2585   -1.1163    2.8180 O   0  0  0  0  0  0  0  0  0  0  0  0
    1.5775   -3.6961    3.8580 C   0  0  0  0  0  0  0  0  0  0  0  0
    2.5741   -4.2745    1.5048 H   0  0  0  0  0  0  0  0  0  0  0  0
   -0.1758   -3.8482    2.6430 H   0  0  0  0  0  0  0  0  0  0  0  0
    2.6111   -3.3404    3.7942 H   0  0  0  0  0  0  0  0  0  0  0  0
    1.0722   -3.1511    4.6618 H   0  0  0  0  0  0  0  0  0  0  0  0
    1.5890   -4.7592    4.1173 H   0  0  0  0  0  0  0  0  0  0  0  0
    0.2831   -1.6724    0.8587 N   0  0  0  0  0  0  0  0  0  0  0  0
    0.2813   -0.3545    0.1778 C   0  0  2  0  0  0  0  0  0  0  0  0
    1.7186   -0.0234   -0.2888 C   0  0  0  0  0  0  0  0  0  0  0  0
    1.9628    0.1493   -1.4789 O   0  0  0  0  0  0  0  0  0  0  0  0
   -0.3767    0.7862    1.0094 C   0  0  2  0  0  0  0  0  0  0  0  0
   -1.8700    0.4567    1.2437 C   0  0  0  0  0  0  0  0  0  0  0  0
   -0.2484    2.1361    0.2744 C   0  0  0  0  0  0  0  0  0  0  0  0
   -2.5332    1.3791    2.2709 C   0  0  0  0  0  0  0  0  0  0  0  0
   -0.0557   -2.4806    0.3276 H   0  0  0  0  0  0  0  0  0  0  0  0
   -0.3141   -0.4611   -0.7351 H   0  0  0  0  0  0  0  0  0  0  0  0
    0.1263    0.8860    1.9748 H   0  0  0  0  0  0  0  0  0  0  0  0
   -2.4177    0.5110    0.2972 H   0  0  0  0  0  0  0  0  0  0  0  0
   -1.9614   -0.5678    1.6172 H   0  0  0  0  0  0  0  0  0  0  0  0
   -0.7177    2.0833   -0.7132 H   0  0  0  0  0  0  0  0  0  0  0  0
   -0.7246    2.9393    0.8423 H   0  0  0  0  0  0  0  0  0  0  0  0
    0.8018    2.4143    0.1455 H   0  0  0  0  0  0  0  0  0  0  0  0
   -1.9565    1.3947    3.2009 H   0  0  0  0  0  0  0  0  0  0  0  0
   -3.5415    1.0187    2.4958 H   0  0  0  0  0  0  0  0  0  0  0  0
   -2.6169    2.4005    1.8902 H   0  0  0  0  0  0  0  0  0  0  0  0
    2.7711   -0.2318    0.5819 N   0  0  0  0  0  0  0  0  0  0  0  0
    4.0831   -0.7086    0.1412 C   0  0  2  0  0  0  0  0  0  0  0  0
    3.9786   -2.0996   -0.5287 C   0  0  0  0  0  0  0  0  0  0  0  0
    4.0008   -3.1398    0.1273 O   0  0  0  0  0  0  0  0  0  0  0  0
    5.0010   -0.7292    1.3675 C   0  0  0  0  0  0  0  0  0  0  0  0
    2.4739   -0.4930    1.5268 H   0  0  0  0  0  0  0  0  0  0  0  0
    4.5024   -0.0085   -0.5887 H   0  0  0  0  0  0  0  0  0  0  0  0
    4.5976   -1.3903    2.1419 H   0  0  0  0  0  0  0  0  0  0  0  0
    5.9977   -1.0862    1.0900 H   0  0  0  0  0  0  0  0  0  0  0  0
    5.0974    0.2774    1.7863 H   0  0  0  0  0  0  0  0  0  0  0  0
    3.7706   -2.1511   -1.8931 N   0  0  0  0  0  0  0  0  0  0  0  0
    3.4997   -3.3764   -2.6308 C   0  0  0  0  0  0  0  0  0  0  0  0
    3.4532   -1.2695   -2.3025 H   0  0  0  0  0  0  0  0  0  0  0  0
    4.1685   -4.1824   -2.3106 H   0  0  0  0  0  0  0  0  0  0  0  0
    2.4633   -3.6898   -2.4761 H   0  0  0  0  0  0  0  0  0  0  0  0
    3.6569   -3.2108   -3.7010 H   0  0  0  0  0  0  0  0  0  0  0  0
  1  2  2  0  0  0  0
  1  3  1  0  0  0  0
  1  7  1  0  0  0  0
  3  4  1  0  0  0  0
  3  5  1  0  0  0  0
  3  6  1  0  0  0  0
  7  8  1  0  0  0  0
  7 12  1  0  0  0  0
  8  9  1  0  0  0  0
  8 11  1  0  0  0  0
  8 13  1  0  0  0  0
  9 10  2  0  0  0  0
  9 17  1  0  0  0  0
 11 14  1  0  0  0  0
 11 15  1  0  0  0  0
 11 16  1  0  0  0  0
 17 18  1  0  0  0  0
 17 25  1  0  0  0  0
 18 19  1  0  0  0  0
 18 21  1  0  0  0  0
 18 26  1  0  0  0  0
 19 20  2  0  0  0  0
 19 36  1  0  0  0  0
 21 22  1  0  0  0  0
 21 23  1  0  0  0  0
 21 27  1  0  0  0  0
 22 24  1  0  0  0  0
 22 28  1  0  0  0  0
 22 29  1  0  0  0  0
 23 30  1  0  0  0  0
 23 31  1  0  0  0  0
 23 32  1  0  0  0  0
 24 33  1  0  0  0  0
 24 34  1  0  0  0  0
 24 35  1  0  0  0  0
 36 37  1  0  0  0  0
 36 41  1  0  0  0  0
 37 38  1  0  0  0  0
 37 40  1  0  0  0  0
 37 42  1  0  0  0  0
 38 39  2  0  0  0  0
 38 46  1  0  0  0  0
 40 43  1  0  0  0  0
 40 44  1  0  0  0  0
 40 45  1  0  0  0  0
 46 47  1  0  0  0  0
 46 48  1  0  0  0  0
 47 49  1  0  0  0  0
 47 50  1  0  0  0  0
 47 51  1  0  0  0  0
M  END
$$$$

  -OEChem-05262216503D

 51 50  0     1  0  0  0  0  0999 V2000
    0.2895   -4.7509    0.2597 C   0  0  0  0  0  0  0  0  0  0  0  0
   -0.8932   -4.4392    0.2501 O   0  0  0  0  0  0  0  0  0  0  0  0
    0.9116   -5.3957   -0.9636 C   0  0  0  0  0  0  0  0  0  0  0  0
    1.3151   -4.6235   -1.6229 H   0  0  0  0  0  0  0  0  0  0  0  0
    1.7214   -6.0657   -0.6646 H   0  0  0  0  0  0  0  0  0  0  0  0
    0.1597   -5.9733   -1.5078 H   0  0  0  0  0  0  0  0  0  0  0  0
    1.0751   -4.3887    1.3335 N   0  0  0  0  0  0  0  0  0  0  0  0
    0.5772   -3.5890    2.4665 C   0  0  2  0  0  0  0  0  0  0  0  0
    0.5569   -2.0826    2.1173 C   0  0  0  0  0  0  0  0  0  0  0  0
    1.2786   -1.2864    2.7044 O   0  0  0  0  0  0  0  0  0  0  0  0
    1.4576   -3.9170    3.6785 C   0  0  0  0  0  0  0  0  0  0  0  0
    2.0769   -4.3345    1.1230 H   0  0  0  0  0  0  0  0  0  0  0  0
   -0.4494   -3.8821    2.7106 H   0  0  0  0  0  0  0  0  0  0  0  0
    2.5004   -3.6473    3.4817 H   0  0  0  0  0  0  0  0  0  0  0  0
    1.1158   -3.3624    4.5581 H   0  0  0  0  0  0  0  0  0  0  0  0
    1.4102   -4.9866    3.9045 H   0  0  0  0  0  0  0  0  0  0  0  0
   -0.0525   -1.7042    0.9343 N   0  0  0  0  0  0  0  0  0  0  0  0
   -0.0379   -0.3864    0.2570 C   0  0  2  0  0  0  0  0  0  0  0  0
    1.3364   -0.1521   -0.4200 C   0  0  0  0  0  0  0  0  0  0  0  0
    1.3878    0.2994   -1.5579 O   0  0  0  0  0  0  0  0  0  0  0  0
   -0.4804    0.7827    1.1881 C   0  0  2  0  0  0  0  0  0  0  0  0
   -1.9483    0.5635    1.6282 C   0  0  0  0  0  0  0  0  0  0  0  0
   -0.3495    2.1393    0.4660 C   0  0  0  0  0  0  0  0  0  0  0  0
   -2.3873    1.5089    2.7506 C   0  0  0  0  0  0  0  0  0  0  0  0
   -0.5586   -2.4640    0.4700 H   0  0  0  0  0  0  0  0  0  0  0  0
   -0.7652   -0.4331   -0.5602 H   0  0  0  0  0  0  0  0  0  0  0  0
    0.1601    0.8167    2.0736 H   0  0  0  0  0  0  0  0  0  0  0  0
   -2.6165    0.6826    0.7692 H   0  0  0  0  0  0  0  0  0  0  0  0
   -2.0695   -0.4591    1.9979 H   0  0  0  0  0  0  0  0  0  0  0  0
   -0.9446    2.1456   -0.4529 H   0  0  0  0  0  0  0  0  0  0  0  0
   -0.6865    2.9599    1.1040 H   0  0  0  0  0  0  0  0  0  0  0  0
    0.6931    2.3448    0.2060 H   0  0  0  0  0  0  0  0  0  0  0  0
   -1.6909    1.4507    3.5927 H   0  0  0  0  0  0  0  0  0  0  0  0
   -3.3827    1.2256    3.1053 H   0  0  0  0  0  0  0  0  0  0  0  0
   -2.4353    2.5442    2.4030 H   0  0  0  0  0  0  0  0  0  0  0  0
    2.4772   -0.7125    0.1225 N   0  0  0  0  0  0  0  0  0  0  0  0
    3.7009   -1.0439   -0.6130 C   0  0  2  0  0  0  0  0  0  0  0  0
    3.8234   -2.5585   -0.8895 C   0  0  0  0  0  0  0  0  0  0  0  0
    3.3840   -3.3888   -0.0959 O   0  0  0  0  0  0  0  0  0  0  0  0
    4.8862   -0.5571    0.2216 C   0  0  0  0  0  0  0  0  0  0  0  0
    2.3504   -1.1202    1.0521 H   0  0  0  0  0  0  0  0  0  0  0  0
    3.7167   -0.5209   -1.5746 H   0  0  0  0  0  0  0  0  0  0  0  0
    4.9062   -1.0652    1.1913 H   0  0  0  0  0  0  0  0  0  0  0  0
    5.8281   -0.7585   -0.2977 H   0  0  0  0  0  0  0  0  0  0  0  0
    4.8096    0.5209    0.3947 H   0  0  0  0  0  0  0  0  0  0  0  0
    4.4670   -3.0010   -2.0302 N   0  0  0  0  0  0  0  0  0  0  0  0
    4.6227   -4.4081   -2.3780 C   0  0  0  0  0  0  0  0  0  0  0  0
    4.7827   -2.2953   -2.6902 H   0  0  0  0  0  0  0  0  0  0  0  0
    5.1256   -4.9513   -1.5710 H   0  0  0  0  0  0  0  0  0  0  0  0
    3.6466   -4.8689   -2.5594 H   0  0  0  0  0  0  0  0  0  0  0  0
    5.2251   -4.5074   -3.2862 H   0  0  0  0  0  0  0  0  0  0  0  0
  1  2  2  0  0  0  0
  1  3  1  0  0  0  0
  1  7  1  0  0  0  0
  3  4  1  0  0  0  0
  3  5  1  0  0  0  0
  3  6  1  0  0  0  0
  7  8  1  0  0  0  0
  7 12  1  0  0  0  0
  8  9  1  0  0  0  0
  8 11  1  0  0  0  0
  8 13  1  0  0  0  0
  9 10  2  0  0  0  0
  9 17  1  0  0  0  0
 11 14  1  0  0  0  0
 11 15  1  0  0  0  0
 11 16  1  0  0  0  0
 17 18  1  0  0  0  0
 17 25  1  0  0  0  0
 18 19  1  0  0  0  0
 18 21  1  0  0  0  0
 18 26  1  0  0  0  0
 19 20  2  0  0  0  0
 19 36  1  0  0  0  0
 21 22  1  0  0  0  0
 21 23  1  0  0  0  0
 21 27  1  0  0  0  0
 22 24  1  0  0  0  0
 22 28  1  0  0  0  0
 22 29  1  0  0  0  0
 23 30  1  0  0  0  0
 23 31  1  0  0  0  0
 23 32  1  0  0  0  0
 24 33  1  0  0  0  0
 24 34  1  0  0  0  0
 24 35  1  0  0  0  0
 36 37  1  0  0  0  0
 36 41  1  0  0  0  0
 37 38  1  0  0  0  0
 37 40  1  0  0  0  0
 37 42  1  0  0  0  0
 38 39  2  0  0  0  0
 38 46  1  0  0  0  0
 40 43  1  0  0  0  0
 40 44  1  0  0  0  0
 40 45  1  0  0  0  0
 46 47  1  0  0  0  0
 46 48  1  0  0  0  0
 47 49  1  0  0  0  0
 47 50  1  0  0  0  0
 47 51  1  0  0  0  0
M  END
$$$$

  -OEChem-05262216503D

 51 50  0     1  0  0  0  0  0999 V2000
   -0.4841   -4.2601    3.0001 C   0  0  0  0  0  0  0  0  0  0  0  0
   -1.1078   -3.8612    2.0292 O   0  0  0  0  0  0  0  0  0  0  0  0
   -1.2249   -4.5933    4.2814 C   0  0  0  0  0  0  0  0  0  0  0  0
   -1.0311   -5.6299    4.5677 H   0  0  0  0  0  0  0  0  0  0  0  0
   -0.8947   -3.9320    5.0864 H   0  0  0  0  0  0  0  0  0  0  0  0
   -2.3019   -4.4642    4.1404 H   0  0  0  0  0  0  0  0  0  0  0  0
    0.8944   -4.3609    2.9687 N   0  0  0  0  0  0  0  0  0  0  0  0
    1.7792   -4.0722    1.8207 C   0  0  2  0  0  0  0  0  0  0  0  0
    1.7954   -2.5907    1.3830 C   0  0  0  0  0  0  0  0  0  0  0  0
    2.8542   -1.9788    1.3849 O   0  0  0  0  0  0  0  0  0  0  0  0
    1.4668   -4.9914    0.6304 C   0  0  0  0  0  0  0  0  0  0  0  0
    1.3363   -4.6607    3.8334 H   0  0  0  0  0  0  0  0  0  0  0  0
    2.8014   -4.3035    2.1380 H   0  0  0  0  0  0  0  0  0  0  0  0
    0.4840   -4.7736    0.2025 H   0  0  0  0  0  0  0  0  0  0  0  0
    2.2154   -4.8530   -0.1568 H   0  0  0  0  0  0  0  0  0  0  0  0
    1.4849   -6.0394    0.9438 H   0  0  0  0  0  0  0  0  0  0  0  0
    0.6544   -1.9843    0.8907 N   0  0  0  0  0  0  0  0  0  0  0  0
    0.4268   -0.5405    0.6416 C   0  0  2  0  0  0  0  0  0  0  0  0
    1.1666   -0.0479   -0.6311 C   0  0  0  0  0  0  0  0  0  0  0  0
    0.7029    0.8790   -1.2865 O   0  0  0  0  0  0  0  0  0  0  0  0
    0.7283    0.3001    1.9233 C   0  0  2  0  0  0  0  0  0  0  0  0
   -0.2521   -0.1083    3.0524 C   0  0  0  0  0  0  0  0  0  0  0  0
    0.6066    1.8133    1.6524 C   0  0  0  0  0  0  0  0  0  0  0  0
    0.1307    0.4619    4.4216 C   0  0  0  0  0  0  0  0  0  0  0  0
   -0.1811   -2.5719    0.9734 H   0  0  0  0  0  0  0  0  0  0  0  0
   -0.6369   -0.4141    0.4158 H   0  0  0  0  0  0  0  0  0  0  0  0
    1.7534    0.1080    2.2523 H   0  0  0  0  0  0  0  0  0  0  0  0
   -1.2671    0.2123    2.7957 H   0  0  0  0  0  0  0  0  0  0  0  0
   -0.2693   -1.1971    3.1494 H   0  0  0  0  0  0  0  0  0  0  0  0
   -0.3858    2.0555    1.2591 H   0  0  0  0  0  0  0  0  0  0  0  0
    0.7714    2.3938    2.5630 H   0  0  0  0  0  0  0  0  0  0  0  0
    1.3589    2.1399    0.9287 H   0  0  0  0  0  0  0  0  0  0  0  0
    1.1725    0.2235    4.6578 H   0  0  0  0  0  0  0  0  0  0  0  0
   -0.5077    0.0263    5.1961 H   0  0  0  0  0  0  0  0  0  0  0  0
    0.0016    1.5471    4.4502 H   0  0  0  0  0  0  0  0  0  0  0  0
    2.1613   -0.8168   -1.2007 N   0  0  0  0  0  0  0  0  0  0  0  0
    2.5729   -0.7956   -2.6067 C   0  0  2  0  0  0  0  0  0  0  0  0
    2.3720   -2.1711   -3.2771 C   0  0  0  0  0  0  0  0  0  0  0  0
    2.3303   -3.1989   -2.6072 O   0  0  0  0  0  0  0  0  0  0  0  0
    4.0457   -0.3858   -2.6515 C   0  0  0  0  0  0  0  0  0  0  0  0
    2.4644   -1.6105   -0.6337 H   0  0  0  0  0  0  0  0  0  0  0  0
    1.9835   -0.0631   -3.1672 H   0  0  0  0  0  0  0  0  0  0  0  0
    4.6603   -1.1094   -2.1059 H   0  0  0  0  0  0  0  0  0  0  0  0
    4.3996   -0.3363   -3.6855 H   0  0  0  0  0  0  0  0  0  0  0  0
    4.1768    0.5990   -2.1923 H   0  0  0  0  0  0  0  0  0  0  0  0
    2.2630   -2.2594   -4.6528 N   0  0  0  0  0  0  0  0  0  0  0  0
    2.0556   -3.5162   -5.3608 C   0  0  0  0  0  0  0  0  0  0  0  0
    2.2674   -1.3910   -5.1796 H   0  0  0  0  0  0  0  0  0  0  0  0
    2.8821   -4.2073   -5.1647 H   0  0  0  0  0  0  0  0  0  0  0  0
    1.1195   -3.9859   -5.0410 H   0  0  0  0  0  0  0  0  0  0  0  0
    2.0031   -3.3380   -6.4391 H   0  0  0  0  0  0  0  0  0  0  0  0
  1  2  2  0  0  0  0
  1  3  1  0  0  0  0
  1  7  1  0  0  0  0
  3  4  1  0  0  0  0
  3  5  1  0  0  0  0
  3  6  1  0  0  0  0
  7  8  1  0  0  0  0
  7 12  1  0  0  0  0
  8  9  1  0  0  0  0
  8 11  1  0  0  0  0
  8 13  1  0  0  0  0
  9 10  2  0  0  0  0
  9 17  1  0  0  0  0
 11 14  1  0  0  0  0
 11 15  1  0  0  0  0
 11 16  1  0  0  0  0
 17 18  1  0  0  0  0
 17 25  1  0  0  0  0
 18 19  1  0  0  0  0
 18 21  1  0  0  0  0
 18 26  1  0  0  0  0
 19 20  2  0  0  0  0
 19 36  1  0  0  0  0
 21 22  1  0  0  0  0
 21 23  1  0  0  0  0
 21 27  1  0  0  0  0
 22 24  1  0  0  0  0
 22 28  1  0  0  0  0
 22 29  1  0  0  0  0
 23 30  1  0  0  0  0
 23 31  1  0  0  0  0
 23 32  1  0  0  0  0
 24 33  1  0  0  0  0
 24 34  1  0  0  0  0
 24 35  1  0  0  0  0
 36 37  1  0  0  0  0
 36 41  1  0  0  0  0
 37 38  1  0  0  0  0
 37 40  1  0  0  0  0
 37 42  1  0  0  0  0
 38 39  2  0  0  0  0
 38 46  1  0  0  0  0
 40 43  1  0  0  0  0
 40 44  1  0  0  0  0
 40 45  1  0  0  0  0
 46 47  1  0  0  0  0
 46 48  1  0  0  0  0
 47 49  1  0  0  0  0
 47 50  1  0  0  0  0
 47 51  1  0  0  0  0
M  END
$$$$

  -OEChem-05262216503D

 51 50  0     1  0  0  0  0  0999 V2000
    2.3901   -4.8960    1.4375 C   0  0  0  0  0  0  0  0  0  0  0  0
    2.6285   -4.4903    0.3098 O   0  0  0  0  0  0  0  0  0  0  0  0
    3.4985   -5.4982    2.2797 C   0  0  0  0  0  0  0  0  0  0  0  0
    3.2378   -6.5203    2.5648 H   0  0  0  0  0  0  0  0  0  0  0  0
    4.4340   -5.5178    1.7136 H   0  0  0  0  0  0  0  0  0  0  0  0
    3.6465   -4.9010    3.1829 H   0  0  0  0  0  0  0  0  0  0  0  0
    1.1213   -4.7662    1.9640 N   0  0  0  0  0  0  0  0  0  0  0  0
    0.1040   -3.9332    1.3073 C   0  0  2  0  0  0  0  0  0  0  0  0
    0.3867   -2.4230    1.4662 C   0  0  0  0  0  0  0  0  0  0  0  0
    1.0578   -2.0273    2.4102 O   0  0  0  0  0  0  0  0  0  0  0  0
   -1.2577   -4.2821    1.9096 C   0  0  0  0  0  0  0  0  0  0  0  0
    1.0559   -4.8710    2.9722 H   0  0  0  0  0  0  0  0  0  0  0  0
    0.0797   -4.1662    0.2363 H   0  0  0  0  0  0  0  0  0  0  0  0
   -1.2777   -4.0422    2.9776 H   0  0  0  0  0  0  0  0  0  0  0  0
   -2.0500   -3.7148    1.4114 H   0  0  0  0  0  0  0  0  0  0  0  0
   -1.4665   -5.3492    1.7856 H   0  0  0  0  0  0  0  0  0  0  0  0
   -0.0198   -1.5533    0.4700 N   0  0  0  0  0  0  0  0  0  0  0  0
    0.3367   -0.1210    0.3183 C   0  0  2  0  0  0  0  0  0  0  0  0
    1.7964    0.0246   -0.1952 C   0  0  0  0  0  0  0  0  0  0  0  0
    2.1047    1.0379   -0.8130 O   0  0  0  0  0  0  0  0  0  0  0  0
   -0.0117    0.7262    1.5877 C   0  0  2  0  0  0  0  0  0  0  0  0
   -1.5446    0.6950    1.8106 C   0  0  0  0  0  0  0  0  0  0  0  0
    0.4541    2.1890    1.4464 C   0  0  0  0  0  0  0  0  0  0  0  0
   -1.9734    1.2638    3.1672 C   0  0  0  0  0  0  0  0  0  0  0  0
   -0.2628   -2.0264   -0.4052 H   0  0  0  0  0  0  0  0  0  0  0  0
   -0.2829    0.2734   -0.4933 H   0  0  0  0  0  0  0  0  0  0  0  0
    0.4899    0.3149    2.4662 H   0  0  0  0  0  0  0  0  0  0  0  0
   -2.0468    1.2478    1.0099 H   0  0  0  0  0  0  0  0  0  0  0  0
   -1.8984   -0.3392    1.7661 H   0  0  0  0  0  0  0  0  0  0  0  0
    0.0347    2.6413    0.5421 H   0  0  0  0  0  0  0  0  0  0  0  0
    0.1506    2.7879    2.3077 H   0  0  0  0  0  0  0  0  0  0  0  0
    1.5450    2.2447    1.3930 H   0  0  0  0  0  0  0  0  0  0  0  0
   -1.4227    0.7753    3.9771 H   0  0  0  0  0  0  0  0  0  0  0  0
   -3.0424    1.0882    3.3208 H   0  0  0  0  0  0  0  0  0  0  0  0
   -1.7987    2.3414    3.2210 H   0  0  0  0  0  0  0  0  0  0  0  0
    2.5528   -1.1114   -0.4340 N   0  0  0  0  0  0  0  0  0  0  0  0
    3.0272   -1.4250   -1.7888 C   0  0  2  0  0  0  0  0  0  0  0  0
    1.9998   -2.2884   -2.5656 C   0  0  0  0  0  0  0  0  0  0  0  0
    0.8911   -2.5446   -2.0942 O   0  0  0  0  0  0  0  0  0  0  0  0
    4.3825   -2.1262   -1.6602 C   0  0  0  0  0  0  0  0  0  0  0  0
    2.2242   -1.9216    0.0895 H   0  0  0  0  0  0  0  0  0  0  0  0
    3.1814   -0.5063   -2.3641 H   0  0  0  0  0  0  0  0  0  0  0  0
    4.2746   -3.0885   -1.1523 H   0  0  0  0  0  0  0  0  0  0  0  0
    4.8215   -2.3016   -2.6463 H   0  0  0  0  0  0  0  0  0  0  0  0
    5.0736   -1.5047   -1.0821 H   0  0  0  0  0  0  0  0  0  0  0  0
    2.2881   -2.7242   -3.8461 N   0  0  0  0  0  0  0  0  0  0  0  0
    1.3754   -3.5321   -4.6453 C   0  0  0  0  0  0  0  0  0  0  0  0
    3.2076   -2.5062   -4.2180 H   0  0  0  0  0  0  0  0  0  0  0  0
    1.8129   -3.7377   -5.6270 H   0  0  0  0  0  0  0  0  0  0  0  0
    1.1754   -4.4871   -4.1481 H   0  0  0  0  0  0  0  0  0  0  0  0
    0.4268   -3.0057   -4.7944 H   0  0  0  0  0  0  0  0  0  0  0  0
  1  2  2  0  0  0  0
  1  3  1  0  0  0  0
  1  7  1  0  0  0  0
  3  4  1  0  0  0  0
  3  5  1  0  0  0  0
  3  6  1  0  0  0  0
  7  8  1  0  0  0  0
  7 12  1  0  0  0  0
  8  9  1  0  0  0  0
  8 11  1  0  0  0  0
  8 13  1  0  0  0  0
  9 10  2  0  0  0  0
  9 17  1  0  0  0  0
 11 14  1  0  0  0  0
 11 15  1  0  0  0  0
 11 16  1  0  0  0  0
 17 18  1  0  0  0  0
 17 25  1  0  0  0  0
 18 19  1  0  0  0  0
 18 21  1  0  0  0  0
 18 26  1  0  0  0  0
 19 20  2  0  0  0  0
 19 36  1  0  0  0  0
 21 22  1  0  0  0  0
 21 23  1  0  0  0  0
 21 27  1  0  0  0  0
 22 24  1  0  0  0  0
 22 28  1  0  0  0  0
 22 29  1  0  0  0  0
 23 30  1  0  0  0  0
 23 31  1  0  0  0  0
 23 32  1  0  0  0  0
 24 33  1  0  0  0  0
 24 34  1  0  0  0  0
 24 35  1  0  0  0  0
 36 37  1  0  0  0  0
 36 41  1  0  0  0  0
 37 38  1  0  0  0  0
 37 40  1  0  0  0  0
 37 42  1  0  0  0  0
 38 39  2  0  0  0  0
 38 46  1  0  0  0  0
 40 43  1  0  0  0  0
 40 44  1  0  0  0  0
 40 45  1  0  0  0  0
 46 47  1  0  0  0  0
 46 48  1  0  0  0  0
 47 49  1  0  0  0  0
 47 50  1  0  0  0  0
 47 51  1  0  0  0  0
M  END
$$$$

  -OEChem-05262216503D

 51 50  0     1  0  0  0  0  0999 V2000
    1.1281   -5.1284    0.8608 C   0  0  0  0  0  0  0  0  0  0  0  0
    0.4316   -4.5798    0.0179 O   0  0  0  0  0  0  0  0  0  0  0  0
    2.0620   -6.2593    0.4736 C   0  0  0  0  0  0  0  0  0  0  0  0
    1.9853   -6.4626   -0.5986 H   0  0  0  0  0  0  0  0  0  0  0  0
    3.0952   -5.9902    0.7073 H   0  0  0  0  0  0  0  0  0  0  0  0
    1.7972   -7.1668    1.0215 H   0  0  0  0  0  0  0  0  0  0  0  0
    1.0765   -4.6870    2.1666 N   0  0  0  0  0  0  0  0  0  0  0  0
    0.1687   -3.6317    2.6407 C   0  0  2  0  0  0  0  0  0  0  0  0
    0.4559   -2.2551    1.9968 C   0  0  0  0  0  0  0  0  0  0  0  0
    1.3627   -1.5518    2.4174 O   0  0  0  0  0  0  0  0  0  0  0  0
    0.2807   -3.5730    4.1682 C   0  0  0  0  0  0  0  0  0  0  0  0
    1.7396   -5.0898    2.8233 H   0  0  0  0  0  0  0  0  0  0  0  0
   -0.8614   -3.9061    2.3904 H   0  0  0  0  0  0  0  0  0  0  0  0
    1.3036   -3.3272    4.4720 H   0  0  0  0  0  0  0  0  0  0  0  0
   -0.3909   -2.8065    4.5680 H   0  0  0  0  0  0  0  0  0  0  0  0
    0.0071   -4.5366    4.6086 H   0  0  0  0  0  0  0  0  0  0  0  0
   -0.2550   -1.8937    0.8630 N   0  0  0  0  0  0  0  0  0  0  0  0
   -0.1002   -0.6514    0.0696 C   0  0  2  0  0  0  0  0  0  0  0  0
    1.2009   -0.7408   -0.7818 C   0  0  0  0  0  0  0  0  0  0  0  0
    1.5876    0.1820   -1.4898 O   0  0  0  0  0  0  0  0  0  0  0  0
   -0.3020    0.6223    0.9668 C   0  0  2  0  0  0  0  0  0  0  0  0
   -1.7544    0.6228    1.5153 C   0  0  0  0  0  0  0  0  0  0  0  0
   -0.0552    1.9380    0.1992 C   0  0  0  0  0  0  0  0  0  0  0  0
   -1.9980    1.6643    2.6138 C   0  0  0  0  0  0  0  0  0  0  0  0
   -0.7769   -2.6590    0.4350 H   0  0  0  0  0  0  0  0  0  0  0  0
   -0.9064   -0.6333   -0.6697 H   0  0  0  0  0  0  0  0  0  0  0  0
    0.3978    0.6051    1.8057 H   0  0  0  0  0  0  0  0  0  0  0  0
   -2.4611    0.7894    0.6958 H   0  0  0  0  0  0  0  0  0  0  0  0
   -1.9812   -0.3553    1.9486 H   0  0  0  0  0  0  0  0  0  0  0  0
   -0.6085    1.9450   -0.7449 H   0  0  0  0  0  0  0  0  0  0  0  0
   -0.3585    2.8091    0.7832 H   0  0  0  0  0  0  0  0  0  0  0  0
    1.0096    2.0657   -0.0127 H   0  0  0  0  0  0  0  0  0  0  0  0
   -1.2315    1.5872    3.3914 H   0  0  0  0  0  0  0  0  0  0  0  0
   -2.9751    1.4933    3.0757 H   0  0  0  0  0  0  0  0  0  0  0  0
   -1.9920    2.6803    2.2110 H   0  0  0  0  0  0  0  0  0  0  0  0
    1.8352   -1.9601   -0.9602 N   0  0  0  0  0  0  0  0  0  0  0  0
    3.0877   -2.1550   -1.7074 C   0  0  2  0  0  0  0  0  0  0  0  0
    2.8704   -2.2847   -3.2348 C   0  0  0  0  0  0  0  0  0  0  0  0
    3.3265   -3.2260   -3.8747 O   0  0  0  0  0  0  0  0  0  0  0  0
    3.7926   -3.3747   -1.1048 C   0  0  0  0  0  0  0  0  0  0  0  0
    1.4137   -2.7645   -0.4946 H   0  0  0  0  0  0  0  0  0  0  0  0
    3.7361   -1.2869   -1.5500 H   0  0  0  0  0  0  0  0  0  0  0  0
    3.2137   -4.2820   -1.2992 H   0  0  0  0  0  0  0  0  0  0  0  0
    4.7851   -3.4970   -1.5501 H   0  0  0  0  0  0  0  0  0  0  0  0
    3.9114   -3.2531   -0.0237 H   0  0  0  0  0  0  0  0  0  0  0  0
    2.1761   -1.2957   -3.9024 N   0  0  0  0  0  0  0  0  0  0  0  0
    1.9762   -1.2646   -5.3441 C   0  0  0  0  0  0  0  0  0  0  0  0
    1.8614   -0.5080   -3.3293 H   0  0  0  0  0  0  0  0  0  0  0  0
    1.3243   -0.4288   -5.6156 H   0  0  0  0  0  0  0  0  0  0  0  0
    2.9340   -1.1412   -5.8596 H   0  0  0  0  0  0  0  0  0  0  0  0
    1.5075   -2.1930   -5.6866 H   0  0  0  0  0  0  0  0  0  0  0  0
  1  2  2  0  0  0  0
  1  3  1  0  0  0  0
  1  7  1  0  0  0  0
  3  4  1  0  0  0  0
  3  5  1  0  0  0  0
  3  6  1  0  0  0  0
  7  8  1  0  0  0  0
  7 12  1  0  0  0  0
  8  9  1  0  0  0  0
  8 11  1  0  0  0  0
  8 13  1  0  0  0  0
  9 10  2  0  0  0  0
  9 17  1  0  0  0  0
 11 14  1  0  0  0  0
 11 15  1  0  0  0  0
 11 16  1  0  0  0  0
 17 18  1  0  0  0  0
 17 25  1  0  0  0  0
 18 19  1  0  0  0  0
 18 21  1  0  0  0  0
 18 26  1  0  0  0  0
 19 20  2  0  0  0  0
 19 36  1  0  0  0  0
 21 22  1  0  0  0  0
 21 23  1  0  0  0  0
 21 27  1  0  0  0  0
 22 24  1  0  0  0  0
 22 28  1  0  0  0  0
 22 29  1  0  0  0  0
 23 30  1  0  0  0  0
 23 31  1  0  0  0  0
 23 32  1  0  0  0  0
 24 33  1  0  0  0  0
 24 34  1  0  0  0  0
 24 35  1  0  0  0  0
 36 37  1  0  0  0  0
 36 41  1  0  0  0  0
 37 38  1  0  0  0  0
 37 40  1  0  0  0  0
 37 42  1  0  0  0  0
 38 39  2  0  0  0  0
 38 46  1  0  0  0  0
 40 43  1  0  0  0  0
 40 44  1  0  0  0  0
 40 45  1  0  0  0  0
 46 47  1  0  0  0  0
 46 48  1  0  0  0  0
 47 49  1  0  0  0  0
 47 50  1  0  0  0  0
 47 51  1  0  0  0  0
M  END
$$$$

  -OEChem-05262216503D

 51 50  0     1  0  0  0  0  0999 V2000
    1.2040   -5.5362    1.0014 C   0  0  0  0  0  0  0  0  0  0  0  0
    0.5411   -5.6161   -0.0205 O   0  0  0  0  0  0  0  0  0  0  0  0
    2.5256   -6.2723    1.1103 C   0  0  0  0  0  0  0  0  0  0  0  0
    2.7050   -6.8606    0.2059 H   0  0  0  0  0  0  0  0  0  0  0  0
    3.3413   -5.5551    1.2316 H   0  0  0  0  0  0  0  0  0  0  0  0
    2.5090   -6.9447    1.9713 H   0  0  0  0  0  0  0  0  0  0  0  0
    0.7780   -4.7396    2.0442 N   0  0  0  0  0  0  0  0  0  0  0  0
   -0.2857   -3.7403    1.8756 C   0  0  2  0  0  0  0  0  0  0  0  0
    0.2865   -2.3784    1.4318 C   0  0  0  0  0  0  0  0  0  0  0  0
    1.3966   -2.0375    1.8196 O   0  0  0  0  0  0  0  0  0  0  0  0
   -1.0216   -3.6038    3.2095 C   0  0  0  0  0  0  0  0  0  0  0  0
    1.4887   -4.5283    2.7407 H   0  0  0  0  0  0  0  0  0  0  0  0
   -1.0057   -4.0753    1.1214 H   0  0  0  0  0  0  0  0  0  0  0  0
   -0.3393   -3.2532    3.9908 H   0  0  0  0  0  0  0  0  0  0  0  0
   -1.8445   -2.8881    3.1199 H   0  0  0  0  0  0  0  0  0  0  0  0
   -1.4349   -4.5705    3.5143 H   0  0  0  0  0  0  0  0  0  0  0  0
   -0.4361   -1.5622    0.5761 N   0  0  0  0  0  0  0  0  0  0  0  0
   -0.1116   -0.1532    0.2430 C   0  0  2  0  0  0  0  0  0  0  0  0
    1.1038   -0.1336   -0.7334 C   0  0  0  0  0  0  0  0  0  0  0  0
    1.8085    0.8495   -0.9192 O   0  0  0  0  0  0  0  0  0  0  0  0
   -0.0448    0.7229    1.5464 C   0  0  2  0  0  0  0  0  0  0  0  0
   -1.4459    0.7277    2.2168 C   0  0  0  0  0  0  0  0  0  0  0  0
    0.3689    2.1831    1.2607 C   0  0  0  0  0  0  0  0  0  0  0  0
   -1.4534    1.3213    3.6309 C   0  0  0  0  0  0  0  0  0  0  0  0
   -1.3444   -1.9159    0.2877 H   0  0  0  0  0  0  0  0  0  0  0  0
   -0.9373    0.2467   -0.3529 H   0  0  0  0  0  0  0  0  0  0  0  0
    0.6875    0.3044    2.2423 H   0  0  0  0  0  0  0  0  0  0  0  0
   -2.1539    1.2798    1.5899 H   0  0  0  0  0  0  0  0  0  0  0  0
   -1.8159   -0.2974    2.3019 H   0  0  0  0  0  0  0  0  0  0  0  0
   -0.1898    2.5837    0.4091 H   0  0  0  0  0  0  0  0  0  0  0  0
    0.1952    2.8313    2.1210 H   0  0  0  0  0  0  0  0  0  0  0  0
    1.4382    2.2458    1.0445 H   0  0  0  0  0  0  0  0  0  0  0  0
   -0.6700    0.8623    4.2422 H   0  0  0  0  0  0  0  0  0  0  0  0
   -2.4195    1.1285    4.1070 H   0  0  0  0  0  0  0  0  0  0  0  0
   -1.3000    2.4033    3.6150 H   0  0  0  0  0  0  0  0  0  0  0  0
    1.2786   -1.2013   -1.5958 N   0  0  0  0  0  0  0  0  0  0  0  0
    2.2406   -1.2674   -2.7016 C   0  0  2  0  0  0  0  0  0  0  0  0
    1.6807   -2.0639   -3.9001 C   0  0  0  0  0  0  0  0  0  0  0  0
    0.5983   -2.6350   -3.8180 O   0  0  0  0  0  0  0  0  0  0  0  0
    3.5220   -1.9105   -2.1642 C   0  0  0  0  0  0  0  0  0  0  0  0
    0.6212   -1.9740   -1.5081 H   0  0  0  0  0  0  0  0  0  0  0  0
    2.4663   -0.2585   -3.0624 H   0  0  0  0  0  0  0  0  0  0  0  0
    3.3235   -2.9331   -1.8274 H   0  0  0  0  0  0  0  0  0  0  0  0
    4.2938   -1.9401   -2.9385 H   0  0  0  0  0  0  0  0  0  0  0  0
    3.9060   -1.3336   -1.3167 H   0  0  0  0  0  0  0  0  0  0  0  0
    2.3866   -2.1290   -5.0878 N   0  0  0  0  0  0  0  0  0  0  0  0
    1.9218   -2.8659   -6.2567 C   0  0  0  0  0  0  0  0  0  0  0  0
    3.2777   -1.6437   -5.1323 H   0  0  0  0  0  0  0  0  0  0  0  0
    1.7873   -3.9252   -6.0135 H   0  0  0  0  0  0  0  0  0  0  0  0
    0.9676   -2.4611   -6.6098 H   0  0  0  0  0  0  0  0  0  0  0  0
    2.6521   -2.7883   -7.0679 H   0  0  0  0  0  0  0  0  0  0  0  0
  1  2  2  0  0  0  0
  1  3  1  0  0  0  0
  1  7  1  0  0  0  0
  3  4  1  0  0  0  0
  3  5  1  0  0  0  0
  3  6  1  0  0  0  0
  7  8  1  0  0  0  0
  7 12  1  0  0  0  0
  8  9  1  0  0  0  0
  8 11  1  0  0  0  0
  8 13  1  0  0  0  0
  9 10  2  0  0  0  0
  9 17  1  0  0  0  0
 11 14  1  0  0  0  0
 11 15  1  0  0  0  0
 11 16  1  0  0  0  0
 17 18  1  0  0  0  0
 17 25  1  0  0  0  0
 18 19  1  0  0  0  0
 18 21  1  0  0  0  0
 18 26  1  0  0  0  0
 19 20  2  0  0  0  0
 19 36  1  0  0  0  0
 21 22  1  0  0  0  0
 21 23  1  0  0  0  0
 21 27  1  0  0  0  0
 22 24  1  0  0  0  0
 22 28  1  0  0  0  0
 22 29  1  0  0  0  0
 23 30  1  0  0  0  0
 23 31  1  0  0  0  0
 23 32  1  0  0  0  0
 24 33  1  0  0  0  0
 24 34  1  0  0  0  0
 24 35  1  0  0  0  0
 36 37  1  0  0  0  0
 36 41  1  0  0  0  0
 37 38  1  0  0  0  0
 37 40  1  0  0  0  0
 37 42  1  0  0  0  0
 38 39  2  0  0  0  0
 38 46  1  0  0  0  0
 40 43  1  0  0  0  0
 40 44  1  0  0  0  0
 40 45  1  0  0  0  0
 46 47  1  0  0  0  0
 46 48  1  0  0  0  0
 47 49  1  0  0  0  0
 47 50  1  0  0  0  0
 47 51  1  0  0  0  0
M  END
$$$$

  -OEChem-05262216503D

 51 50  0     1  0  0  0  0  0999 V2000
    1.0173   -6.0293    1.7771 C   0  0  0  0  0  0  0  0  0  0  0  0
    0.0083   -6.5965    1.3883 O   0  0  0  0  0  0  0  0  0  0  0  0
    2.2649   -6.8292    2.1009 C   0  0  0  0  0  0  0  0  0  0  0  0
    2.0831   -7.8950    1.9368 H   0  0  0  0  0  0  0  0  0  0  0  0
    3.0898   -6.5102    1.4592 H   0  0  0  0  0  0  0  0  0  0  0  0
    2.5448   -6.6770    3.1462 H   0  0  0  0  0  0  0  0  0  0  0  0
    1.0255   -4.6578    1.9173 N   0  0  0  0  0  0  0  0  0  0  0  0
   -0.0714   -3.7751    1.5001 C   0  0  2  0  0  0  0  0  0  0  0  0
    0.4436   -2.3791    1.0902 C   0  0  0  0  0  0  0  0  0  0  0  0
    1.5980   -2.0593    1.3431 O   0  0  0  0  0  0  0  0  0  0  0  0
   -1.0682   -3.6596    2.6580 C   0  0  0  0  0  0  0  0  0  0  0  0
    1.9181   -4.2113    2.1283 H   0  0  0  0  0  0  0  0  0  0  0  0
   -0.5765   -4.2064    0.6289 H   0  0  0  0  0  0  0  0  0  0  0  0
   -0.5867   -3.2111    3.5329 H   0  0  0  0  0  0  0  0  0  0  0  0
   -1.9220   -3.0383    2.3723 H   0  0  0  0  0  0  0  0  0  0  0  0
   -1.4430   -4.6499    2.9360 H   0  0  0  0  0  0  0  0  0  0  0  0
   -0.3808   -1.5155    0.3863 N   0  0  0  0  0  0  0  0  0  0  0  0
   -0.1262   -0.0712    0.1657 C   0  0  2  0  0  0  0  0  0  0  0  0
    0.9923    0.0667   -0.9096 C   0  0  0  0  0  0  0  0  0  0  0  0
    1.8745    0.9139   -0.8879 O   0  0  0  0  0  0  0  0  0  0  0  0
    0.0492    0.6837    1.5309 C   0  0  2  0  0  0  0  0  0  0  0  0
   -1.2772    0.5781    2.3327 C   0  0  0  0  0  0  0  0  0  0  0  0
    0.3735    2.1828    1.3342 C   0  0  0  0  0  0  0  0  0  0  0  0
   -1.1587    1.0396    3.7902 C   0  0  0  0  0  0  0  0  0  0  0  0
   -1.3318   -1.8447    0.2460 H   0  0  0  0  0  0  0  0  0  0  0  0
   -1.0135    0.3580   -0.3089 H   0  0  0  0  0  0  0  0  0  0  0  0
    0.8639    0.2344    2.1064 H   0  0  0  0  0  0  0  0  0  0  0  0
   -2.0610    1.1568    1.8325 H   0  0  0  0  0  0  0  0  0  0  0  0
   -1.6074   -0.4635    2.3585 H   0  0  0  0  0  0  0  0  0  0  0  0
   -0.2904    2.6267    0.5861 H   0  0  0  0  0  0  0  0  0  0  0  0
    0.2684    2.7459    2.2630 H   0  0  0  0  0  0  0  0  0  0  0  0
    1.4082    2.3225    1.0144 H   0  0  0  0  0  0  0  0  0  0  0  0
   -0.3088    0.5512    4.2773 H   0  0  0  0  0  0  0  0  0  0  0  0
   -2.0689    0.7739    4.3364 H   0  0  0  0  0  0  0  0  0  0  0  0
   -1.0319    2.1227    3.8616 H   0  0  0  0  0  0  0  0  0  0  0  0
    0.9108   -0.7255   -2.0399 N   0  0  0  0  0  0  0  0  0  0  0  0
    1.8640   -0.7300   -3.1555 C   0  0  2  0  0  0  0  0  0  0  0  0
    1.2482   -1.3867   -4.4089 C   0  0  0  0  0  0  0  0  0  0  0  0
    0.2106   -2.0361   -4.3189 O   0  0  0  0  0  0  0  0  0  0  0  0
    3.1247   -1.4904   -2.7254 C   0  0  0  0  0  0  0  0  0  0  0  0
    0.1673   -1.4200   -2.0687 H   0  0  0  0  0  0  0  0  0  0  0  0
    2.1298    0.3009   -3.4124 H   0  0  0  0  0  0  0  0  0  0  0  0
    2.8755   -2.5227   -2.4596 H   0  0  0  0  0  0  0  0  0  0  0  0
    3.8606   -1.5055   -3.5348 H   0  0  0  0  0  0  0  0  0  0  0  0
    3.5835   -1.0101   -1.8550 H   0  0  0  0  0  0  0  0  0  0  0  0
    1.8579   -1.2538   -5.6429 N   0  0  0  0  0  0  0  0  0  0  0  0
    1.3418   -1.8653   -6.8616 C   0  0  0  0  0  0  0  0  0  0  0  0
    2.7170   -0.7135   -5.6879 H   0  0  0  0  0  0  0  0  0  0  0  0
    1.3059   -2.9550   -6.7582 H   0  0  0  0  0  0  0  0  0  0  0  0
    0.3329   -1.4983   -7.0776 H   0  0  0  0  0  0  0  0  0  0  0  0
    1.9872   -1.6204   -7.7105 H   0  0  0  0  0  0  0  0  0  0  0  0
  1  2  2  0  0  0  0
  1  3  1  0  0  0  0
  1  7  1  0  0  0  0
  3  4  1  0  0  0  0
  3  5  1  0  0  0  0
  3  6  1  0  0  0  0
  7  8  1  0  0  0  0
  7 12  1  0  0  0  0
  8  9  1  0  0  0  0
  8 11  1  0  0  0  0
  8 13  1  0  0  0  0
  9 10  2  0  0  0  0
  9 17  1  0  0  0  0
 11 14  1  0  0  0  0
 11 15  1  0  0  0  0
 11 16  1  0  0  0  0
 17 18  1  0  0  0  0
 17 25  1  0  0  0  0
 18 19  1  0  0  0  0
 18 21  1  0  0  0  0
 18 26  1  0  0  0  0
 19 20  2  0  0  0  0
 19 36  1  0  0  0  0
 21 22  1  0  0  0  0
 21 23  1  0  0  0  0
 21 27  1  0  0  0  0
 22 24  1  0  0  0  0
 22 28  1  0  0  0  0
 22 29  1  0  0  0  0
 23 30  1  0  0  0  0
 23 31  1  0  0  0  0
 23 32  1  0  0  0  0
 24 33  1  0  0  0  0
 24 34  1  0  0  0  0
 24 35  1  0  0  0  0
 36 37  1  0  0  0  0
 36 41  1  0  0  0  0
 37 38  1  0  0  0  0
 37 40  1  0  0  0  0
 37 42  1  0  0  0  0
 38 39  2  0  0  0  0
 38 46  1  0  0  0  0
 40 43  1  0  0  0  0
 40 44  1  0  0  0  0
 40 45  1  0  0  0  0
 46 47  1  0  0  0  0
 46 48  1  0  0  0  0
 47 49  1  0  0  0  0
 47 50  1  0  0  0  0
 47 51  1  0  0  0  0
M  END
$$$$

  -OEChem-05262216503D

 51 50  0     1  0  0  0  0  0999 V2000
    1.2309   -5.6457    0.8977 C   0  0  0  0  0  0  0  0  0  0  0  0
    0.4840   -5.8680   -0.0426 O   0  0  0  0  0  0  0  0  0  0  0  0
    2.5613   -6.3683    0.9963 C   0  0  0  0  0  0  0  0  0  0  0  0
    2.6842   -7.0504    0.1505 H   0  0  0  0  0  0  0  0  0  0  0  0
    3.3798   -5.6444    0.9864 H   0  0  0  0  0  0  0  0  0  0  0  0
    2.6051   -6.9453    1.9231 H   0  0  0  0  0  0  0  0  0  0  0  0
    0.8830   -4.7241    1.8637 N   0  0  0  0  0  0  0  0  0  0  0  0
   -0.2229   -3.7689    1.7027 C   0  0  2  0  0  0  0  0  0  0  0  0
    0.2943   -2.3609    1.3429 C   0  0  0  0  0  0  0  0  0  0  0  0
    1.3930   -2.0086    1.7488 O   0  0  0  0  0  0  0  0  0  0  0  0
   -1.0031   -3.7291    3.0182 C   0  0  0  0  0  0  0  0  0  0  0  0
    1.6439   -4.4257    2.4709 H   0  0  0  0  0  0  0  0  0  0  0  0
   -0.9024   -4.0941    0.9081 H   0  0  0  0  0  0  0  0  0  0  0  0
   -0.3575   -3.3946    3.8369 H   0  0  0  0  0  0  0  0  0  0  0  0
   -1.8505   -3.0412    2.9408 H   0  0  0  0  0  0  0  0  0  0  0  0
   -1.3865   -4.7252    3.2603 H   0  0  0  0  0  0  0  0  0  0  0  0
   -0.4860   -1.5174    0.5680 N   0  0  0  0  0  0  0  0  0  0  0  0
   -0.2061   -0.0963    0.2563 C   0  0  2  0  0  0  0  0  0  0  0  0
    0.9346   -0.0633   -0.7999 C   0  0  0  0  0  0  0  0  0  0  0  0
    2.0174    0.4809   -0.6295 O   0  0  0  0  0  0  0  0  0  0  0  0
   -0.0203    0.7701    1.5470 C   0  0  2  0  0  0  0  0  0  0  0  0
   -1.3458    0.7574    2.3541 C   0  0  0  0  0  0  0  0  0  0  0  0
    0.3037    2.2429    1.2011 C   0  0  0  0  0  0  0  0  0  0  0  0
   -1.2088    1.3456    3.7630 C   0  0  0  0  0  0  0  0  0  0  0  0
   -1.3802   -1.8971    0.2718 H   0  0  0  0  0  0  0  0  0  0  0  0
   -1.0798    0.3136   -0.2589 H   0  0  0  0  0  0  0  0  0  0  0  0
    0.7962    0.3726    2.1568 H   0  0  0  0  0  0  0  0  0  0  0  0
   -2.1226    1.3026    1.8076 H   0  0  0  0  0  0  0  0  0  0  0  0
   -1.6908   -0.2736    2.4712 H   0  0  0  0  0  0  0  0  0  0  0  0
   -0.4504    2.6542    0.5230 H   0  0  0  0  0  0  0  0  0  0  0  0
    0.3355    2.8628    2.0997 H   0  0  0  0  0  0  0  0  0  0  0  0
    1.2832    2.3417    0.7301 H   0  0  0  0  0  0  0  0  0  0  0  0
   -0.3749    0.8755    4.2935 H   0  0  0  0  0  0  0  0  0  0  0  0
   -2.1257    1.1625    4.3312 H   0  0  0  0  0  0  0  0  0  0  0  0
   -1.0438    2.4256    3.7328 H   0  0  0  0  0  0  0  0  0  0  0  0
    0.7176   -0.6879   -2.0147 N   0  0  0  0  0  0  0  0  0  0  0  0
    1.6840   -0.7686   -3.1161 C   0  0  2  0  0  0  0  0  0  0  0  0
    0.9738   -0.9652   -4.4722 C   0  0  0  0  0  0  0  0  0  0  0  0
   -0.2197   -1.2487   -4.5082 O   0  0  0  0  0  0  0  0  0  0  0  0
    2.6410   -1.9329   -2.8363 C   0  0  0  0  0  0  0  0  0  0  0  0
   -0.1953   -1.1086   -2.1747 H   0  0  0  0  0  0  0  0  0  0  0  0
    2.2542    0.1646   -3.1735 H   0  0  0  0  0  0  0  0  0  0  0  0
    2.0877   -2.8752   -2.7694 H   0  0  0  0  0  0  0  0  0  0  0  0
    3.3851   -2.0208   -3.6333 H   0  0  0  0  0  0  0  0  0  0  0  0
    3.1683   -1.7720   -1.8903 H   0  0  0  0  0  0  0  0  0  0  0  0
    1.6685   -0.8109   -5.6580 N   0  0  0  0  0  0  0  0  0  0  0  0
    1.0584   -0.9763   -6.9720 C   0  0  0  0  0  0  0  0  0  0  0  0
    2.6527   -0.5661   -5.5985 H   0  0  0  0  0  0  0  0  0  0  0  0
    0.6558   -1.9887   -7.0830 H   0  0  0  0  0  0  0  0  0  0  0  0
    0.2449   -0.2564   -7.1109 H   0  0  0  0  0  0  0  0  0  0  0  0
    1.8018   -0.8125   -7.7580 H   0  0  0  0  0  0  0  0  0  0  0  0
  1  2  2  0  0  0  0
  1  3  1  0  0  0  0
  1  7  1  0  0  0  0
  3  4  1  0  0  0  0
  3  5  1  0  0  0  0
  3  6  1  0  0  0  0
  7  8  1  0  0  0  0
  7 12  1  0  0  0  0
  8  9  1  0  0  0  0
  8 11  1  0  0  0  0
  8 13  1  0  0  0  0
  9 10  2  0  0  0  0
  9 17  1  0  0  0  0
 11 14  1  0  0  0  0
 11 15  1  0  0  0  0
 11 16  1  0  0  0  0
 17 18  1  0  0  0  0
 17 25  1  0  0  0  0
 18 19  1  0  0  0  0
 18 21  1  0  0  0  0
 18 26  1  0  0  0  0
 19 20  2  0  0  0  0
 19 36  1  0  0  0  0
 21 22  1  0  0  0  0
 21 23  1  0  0  0  0
 21 27  1  0  0  0  0
 22 24  1  0  0  0  0
 22 28  1  0  0  0  0
 22 29  1  0  0  0  0
 23 30  1  0  0  0  0
 23 31  1  0  0  0  0
 23 32  1  0  0  0  0
 24 33  1  0  0  0  0
 24 34  1  0  0  0  0
 24 35  1  0  0  0  0
 36 37  1  0  0  0  0
 36 41  1  0  0  0  0
 37 38  1  0  0  0  0
 37 40  1  0  0  0  0
 37 42  1  0  0  0  0
 38 39  2  0  0  0  0
 38 46  1  0  0  0  0
 40 43  1  0  0  0  0
 40 44  1  0  0  0  0
 40 45  1  0  0  0  0
 46 47  1  0  0  0  0
 46 48  1  0  0  0  0
 47 49  1  0  0  0  0
 47 50  1  0  0  0  0
 47 51  1  0  0  0  0
M  END
$$$$

  -OEChem-05262216503D

 51 50  0     1  0  0  0  0  0999 V2000
    1.2490   -5.6630    0.9088 C   0  0  0  0  0  0  0  0  0  0  0  0
    0.5156   -5.8813   -0.0433 O   0  0  0  0  0  0  0  0  0  0  0  0
    2.5961   -6.3543    1.0020 C   0  0  0  0  0  0  0  0  0  0  0  0
    2.7110   -7.0689    0.1821 H   0  0  0  0  0  0  0  0  0  0  0  0
    3.3984   -5.6146    0.9400 H   0  0  0  0  0  0  0  0  0  0  0  0
    2.6765   -6.8907    1.9508 H   0  0  0  0  0  0  0  0  0  0  0  0
    0.8717   -4.7733    1.8932 N   0  0  0  0  0  0  0  0  0  0  0  0
   -0.2509   -3.8373    1.7413 C   0  0  2  0  0  0  0  0  0  0  0  0
    0.2455   -2.4112    1.4262 C   0  0  0  0  0  0  0  0  0  0  0  0
    1.3059   -2.0359    1.9050 O   0  0  0  0  0  0  0  0  0  0  0  0
   -1.0513   -3.8487    3.0451 C   0  0  0  0  0  0  0  0  0  0  0  0
    1.6205   -4.4708    2.5134 H   0  0  0  0  0  0  0  0  0  0  0  0
   -0.9125   -4.1552    0.9293 H   0  0  0  0  0  0  0  0  0  0  0  0
   -0.4264   -3.5199    3.8819 H   0  0  0  0  0  0  0  0  0  0  0  0
   -1.9128   -3.1782    2.9704 H   0  0  0  0  0  0  0  0  0  0  0  0
   -1.4155   -4.8590    3.2569 H   0  0  0  0  0  0  0  0  0  0  0  0
   -0.5199   -1.5826    0.6209 N   0  0  0  0  0  0  0  0  0  0  0  0
   -0.2310   -0.1777    0.2532 C   0  0  2  0  0  0  0  0  0  0  0  0
    0.9055   -0.1727   -0.8041 C   0  0  0  0  0  0  0  0  0  0  0  0
    2.0618    0.1446   -0.5566 O   0  0  0  0  0  0  0  0  0  0  0  0
   -0.0141    0.7529    1.4891 C   0  0  2  0  0  0  0  0  0  0  0  0
   -1.3201    0.8017    2.3225 C   0  0  0  0  0  0  0  0  0  0  0  0
    0.3229    2.1957    1.0468 C   0  0  0  0  0  0  0  0  0  0  0  0
   -1.1401    1.4664    3.6914 C   0  0  0  0  0  0  0  0  0  0  0  0
   -1.3630   -2.0029    0.2418 H   0  0  0  0  0  0  0  0  0  0  0  0
   -1.1101    0.2155   -0.2652 H   0  0  0  0  0  0  0  0  0  0  0  0
    0.8116    0.3807    2.1025 H   0  0  0  0  0  0  0  0  0  0  0  0
   -2.1044    1.3233    1.7640 H   0  0  0  0  0  0  0  0  0  0  0  0
   -1.6709   -0.2181    2.5046 H   0  0  0  0  0  0  0  0  0  0  0  0
   -0.4740    2.6016    0.4160 H   0  0  0  0  0  0  0  0  0  0  0  0
    0.4482    2.8510    1.9121 H   0  0  0  0  0  0  0  0  0  0  0  0
    1.2598    2.2385    0.4872 H   0  0  0  0  0  0  0  0  0  0  0  0
   -0.3077    1.0064    4.2331 H   0  0  0  0  0  0  0  0  0  0  0  0
   -2.0502    1.3426    4.2861 H   0  0  0  0  0  0  0  0  0  0  0  0
   -0.9471    2.5377    3.5918 H   0  0  0  0  0  0  0  0  0  0  0  0
    0.6018   -0.5452   -2.1006 N   0  0  0  0  0  0  0  0  0  0  0  0
    1.5365   -0.4965   -3.2308 C   0  0  2  0  0  0  0  0  0  0  0  0
    0.7935   -0.2256   -4.5554 C   0  0  0  0  0  0  0  0  0  0  0  0
   -0.4295   -0.3160   -4.6044 O   0  0  0  0  0  0  0  0  0  0  0  0
    2.2906   -1.8283   -3.2909 C   0  0  0  0  0  0  0  0  0  0  0  0
   -0.3751   -0.7221   -2.3272 H   0  0  0  0  0  0  0  0  0  0  0  0
    2.2530    0.3187   -3.0842 H   0  0  0  0  0  0  0  0  0  0  0  0
    1.5924   -2.6568   -3.4471 H   0  0  0  0  0  0  0  0  0  0  0  0
    3.0164   -1.8237   -4.1091 H   0  0  0  0  0  0  0  0  0  0  0  0
    2.8299   -1.9998   -2.3536 H   0  0  0  0  0  0  0  0  0  0  0  0
    1.4919    0.1446   -5.6898 N   0  0  0  0  0  0  0  0  0  0  0  0
    0.8498    0.4252   -6.9682 C   0  0  0  0  0  0  0  0  0  0  0  0
    2.5023    0.2238   -5.6163 H   0  0  0  0  0  0  0  0  0  0  0  0
    0.3407   -0.4681   -7.3445 H   0  0  0  0  0  0  0  0  0  0  0  0
    0.1151    1.2303   -6.8610 H   0  0  0  0  0  0  0  0  0  0  0  0
    1.5952    0.7352   -7.7065 H   0  0  0  0  0  0  0  0  0  0  0  0
  1  2  2  0  0  0  0
  1  3  1  0  0  0  0
  1  7  1  0  0  0  0
  3  4  1  0  0  0  0
  3  5  1  0  0  0  0
  3  6  1  0  0  0  0
  7  8  1  0  0  0  0
  7 12  1  0  0  0  0
  8  9  1  0  0  0  0
  8 11  1  0  0  0  0
  8 13  1  0  0  0  0
  9 10  2  0  0  0  0
  9 17  1  0  0  0  0
 11 14  1  0  0  0  0
 11 15  1  0  0  0  0
 11 16  1  0  0  0  0
 17 18  1  0  0  0  0
 17 25  1  0  0  0  0
 18 19  1  0  0  0  0
 18 21  1  0  0  0  0
 18 26  1  0  0  0  0
 19 20  2  0  0  0  0
 19 36  1  0  0  0  0
 21 22  1  0  0  0  0
 21 23  1  0  0  0  0
 21 27  1  0  0  0  0
 22 24  1  0  0  0  0
 22 28  1  0  0  0  0
 22 29  1  0  0  0  0
 23 30  1  0  0  0  0
 23 31  1  0  0  0  0
 23 32  1  0  0  0  0
 24 33  1  0  0  0  0
 24 34  1  0  0  0  0
 24 35  1  0  0  0  0
 36 37  1  0  0  0  0
 36 41  1  0  0  0  0
 37 38  1  0  0  0  0
 37 40  1  0  0  0  0
 37 42  1  0  0  0  0
 38 39  2  0  0  0  0
 38 46  1  0  0  0  0
 40 43  1  0  0  0  0
 40 44  1  0  0  0  0
 40 45  1  0  0  0  0
 46 47  1  0  0  0  0
 46 48  1  0  0  0  0
 47 49  1  0  0  0  0
 47 50  1  0  0  0  0
 47 51  1  0  0  0  0
M  END
$$$$

  -OEChem-05262216503D

 51 50  0     1  0  0  0  0  0999 V2000
    1.3163   -5.7601    0.9691 C   0  0  0  0  0  0  0  0  0  0  0  0
    0.5594   -6.1475    0.0922 O   0  0  0  0  0  0  0  0  0  0  0  0
    2.6849   -6.3961    1.1256 C   0  0  0  0  0  0  0  0  0  0  0  0
    2.8113   -7.2042    0.3998 H   0  0  0  0  0  0  0  0  0  0  0  0
    3.4644   -5.6483    0.9605 H   0  0  0  0  0  0  0  0  0  0  0  0
    2.7927   -6.8073    2.1321 H   0  0  0  0  0  0  0  0  0  0  0  0
    0.9408   -4.7372    1.8144 N   0  0  0  0  0  0  0  0  0  0  0  0
   -0.2239   -3.8714    1.5846 C   0  0  2  0  0  0  0  0  0  0  0  0
    0.2025   -2.3988    1.4159 C   0  0  0  0  0  0  0  0  0  0  0  0
    1.2180   -2.0136    1.9775 O   0  0  0  0  0  0  0  0  0  0  0  0
   -1.1691   -4.0239    2.7780 C   0  0  0  0  0  0  0  0  0  0  0  0
    1.6889   -4.3303    2.3747 H   0  0  0  0  0  0  0  0  0  0  0  0
   -0.7547   -4.1700    0.6749 H   0  0  0  0  0  0  0  0  0  0  0  0
   -0.6693   -3.7220    3.7044 H   0  0  0  0  0  0  0  0  0  0  0  0
   -2.0592   -3.4015    2.6442 H   0  0  0  0  0  0  0  0  0  0  0  0
   -1.4865   -5.0668    2.8764 H   0  0  0  0  0  0  0  0  0  0  0  0
   -0.5699   -1.5543    0.6326 N   0  0  0  0  0  0  0  0  0  0  0  0
   -0.2802   -0.1483    0.2683 C   0  0  2  0  0  0  0  0  0  0  0  0
    0.8318   -0.1248   -0.8121 C   0  0  0  0  0  0  0  0  0  0  0  0
    2.0238   -0.0574   -0.5425 O   0  0  0  0  0  0  0  0  0  0  0  0
   -0.0127    0.7809    1.4927 C   0  0  2  0  0  0  0  0  0  0  0  0
   -1.2850    0.8467    2.3730 C   0  0  0  0  0  0  0  0  0  0  0  0
    0.3461    2.2094    1.0280 C   0  0  0  0  0  0  0  0  0  0  0  0
   -1.0416    1.5135    3.7306 C   0  0  0  0  0  0  0  0  0  0  0  0
   -1.3603   -1.9980    0.1746 H   0  0  0  0  0  0  0  0  0  0  0  0
   -1.1746    0.2523   -0.2178 H   0  0  0  0  0  0  0  0  0  0  0  0
    0.8268    0.3988    2.0798 H   0  0  0  0  0  0  0  0  0  0  0  0
   -2.0824    1.3778    1.8430 H   0  0  0  0  0  0  0  0  0  0  0  0
   -1.6413   -0.1688    2.5702 H   0  0  0  0  0  0  0  0  0  0  0  0
   -0.4646    2.6358    0.4292 H   0  0  0  0  0  0  0  0  0  0  0  0
    0.5281    2.8643    1.8836 H   0  0  0  0  0  0  0  0  0  0  0  0
    1.2597    2.2150    0.4276 H   0  0  0  0  0  0  0  0  0  0  0  0
   -0.1963    1.0422    4.2421 H   0  0  0  0  0  0  0  0  0  0  0  0
   -1.9295    1.4072    4.3612 H   0  0  0  0  0  0  0  0  0  0  0  0
   -0.8344    2.5808    3.6169 H   0  0  0  0  0  0  0  0  0  0  0  0
    0.4684   -0.1667   -2.1454 N   0  0  0  0  0  0  0  0  0  0  0  0
    1.4018   -0.0591   -3.2730 C   0  0  2  0  0  0  0  0  0  0  0  0
    0.7110    0.5498   -4.5109 C   0  0  0  0  0  0  0  0  0  0  0  0
   -0.5104    0.6663   -4.5366 O   0  0  0  0  0  0  0  0  0  0  0  0
    1.9438   -1.4571   -3.5893 C   0  0  0  0  0  0  0  0  0  0  0  0
   -0.5232   -0.1055   -2.3709 H   0  0  0  0  0  0  0  0  0  0  0  0
    2.2339    0.5999   -3.0023 H   0  0  0  0  0  0  0  0  0  0  0  0
    1.1276   -2.1285   -3.8745 H   0  0  0  0  0  0  0  0  0  0  0  0
    2.6643   -1.4143   -4.4114 H   0  0  0  0  0  0  0  0  0  0  0  0
    2.4481   -1.8762   -2.7126 H   0  0  0  0  0  0  0  0  0  0  0  0
    1.4562    0.9775   -5.5940 N   0  0  0  0  0  0  0  0  0  0  0  0
    0.8633    1.5507   -6.7964 C   0  0  0  0  0  0  0  0  0  0  0  0
    2.4661    0.8792   -5.5400 H   0  0  0  0  0  0  0  0  0  0  0  0
    0.1798    0.8347   -7.2650 H   0  0  0  0  0  0  0  0  0  0  0  0
    0.3060    2.4615   -6.5529 H   0  0  0  0  0  0  0  0  0  0  0  0
    1.6442    1.8060   -7.5192 H   0  0  0  0  0  0  0  0  0  0  0  0
  1  2  2  0  0  0  0
  1  3  1  0  0  0  0
  1  7  1  0  0  0  0
  3  4  1  0  0  0  0
  3  5  1  0  0  0  0
  3  6  1  0  0  0  0
  7  8  1  0  0  0  0
  7 12  1  0  0  0  0
  8  9  1  0  0  0  0
  8 11  1  0  0  0  0
  8 13  1  0  0  0  0
  9 10  2  0  0  0  0
  9 17  1  0  0  0  0
 11 14  1  0  0  0  0
 11 15  1  0  0  0  0
 11 16  1  0  0  0  0
 17 18  1  0  0  0  0
 17 25  1  0  0  0  0
 18 19  1  0  0  0  0
 18 21  1  0  0  0  0
 18 26  1  0  0  0  0
 19 20  2  0  0  0  0
 19 36  1  0  0  0  0
 21 22  1  0  0  0  0
 21 23  1  0  0  0  0
 21 27  1  0  0  0  0
 22 24  1  0  0  0  0
 22 28  1  0  0  0  0
 22 29  1  0  0  0  0
 23 30  1  0  0  0  0
 23 31  1  0  0  0  0
 23 32  1  0  0  0  0
 24 33  1  0  0  0  0
 24 34  1  0  0  0  0
 24 35  1  0  0  0  0
 36 37  1  0  0  0  0
 36 41  1  0  0  0  0
 37 38  1  0  0  0  0
 37 40  1  0  0  0  0
 37 42  1  0  0  0  0
 38 39  2  0  0  0  0
 38 46  1  0  0  0  0
 40 43  1  0  0  0  0
 40 44  1  0  0  0  0
 40 45  1  0  0  0  0
 46 47  1  0  0  0  0
 46 48  1  0  0  0  0
 47 49  1  0  0  0  0
 47 50  1  0  0  0  0
 47 51  1  0  0  0  0
M  END
$$$$

  -OEChem-05262216503D

 51 50  0     1  0  0  0  0  0999 V2000
    1.3764   -5.7982    1.0157 C   0  0  0  0  0  0  0  0  0  0  0  0
    0.6089   -6.2851    0.1995 O   0  0  0  0  0  0  0  0  0  0  0  0
    2.7630   -6.3859    1.1995 C   0  0  0  0  0  0  0  0  0  0  0  0
    2.8562   -7.3187    0.6362 H   0  0  0  0  0  0  0  0  0  0  0  0
    3.5161   -5.6798    0.8408 H   0  0  0  0  0  0  0  0  0  0  0  0
    2.9439   -6.5945    2.2567 H   0  0  0  0  0  0  0  0  0  0  0  0
    0.9947   -4.7045    1.7635 N   0  0  0  0  0  0  0  0  0  0  0  0
   -0.1978   -3.8941    1.4832 C   0  0  2  0  0  0  0  0  0  0  0  0
    0.1543   -2.3937    1.4266 C   0  0  0  0  0  0  0  0  0  0  0  0
    1.1196   -1.9952    2.0636 O   0  0  0  0  0  0  0  0  0  0  0  0
   -1.2308   -4.1660    2.5787 C   0  0  0  0  0  0  0  0  0  0  0  0
    1.7333   -4.2372    2.2895 H   0  0  0  0  0  0  0  0  0  0  0  0
   -0.6254   -4.1681    0.5132 H   0  0  0  0  0  0  0  0  0  0  0  0
   -0.8320   -3.8854    3.5590 H   0  0  0  0  0  0  0  0  0  0  0  0
   -2.1443   -3.5917    2.3970 H   0  0  0  0  0  0  0  0  0  0  0  0
   -1.4883   -5.2298    2.5983 H   0  0  0  0  0  0  0  0  0  0  0  0
   -0.6284   -1.5457    0.6562 N   0  0  0  0  0  0  0  0  0  0  0  0
   -0.3312   -0.1445    0.2774 C   0  0  2  0  0  0  0  0  0  0  0  0
    0.7533   -0.1175   -0.8291 C   0  0  0  0  0  0  0  0  0  0  0  0
    1.9333   -0.3454   -0.6003 O   0  0  0  0  0  0  0  0  0  0  0  0
   -0.0135    0.7992    1.4768 C   0  0  2  0  0  0  0  0  0  0  0  0
   -1.2554    0.8956    2.3952 C   0  0  0  0  0  0  0  0  0  0  0  0
    0.3654    2.2092    0.9748 C   0  0  0  0  0  0  0  0  0  0  0  0
   -0.9600    1.5799    3.7332 C   0  0  0  0  0  0  0  0  0  0  0  0
   -1.3681   -2.0108    0.1387 H   0  0  0  0  0  0  0  0  0  0  0  0
   -1.2390    0.2568   -0.1816 H   0  0  0  0  0  0  0  0  0  0  0  0
    0.8368    0.4134    2.0453 H   0  0  0  0  0  0  0  0  0  0  0  0
   -2.0604    1.4310    1.8817 H   0  0  0  0  0  0  0  0  0  0  0  0
   -1.6198   -0.1117    2.6177 H   0  0  0  0  0  0  0  0  0  0  0  0
   -0.4444    2.6374    0.3762 H   0  0  0  0  0  0  0  0  0  0  0  0
    0.5710    2.8811    1.8117 H   0  0  0  0  0  0  0  0  0  0  0  0
    1.2723    2.1785    0.3639 H   0  0  0  0  0  0  0  0  0  0  0  0
   -0.1139    1.0958    4.2312 H   0  0  0  0  0  0  0  0  0  0  0  0
   -1.8335    1.5079    4.3881 H   0  0  0  0  0  0  0  0  0  0  0  0
   -0.7287    2.6392    3.5945 H   0  0  0  0  0  0  0  0  0  0  0  0
    0.3844    0.1621   -2.1319 N   0  0  0  0  0  0  0  0  0  0  0  0
    1.3240    0.3163   -3.2493 C   0  0  2  0  0  0  0  0  0  0  0  0
    0.7708    1.2852   -4.3147 C   0  0  0  0  0  0  0  0  0  0  0  0
   -0.4016    1.6441   -4.2677 O   0  0  0  0  0  0  0  0  0  0  0  0
    1.5849   -1.0660   -3.8571 C   0  0  0  0  0  0  0  0  0  0  0  0
   -0.5685    0.4834   -2.2967 H   0  0  0  0  0  0  0  0  0  0  0  0
    2.2674    0.7361   -2.8836 H   0  0  0  0  0  0  0  0  0  0  0  0
    0.6529   -1.5018   -4.2304 H   0  0  0  0  0  0  0  0  0  0  0  0
    2.2943   -0.9948   -4.6868 H   0  0  0  0  0  0  0  0  0  0  0  0
    2.0060   -1.7385   -3.1029 H   0  0  0  0  0  0  0  0  0  0  0  0
    1.5901    1.7690   -5.3178 N   0  0  0  0  0  0  0  0  0  0  0  0
    1.1348    2.6961   -6.3468 C   0  0  0  0  0  0  0  0  0  0  0  0
    2.5606    1.4678   -5.3200 H   0  0  0  0  0  0  0  0  0  0  0  0
    0.3214    2.2516   -6.9300 H   0  0  0  0  0  0  0  0  0  0  0  0
    0.7763    3.6264   -5.8937 H   0  0  0  0  0  0  0  0  0  0  0  0
    1.9563    2.9383   -7.0280 H   0  0  0  0  0  0  0  0  0  0  0  0
  1  2  2  0  0  0  0
  1  3  1  0  0  0  0
  1  7  1  0  0  0  0
  3  4  1  0  0  0  0
  3  5  1  0  0  0  0
  3  6  1  0  0  0  0
  7  8  1  0  0  0  0
  7 12  1  0  0  0  0
  8  9  1  0  0  0  0
  8 11  1  0  0  0  0
  8 13  1  0  0  0  0
  9 10  2  0  0  0  0
  9 17  1  0  0  0  0
 11 14  1  0  0  0  0
 11 15  1  0  0  0  0
 11 16  1  0  0  0  0
 17 18  1  0  0  0  0
 17 25  1  0  0  0  0
 18 19  1  0  0  0  0
 18 21  1  0  0  0  0
 18 26  1  0  0  0  0
 19 20  2  0  0  0  0
 19 36  1  0  0  0  0
 21 22  1  0  0  0  0
 21 23  1  0  0  0  0
 21 27  1  0  0  0  0
 22 24  1  0  0  0  0
 22 28  1  0  0  0  0
 22 29  1  0  0  0  0
 23 30  1  0  0  0  0
 23 31  1  0  0  0  0
 23 32  1  0  0  0  0
 24 33  1  0  0  0  0
 24 34  1  0  0  0  0
 24 35  1  0  0  0  0
 36 37  1  0  0  0  0
 36 41  1  0  0  0  0
 37 38  1  0  0  0  0
 37 40  1  0  0  0  0
 37 42  1  0  0  0  0
 38 39  2  0  0  0  0
 38 46  1  0  0  0  0
 40 43  1  0  0  0  0
 40 44  1  0  0  0  0
 40 45  1  0  0  0  0
 46 47  1  0  0  0  0
 46 48  1  0  0  0  0
 47 49  1  0  0  0  0
 47 50  1  0  0  0  0
 47 51  1  0  0  0  0
M  END
$$$$

  -OEChem-05262216503D

 51 50  0     1  0  0  0  0  0999 V2000
    1.4193   -5.8143    1.0449 C   0  0  0  0  0  0  0  0  0  0  0  0
    0.6527   -6.3565    0.2635 O   0  0  0  0  0  0  0  0  0  0  0  0
    2.8062   -6.3867    1.2690 C   0  0  0  0  0  0  0  0  0  0  0  0
    2.9289   -7.3125    0.7000 H   0  0  0  0  0  0  0  0  0  0  0  0
    3.5614   -5.6682    0.9406 H   0  0  0  0  0  0  0  0  0  0  0  0
    2.9557   -6.6032    2.3295 H   0  0  0  0  0  0  0  0  0  0  0  0
    1.0368   -4.6688    1.7095 N   0  0  0  0  0  0  0  0  0  0  0  0
   -0.1576   -3.8855    1.3707 C   0  0  2  0  0  0  0  0  0  0  0  0
    0.1426   -2.3726    1.4005 C   0  0  0  0  0  0  0  0  0  0  0  0
    1.0693   -1.9713    2.0922 O   0  0  0  0  0  0  0  0  0  0  0  0
   -1.2664   -4.2370    2.3652 C   0  0  0  0  0  0  0  0  0  0  0  0
    1.7658   -4.1701    2.2202 H   0  0  0  0  0  0  0  0  0  0  0  0
   -0.4915   -4.1320    0.3572 H   0  0  0  0  0  0  0  0  0  0  0  0
   -0.9566   -3.9900    3.3857 H   0  0  0  0  0  0  0  0  0  0  0  0
   -2.1804   -3.6820    2.1335 H   0  0  0  0  0  0  0  0  0  0  0  0
   -1.4904   -5.3072    2.3178 H   0  0  0  0  0  0  0  0  0  0  0  0
   -0.6522   -1.5161    0.6514 N   0  0  0  0  0  0  0  0  0  0  0  0
   -0.3597   -0.1086    0.2907 C   0  0  2  0  0  0  0  0  0  0  0  0
    0.7116   -0.0531   -0.8279 C   0  0  0  0  0  0  0  0  0  0  0  0
    1.8049   -0.5911   -0.7167 O   0  0  0  0  0  0  0  0  0  0  0  0
   -0.0216    0.8218    1.4947 C   0  0  2  0  0  0  0  0  0  0  0  0
   -1.2480    0.9073    2.4346 C   0  0  0  0  0  0  0  0  0  0  0  0
    0.3513    2.2378    1.0053 C   0  0  0  0  0  0  0  0  0  0  0  0
   -0.9310    1.5769    3.7754 C   0  0  0  0  0  0  0  0  0  0  0  0
   -1.3473   -1.9904    0.0833 H   0  0  0  0  0  0  0  0  0  0  0  0
   -1.2764    0.2932   -0.1499 H   0  0  0  0  0  0  0  0  0  0  0  0
    0.8386    0.4308    2.0437 H   0  0  0  0  0  0  0  0  0  0  0  0
   -2.0625    1.4470    1.9411 H   0  0  0  0  0  0  0  0  0  0  0  0
   -1.6071   -0.1034    2.6519 H   0  0  0  0  0  0  0  0  0  0  0  0
   -0.4678    2.6765    0.4270 H   0  0  0  0  0  0  0  0  0  0  0  0
    0.5719    2.8974    1.8482 H   0  0  0  0  0  0  0  0  0  0  0  0
    1.2479    2.2136    0.3788 H   0  0  0  0  0  0  0  0  0  0  0  0
   -0.0706    1.0938    4.2493 H   0  0  0  0  0  0  0  0  0  0  0  0
   -1.7900    1.4880    4.4474 H   0  0  0  0  0  0  0  0  0  0  0  0
   -0.7123    2.6402    3.6462 H   0  0  0  0  0  0  0  0  0  0  0  0
    0.4020    0.5453   -2.0351 N   0  0  0  0  0  0  0  0  0  0  0  0
    1.3484    0.7209   -3.1435 C   0  0  2  0  0  0  0  0  0  0  0  0
    0.9837    1.9525   -3.9980 C   0  0  0  0  0  0  0  0  0  0  0  0
   -0.0819    2.5329   -3.8147 O   0  0  0  0  0  0  0  0  0  0  0  0
    1.3420   -0.5521   -3.9969 C   0  0  0  0  0  0  0  0  0  0  0  0
   -0.4552    1.0951   -2.0842 H   0  0  0  0  0  0  0  0  0  0  0  0
    2.3556    0.8854   -2.7454 H   0  0  0  0  0  0  0  0  0  0  0  0
    0.3415   -0.7367   -4.4010 H   0  0  0  0  0  0  0  0  0  0  0  0
    2.0446   -0.4613   -4.8304 H   0  0  0  0  0  0  0  0  0  0  0  0
    1.6382   -1.4156   -3.3926 H   0  0  0  0  0  0  0  0  0  0  0  0
    1.8551    2.4208   -4.9638 N   0  0  0  0  0  0  0  0  0  0  0  0
    1.5729    3.5779   -5.8044 C   0  0  0  0  0  0  0  0  0  0  0  0
    2.7342    1.9261   -5.0856 H   0  0  0  0  0  0  0  0  0  0  0  0
    0.6676    3.4091   -6.3973 H   0  0  0  0  0  0  0  0  0  0  0  0
    1.4297    4.4730   -5.1898 H   0  0  0  0  0  0  0  0  0  0  0  0
    2.4063    3.7593   -6.4902 H   0  0  0  0  0  0  0  0  0  0  0  0
  1  2  2  0  0  0  0
  1  3  1  0  0  0  0
  1  7  1  0  0  0  0
  3  4  1  0  0  0  0
  3  5  1  0  0  0  0
  3  6  1  0  0  0  0
  7  8  1  0  0  0  0
  7 12  1  0  0  0  0
  8  9  1  0  0  0  0
  8 11  1  0  0  0  0
  8 13  1  0  0  0  0
  9 10  2  0  0  0  0
  9 17  1  0  0  0  0
 11 14  1  0  0  0  0
 11 15  1  0  0  0  0
 11 16  1  0  0  0  0
 17 18  1  0  0  0  0
 17 25  1  0  0  0  0
 18 19  1  0  0  0  0
 18 21  1  0  0  0  0
 18 26  1  0  0  0  0
 19 20  2  0  0  0  0
 19 36  1  0  0  0  0
 21 22  1  0  0  0  0
 21 23  1  0  0  0  0
 21 27  1  0  0  0  0
 22 24  1  0  0  0  0
 22 28  1  0  0  0  0
 22 29  1  0  0  0  0
 23 30  1  0  0  0  0
 23 31  1  0  0  0  0
 23 32  1  0  0  0  0
 24 33  1  0  0  0  0
 24 34  1  0  0  0  0
 24 35  1  0  0  0  0
 36 37  1  0  0  0  0
 36 41  1  0  0  0  0
 37 38  1  0  0  0  0
 37 40  1  0  0  0  0
 37 42  1  0  0  0  0
 38 39  2  0  0  0  0
 38 46  1  0  0  0  0
 40 43  1  0  0  0  0
 40 44  1  0  0  0  0
 40 45  1  0  0  0  0
 46 47  1  0  0  0  0
 46 48  1  0  0  0  0
 47 49  1  0  0  0  0
 47 50  1  0  0  0  0
 47 51  1  0  0  0  0
M  END
$$$$

  -OEChem-05262216503D

 51 50  0     1  0  0  0  0  0999 V2000
    1.4437   -5.8900    1.2047 C   0  0  0  0  0  0  0  0  0  0  0  0
    0.6283   -6.5092    0.5384 O   0  0  0  0  0  0  0  0  0  0  0  0
    2.8117   -6.4845    1.4808 C   0  0  0  0  0  0  0  0  0  0  0  0
    2.8949   -7.4719    1.0182 H   0  0  0  0  0  0  0  0  0  0  0  0
    3.5888   -5.8357    1.0695 H   0  0  0  0  0  0  0  0  0  0  0  0
    2.9636   -6.5856    2.5581 H   0  0  0  0  0  0  0  0  0  0  0  0
    1.1283   -4.6434    1.7004 N   0  0  0  0  0  0  0  0  0  0  0  0
   -0.0738   -3.8874    1.3301 C   0  0  2  0  0  0  0  0  0  0  0  0
    0.1947   -2.3679    1.3371 C   0  0  0  0  0  0  0  0  0  0  0  0
    1.1406   -1.9397    1.9869 O   0  0  0  0  0  0  0  0  0  0  0  0
   -1.1949   -4.2418    2.3109 C   0  0  0  0  0  0  0  0  0  0  0  0
    1.8814   -4.1080    2.1331 H   0  0  0  0  0  0  0  0  0  0  0  0
   -0.3799   -4.1611    0.3148 H   0  0  0  0  0  0  0  0  0  0  0  0
   -0.9084   -3.9708    3.3321 H   0  0  0  0  0  0  0  0  0  0  0  0
   -2.1145   -3.7083    2.0533 H   0  0  0  0  0  0  0  0  0  0  0  0
   -1.3991   -5.3168    2.2794 H   0  0  0  0  0  0  0  0  0  0  0  0
   -0.6455   -1.5333    0.6127 N   0  0  0  0  0  0  0  0  0  0  0  0
   -0.3841   -0.1252    0.2293 C   0  0  2  0  0  0  0  0  0  0  0  0
    0.6414   -0.0515   -0.9331 C   0  0  0  0  0  0  0  0  0  0  0  0
    1.5834   -0.8281   -1.0268 O   0  0  0  0  0  0  0  0  0  0  0  0
   -0.0258    0.8192    1.4196 C   0  0  2  0  0  0  0  0  0  0  0  0
   -1.2292    0.8920    2.3902 C   0  0  0  0  0  0  0  0  0  0  0  0
    0.3196    2.2386    0.9207 C   0  0  0  0  0  0  0  0  0  0  0  0
   -0.8921    1.5732    3.7202 C   0  0  0  0  0  0  0  0  0  0  0  0
   -1.3316   -2.0294    0.0524 H   0  0  0  0  0  0  0  0  0  0  0  0
   -1.3228    0.2557   -0.1834 H   0  0  0  0  0  0  0  0  0  0  0  0
    0.8518    0.4436    1.9508 H   0  0  0  0  0  0  0  0  0  0  0  0
   -2.0637    1.4165    1.9137 H   0  0  0  0  0  0  0  0  0  0  0  0
   -1.5674   -0.1226    2.6215 H   0  0  0  0  0  0  0  0  0  0  0  0
   -0.5090    2.6593    0.3424 H   0  0  0  0  0  0  0  0  0  0  0  0
    0.5316    2.9081    1.7579 H   0  0  0  0  0  0  0  0  0  0  0  0
    1.2153    2.2256    0.2929 H   0  0  0  0  0  0  0  0  0  0  0  0
   -0.0148    1.1048    4.1772 H   0  0  0  0  0  0  0  0  0  0  0  0
   -1.7350    1.4743    4.4107 H   0  0  0  0  0  0  0  0  0  0  0  0
   -0.6920    2.6389    3.5822 H   0  0  0  0  0  0  0  0  0  0  0  0
    0.3988    0.7977   -1.9972 N   0  0  0  0  0  0  0  0  0  0  0  0
    1.3480    1.0409   -3.0911 C   0  0  2  0  0  0  0  0  0  0  0  0
    1.2998    2.5142   -3.5466 C   0  0  0  0  0  0  0  0  0  0  0  0
    0.4050    3.2504   -3.1428 O   0  0  0  0  0  0  0  0  0  0  0  0
    1.0035    0.0983   -4.2478 C   0  0  0  0  0  0  0  0  0  0  0  0
   -0.3095    1.5180   -1.8580 H   0  0  0  0  0  0  0  0  0  0  0  0
    2.3699    0.8379   -2.7522 H   0  0  0  0  0  0  0  0  0  0  0  0
   -0.0097    0.2941   -4.6132 H   0  0  0  0  0  0  0  0  0  0  0  0
    1.7056    0.2325   -5.0761 H   0  0  0  0  0  0  0  0  0  0  0  0
    1.0590   -0.9432   -3.9148 H   0  0  0  0  0  0  0  0  0  0  0  0
    2.2677    3.0230   -4.3923 N   0  0  0  0  0  0  0  0  0  0  0  0
    2.2905    4.4112   -4.8375 C   0  0  0  0  0  0  0  0  0  0  0  0
    3.0106    2.3971   -4.6902 H   0  0  0  0  0  0  0  0  0  0  0  0
    1.3747    4.6517   -5.3880 H   0  0  0  0  0  0  0  0  0  0  0  0
    2.3743    5.0879   -3.9804 H   0  0  0  0  0  0  0  0  0  0  0  0
    3.1459    4.5837   -5.4979 H   0  0  0  0  0  0  0  0  0  0  0  0
  1  2  2  0  0  0  0
  1  3  1  0  0  0  0
  1  7  1  0  0  0  0
  3  4  1  0  0  0  0
  3  5  1  0  0  0  0
  3  6  1  0  0  0  0
  7  8  1  0  0  0  0
  7 12  1  0  0  0  0
  8  9  1  0  0  0  0
  8 11  1  0  0  0  0
  8 13  1  0  0  0  0
  9 10  2  0  0  0  0
  9 17  1  0  0  0  0
 11 14  1  0  0  0  0
 11 15  1  0  0  0  0
 11 16  1  0  0  0  0
 17 18  1  0  0  0  0
 17 25  1  0  0  0  0
 18 19  1  0  0  0  0
 18 21  1  0  0  0  0
 18 26  1  0  0  0  0
 19 20  2  0  0  0  0
 19 36  1  0  0  0  0
 21 22  1  0  0  0  0
 21 23  1  0  0  0  0
 21 27  1  0  0  0  0
 22 24  1  0  0  0  0
 22 28  1  0  0  0  0
 22 29  1  0  0  0  0
 23 30  1  0  0  0  0
 23 31  1  0  0  0  0
 23 32  1  0  0  0  0
 24 33  1  0  0  0  0
 24 34  1  0  0  0  0
 24 35  1  0  0  0  0
 36 37  1  0  0  0  0
 36 41  1  0  0  0  0
 37 38  1  0  0  0  0
 37 40  1  0  0  0  0
 37 42  1  0  0  0  0
 38 39  2  0  0  0  0
 38 46  1  0  0  0  0
 40 43  1  0  0  0  0
 40 44  1  0  0  0  0
 40 45  1  0  0  0  0
 46 47  1  0  0  0  0
 46 48  1  0  0  0  0
 47 49  1  0  0  0  0
 47 50  1  0  0  0  0
 47 51  1  0  0  0  0
M  END
$$$$

  -OEChem-05262216503D

 51 50  0     1  0  0  0  0  0999 V2000
    1.4363   -5.8913    1.1864 C   0  0  0  0  0  0  0  0  0  0  0  0
    0.6074   -6.5088    0.5355 O   0  0  0  0  0  0  0  0  0  0  0  0
    2.7900   -6.5114    1.4780 C   0  0  0  0  0  0  0  0  0  0  0  0
    2.8455   -7.5155    1.0482 H   0  0  0  0  0  0  0  0  0  0  0  0
    3.5826   -5.8976    1.0427 H   0  0  0  0  0  0  0  0  0  0  0  0
    2.9438   -6.5817    2.5576 H   0  0  0  0  0  0  0  0  0  0  0  0
    1.1466   -4.6276    1.6548 N   0  0  0  0  0  0  0  0  0  0  0  0
   -0.0438   -3.8576    1.2736 C   0  0  2  0  0  0  0  0  0  0  0  0
    0.2396   -2.3396    1.2739 C   0  0  0  0  0  0  0  0  0  0  0  0
    1.2201   -1.9203    1.8776 O   0  0  0  0  0  0  0  0  0  0  0  0
   -1.1765   -4.1954    2.2483 C   0  0  0  0  0  0  0  0  0  0  0  0
    1.9103   -4.0979    2.0751 H   0  0  0  0  0  0  0  0  0  0  0  0
   -0.3454   -4.1327    0.2572 H   0  0  0  0  0  0  0  0  0  0  0  0
   -0.8931   -3.9264    3.2708 H   0  0  0  0  0  0  0  0  0  0  0  0
   -2.0875   -3.6509    1.9834 H   0  0  0  0  0  0  0  0  0  0  0  0
   -1.3953   -5.2676    2.2180 H   0  0  0  0  0  0  0  0  0  0  0  0
   -0.6157   -1.4945    0.5798 N   0  0  0  0  0  0  0  0  0  0  0  0
   -0.3722   -0.0732    0.2318 C   0  0  2  0  0  0  0  0  0  0  0  0
    0.6444    0.0432   -0.9388 C   0  0  0  0  0  0  0  0  0  0  0  0
    1.3951   -0.8764   -1.2431 O   0  0  0  0  0  0  0  0  0  0  0  0
   -0.0442    0.8300    1.4669 C   0  0  2  0  0  0  0  0  0  0  0  0
   -1.2667    0.8454    2.4180 C   0  0  0  0  0  0  0  0  0  0  0  0
    0.3021    2.2759    1.0527 C   0  0  0  0  0  0  0  0  0  0  0  0
   -0.9674    1.4758    3.7818 C   0  0  0  0  0  0  0  0  0  0  0  0
   -1.3097   -1.9805    0.0207 H   0  0  0  0  0  0  0  0  0  0  0  0
   -1.3138    0.3078   -0.1741 H   0  0  0  0  0  0  0  0  0  0  0  0
    0.8250    0.4386    1.9996 H   0  0  0  0  0  0  0  0  0  0  0  0
   -2.0989    1.3785    1.9470 H   0  0  0  0  0  0  0  0  0  0  0  0
   -1.5958   -0.1817    2.6019 H   0  0  0  0  0  0  0  0  0  0  0  0
   -0.5099    2.7183    0.4670 H   0  0  0  0  0  0  0  0  0  0  0  0
    0.4774    2.9052    1.9288 H   0  0  0  0  0  0  0  0  0  0  0  0
    1.2218    2.3024    0.4610 H   0  0  0  0  0  0  0  0  0  0  0  0
   -0.0852    1.0102    4.2323 H   0  0  0  0  0  0  0  0  0  0  0  0
   -1.8177    1.3258    4.4537 H   0  0  0  0  0  0  0  0  0  0  0  0
   -0.7936    2.5516    3.6945 H   0  0  0  0  0  0  0  0  0  0  0  0
    0.5657    1.1123   -1.8128 N   0  0  0  0  0  0  0  0  0  0  0  0
    1.5302    1.3750   -2.8884 C   0  0  2  0  0  0  0  0  0  0  0  0
    1.7316    2.8917   -3.0897 C   0  0  0  0  0  0  0  0  0  0  0  0
    0.9926    3.6887   -2.5196 O   0  0  0  0  0  0  0  0  0  0  0  0
    1.0182    0.7173   -4.1736 C   0  0  0  0  0  0  0  0  0  0  0  0
    0.0204    1.9166   -1.5032 H   0  0  0  0  0  0  0  0  0  0  0  0
    2.5047    0.9481   -2.6272 H   0  0  0  0  0  0  0  0  0  0  0  0
    0.0473    1.1356   -4.4576 H   0  0  0  0  0  0  0  0  0  0  0  0
    1.7220    0.8785   -4.9954 H   0  0  0  0  0  0  0  0  0  0  0  0
    0.9034   -0.3615   -4.0268 H   0  0  0  0  0  0  0  0  0  0  0  0
    2.7506    3.3671   -3.8944 N   0  0  0  0  0  0  0  0  0  0  0  0
    3.0016    4.7865   -4.1132 C   0  0  0  0  0  0  0  0  0  0  0  0
    3.3619    2.6848   -4.3343 H   0  0  0  0  0  0  0  0  0  0  0  0
    2.1294    5.2637   -4.5720 H   0  0  0  0  0  0  0  0  0  0  0  0
    3.2194    5.2880   -3.1643 H   0  0  0  0  0  0  0  0  0  0  0  0
    3.8588    4.9212   -4.7798 H   0  0  0  0  0  0  0  0  0  0  0  0
  1  2  2  0  0  0  0
  1  3  1  0  0  0  0
  1  7  1  0  0  0  0
  3  4  1  0  0  0  0
  3  5  1  0  0  0  0
  3  6  1  0  0  0  0
  7  8  1  0  0  0  0
  7 12  1  0  0  0  0
  8  9  1  0  0  0  0
  8 11  1  0  0  0  0
  8 13  1  0  0  0  0
  9 10  2  0  0  0  0
  9 17  1  0  0  0  0
 11 14  1  0  0  0  0
 11 15  1  0  0  0  0
 11 16  1  0  0  0  0
 17 18  1  0  0  0  0
 17 25  1  0  0  0  0
 18 19  1  0  0  0  0
 18 21  1  0  0  0  0
 18 26  1  0  0  0  0
 19 20  2  0  0  0  0
 19 36  1  0  0  0  0
 21 22  1  0  0  0  0
 21 23  1  0  0  0  0
 21 27  1  0  0  0  0
 22 24  1  0  0  0  0
 22 28  1  0  0  0  0
 22 29  1  0  0  0  0
 23 30  1  0  0  0  0
 23 31  1  0  0  0  0
 23 32  1  0  0  0  0
 24 33  1  0  0  0  0
 24 34  1  0  0  0  0
 24 35  1  0  0  0  0
 36 37  1  0  0  0  0
 36 41  1  0  0  0  0
 37 38  1  0  0  0  0
 37 40  1  0  0  0  0
 37 42  1  0  0  0  0
 38 39  2  0  0  0  0
 38 46  1  0  0  0  0
 40 43  1  0  0  0  0
 40 44  1  0  0  0  0
 40 45  1  0  0  0  0
 46 47  1  0  0  0  0
 46 48  1  0  0  0  0
 47 49  1  0  0  0  0
 47 50  1  0  0  0  0
 47 51  1  0  0  0  0
M  END
$$$$

  -OEChem-05262216503D

 51 50  0     1  0  0  0  0  0999 V2000
    1.4185   -5.8968    1.2180 C   0  0  0  0  0  0  0  0  0  0  0  0
    0.5731   -6.5193    0.5938 O   0  0  0  0  0  0  0  0  0  0  0  0
    2.7520   -6.5422    1.5449 C   0  0  0  0  0  0  0  0  0  0  0  0
    2.7855   -7.5603    1.1470 H   0  0  0  0  0  0  0  0  0  0  0  0
    3.5650   -5.9630    1.1002 H   0  0  0  0  0  0  0  0  0  0  0  0
    2.8923   -6.5822    2.6278 H   0  0  0  0  0  0  0  0  0  0  0  0
    1.1664   -4.6039    1.6235 N   0  0  0  0  0  0  0  0  0  0  0  0
   -0.0021   -3.8191    1.2062 C   0  0  2  0  0  0  0  0  0  0  0  0
    0.3102   -2.3074    1.1754 C   0  0  0  0  0  0  0  0  0  0  0  0
    1.3311   -1.8987    1.7173 O   0  0  0  0  0  0  0  0  0  0  0  0
   -1.1552   -4.1077    2.1730 C   0  0  0  0  0  0  0  0  0  0  0  0
    1.9441   -4.0779    2.0221 H   0  0  0  0  0  0  0  0  0  0  0  0
   -0.2950   -4.1125    0.1923 H   0  0  0  0  0  0  0  0  0  0  0  0
   -0.8807   -3.8147    3.1912 H   0  0  0  0  0  0  0  0  0  0  0  0
   -2.0519   -3.5539    1.8797 H   0  0  0  0  0  0  0  0  0  0  0  0
   -1.3951   -5.1756    2.1701 H   0  0  0  0  0  0  0  0  0  0  0  0
   -0.5660   -1.4514    0.5232 N   0  0  0  0  0  0  0  0  0  0  0  0
   -0.3518   -0.0134    0.2304 C   0  0  2  0  0  0  0  0  0  0  0  0
    0.6558    0.1564   -0.9458 C   0  0  0  0  0  0  0  0  0  0  0  0
    1.2033   -0.8115   -1.4633 O   0  0  0  0  0  0  0  0  0  0  0  0
   -0.0593    0.8228    1.5260 C   0  0  2  0  0  0  0  0  0  0  0  0
   -1.2995    0.7540    2.4547 C   0  0  0  0  0  0  0  0  0  0  0  0
    0.2716    2.2985    1.2255 C   0  0  0  0  0  0  0  0  0  0  0  0
   -1.0435    1.3049    3.8619 C   0  0  0  0  0  0  0  0  0  0  0  0
   -1.2730   -1.9241   -0.0311 H   0  0  0  0  0  0  0  0  0  0  0  0
   -1.2970    0.3706   -0.1641 H   0  0  0  0  0  0  0  0  0  0  0  0
    0.8041    0.4118    2.0532 H   0  0  0  0  0  0  0  0  0  0  0  0
   -2.1365    1.2944    2.0009 H   0  0  0  0  0  0  0  0  0  0  0  0
   -1.6075   -0.2891    2.5714 H   0  0  0  0  0  0  0  0  0  0  0  0
   -0.5052    2.7532    0.6027 H   0  0  0  0  0  0  0  0  0  0  0  0
    0.3584    2.8820    2.1449 H   0  0  0  0  0  0  0  0  0  0  0  0
    1.2364    2.3808    0.7171 H   0  0  0  0  0  0  0  0  0  0  0  0
   -0.1465    0.8497    4.2932 H   0  0  0  0  0  0  0  0  0  0  0  0
   -1.8940    1.0734    4.5104 H   0  0  0  0  0  0  0  0  0  0  0  0
   -0.9182    2.3908    3.8499 H   0  0  0  0  0  0  0  0  0  0  0  0
    0.7817    1.3675   -1.6015 N   0  0  0  0  0  0  0  0  0  0  0  0
    1.7509    1.6426   -2.6697 C   0  0  2  0  0  0  0  0  0  0  0  0
    2.2291    3.1090   -2.6182 C   0  0  0  0  0  0  0  0  0  0  0  0
    1.6643    3.9126   -1.8825 O   0  0  0  0  0  0  0  0  0  0  0  0
    1.0921    1.3343   -4.0179 C   0  0  0  0  0  0  0  0  0  0  0  0
    0.3998    2.1860   -1.1285 H   0  0  0  0  0  0  0  0  0  0  0  0
    2.6333    1.0060   -2.5435 H   0  0  0  0  0  0  0  0  0  0  0  0
    0.2072    1.9619   -4.1640 H   0  0  0  0  0  0  0  0  0  0  0  0
    1.7910    1.5191   -4.8390 H   0  0  0  0  0  0  0  0  0  0  0  0
    0.7854    0.2842   -4.0578 H   0  0  0  0  0  0  0  0  0  0  0  0
    3.2992    3.5288   -3.3868 N   0  0  0  0  0  0  0  0  0  0  0  0
    3.8120    4.8936   -3.3691 C   0  0  0  0  0  0  0  0  0  0  0  0
    3.7618    2.8359   -3.9685 H   0  0  0  0  0  0  0  0  0  0  0  0
    3.0252    5.6035   -3.6453 H   0  0  0  0  0  0  0  0  0  0  0  0
    4.1837    5.1498   -2.3714 H   0  0  0  0  0  0  0  0  0  0  0  0
    4.6350    4.9979   -4.0828 H   0  0  0  0  0  0  0  0  0  0  0  0
  1  2  2  0  0  0  0
  1  3  1  0  0  0  0
  1  7  1  0  0  0  0
  3  4  1  0  0  0  0
  3  5  1  0  0  0  0
  3  6  1  0  0  0  0
  7  8  1  0  0  0  0
  7 12  1  0  0  0  0
  8  9  1  0  0  0  0
  8 11  1  0  0  0  0
  8 13  1  0  0  0  0
  9 10  2  0  0  0  0
  9 17  1  0  0  0  0
 11 14  1  0  0  0  0
 11 15  1  0  0  0  0
 11 16  1  0  0  0  0
 17 18  1  0  0  0  0
 17 25  1  0  0  0  0
 18 19  1  0  0  0  0
 18 21  1  0  0  0  0
 18 26  1  0  0  0  0
 19 20  2  0  0  0  0
 19 36  1  0  0  0  0
 21 22  1  0  0  0  0
 21 23  1  0  0  0  0
 21 27  1  0  0  0  0
 22 24  1  0  0  0  0
 22 28  1  0  0  0  0
 22 29  1  0  0  0  0
 23 30  1  0  0  0  0
 23 31  1  0  0  0  0
 23 32  1  0  0  0  0
 24 33  1  0  0  0  0
 24 34  1  0  0  0  0
 24 35  1  0  0  0  0
 36 37  1  0  0  0  0
 36 41  1  0  0  0  0
 37 38  1  0  0  0  0
 37 40  1  0  0  0  0
 37 42  1  0  0  0  0
 38 39  2  0  0  0  0
 38 46  1  0  0  0  0
 40 43  1  0  0  0  0
 40 44  1  0  0  0  0
 40 45  1  0  0  0  0
 46 47  1  0  0  0  0
 46 48  1  0  0  0  0
 47 49  1  0  0  0  0
 47 50  1  0  0  0  0
 47 51  1  0  0  0  0
M  END
$$$$

  -OEChem-05262216503D

 51 50  0     1  0  0  0  0  0999 V2000
    1.4837   -5.9052    0.9770 C   0  0  0  0  0  0  0  0  0  0  0  0
    0.6800   -6.4734    0.2543 O   0  0  0  0  0  0  0  0  0  0  0  0
    2.7680   -6.6050    1.3818 C   0  0  0  0  0  0  0  0  0  0  0  0
    2.8223   -7.5935    0.9167 H   0  0  0  0  0  0  0  0  0  0  0  0
    3.6313   -6.0173    1.0606 H   0  0  0  0  0  0  0  0  0  0  0  0
    2.8009   -6.7251    2.4673 H   0  0  0  0  0  0  0  0  0  0  0  0
    1.2259   -4.6293    1.4314 N   0  0  0  0  0  0  0  0  0  0  0  0
    0.0916   -3.8037    0.9961 C   0  0  2  0  0  0  0  0  0  0  0  0
    0.3996   -2.2943    1.1167 C   0  0  0  0  0  0  0  0  0  0  0  0
    1.4224   -1.9455    1.6935 O   0  0  0  0  0  0  0  0  0  0  0  0
   -1.1311   -4.1690    1.8457 C   0  0  0  0  0  0  0  0  0  0  0  0
    1.9763   -4.1452    1.9237 H   0  0  0  0  0  0  0  0  0  0  0  0
   -0.1238   -4.0089   -0.0582 H   0  0  0  0  0  0  0  0  0  0  0  0
   -0.9358   -3.9634    2.9031 H   0  0  0  0  0  0  0  0  0  0  0  0
   -2.0054   -3.5905    1.5330 H   0  0  0  0  0  0  0  0  0  0  0  0
   -1.3670   -5.2321    1.7353 H   0  0  0  0  0  0  0  0  0  0  0  0
   -0.4785   -1.3862    0.5420 N   0  0  0  0  0  0  0  0  0  0  0  0
   -0.3331    0.0842    0.3740 C   0  0  2  0  0  0  0  0  0  0  0  0
    0.3600    0.3495   -0.9992 C   0  0  0  0  0  0  0  0  0  0  0  0
    0.5428   -0.5739   -1.7875 O   0  0  0  0  0  0  0  0  0  0  0  0
    0.2550    0.8132    1.6380 C   0  0  2  0  0  0  0  0  0  0  0  0
   -0.7385    0.6202    2.8150 C   0  0  0  0  0  0  0  0  0  0  0  0
    0.4738    2.3257    1.4223 C   0  0  0  0  0  0  0  0  0  0  0  0
   -0.1768    1.0452    4.1771 C   0  0  0  0  0  0  0  0  0  0  0  0
   -1.1541   -1.8238   -0.0785 H   0  0  0  0  0  0  0  0  0  0  0  0
   -1.3421    0.4889    0.2510 H   0  0  0  0  0  0  0  0  0  0  0  0
    1.2290    0.3990    1.9035 H   0  0  0  0  0  0  0  0  0  0  0  0
   -1.6633    1.1717    2.6169 H   0  0  0  0  0  0  0  0  0  0  0  0
   -1.0010   -0.4384    2.8968 H   0  0  0  0  0  0  0  0  0  0  0  0
   -0.4046    2.7854    0.9583 H   0  0  0  0  0  0  0  0  0  0  0  0
    0.6702    2.8435    2.3630 H   0  0  0  0  0  0  0  0  0  0  0  0
    1.3518    2.5001    0.7950 H   0  0  0  0  0  0  0  0  0  0  0  0
    0.8055    0.5916    4.3426 H   0  0  0  0  0  0  0  0  0  0  0  0
   -0.8489    0.7122    4.9737 H   0  0  0  0  0  0  0  0  0  0  0  0
   -0.0825    2.1312    4.2537 H   0  0  0  0  0  0  0  0  0  0  0  0
    0.6424    1.6200   -1.4645 N   0  0  0  0  0  0  0  0  0  0  0  0
    1.3750    1.9220   -2.7009 C   0  0  2  0  0  0  0  0  0  0  0  0
    2.1467    3.2523   -2.5747 C   0  0  0  0  0  0  0  0  0  0  0  0
    1.9189    4.0069   -1.6343 O   0  0  0  0  0  0  0  0  0  0  0  0
    0.3778    1.9889   -3.8625 C   0  0  0  0  0  0  0  0  0  0  0  0
    0.5562    2.3870   -0.7989 H   0  0  0  0  0  0  0  0  0  0  0  0
    2.1084    1.1322   -2.8963 H   0  0  0  0  0  0  0  0  0  0  0  0
   -0.3531    2.7862   -3.6936 H   0  0  0  0  0  0  0  0  0  0  0  0
    0.8975    2.1858   -4.8051 H   0  0  0  0  0  0  0  0  0  0  0  0
   -0.1586    1.0396   -3.9587 H   0  0  0  0  0  0  0  0  0  0  0  0
    3.0997    3.6058   -3.5119 N   0  0  0  0  0  0  0  0  0  0  0  0
    3.8614    4.8475   -3.4490 C   0  0  0  0  0  0  0  0  0  0  0  0
    3.2787    2.9554   -4.2716 H   0  0  0  0  0  0  0  0  0  0  0  0
    3.1887    5.7114   -3.4779 H   0  0  0  0  0  0  0  0  0  0  0  0
    4.4499    4.8901   -2.5263 H   0  0  0  0  0  0  0  0  0  0  0  0
    4.5466    4.9149   -4.2996 H   0  0  0  0  0  0  0  0  0  0  0  0
  1  2  2  0  0  0  0
  1  3  1  0  0  0  0
  1  7  1  0  0  0  0
  3  4  1  0  0  0  0
  3  5  1  0  0  0  0
  3  6  1  0  0  0  0
  7  8  1  0  0  0  0
  7 12  1  0  0  0  0
  8  9  1  0  0  0  0
  8 11  1  0  0  0  0
  8 13  1  0  0  0  0
  9 10  2  0  0  0  0
  9 17  1  0  0  0  0
 11 14  1  0  0  0  0
 11 15  1  0  0  0  0
 11 16  1  0  0  0  0
 17 18  1  0  0  0  0
 17 25  1  0  0  0  0
 18 19  1  0  0  0  0
 18 21  1  0  0  0  0
 18 26  1  0  0  0  0
 19 20  2  0  0  0  0
 19 36  1  0  0  0  0
 21 22  1  0  0  0  0
 21 23  1  0  0  0  0
 21 27  1  0  0  0  0
 22 24  1  0  0  0  0
 22 28  1  0  0  0  0
 22 29  1  0  0  0  0
 23 30  1  0  0  0  0
 23 31  1  0  0  0  0
 23 32  1  0  0  0  0
 24 33  1  0  0  0  0
 24 34  1  0  0  0  0
 24 35  1  0  0  0  0
 36 37  1  0  0  0  0
 36 41  1  0  0  0  0
 37 38  1  0  0  0  0
 37 40  1  0  0  0  0
 37 42  1  0  0  0  0
 38 39  2  0  0  0  0
 38 46  1  0  0  0  0
 40 43  1  0  0  0  0
 40 44  1  0  0  0  0
 40 45  1  0  0  0  0
 46 47  1  0  0  0  0
 46 48  1  0  0  0  0
 47 49  1  0  0  0  0
 47 50  1  0  0  0  0
 47 51  1  0  0  0  0
M  END
$$$$

  -OEChem-05262216503D

 51 50  0     1  0  0  0  0  0999 V2000
    1.5014   -5.8634    0.9360 C   0  0  0  0  0  0  0  0  0  0  0  0
    0.7027   -6.4301    0.2066 O   0  0  0  0  0  0  0  0  0  0  0  0
    2.7997   -6.5464    1.3225 C   0  0  0  0  0  0  0  0  0  0  0  0
    2.8563   -7.5371    0.8631 H   0  0  0  0  0  0  0  0  0  0  0  0
    3.6500   -5.9507    0.9817 H   0  0  0  0  0  0  0  0  0  0  0  0
    2.8533   -6.6572    2.4082 H   0  0  0  0  0  0  0  0  0  0  0  0
    1.2299   -4.5986    1.4114 N   0  0  0  0  0  0  0  0  0  0  0  0
    0.0988   -3.7702    0.9743 C   0  0  2  0  0  0  0  0  0  0  0  0
    0.4226   -2.2639    1.0883 C   0  0  0  0  0  0  0  0  0  0  0  0
    1.4607   -1.9217    1.6419 O   0  0  0  0  0  0  0  0  0  0  0  0
   -1.1235   -4.1231    1.8295 C   0  0  0  0  0  0  0  0  0  0  0  0
    1.9809   -4.1136    1.9022 H   0  0  0  0  0  0  0  0  0  0  0  0
   -0.1219   -3.9781   -0.0785 H   0  0  0  0  0  0  0  0  0  0  0  0
   -0.9246   -3.9122    2.8849 H   0  0  0  0  0  0  0  0  0  0  0  0
   -1.9950   -3.5413    1.5155 H   0  0  0  0  0  0  0  0  0  0  0  0
   -1.3654   -5.1855    1.7260 H   0  0  0  0  0  0  0  0  0  0  0  0
   -0.4485   -1.3446    0.5238 N   0  0  0  0  0  0  0  0  0  0  0  0
   -0.3044    0.1298    0.4111 C   0  0  2  0  0  0  0  0  0  0  0  0
    0.4216    0.4241   -0.9390 C   0  0  0  0  0  0  0  0  0  0  0  0
    0.3741   -0.4103   -1.8390 O   0  0  0  0  0  0  0  0  0  0  0  0
    0.2245    0.8138    1.7268 C   0  0  2  0  0  0  0  0  0  0  0  0
   -0.8248    0.5693    2.8461 C   0  0  0  0  0  0  0  0  0  0  0  0
    0.4296    2.3376    1.5771 C   0  0  0  0  0  0  0  0  0  0  0  0
   -0.3379    0.9400    4.2529 C   0  0  0  0  0  0  0  0  0  0  0  0
   -1.1234   -1.7621   -0.1117 H   0  0  0  0  0  0  0  0  0  0  0  0
   -1.3093    0.5359    0.2635 H   0  0  0  0  0  0  0  0  0  0  0  0
    1.1881    0.3976    2.0254 H   0  0  0  0  0  0  0  0  0  0  0  0
   -1.7417    1.1249    2.6240 H   0  0  0  0  0  0  0  0  0  0  0  0
   -1.0855   -0.4928    2.8722 H   0  0  0  0  0  0  0  0  0  0  0  0
   -0.3807    2.7855    0.9932 H   0  0  0  0  0  0  0  0  0  0  0  0
    0.4647    2.8416    2.5442 H   0  0  0  0  0  0  0  0  0  0  0  0
    1.3877    2.5491    1.0958 H   0  0  0  0  0  0  0  0  0  0  0  0
    0.6430    0.4944    4.4465 H   0  0  0  0  0  0  0  0  0  0  0  0
   -1.0424    0.5587    4.9983 H   0  0  0  0  0  0  0  0  0  0  0  0
   -0.2673    2.0222    4.3859 H   0  0  0  0  0  0  0  0  0  0  0  0
    0.9948    1.6392   -1.2609 N   0  0  0  0  0  0  0  0  0  0  0  0
    1.7353    1.9268   -2.4961 C   0  0  2  0  0  0  0  0  0  0  0  0
    2.7957    3.0228   -2.2611 C   0  0  0  0  0  0  0  0  0  0  0  0
    2.7622    3.7001   -1.2385 O   0  0  0  0  0  0  0  0  0  0  0  0
    0.7420    2.3658   -3.5776 C   0  0  0  0  0  0  0  0  0  0  0  0
    1.1049    2.3151   -0.5078 H   0  0  0  0  0  0  0  0  0  0  0  0
    2.2604    1.0251   -2.8287 H   0  0  0  0  0  0  0  0  0  0  0  0
    0.2083    3.2682   -3.2630 H   0  0  0  0  0  0  0  0  0  0  0  0
    1.2635    2.5778   -4.5155 H   0  0  0  0  0  0  0  0  0  0  0  0
    0.0088    1.5751   -3.7649 H   0  0  0  0  0  0  0  0  0  0  0  0
    3.7914    3.2508   -3.1928 N   0  0  0  0  0  0  0  0  0  0  0  0
    4.8265    4.2633   -3.0234 C   0  0  0  0  0  0  0  0  0  0  0  0
    3.8038    2.6660   -4.0235 H   0  0  0  0  0  0  0  0  0  0  0  0
    4.3771    5.2575   -2.9284 H   0  0  0  0  0  0  0  0  0  0  0  0
    5.4206    4.0580   -2.1264 H   0  0  0  0  0  0  0  0  0  0  0  0
    5.4966    4.2685   -3.8885 H   0  0  0  0  0  0  0  0  0  0  0  0
  1  2  2  0  0  0  0
  1  3  1  0  0  0  0
  1  7  1  0  0  0  0
  3  4  1  0  0  0  0
  3  5  1  0  0  0  0
  3  6  1  0  0  0  0
  7  8  1  0  0  0  0
  7 12  1  0  0  0  0
  8  9  1  0  0  0  0
  8 11  1  0  0  0  0
  8 13  1  0  0  0  0
  9 10  2  0  0  0  0
  9 17  1  0  0  0  0
 11 14  1  0  0  0  0
 11 15  1  0  0  0  0
 11 16  1  0  0  0  0
 17 18  1  0  0  0  0
 17 25  1  0  0  0  0
 18 19  1  0  0  0  0
 18 21  1  0  0  0  0
 18 26  1  0  0  0  0
 19 20  2  0  0  0  0
 19 36  1  0  0  0  0
 21 22  1  0  0  0  0
 21 23  1  0  0  0  0
 21 27  1  0  0  0  0
 22 24  1  0  0  0  0
 22 28  1  0  0  0  0
 22 29  1  0  0  0  0
 23 30  1  0  0  0  0
 23 31  1  0  0  0  0
 23 32  1  0  0  0  0
 24 33  1  0  0  0  0
 24 34  1  0  0  0  0
 24 35  1  0  0  0  0
 36 37  1  0  0  0  0
 36 41  1  0  0  0  0
 37 38  1  0  0  0  0
 37 40  1  0  0  0  0
 37 42  1  0  0  0  0
 38 39  2  0  0  0  0
 38 46  1  0  0  0  0
 40 43  1  0  0  0  0
 40 44  1  0  0  0  0
 40 45  1  0  0  0  0
 46 47  1  0  0  0  0
 46 48  1  0  0  0  0
 47 49  1  0  0  0  0
 47 50  1  0  0  0  0
 47 51  1  0  0  0  0
M  END
$$$$

  -OEChem-05262216503D

 51 50  0     1  0  0  0  0  0999 V2000
    1.1363   -5.7475    0.5658 C   0  0  0  0  0  0  0  0  0  0  0  0
    0.0850   -6.3059    0.2959 O   0  0  0  0  0  0  0  0  0  0  0  0
    2.4481   -6.5035    0.4649 C   0  0  0  0  0  0  0  0  0  0  0  0
    2.2650   -7.5367    0.1561 H   0  0  0  0  0  0  0  0  0  0  0  0
    3.0987   -6.0258   -0.2716 H   0  0  0  0  0  0  0  0  0  0  0  0
    2.9507   -6.5104    1.4351 H   0  0  0  0  0  0  0  0  0  0  0  0
    1.1347   -4.4266    0.9609 N   0  0  0  0  0  0  0  0  0  0  0  0
   -0.0518   -3.5603    0.9616 C   0  0  2  0  0  0  0  0  0  0  0  0
    0.3261   -2.0757    0.7714 C   0  0  0  0  0  0  0  0  0  0  0  0
    1.5073   -1.7438    0.7883 O   0  0  0  0  0  0  0  0  0  0  0  0
   -0.7982   -3.7548    2.2861 C   0  0  0  0  0  0  0  0  0  0  0  0
    2.0381   -3.9641    1.0561 H   0  0  0  0  0  0  0  0  0  0  0  0
   -0.7095   -3.8401    0.1312 H   0  0  0  0  0  0  0  0  0  0  0  0
   -0.1598   -3.4742    3.1301 H   0  0  0  0  0  0  0  0  0  0  0  0
   -1.7028   -3.1397    2.3132 H   0  0  0  0  0  0  0  0  0  0  0  0
   -1.0928   -4.8024    2.4052 H   0  0  0  0  0  0  0  0  0  0  0  0
   -0.6622   -1.1451    0.4986 N   0  0  0  0  0  0  0  0  0  0  0  0
   -0.4951    0.3161    0.3335 C   0  0  2  0  0  0  0  0  0  0  0  0
   -0.2192    0.4925   -1.1899 C   0  0  0  0  0  0  0  0  0  0  0  0
   -1.0240    0.0088   -1.9744 O   0  0  0  0  0  0  0  0  0  0  0  0
    0.4222    1.0068    1.4022 C   0  0  2  0  0  0  0  0  0  0  0  0
   -0.2391    0.8214    2.7952 C   0  0  0  0  0  0  0  0  0  0  0  0
    0.5012    2.5387    1.1858 C   0  0  0  0  0  0  0  0  0  0  0  0
    0.6750    1.2110    3.9630 C   0  0  0  0  0  0  0  0  0  0  0  0
   -1.5739   -1.5278    0.2591 H   0  0  0  0  0  0  0  0  0  0  0  0
   -1.4798    0.7717    0.4783 H   0  0  0  0  0  0  0  0  0  0  0  0
    1.4322    0.5927    1.3942 H   0  0  0  0  0  0  0  0  0  0  0  0
   -1.1715    1.3930    2.8550 H   0  0  0  0  0  0  0  0  0  0  0  0
   -0.4969   -0.2326    2.9325 H   0  0  0  0  0  0  0  0  0  0  0  0
    0.9692    2.8079    0.2437 H   0  0  0  0  0  0  0  0  0  0  0  0
    1.0992    3.0143    1.9663 H   0  0  0  0  0  0  0  0  0  0  0  0
   -0.5006    2.9797    1.1999 H   0  0  0  0  0  0  0  0  0  0  0  0
    1.6475    0.7179    3.8674 H   0  0  0  0  0  0  0  0  0  0  0  0
    0.2214    0.8978    4.9082 H   0  0  0  0  0  0  0  0  0  0  0  0
    0.8294    2.2920    4.0085 H   0  0  0  0  0  0  0  0  0  0  0  0
    0.5358    1.4608   -1.8022 N   0  0  0  0  0  0  0  0  0  0  0  0
    2.0028    1.3845   -1.6963 C   0  0  2  0  0  0  0  0  0  0  0  0
    2.7027    2.7285   -1.9919 C   0  0  0  0  0  0  0  0  0  0  0  0
    2.1929    3.5498   -2.7428 O   0  0  0  0  0  0  0  0  0  0  0  0
    2.5025    0.3144   -2.6739 C   0  0  0  0  0  0  0  0  0  0  0  0
    0.1988    1.6397   -2.7463 H   0  0  0  0  0  0  0  0  0  0  0  0
    2.2877    1.0826   -0.6849 H   0  0  0  0  0  0  0  0  0  0  0  0
    2.2324    0.5798   -3.7014 H   0  0  0  0  0  0  0  0  0  0  0  0
    3.5910    0.2197   -2.6142 H   0  0  0  0  0  0  0  0  0  0  0  0
    2.0613   -0.6596   -2.4384 H   0  0  0  0  0  0  0  0  0  0  0  0
    3.9288    3.0110   -1.4174 N   0  0  0  0  0  0  0  0  0  0  0  0
    4.6486    4.2582   -1.6456 C   0  0  0  0  0  0  0  0  0  0  0  0
    4.3378    2.3111   -0.8054 H   0  0  0  0  0  0  0  0  0  0  0  0
    4.8924    4.3709   -2.7072 H   0  0  0  0  0  0  0  0  0  0  0  0
    4.0419    5.1139   -1.3307 H   0  0  0  0  0  0  0  0  0  0  0  0
    5.5815    4.2682   -1.0737 H   0  0  0  0  0  0  0  0  0  0  0  0
  1  2  2  0  0  0  0
  1  3  1  0  0  0  0
  1  7  1  0  0  0  0
  3  4  1  0  0  0  0
  3  5  1  0  0  0  0
  3  6  1  0  0  0  0
  7  8  1  0  0  0  0
  7 12  1  0  0  0  0
  8  9  1  0  0  0  0
  8 11  1  0  0  0  0
  8 13  1  0  0  0  0
  9 10  2  0  0  0  0
  9 17  1  0  0  0  0
 11 14  1  0  0  0  0
 11 15  1  0  0  0  0
 11 16  1  0  0  0  0
 17 18  1  0  0  0  0
 17 25  1  0  0  0  0
 18 19  1  0  0  0  0
 18 21  1  0  0  0  0
 18 26  1  0  0  0  0
 19 20  2  0  0  0  0
 19 36  1  0  0  0  0
 21 22  1  0  0  0  0
 21 23  1  0  0  0  0
 21 27  1  0  0  0  0
 22 24  1  0  0  0  0
 22 28  1  0  0  0  0
 22 29  1  0  0  0  0
 23 30  1  0  0  0  0
 23 31  1  0  0  0  0
 23 32  1  0  0  0  0
 24 33  1  0  0  0  0
 24 34  1  0  0  0  0
 24 35  1  0  0  0  0
 36 37  1  0  0  0  0
 36 41  1  0  0  0  0
 37 38  1  0  0  0  0
 37 40  1  0  0  0  0
 37 42  1  0  0  0  0
 38 39  2  0  0  0  0
 38 46  1  0  0  0  0
 40 43  1  0  0  0  0
 40 44  1  0  0  0  0
 40 45  1  0  0  0  0
 46 47  1  0  0  0  0
 46 48  1  0  0  0  0
 47 49  1  0  0  0  0
 47 50  1  0  0  0  0
 47 51  1  0  0  0  0
M  END
$$$$

  -OEChem-05262216503D

 51 50  0     1  0  0  0  0  0999 V2000
    1.4617   -5.8280    0.9671 C   0  0  0  0  0  0  0  0  0  0  0  0
    0.6571   -6.3887    0.2399 O   0  0  0  0  0  0  0  0  0  0  0  0
    2.7516   -6.5249    1.3558 C   0  0  0  0  0  0  0  0  0  0  0  0
    2.8360   -7.4821    0.8338 H   0  0  0  0  0  0  0  0  0  0  0  0
    3.6078   -5.9015    1.0874 H   0  0  0  0  0  0  0  0  0  0  0  0
    2.7659   -6.7079    2.4329 H   0  0  0  0  0  0  0  0  0  0  0  0
    1.2054   -4.5563    1.4320 N   0  0  0  0  0  0  0  0  0  0  0  0
    0.0772   -3.7235    0.9958 C   0  0  2  0  0  0  0  0  0  0  0  0
    0.4180   -2.2198    1.0765 C   0  0  0  0  0  0  0  0  0  0  0  0
    1.4486   -1.8695    1.6384 O   0  0  0  0  0  0  0  0  0  0  0  0
   -1.1333   -4.0455    1.8778 C   0  0  0  0  0  0  0  0  0  0  0  0
    1.9586   -4.0776    1.9257 H   0  0  0  0  0  0  0  0  0  0  0  0
   -0.1647   -3.9491   -0.0485 H   0  0  0  0  0  0  0  0  0  0  0  0
   -0.9131   -3.8184    2.9258 H   0  0  0  0  0  0  0  0  0  0  0  0
   -2.0032   -3.4585    1.5686 H   0  0  0  0  0  0  0  0  0  0  0  0
   -1.3893   -5.1067    1.7975 H   0  0  0  0  0  0  0  0  0  0  0  0
   -0.4126   -1.2978    0.4605 N   0  0  0  0  0  0  0  0  0  0  0  0
   -0.2567    0.1745    0.3979 C   0  0  2  0  0  0  0  0  0  0  0  0
    0.5773    0.4631   -0.8804 C   0  0  0  0  0  0  0  0  0  0  0  0
    0.2256   -0.0633   -1.9318 O   0  0  0  0  0  0  0  0  0  0  0  0
    0.1633    0.8558    1.7485 C   0  0  2  0  0  0  0  0  0  0  0  0
   -0.9701    0.6022    2.7791 C   0  0  0  0  0  0  0  0  0  0  0  0
    0.3220    2.3887    1.5935 C   0  0  0  0  0  0  0  0  0  0  0  0
   -0.5942    0.9722    4.2187 C   0  0  0  0  0  0  0  0  0  0  0  0
   -1.1030   -1.6985   -0.1700 H   0  0  0  0  0  0  0  0  0  0  0  0
   -1.2442    0.5875    0.1701 H   0  0  0  0  0  0  0  0  0  0  0  0
    1.1091    0.4556    2.1211 H   0  0  0  0  0  0  0  0  0  0  0  0
   -1.8714    1.1512    2.4870 H   0  0  0  0  0  0  0  0  0  0  0  0
   -1.2235   -0.4618    2.7819 H   0  0  0  0  0  0  0  0  0  0  0  0
   -0.4800    2.7994    0.9721 H   0  0  0  0  0  0  0  0  0  0  0  0
    1.2833    2.6489    1.1478 H   0  0  0  0  0  0  0  0  0  0  0  0
    0.2956    2.8980    2.5581 H   0  0  0  0  0  0  0  0  0  0  0  0
    0.3611    0.5135    4.4923 H   0  0  0  0  0  0  0  0  0  0  0  0
   -1.3621    0.6046    4.9059 H   0  0  0  0  0  0  0  0  0  0  0  0
   -0.5180    2.0537    4.3529 H   0  0  0  0  0  0  0  0  0  0  0  0
    1.6397    1.3429   -0.9314 N   0  0  0  0  0  0  0  0  0  0  0  0
    2.4860    1.5740   -2.1085 C   0  0  2  0  0  0  0  0  0  0  0  0
    3.9013    2.0293   -1.6960 C   0  0  0  0  0  0  0  0  0  0  0  0
    4.1191    2.3970   -0.5462 O   0  0  0  0  0  0  0  0  0  0  0  0
    1.8221    2.6349   -2.9928 C   0  0  0  0  0  0  0  0  0  0  0  0
    2.0290    1.6364   -0.0354 H   0  0  0  0  0  0  0  0  0  0  0  0
    2.5909    0.6421   -2.6743 H   0  0  0  0  0  0  0  0  0  0  0  0
    1.7222    3.5785   -2.4470 H   0  0  0  0  0  0  0  0  0  0  0  0
    2.4183    2.8131   -3.8926 H   0  0  0  0  0  0  0  0  0  0  0  0
    0.8257    2.3038   -3.3017 H   0  0  0  0  0  0  0  0  0  0  0  0
    4.9353    2.0269   -2.6138 N   0  0  0  0  0  0  0  0  0  0  0  0
    6.2973    2.4288   -2.2839 C   0  0  0  0  0  0  0  0  0  0  0  0
    4.7317    1.6984   -3.5532 H   0  0  0  0  0  0  0  0  0  0  0  0
    6.3138    3.4580   -1.9093 H   0  0  0  0  0  0  0  0  0  0  0  0
    6.7162    1.7682   -1.5172 H   0  0  0  0  0  0  0  0  0  0  0  0
    6.9339    2.3755   -3.1725 H   0  0  0  0  0  0  0  0  0  0  0  0
  1  2  2  0  0  0  0
  1  3  1  0  0  0  0
  1  7  1  0  0  0  0
  3  4  1  0  0  0  0
  3  5  1  0  0  0  0
  3  6  1  0  0  0  0
  7  8  1  0  0  0  0
  7 12  1  0  0  0  0
  8  9  1  0  0  0  0
  8 11  1  0  0  0  0
  8 13  1  0  0  0  0
  9 10  2  0  0  0  0
  9 17  1  0  0  0  0
 11 14  1  0  0  0  0
 11 15  1  0  0  0  0
 11 16  1  0  0  0  0
 17 18  1  0  0  0  0
 17 25  1  0  0  0  0
 18 19  1  0  0  0  0
 18 21  1  0  0  0  0
 18 26  1  0  0  0  0
 19 20  2  0  0  0  0
 19 36  1  0  0  0  0
 21 22  1  0  0  0  0
 21 23  1  0  0  0  0
 21 27  1  0  0  0  0
 22 24  1  0  0  0  0
 22 28  1  0  0  0  0
 22 29  1  0  0  0  0
 23 30  1  0  0  0  0
 23 31  1  0  0  0  0
 23 32  1  0  0  0  0
 24 33  1  0  0  0  0
 24 34  1  0  0  0  0
 24 35  1  0  0  0  0
 36 37  1  0  0  0  0
 36 41  1  0  0  0  0
 37 38  1  0  0  0  0
 37 40  1  0  0  0  0
 37 42  1  0  0  0  0
 38 39  2  0  0  0  0
 38 46  1  0  0  0  0
 40 43  1  0  0  0  0
 40 44  1  0  0  0  0
 40 45  1  0  0  0  0
 46 47  1  0  0  0  0
 46 48  1  0  0  0  0
 47 49  1  0  0  0  0
 47 50  1  0  0  0  0
 47 51  1  0  0  0  0
M  END
$$$$

  -OEChem-05262216503D

 51 50  0     1  0  0  0  0  0999 V2000
    1.4581   -5.8129    0.9264 C   0  0  0  0  0  0  0  0  0  0  0  0
    0.6714   -6.3552    0.1664 O   0  0  0  0  0  0  0  0  0  0  0  0
    2.7541   -6.5056    1.3040 C   0  0  0  0  0  0  0  0  0  0  0  0
    2.8382   -7.4615    0.7791 H   0  0  0  0  0  0  0  0  0  0  0  0
    3.6062   -5.8783    1.0306 H   0  0  0  0  0  0  0  0  0  0  0  0
    2.7772   -6.6910    2.3807 H   0  0  0  0  0  0  0  0  0  0  0  0
    1.1761   -4.5641    1.4368 N   0  0  0  0  0  0  0  0  0  0  0  0
    0.0508   -3.7261    1.0031 C   0  0  2  0  0  0  0  0  0  0  0  0
    0.4027   -2.2249    1.0757 C   0  0  0  0  0  0  0  0  0  0  0  0
    1.4295   -1.8768    1.6455 O   0  0  0  0  0  0  0  0  0  0  0  0
   -1.1568   -4.0384    1.8923 C   0  0  0  0  0  0  0  0  0  0  0  0
    1.9196   -4.0932    1.9519 H   0  0  0  0  0  0  0  0  0  0  0  0
   -0.1985   -3.9528   -0.0394 H   0  0  0  0  0  0  0  0  0  0  0  0
   -0.9280   -3.8174    2.9398 H   0  0  0  0  0  0  0  0  0  0  0  0
   -2.0222   -3.4408    1.5908 H   0  0  0  0  0  0  0  0  0  0  0  0
   -1.4240   -5.0968    1.8097 H   0  0  0  0  0  0  0  0  0  0  0  0
   -0.4086   -1.3007    0.4388 N   0  0  0  0  0  0  0  0  0  0  0  0
   -0.2490    0.1702    0.3866 C   0  0  2  0  0  0  0  0  0  0  0  0
    0.6220    0.4438   -0.8657 C   0  0  0  0  0  0  0  0  0  0  0  0
    0.1923    0.0967   -1.9608 O   0  0  0  0  0  0  0  0  0  0  0  0
    0.1734    0.8578    1.7294 C   0  0  2  0  0  0  0  0  0  0  0  0
   -0.9497    0.6140    2.7714 C   0  0  0  0  0  0  0  0  0  0  0  0
    0.3092    2.3913    1.5614 C   0  0  0  0  0  0  0  0  0  0  0  0
   -0.5513    0.9996    4.2002 C   0  0  0  0  0  0  0  0  0  0  0  0
   -1.1128   -1.6970   -0.1789 H   0  0  0  0  0  0  0  0  0  0  0  0
   -1.2296    0.5911    0.1436 H   0  0  0  0  0  0  0  0  0  0  0  0
    1.1274    0.4676    2.0925 H   0  0  0  0  0  0  0  0  0  0  0  0
   -1.8556    1.1591    2.4861 H   0  0  0  0  0  0  0  0  0  0  0  0
   -1.2021   -0.4502    2.7858 H   0  0  0  0  0  0  0  0  0  0  0  0
   -0.6099    2.8145    1.1440 H   0  0  0  0  0  0  0  0  0  0  0  0
    0.5060    2.8752    2.5207 H   0  0  0  0  0  0  0  0  0  0  0  0
    1.1389    2.6649    0.9094 H   0  0  0  0  0  0  0  0  0  0  0  0
    0.4051    0.5390    4.4674 H   0  0  0  0  0  0  0  0  0  0  0  0
   -1.3119    0.6476    4.9037 H   0  0  0  0  0  0  0  0  0  0  0  0
   -0.4657    2.0832    4.3136 H   0  0  0  0  0  0  0  0  0  0  0  0
    1.8510    1.0710   -0.8145 N   0  0  0  0  0  0  0  0  0  0  0  0
    2.7517    1.2572   -1.9581 C   0  0  2  0  0  0  0  0  0  0  0  0
    4.2170    1.4060   -1.4983 C   0  0  0  0  0  0  0  0  0  0  0  0
    4.4735    1.6476   -0.3238 O   0  0  0  0  0  0  0  0  0  0  0  0
    2.3107    2.5027   -2.7350 C   0  0  0  0  0  0  0  0  0  0  0  0
    2.2607    1.1979    0.1121 H   0  0  0  0  0  0  0  0  0  0  0  0
    2.6975    0.3806   -2.6124 H   0  0  0  0  0  0  0  0  0  0  0  0
    2.3509    3.3877   -2.0918 H   0  0  0  0  0  0  0  0  0  0  0  0
    2.9617    2.6688   -3.5984 H   0  0  0  0  0  0  0  0  0  0  0  0
    1.2850    2.3820   -3.0974 H   0  0  0  0  0  0  0  0  0  0  0  0
    5.2542    1.2699   -2.4026 N   0  0  0  0  0  0  0  0  0  0  0  0
    6.6588    1.3877   -2.0297 C   0  0  0  0  0  0  0  0  0  0  0  0
    5.0155    1.0514   -3.3655 H   0  0  0  0  0  0  0  0  0  0  0  0
    6.8619    2.3791   -1.6110 H   0  0  0  0  0  0  0  0  0  0  0  0
    6.9225    0.6297   -1.2844 H   0  0  0  0  0  0  0  0  0  0  0  0
    7.2971    1.2460   -2.9071 H   0  0  0  0  0  0  0  0  0  0  0  0
  1  2  2  0  0  0  0
  1  3  1  0  0  0  0
  1  7  1  0  0  0  0
  3  4  1  0  0  0  0
  3  5  1  0  0  0  0
  3  6  1  0  0  0  0
  7  8  1  0  0  0  0
  7 12  1  0  0  0  0
  8  9  1  0  0  0  0
  8 11  1  0  0  0  0
  8 13  1  0  0  0  0
  9 10  2  0  0  0  0
  9 17  1  0  0  0  0
 11 14  1  0  0  0  0
 11 15  1  0  0  0  0
 11 16  1  0  0  0  0
 17 18  1  0  0  0  0
 17 25  1  0  0  0  0
 18 19  1  0  0  0  0
 18 21  1  0  0  0  0
 18 26  1  0  0  0  0
 19 20  2  0  0  0  0
 19 36  1  0  0  0  0
 21 22  1  0  0  0  0
 21 23  1  0  0  0  0
 21 27  1  0  0  0  0
 22 24  1  0  0  0  0
 22 28  1  0  0  0  0
 22 29  1  0  0  0  0
 23 30  1  0  0  0  0
 23 31  1  0  0  0  0
 23 32  1  0  0  0  0
 24 33  1  0  0  0  0
 24 34  1  0  0  0  0
 24 35  1  0  0  0  0
 36 37  1  0  0  0  0
 36 41  1  0  0  0  0
 37 38  1  0  0  0  0
 37 40  1  0  0  0  0
 37 42  1  0  0  0  0
 38 39  2  0  0  0  0
 38 46  1  0  0  0  0
 40 43  1  0  0  0  0
 40 44  1  0  0  0  0
 40 45  1  0  0  0  0
 46 47  1  0  0  0  0
 46 48  1  0  0  0  0
 47 49  1  0  0  0  0
 47 50  1  0  0  0  0
 47 51  1  0  0  0  0
M  END
$$$$

  -OEChem-05262216503D

 51 50  0     1  0  0  0  0  0999 V2000
    1.4162   -5.8277    0.9614 C   0  0  0  0  0  0  0  0  0  0  0  0
    0.5808   -6.3766    0.2601 O   0  0  0  0  0  0  0  0  0  0  0  0
    2.7271   -6.5253    1.2728 C   0  0  0  0  0  0  0  0  0  0  0  0
    2.7657   -7.4965    0.7713 H   0  0  0  0  0  0  0  0  0  0  0  0
    3.5657   -5.9163    0.9260 H   0  0  0  0  0  0  0  0  0  0  0  0
    2.8199   -6.6810    2.3504 H   0  0  0  0  0  0  0  0  0  0  0  0
    1.1765   -4.5662    1.4628 N   0  0  0  0  0  0  0  0  0  0  0  0
    0.0378   -3.7238    1.0750 C   0  0  2  0  0  0  0  0  0  0  0  0
    0.4224   -2.2298    1.0480 C   0  0  0  0  0  0  0  0  0  0  0  0
    1.4668   -1.8671    1.5748 O   0  0  0  0  0  0  0  0  0  0  0  0
   -1.1021   -3.9637    2.0689 C   0  0  0  0  0  0  0  0  0  0  0  0
    1.9531   -4.0943    1.9257 H   0  0  0  0  0  0  0  0  0  0  0  0
   -0.2969   -3.9946    0.0679 H   0  0  0  0  0  0  0  0  0  0  0  0
   -0.7898   -3.6908    3.0822 H   0  0  0  0  0  0  0  0  0  0  0  0
   -1.9783   -3.3655    1.8012 H   0  0  0  0  0  0  0  0  0  0  0  0
   -1.3914   -5.0195    2.0652 H   0  0  0  0  0  0  0  0  0  0  0  0
   -0.3733   -1.3251    0.3659 N   0  0  0  0  0  0  0  0  0  0  0  0
   -0.2233    0.1452    0.3122 C   0  0  2  0  0  0  0  0  0  0  0  0
    0.6974    0.4421   -0.8932 C   0  0  0  0  0  0  0  0  0  0  0  0
    0.2381    0.3451   -2.0253 O   0  0  0  0  0  0  0  0  0  0  0  0
    0.1460    0.8499    1.6576 C   0  0  2  0  0  0  0  0  0  0  0  0
   -1.0014    0.6164    2.6718 C   0  0  0  0  0  0  0  0  0  0  0  0
    0.2942    2.3763    1.4595 C   0  0  0  0  0  0  0  0  0  0  0  0
   -0.6354    1.0297    4.1009 C   0  0  0  0  0  0  0  0  0  0  0  0
   -1.1324   -1.7270   -0.1782 H   0  0  0  0  0  0  0  0  0  0  0  0
   -1.1984    0.5545    0.0297 H   0  0  0  0  0  0  0  0  0  0  0  0
    1.0888    0.4663    2.0547 H   0  0  0  0  0  0  0  0  0  0  0  0
   -1.9022    1.1525    2.3549 H   0  0  0  0  0  0  0  0  0  0  0  0
   -1.2480   -0.4492    2.6972 H   0  0  0  0  0  0  0  0  0  0  0  0
   -0.6379    2.8067    1.0799 H   0  0  0  0  0  0  0  0  0  0  0  0
    0.5436    2.8687    2.4029 H   0  0  0  0  0  0  0  0  0  0  0  0
    1.0935    2.6216    0.7578 H   0  0  0  0  0  0  0  0  0  0  0  0
    0.3050    0.5595    4.4054 H   0  0  0  0  0  0  0  0  0  0  0  0
   -1.4210    0.7098    4.7920 H   0  0  0  0  0  0  0  0  0  0  0  0
   -0.5320    2.1146    4.1874 H   0  0  0  0  0  0  0  0  0  0  0  0
    2.0205    0.8090   -0.7362 N   0  0  0  0  0  0  0  0  0  0  0  0
    2.9707    0.9764   -1.8423 C   0  0  2  0  0  0  0  0  0  0  0  0
    4.4180    0.6677   -1.4071 C   0  0  0  0  0  0  0  0  0  0  0  0
    4.7200    0.6581   -0.2193 O   0  0  0  0  0  0  0  0  0  0  0  0
    2.8677    2.4149   -2.3587 C   0  0  0  0  0  0  0  0  0  0  0  0
    2.4191    0.6770    0.1954 H   0  0  0  0  0  0  0  0  0  0  0  0
    2.7173    0.2815   -2.6499 H   0  0  0  0  0  0  0  0  0  0  0  0
    3.1307    3.1240   -1.5672 H   0  0  0  0  0  0  0  0  0  0  0  0
    3.5445    2.5687   -3.2044 H   0  0  0  0  0  0  0  0  0  0  0  0
    1.8472    2.6273   -2.6923 H   0  0  0  0  0  0  0  0  0  0  0  0
    5.3902    0.4035   -2.3544 N   0  0  0  0  0  0  0  0  0  0  0  0
    6.7736    0.0922   -2.0159 C   0  0  0  0  0  0  0  0  0  0  0  0
    5.1087    0.4014   -3.3304 H   0  0  0  0  0  0  0  0  0  0  0  0
    7.2288    0.9210   -1.4635 H   0  0  0  0  0  0  0  0  0  0  0  0
    6.8240   -0.8115   -1.3994 H   0  0  0  0  0  0  0  0  0  0  0  0
    7.3567   -0.0772   -2.9262 H   0  0  0  0  0  0  0  0  0  0  0  0
  1  2  2  0  0  0  0
  1  3  1  0  0  0  0
  1  7  1  0  0  0  0
  3  4  1  0  0  0  0
  3  5  1  0  0  0  0
  3  6  1  0  0  0  0
  7  8  1  0  0  0  0
  7 12  1  0  0  0  0
  8  9  1  0  0  0  0
  8 11  1  0  0  0  0
  8 13  1  0  0  0  0
  9 10  2  0  0  0  0
  9 17  1  0  0  0  0
 11 14  1  0  0  0  0
 11 15  1  0  0  0  0
 11 16  1  0  0  0  0
 17 18  1  0  0  0  0
 17 25  1  0  0  0  0
 18 19  1  0  0  0  0
 18 21  1  0  0  0  0
 18 26  1  0  0  0  0
 19 20  2  0  0  0  0
 19 36  1  0  0  0  0
 21 22  1  0  0  0  0
 21 23  1  0  0  0  0
 21 27  1  0  0  0  0
 22 24  1  0  0  0  0
 22 28  1  0  0  0  0
 22 29  1  0  0  0  0
 23 30  1  0  0  0  0
 23 31  1  0  0  0  0
 23 32  1  0  0  0  0
 24 33  1  0  0  0  0
 24 34  1  0  0  0  0
 24 35  1  0  0  0  0
 36 37  1  0  0  0  0
 36 41  1  0  0  0  0
 37 38  1  0  0  0  0
 37 40  1  0  0  0  0
 37 42  1  0  0  0  0
 38 39  2  0  0  0  0
 38 46  1  0  0  0  0
 40 43  1  0  0  0  0
 40 44  1  0  0  0  0
 40 45  1  0  0  0  0
 46 47  1  0  0  0  0
 46 48  1  0  0  0  0
 47 49  1  0  0  0  0
 47 50  1  0  0  0  0
 47 51  1  0  0  0  0
M  END
$$$$

  -OEChem-05262216503D

 51 50  0     1  0  0  0  0  0999 V2000
    1.3727   -5.8088    0.9103 C   0  0  0  0  0  0  0  0  0  0  0  0
    0.5299   -6.3331    0.1989 O   0  0  0  0  0  0  0  0  0  0  0  0
    2.7129   -6.4851    1.1315 C   0  0  0  0  0  0  0  0  0  0  0  0
    2.7589   -7.4255    0.5750 H   0  0  0  0  0  0  0  0  0  0  0  0
    3.5207   -5.8333    0.7891 H   0  0  0  0  0  0  0  0  0  0  0  0
    2.8519   -6.6971    2.1943 H   0  0  0  0  0  0  0  0  0  0  0  0
    1.1176   -4.5919    1.5059 N   0  0  0  0  0  0  0  0  0  0  0  0
   -0.0332   -3.7388    1.1818 C   0  0  2  0  0  0  0  0  0  0  0  0
    0.3787   -2.2550    1.0917 C   0  0  0  0  0  0  0  0  0  0  0  0
    1.4345   -1.8904    1.5939 O   0  0  0  0  0  0  0  0  0  0  0  0
   -1.0983   -3.9340    2.2636 C   0  0  0  0  0  0  0  0  0  0  0  0
    1.9073   -4.1294    1.9564 H   0  0  0  0  0  0  0  0  0  0  0  0
   -0.4504   -4.0234    0.2099 H   0  0  0  0  0  0  0  0  0  0  0  0
   -0.7048   -3.6476    3.2444 H   0  0  0  0  0  0  0  0  0  0  0  0
   -1.9801   -3.3227    2.0490 H   0  0  0  0  0  0  0  0  0  0  0  0
   -1.4069   -4.9834    2.3051 H   0  0  0  0  0  0  0  0  0  0  0  0
   -0.3868   -1.3634    0.3602 N   0  0  0  0  0  0  0  0  0  0  0  0
   -0.2074    0.1019    0.2739 C   0  0  2  0  0  0  0  0  0  0  0  0
    0.7506    0.3731   -0.9039 C   0  0  0  0  0  0  0  0  0  0  0  0
    0.2954    0.5444   -2.0282 O   0  0  0  0  0  0  0  0  0  0  0  0
    0.1509    0.8426    1.6011 C   0  0  2  0  0  0  0  0  0  0  0  0
   -1.0118    0.6707    2.6078 C   0  0  0  0  0  0  0  0  0  0  0  0
    0.3608    2.3496    1.3359 C   0  0  0  0  0  0  0  0  0  0  0  0
   -0.6505    1.1282    4.0246 C   0  0  0  0  0  0  0  0  0  0  0  0
   -1.1789   -1.7618   -0.1374 H   0  0  0  0  0  0  0  0  0  0  0  0
   -1.1702    0.5187   -0.0392 H   0  0  0  0  0  0  0  0  0  0  0  0
    1.0757    0.4493    2.0301 H   0  0  0  0  0  0  0  0  0  0  0  0
   -1.8934    1.2195    2.2612 H   0  0  0  0  0  0  0  0  0  0  0  0
   -1.2865   -0.3866    2.6656 H   0  0  0  0  0  0  0  0  0  0  0  0
   -0.5416    2.7946    0.9045 H   0  0  0  0  0  0  0  0  0  0  0  0
    0.6003    2.8797    2.2611 H   0  0  0  0  0  0  0  0  0  0  0  0
    1.1919    2.5216    0.6469 H   0  0  0  0  0  0  0  0  0  0  0  0
    0.2675    0.6375    4.3626 H   0  0  0  0  0  0  0  0  0  0  0  0
   -1.4566    0.8653    4.7161 H   0  0  0  0  0  0  0  0  0  0  0  0
   -0.5080    2.2113    4.0686 H   0  0  0  0  0  0  0  0  0  0  0  0
    2.1167    0.4237   -0.7041 N   0  0  0  0  0  0  0  0  0  0  0  0
    3.1048    0.5578   -1.7808 C   0  0  2  0  0  0  0  0  0  0  0  0
    4.4435   -0.1241   -1.4290 C   0  0  0  0  0  0  0  0  0  0  0  0
    4.7049   -0.4246   -0.2703 O   0  0  0  0  0  0  0  0  0  0  0  0
    3.3217    2.0497   -2.0520 C   0  0  0  0  0  0  0  0  0  0  0  0
    2.4531    0.0601    0.1918 H   0  0  0  0  0  0  0  0  0  0  0  0
    2.7240    0.0761   -2.6876 H   0  0  0  0  0  0  0  0  0  0  0  0
    3.7066    2.5485   -1.1567 H   0  0  0  0  0  0  0  0  0  0  0  0
    4.0383    2.1921   -2.8663 H   0  0  0  0  0  0  0  0  0  0  0  0
    2.3778    2.5251   -2.3373 H   0  0  0  0  0  0  0  0  0  0  0  0
    5.3669   -0.4025   -2.4203 N   0  0  0  0  0  0  0  0  0  0  0  0
    6.6486   -1.0464   -2.1588 C   0  0  0  0  0  0  0  0  0  0  0  0
    5.1203   -0.1613   -3.3757 H   0  0  0  0  0  0  0  0  0  0  0  0
    7.2425   -0.4480   -1.4598 H   0  0  0  0  0  0  0  0  0  0  0  0
    6.4961   -2.0418   -1.7286 H   0  0  0  0  0  0  0  0  0  0  0  0
    7.2151   -1.1548   -3.0886 H   0  0  0  0  0  0  0  0  0  0  0  0
  1  2  2  0  0  0  0
  1  3  1  0  0  0  0
  1  7  1  0  0  0  0
  3  4  1  0  0  0  0
  3  5  1  0  0  0  0
  3  6  1  0  0  0  0
  7  8  1  0  0  0  0
  7 12  1  0  0  0  0
  8  9  1  0  0  0  0
  8 11  1  0  0  0  0
  8 13  1  0  0  0  0
  9 10  2  0  0  0  0
  9 17  1  0  0  0  0
 11 14  1  0  0  0  0
 11 15  1  0  0  0  0
 11 16  1  0  0  0  0
 17 18  1  0  0  0  0
 17 25  1  0  0  0  0
 18 19  1  0  0  0  0
 18 21  1  0  0  0  0
 18 26  1  0  0  0  0
 19 20  2  0  0  0  0
 19 36  1  0  0  0  0
 21 22  1  0  0  0  0
 21 23  1  0  0  0  0
 21 27  1  0  0  0  0
 22 24  1  0  0  0  0
 22 28  1  0  0  0  0
 22 29  1  0  0  0  0
 23 30  1  0  0  0  0
 23 31  1  0  0  0  0
 23 32  1  0  0  0  0
 24 33  1  0  0  0  0
 24 34  1  0  0  0  0
 24 35  1  0  0  0  0
 36 37  1  0  0  0  0
 36 41  1  0  0  0  0
 37 38  1  0  0  0  0
 37 40  1  0  0  0  0
 37 42  1  0  0  0  0
 38 39  2  0  0  0  0
 38 46  1  0  0  0  0
 40 43  1  0  0  0  0
 40 44  1  0  0  0  0
 40 45  1  0  0  0  0
 46 47  1  0  0  0  0
 46 48  1  0  0  0  0
 47 49  1  0  0  0  0
 47 50  1  0  0  0  0
 47 51  1  0  0  0  0
M  END
$$$$

  -OEChem-05262216503D

 51 50  0     1  0  0  0  0  0999 V2000
    2.0451   -5.2155    0.2311 C   0  0  0  0  0  0  0  0  0  0  0  0
    1.0572   -5.9333    0.2254 O   0  0  0  0  0  0  0  0  0  0  0  0
    3.3441   -5.7206   -0.3680 C   0  0  0  0  0  0  0  0  0  0  0  0
    3.5070   -6.7612   -0.0758 H   0  0  0  0  0  0  0  0  0  0  0  0
    3.3014   -5.6598   -1.4573 H   0  0  0  0  0  0  0  0  0  0  0  0
    4.1861   -5.1215   -0.0113 H   0  0  0  0  0  0  0  0  0  0  0  0
    1.9722   -3.9549    0.7835 N   0  0  0  0  0  0  0  0  0  0  0  0
    0.8096   -3.4357    1.5197 C   0  0  2  0  0  0  0  0  0  0  0  0
    0.7434   -1.8985    1.4273 C   0  0  0  0  0  0  0  0  0  0  0  0
    1.3754   -1.2047    2.2144 O   0  0  0  0  0  0  0  0  0  0  0  0
    0.8936   -3.9244    2.9719 C   0  0  0  0  0  0  0  0  0  0  0  0
    2.8174   -3.3758    0.7229 H   0  0  0  0  0  0  0  0  0  0  0  0
   -0.1150   -3.8249    1.0805 H   0  0  0  0  0  0  0  0  0  0  0  0
    1.8252   -3.5895    3.4391 H   0  0  0  0  0  0  0  0  0  0  0  0
    0.0526   -3.5343    3.5532 H   0  0  0  0  0  0  0  0  0  0  0  0
    0.8611   -5.0177    3.0077 H   0  0  0  0  0  0  0  0  0  0  0  0
    0.2053   -1.3080    0.2950 N   0  0  0  0  0  0  0  0  0  0  0  0
    0.1283    0.1423    0.0077 C   0  0  2  0  0  0  0  0  0  0  0  0
    1.4424    0.4624   -0.7214 C   0  0  0  0  0  0  0  0  0  0  0  0
    1.5027    0.4787   -1.9466 O   0  0  0  0  0  0  0  0  0  0  0  0
   -0.2224    1.1029    1.1846 C   0  0  2  0  0  0  0  0  0  0  0  0
   -1.6408    0.7726    1.7043 C   0  0  0  0  0  0  0  0  0  0  0  0
   -0.1725    2.5669    0.7016 C   0  0  0  0  0  0  0  0  0  0  0  0
   -1.9720    1.4753    3.0245 C   0  0  0  0  0  0  0  0  0  0  0  0
   -0.1388   -1.9498   -0.4155 H   0  0  0  0  0  0  0  0  0  0  0  0
   -0.6667    0.2808   -0.7324 H   0  0  0  0  0  0  0  0  0  0  0  0
    0.4982    1.0058    1.9994 H   0  0  0  0  0  0  0  0  0  0  0  0
   -2.3885    1.0411    0.9505 H   0  0  0  0  0  0  0  0  0  0  0  0
   -1.7205   -0.3053    1.8757 H   0  0  0  0  0  0  0  0  0  0  0  0
   -0.8758    2.7283   -0.1216 H   0  0  0  0  0  0  0  0  0  0  0  0
   -0.4253    3.2547    1.5127 H   0  0  0  0  0  0  0  0  0  0  0  0
    0.8312    2.8315    0.3559 H   0  0  0  0  0  0  0  0  0  0  0  0
   -1.2056    1.2585    3.7753 H   0  0  0  0  0  0  0  0  0  0  0  0
   -2.9352    1.1197    3.4026 H   0  0  0  0  0  0  0  0  0  0  0  0
   -2.0397    2.5581    2.8919 H   0  0  0  0  0  0  0  0  0  0  0  0
    2.5943    0.5179    0.0408 N   0  0  0  0  0  0  0  0  0  0  0  0
    3.8913    0.1323   -0.5260 C   0  0  2  0  0  0  0  0  0  0  0  0
    3.8828   -1.3412   -1.0069 C   0  0  0  0  0  0  0  0  0  0  0  0
    4.1357   -2.2748   -0.2495 O   0  0  0  0  0  0  0  0  0  0  0  0
    4.9576    0.3786    0.5461 C   0  0  0  0  0  0  0  0  0  0  0  0
    2.4323    0.2405    1.0138 H   0  0  0  0  0  0  0  0  0  0  0  0
    4.1201    0.7690   -1.3871 H   0  0  0  0  0  0  0  0  0  0  0  0
    4.7528   -0.2187    1.4410 H   0  0  0  0  0  0  0  0  0  0  0  0
    5.9473    0.1066    0.1662 H   0  0  0  0  0  0  0  0  0  0  0  0
    4.9733    1.4354    0.8296 H   0  0  0  0  0  0  0  0  0  0  0  0
    3.4628   -1.6160   -2.2935 N   0  0  0  0  0  0  0  0  0  0  0  0
    3.2189   -2.9626   -2.7901 C   0  0  0  0  0  0  0  0  0  0  0  0
    2.9719   -0.8431   -2.7497 H   0  0  0  0  0  0  0  0  0  0  0  0
    4.0996   -3.5947   -2.6364 H   0  0  0  0  0  0  0  0  0  0  0  0
    2.3629   -3.4100   -2.2752 H   0  0  0  0  0  0  0  0  0  0  0  0
    3.0030   -2.9339   -3.8625 H   0  0  0  0  0  0  0  0  0  0  0  0
  1  2  2  0  0  0  0
  1  3  1  0  0  0  0
  1  7  1  0  0  0  0
  3  4  1  0  0  0  0
  3  5  1  0  0  0  0
  3  6  1  0  0  0  0
  7  8  1  0  0  0  0
  7 12  1  0  0  0  0
  8  9  1  0  0  0  0
  8 11  1  0  0  0  0
  8 13  1  0  0  0  0
  9 10  2  0  0  0  0
  9 17  1  0  0  0  0
 11 14  1  0  0  0  0
 11 15  1  0  0  0  0
 11 16  1  0  0  0  0
 17 18  1  0  0  0  0
 17 25  1  0  0  0  0
 18 19  1  0  0  0  0
 18 21  1  0  0  0  0
 18 26  1  0  0  0  0
 19 20  2  0  0  0  0
 19 36  1  0  0  0  0
 21 22  1  0  0  0  0
 21 23  1  0  0  0  0
 21 27  1  0  0  0  0
 22 24  1  0  0  0  0
 22 28  1  0  0  0  0
 22 29  1  0  0  0  0
 23 30  1  0  0  0  0
 23 31  1  0  0  0  0
 23 32  1  0  0  0  0
 24 33  1  0  0  0  0
 24 34  1  0  0  0  0
 24 35  1  0  0  0  0
 36 37  1  0  0  0  0
 36 41  1  0  0  0  0
 37 38  1  0  0  0  0
 37 40  1  0  0  0  0
 37 42  1  0  0  0  0
 38 39  2  0  0  0  0
 38 46  1  0  0  0  0
 40 43  1  0  0  0  0
 40 44  1  0  0  0  0
 40 45  1  0  0  0  0
 46 47  1  0  0  0  0
 46 48  1  0  0  0  0
 47 49  1  0  0  0  0
 47 50  1  0  0  0  0
 47 51  1  0  0  0  0
M  END
$$$$

  -OEChem-05262216503D

 51 50  0     1  0  0  0  0  0999 V2000
    0.6770   -4.6180   -0.0215 C   0  0  0  0  0  0  0  0  0  0  0  0
   -0.5324   -4.4598    0.0673 O   0  0  0  0  0  0  0  0  0  0  0  0
    1.2848   -5.0810   -1.3306 C   0  0  0  0  0  0  0  0  0  0  0  0
    0.5760   -5.7132   -1.8716 H   0  0  0  0  0  0  0  0  0  0  0  0
    1.5325   -4.2136   -1.9471 H   0  0  0  0  0  0  0  0  0  0  0  0
    2.1952   -5.6546   -1.1407 H   0  0  0  0  0  0  0  0  0  0  0  0
    1.4890   -4.2266    1.0217 N   0  0  0  0  0  0  0  0  0  0  0  0
    0.9793   -3.5433    2.2229 C   0  0  2  0  0  0  0  0  0  0  0  0
    0.7925   -2.0317    1.9554 C   0  0  0  0  0  0  0  0  0  0  0  0
    1.4710   -1.1984    2.5435 O   0  0  0  0  0  0  0  0  0  0  0  0
    1.9583   -3.8396    3.3655 C   0  0  0  0  0  0  0  0  0  0  0  0
    2.4520   -4.0125    0.7426 H   0  0  0  0  0  0  0  0  0  0  0  0
    0.0026   -3.9510    2.5045 H   0  0  0  0  0  0  0  0  0  0  0  0
    2.9563   -3.4580    3.1263 H   0  0  0  0  0  0  0  0  0  0  0  0
    1.6175   -3.3645    4.2908 H   0  0  0  0  0  0  0  0  0  0  0  0
    2.0284   -4.9182    3.5354 H   0  0  0  0  0  0  0  0  0  0  0  0
    0.1004   -1.6636    0.8153 N   0  0  0  0  0  0  0  0  0  0  0  0
   -0.0866   -0.3140    0.2428 C   0  0  2  0  0  0  0  0  0  0  0  0
    1.1016   -0.1027   -0.7128 C   0  0  0  0  0  0  0  0  0  0  0  0
    0.9470   -0.0295   -1.9258 O   0  0  0  0  0  0  0  0  0  0  0  0
   -0.3083    0.8566    1.2452 C   0  0  2  0  0  0  0  0  0  0  0  0
   -1.6168    0.6150    2.0318 C   0  0  0  0  0  0  0  0  0  0  0  0
   -0.3968    2.1945    0.4837 C   0  0  0  0  0  0  0  0  0  0  0  0
   -1.7821    1.5658    3.2210 C   0  0  0  0  0  0  0  0  0  0  0  0
   -0.3495   -2.4463    0.3319 H   0  0  0  0  0  0  0  0  0  0  0  0
   -0.9819   -0.3520   -0.3863 H   0  0  0  0  0  0  0  0  0  0  0  0
    0.5308    0.9321    1.9406 H   0  0  0  0  0  0  0  0  0  0  0  0
   -2.4780    0.7138    1.3631 H   0  0  0  0  0  0  0  0  0  0  0  0
   -1.6212   -0.4068    2.4229 H   0  0  0  0  0  0  0  0  0  0  0  0
   -1.2180    2.1730   -0.2400 H   0  0  0  0  0  0  0  0  0  0  0  0
   -0.5623    3.0266    1.1725 H   0  0  0  0  0  0  0  0  0  0  0  0
    0.5335    2.4017   -0.0537 H   0  0  0  0  0  0  0  0  0  0  0  0
   -0.9028    1.5195    3.8714 H   0  0  0  0  0  0  0  0  0  0  0  0
   -2.6596    1.2769    3.8071 H   0  0  0  0  0  0  0  0  0  0  0  0
   -1.9213    2.5981    2.8886 H   0  0  0  0  0  0  0  0  0  0  0  0
    2.3738   -0.1566   -0.1765 N   0  0  0  0  0  0  0  0  0  0  0  0
    3.5713   -0.4125   -0.9808 C   0  0  2  0  0  0  0  0  0  0  0  0
    3.8063   -1.9159   -1.2558 C   0  0  0  0  0  0  0  0  0  0  0  0
    3.5223   -2.7730   -0.4216 O   0  0  0  0  0  0  0  0  0  0  0  0
    4.7620    0.1813   -0.2264 C   0  0  0  0  0  0  0  0  0  0  0  0
    2.3942   -0.4351    0.8090 H   0  0  0  0  0  0  0  0  0  0  0  0
    3.4802    0.1013   -1.9434 H   0  0  0  0  0  0  0  0  0  0  0  0
    4.8886   -0.3153    0.7414 H   0  0  0  0  0  0  0  0  0  0  0  0
    5.6824    0.0560   -0.8048 H   0  0  0  0  0  0  0  0  0  0  0  0
    4.6051    1.2504   -0.0516 H   0  0  0  0  0  0  0  0  0  0  0  0
    4.4009   -2.3098   -2.4405 N   0  0  0  0  0  0  0  0  0  0  0  0
    4.6682   -3.6988   -2.7934 C   0  0  0  0  0  0  0  0  0  0  0  0
    4.5530   -1.5905   -3.1422 H   0  0  0  0  0  0  0  0  0  0  0  0
    5.1748   -4.2171   -1.9724 H   0  0  0  0  0  0  0  0  0  0  0  0
    3.7350   -4.2233   -3.0201 H   0  0  0  0  0  0  0  0  0  0  0  0
    5.3150   -3.7444   -3.6748 H   0  0  0  0  0  0  0  0  0  0  0  0
  1  2  2  0  0  0  0
  1  3  1  0  0  0  0
  1  7  1  0  0  0  0
  3  4  1  0  0  0  0
  3  5  1  0  0  0  0
  3  6  1  0  0  0  0
  7  8  1  0  0  0  0
  7 12  1  0  0  0  0
  8  9  1  0  0  0  0
  8 11  1  0  0  0  0
  8 13  1  0  0  0  0
  9 10  2  0  0  0  0
  9 17  1  0  0  0  0
 11 14  1  0  0  0  0
 11 15  1  0  0  0  0
 11 16  1  0  0  0  0
 17 18  1  0  0  0  0
 17 25  1  0  0  0  0
 18 19  1  0  0  0  0
 18 21  1  0  0  0  0
 18 26  1  0  0  0  0
 19 20  2  0  0  0  0
 19 36  1  0  0  0  0
 21 22  1  0  0  0  0
 21 23  1  0  0  0  0
 21 27  1  0  0  0  0
 22 24  1  0  0  0  0
 22 28  1  0  0  0  0
 22 29  1  0  0  0  0
 23 30  1  0  0  0  0
 23 31  1  0  0  0  0
 23 32  1  0  0  0  0
 24 33  1  0  0  0  0
 24 34  1  0  0  0  0
 24 35  1  0  0  0  0
 36 37  1  0  0  0  0
 36 41  1  0  0  0  0
 37 38  1  0  0  0  0
 37 40  1  0  0  0  0
 37 42  1  0  0  0  0
 38 39  2  0  0  0  0
 38 46  1  0  0  0  0
 40 43  1  0  0  0  0
 40 44  1  0  0  0  0
 40 45  1  0  0  0  0
 46 47  1  0  0  0  0
 46 48  1  0  0  0  0
 47 49  1  0  0  0  0
 47 50  1  0  0  0  0
 47 51  1  0  0  0  0
M  END
$$$$

  -OEChem-05262216503D

 51 50  0     1  0  0  0  0  0999 V2000
    1.0175   -4.8135    0.0522 C   0  0  0  0  0  0  0  0  0  0  0  0
   -0.1161   -4.4114   -0.1729 O   0  0  0  0  0  0  0  0  0  0  0  0
    1.6764   -5.8180   -0.8750 C   0  0  0  0  0  0  0  0  0  0  0  0
    1.0787   -5.9439   -1.7816 H   0  0  0  0  0  0  0  0  0  0  0  0
    2.6748   -5.4759   -1.1557 H   0  0  0  0  0  0  0  0  0  0  0  0
    1.7635   -6.7845   -0.3728 H   0  0  0  0  0  0  0  0  0  0  0  0
    1.6766   -4.3670    1.1778 N   0  0  0  0  0  0  0  0  0  0  0  0
    1.0689   -3.5037    2.2043 C   0  0  2  0  0  0  0  0  0  0  0  0
    1.0483   -2.0131    1.7915 C   0  0  0  0  0  0  0  0  0  0  0  0
    1.7013   -1.1766    2.4036 O   0  0  0  0  0  0  0  0  0  0  0  0
    1.8314   -3.7526    3.5119 C   0  0  0  0  0  0  0  0  0  0  0  0
    2.6842   -4.5161    1.1982 H   0  0  0  0  0  0  0  0  0  0  0  0
    0.0283   -3.8053    2.3647 H   0  0  0  0  0  0  0  0  0  0  0  0
    2.8835   -3.4684    3.4053 H   0  0  0  0  0  0  0  0  0  0  0  0
    1.3944   -3.1641    4.3249 H   0  0  0  0  0  0  0  0  0  0  0  0
    1.7808   -4.8106    3.7867 H   0  0  0  0  0  0  0  0  0  0  0  0
    0.4888   -1.6616    0.5763 N   0  0  0  0  0  0  0  0  0  0  0  0
    0.2683   -0.3037    0.0218 C   0  0  2  0  0  0  0  0  0  0  0  0
    1.5390    0.0770   -0.7645 C   0  0  0  0  0  0  0  0  0  0  0  0
    1.4903    0.3040   -1.9694 O   0  0  0  0  0  0  0  0  0  0  0  0
   -0.1958    0.7801    1.0391 C   0  0  2  0  0  0  0  0  0  0  0  0
   -1.5748    0.3834    1.6170 C   0  0  0  0  0  0  0  0  0  0  0  0
   -0.2970    2.1547    0.3470 C   0  0  0  0  0  0  0  0  0  0  0  0
   -1.9910    1.2407    2.8160 C   0  0  0  0  0  0  0  0  0  0  0  0
    0.0627   -2.4482    0.0757 H   0  0  0  0  0  0  0  0  0  0  0  0
   -0.5314   -0.3871   -0.7216 H   0  0  0  0  0  0  0  0  0  0  0  0
    0.5286    0.8748    1.8516 H   0  0  0  0  0  0  0  0  0  0  0  0
   -2.3398    0.4523    0.8366 H   0  0  0  0  0  0  0  0  0  0  0  0
   -1.5430   -0.6572    1.9527 H   0  0  0  0  0  0  0  0  0  0  0  0
   -1.0022    2.1143   -0.4895 H   0  0  0  0  0  0  0  0  0  0  0  0
   -0.6334    2.9229    1.0480 H   0  0  0  0  0  0  0  0  0  0  0  0
    0.6773    2.4735   -0.0355 H   0  0  0  0  0  0  0  0  0  0  0  0
   -1.2097    1.2304    3.5824 H   0  0  0  0  0  0  0  0  0  0  0  0
   -2.9105    0.8416    3.2549 H   0  0  0  0  0  0  0  0  0  0  0  0
   -2.1799    2.2755    2.5184 H   0  0  0  0  0  0  0  0  0  0  0  0
    2.7601   -0.1798   -0.1689 N   0  0  0  0  0  0  0  0  0  0  0  0
    3.9082   -0.6800   -0.9291 C   0  0  2  0  0  0  0  0  0  0  0  0
    3.5996   -2.0647   -1.5491 C   0  0  0  0  0  0  0  0  0  0  0  0
    3.8509   -3.1113   -0.9568 O   0  0  0  0  0  0  0  0  0  0  0  0
    5.1089   -0.7236    0.0219 C   0  0  0  0  0  0  0  0  0  0  0  0
    2.6708   -0.5058    0.7985 H   0  0  0  0  0  0  0  0  0  0  0  0
    4.1419    0.0134   -1.7439 H   0  0  0  0  0  0  0  0  0  0  0  0
    4.9045   -1.3817    0.8729 H   0  0  0  0  0  0  0  0  0  0  0  0
    5.9940   -1.0972   -0.5018 H   0  0  0  0  0  0  0  0  0  0  0  0
    5.3282    0.2785    0.4027 H   0  0  0  0  0  0  0  0  0  0  0  0
    2.9330   -2.1069   -2.7583 N   0  0  0  0  0  0  0  0  0  0  0  0
    2.4065   -3.3266   -3.3534 C   0  0  0  0  0  0  0  0  0  0  0  0
    2.5087   -1.2181   -3.0362 H   0  0  0  0  0  0  0  0  0  0  0  0
    3.1512   -4.1288   -3.3222 H   0  0  0  0  0  0  0  0  0  0  0  0
    1.5085   -3.6524   -2.8202 H   0  0  0  0  0  0  0  0  0  0  0  0
    2.1432   -3.1485   -4.4004 H   0  0  0  0  0  0  0  0  0  0  0  0
  1  2  2  0  0  0  0
  1  3  1  0  0  0  0
  1  7  1  0  0  0  0
  3  4  1  0  0  0  0
  3  5  1  0  0  0  0
  3  6  1  0  0  0  0
  7  8  1  0  0  0  0
  7 12  1  0  0  0  0
  8  9  1  0  0  0  0
  8 11  1  0  0  0  0
  8 13  1  0  0  0  0
  9 10  2  0  0  0  0
  9 17  1  0  0  0  0
 11 14  1  0  0  0  0
 11 15  1  0  0  0  0
 11 16  1  0  0  0  0
 17 18  1  0  0  0  0
 17 25  1  0  0  0  0
 18 19  1  0  0  0  0
 18 21  1  0  0  0  0
 18 26  1  0  0  0  0
 19 20  2  0  0  0  0
 19 36  1  0  0  0  0
 21 22  1  0  0  0  0
 21 23  1  0  0  0  0
 21 27  1  0  0  0  0
 22 24  1  0  0  0  0
 22 28  1  0  0  0  0
 22 29  1  0  0  0  0
 23 30  1  0  0  0  0
 23 31  1  0  0  0  0
 23 32  1  0  0  0  0
 24 33  1  0  0  0  0
 24 34  1  0  0  0  0
 24 35  1  0  0  0  0
 36 37  1  0  0  0  0
 36 41  1  0  0  0  0
 37 38  1  0  0  0  0
 37 40  1  0  0  0  0
 37 42  1  0  0  0  0
 38 39  2  0  0  0  0
 38 46  1  0  0  0  0
 40 43  1  0  0  0  0
 40 44  1  0  0  0  0
 40 45  1  0  0  0  0
 46 47  1  0  0  0  0
 46 48  1  0  0  0  0
 47 49  1  0  0  0  0
 47 50  1  0  0  0  0
 47 51  1  0  0  0  0
M  END
$$$$

  -OEChem-05262216503D

 51 50  0     1  0  0  0  0  0999 V2000
    0.2892   -4.7809    0.1402 C   0  0  0  0  0  0  0  0  0  0  0  0
   -0.8585   -4.3761    0.2568 O   0  0  0  0  0  0  0  0  0  0  0  0
    0.6782   -5.6068   -1.0712 C   0  0  0  0  0  0  0  0  0  0  0  0
    0.2674   -5.1534   -1.9767 H   0  0  0  0  0  0  0  0  0  0  0  0
    1.7653   -5.6584   -1.1663 H   0  0  0  0  0  0  0  0  0  0  0  0
    0.2860   -6.6215   -0.9682 H   0  0  0  0  0  0  0  0  0  0  0  0
    1.2289   -4.4151    1.0812 N   0  0  0  0  0  0  0  0  0  0  0  0
    0.9232   -3.5710    2.2511 C   0  0  2  0  0  0  0  0  0  0  0  0
    0.9017   -2.0663    1.8897 C   0  0  0  0  0  0  0  0  0  0  0  0
    1.6524   -1.2704    2.4375 O   0  0  0  0  0  0  0  0  0  0  0  0
    1.9516   -3.9153    3.3356 C   0  0  0  0  0  0  0  0  0  0  0  0
    2.1953   -4.4355    0.7488 H   0  0  0  0  0  0  0  0  0  0  0  0
   -0.0688   -3.8235    2.6404 H   0  0  0  0  0  0  0  0  0  0  0  0
    2.9636   -3.6706    2.9974 H   0  0  0  0  0  0  0  0  0  0  0  0
    1.7448   -3.3497    4.2497 H   0  0  0  0  0  0  0  0  0  0  0  0
    1.9109   -4.9826    3.5740 H   0  0  0  0  0  0  0  0  0  0  0  0
    0.2674   -1.6871    0.7222 N   0  0  0  0  0  0  0  0  0  0  0  0
    0.0666   -0.3307    0.1602 C   0  0  2  0  0  0  0  0  0  0  0  0
    1.2800   -0.0022   -0.7403 C   0  0  0  0  0  0  0  0  0  0  0  0
    1.1112    0.4650   -1.8605 O   0  0  0  0  0  0  0  0  0  0  0  0
   -0.2649    0.7761    1.2060 C   0  0  2  0  0  0  0  0  0  0  0  0
   -1.6090    0.4427    1.8969 C   0  0  0  0  0  0  0  0  0  0  0  0
   -0.3598    2.1566    0.5250 C   0  0  0  0  0  0  0  0  0  0  0  0
   -1.8885    1.3203    3.1204 C   0  0  0  0  0  0  0  0  0  0  0  0
   -0.2845   -2.4413    0.3041 H   0  0  0  0  0  0  0  0  0  0  0  0
   -0.7952   -0.3864   -0.5132 H   0  0  0  0  0  0  0  0  0  0  0  0
    0.5279    0.8353    1.9561 H   0  0  0  0  0  0  0  0  0  0  0  0
   -2.4314    0.5428    1.1809 H   0  0  0  0  0  0  0  0  0  0  0  0
   -1.5964   -0.5972    2.2363 H   0  0  0  0  0  0  0  0  0  0  0  0
   -1.1248    2.1481   -0.2581 H   0  0  0  0  0  0  0  0  0  0  0  0
   -0.6115    2.9359    1.2484 H   0  0  0  0  0  0  0  0  0  0  0  0
    0.5964    2.4365    0.0733 H   0  0  0  0  0  0  0  0  0  0  0  0
   -1.0466    1.2810    3.8187 H   0  0  0  0  0  0  0  0  0  0  0  0
   -2.7836    0.9616    3.6376 H   0  0  0  0  0  0  0  0  0  0  0  0
   -2.0599    2.3608    2.8317 H   0  0  0  0  0  0  0  0  0  0  0  0
    2.5060   -0.5569   -0.4229 N   0  0  0  0  0  0  0  0  0  0  0  0
    3.5046   -0.9666   -1.4120 C   0  0  2  0  0  0  0  0  0  0  0  0
    3.3121   -2.4417   -1.8243 C   0  0  0  0  0  0  0  0  0  0  0  0
    3.1066   -3.3111   -0.9786 O   0  0  0  0  0  0  0  0  0  0  0  0
    4.8896   -0.7557   -0.7977 C   0  0  0  0  0  0  0  0  0  0  0  0
    2.5177   -1.0326    0.4819 H   0  0  0  0  0  0  0  0  0  0  0  0
    3.4282   -0.3416   -2.3075 H   0  0  0  0  0  0  0  0  0  0  0  0
    5.0068   -1.3658    0.1040 H   0  0  0  0  0  0  0  0  0  0  0  0
    5.6699   -1.0361   -1.5119 H   0  0  0  0  0  0  0  0  0  0  0  0
    5.0282    0.2958   -0.5272 H   0  0  0  0  0  0  0  0  0  0  0  0
    3.3938   -2.7994   -3.1572 N   0  0  0  0  0  0  0  0  0  0  0  0
    3.1539   -4.1508   -3.6465 C   0  0  0  0  0  0  0  0  0  0  0  0
    3.4544   -2.0417   -3.8328 H   0  0  0  0  0  0  0  0  0  0  0  0
    3.7583   -4.8765   -3.0920 H   0  0  0  0  0  0  0  0  0  0  0  0
    2.0970   -4.4134   -3.5388 H   0  0  0  0  0  0  0  0  0  0  0  0
    3.4225   -4.2208   -4.7049 H   0  0  0  0  0  0  0  0  0  0  0  0
  1  2  2  0  0  0  0
  1  3  1  0  0  0  0
  1  7  1  0  0  0  0
  3  4  1  0  0  0  0
  3  5  1  0  0  0  0
  3  6  1  0  0  0  0
  7  8  1  0  0  0  0
  7 12  1  0  0  0  0
  8  9  1  0  0  0  0
  8 11  1  0  0  0  0
  8 13  1  0  0  0  0
  9 10  2  0  0  0  0
  9 17  1  0  0  0  0
 11 14  1  0  0  0  0
 11 15  1  0  0  0  0
 11 16  1  0  0  0  0
 17 18  1  0  0  0  0
 17 25  1  0  0  0  0
 18 19  1  0  0  0  0
 18 21  1  0  0  0  0
 18 26  1  0  0  0  0
 19 20  2  0  0  0  0
 19 36  1  0  0  0  0
 21 22  1  0  0  0  0
 21 23  1  0  0  0  0
 21 27  1  0  0  0  0
 22 24  1  0  0  0  0
 22 28  1  0  0  0  0
 22 29  1  0  0  0  0
 23 30  1  0  0  0  0
 23 31  1  0  0  0  0
 23 32  1  0  0  0  0
 24 33  1  0  0  0  0
 24 34  1  0  0  0  0
 24 35  1  0  0  0  0
 36 37  1  0  0  0  0
 36 41  1  0  0  0  0
 37 38  1  0  0  0  0
 37 40  1  0  0  0  0
 37 42  1  0  0  0  0
 38 39  2  0  0  0  0
 38 46  1  0  0  0  0
 40 43  1  0  0  0  0
 40 44  1  0  0  0  0
 40 45  1  0  0  0  0
 46 47  1  0  0  0  0
 46 48  1  0  0  0  0
 47 49  1  0  0  0  0
 47 50  1  0  0  0  0
 47 51  1  0  0  0  0
M  END
$$$$

  -OEChem-05262216503D

 51 50  0     1  0  0  0  0  0999 V2000
   -0.1101   -4.7364    0.0764 C   0  0  0  0  0  0  0  0  0  0  0  0
   -1.2291   -4.3677    0.4029 O   0  0  0  0  0  0  0  0  0  0  0  0
    0.1050   -5.4017   -1.2695 C   0  0  0  0  0  0  0  0  0  0  0  0
   -0.7968   -5.9425   -1.5689 H   0  0  0  0  0  0  0  0  0  0  0  0
    0.3356   -4.6463   -2.0245 H   0  0  0  0  0  0  0  0  0  0  0  0
    0.9358   -6.1091   -1.2108 H   0  0  0  0  0  0  0  0  0  0  0  0
    0.9608   -4.4261    0.8882 N   0  0  0  0  0  0  0  0  0  0  0  0
    0.8390   -3.6779    2.1543 C   0  0  2  0  0  0  0  0  0  0  0  0
    0.7595   -2.1509    1.9123 C   0  0  0  0  0  0  0  0  0  0  0  0
    1.6064   -1.3987    2.3704 O   0  0  0  0  0  0  0  0  0  0  0  0
    2.0255   -4.0893    3.0350 C   0  0  0  0  0  0  0  0  0  0  0  0
    1.8747   -4.4465    0.4263 H   0  0  0  0  0  0  0  0  0  0  0  0
   -0.0798   -3.9715    2.6733 H   0  0  0  0  0  0  0  0  0  0  0  0
    2.9724   -3.8149    2.5587 H   0  0  0  0  0  0  0  0  0  0  0  0
    1.9691   -3.5894    4.0072 H   0  0  0  0  0  0  0  0  0  0  0  0
    2.0187   -5.1707    3.2019 H   0  0  0  0  0  0  0  0  0  0  0  0
   -0.0761   -1.7131    0.9002 N   0  0  0  0  0  0  0  0  0  0  0  0
   -0.2617   -0.3525    0.3366 C   0  0  2  0  0  0  0  0  0  0  0  0
    0.7461   -0.1754   -0.8293 C   0  0  0  0  0  0  0  0  0  0  0  0
    0.4871    0.5386   -1.7904 O   0  0  0  0  0  0  0  0  0  0  0  0
   -0.2530    0.7982    1.3917 C   0  0  2  0  0  0  0  0  0  0  0  0
   -1.4462    0.6065    2.3601 C   0  0  0  0  0  0  0  0  0  0  0  0
   -0.3572    2.1787    0.7134 C   0  0  0  0  0  0  0  0  0  0  0  0
   -1.3818    1.5188    3.5887 C   0  0  0  0  0  0  0  0  0  0  0  0
   -0.7095   -2.4417    0.5583 H   0  0  0  0  0  0  0  0  0  0  0  0
   -1.2514   -0.3303   -0.1306 H   0  0  0  0  0  0  0  0  0  0  0  0
    0.6829    0.7879    1.9549 H   0  0  0  0  0  0  0  0  0  0  0  0
   -2.3885    0.7779    1.8292 H   0  0  0  0  0  0  0  0  0  0  0  0
   -1.4587   -0.4256    2.7223 H   0  0  0  0  0  0  0  0  0  0  0  0
   -1.2525    2.2345    0.0861 H   0  0  0  0  0  0  0  0  0  0  0  0
   -0.4013    2.9803    1.4544 H   0  0  0  0  0  0  0  0  0  0  0  0
    0.5197    2.3714    0.0890 H   0  0  0  0  0  0  0  0  0  0  0  0
   -0.4152    1.4147    4.0914 H   0  0  0  0  0  0  0  0  0  0  0  0
   -2.1703    1.2433    4.2955 H   0  0  0  0  0  0  0  0  0  0  0  0
   -1.5266    2.5668    3.3139 H   0  0  0  0  0  0  0  0  0  0  0  0
    1.7947   -1.0690   -0.9416 N   0  0  0  0  0  0  0  0  0  0  0  0
    2.5792   -1.3598   -2.1423 C   0  0  2  0  0  0  0  0  0  0  0  0
    3.0036   -2.8462   -2.1828 C   0  0  0  0  0  0  0  0  0  0  0  0
    2.8216   -3.5834   -1.2141 O   0  0  0  0  0  0  0  0  0  0  0  0
    3.8026   -0.4397   -2.1458 C   0  0  0  0  0  0  0  0  0  0  0  0
    1.9276   -1.6806   -0.1366 H   0  0  0  0  0  0  0  0  0  0  0  0
    1.9756   -1.1616   -3.0344 H   0  0  0  0  0  0  0  0  0  0  0  0
    4.4280   -0.6311   -1.2678 H   0  0  0  0  0  0  0  0  0  0  0  0
    4.4040   -0.5995   -3.0454 H   0  0  0  0  0  0  0  0  0  0  0  0
    3.4857    0.6082   -2.1251 H   0  0  0  0  0  0  0  0  0  0  0  0
    3.5683   -3.3797   -3.3263 N   0  0  0  0  0  0  0  0  0  0  0  0
    4.0057   -4.7662   -3.4373 C   0  0  0  0  0  0  0  0  0  0  0  0
    3.7142   -2.7536   -4.1137 H   0  0  0  0  0  0  0  0  0  0  0  0
    4.7523   -4.9963   -2.6696 H   0  0  0  0  0  0  0  0  0  0  0  0
    3.1563   -5.4469   -3.3187 H   0  0  0  0  0  0  0  0  0  0  0  0
    4.4559   -4.9429   -4.4190 H   0  0  0  0  0  0  0  0  0  0  0  0
  1  2  2  0  0  0  0
  1  3  1  0  0  0  0
  1  7  1  0  0  0  0
  3  4  1  0  0  0  0
  3  5  1  0  0  0  0
  3  6  1  0  0  0  0
  7  8  1  0  0  0  0
  7 12  1  0  0  0  0
  8  9  1  0  0  0  0
  8 11  1  0  0  0  0
  8 13  1  0  0  0  0
  9 10  2  0  0  0  0
  9 17  1  0  0  0  0
 11 14  1  0  0  0  0
 11 15  1  0  0  0  0
 11 16  1  0  0  0  0
 17 18  1  0  0  0  0
 17 25  1  0  0  0  0
 18 19  1  0  0  0  0
 18 21  1  0  0  0  0
 18 26  1  0  0  0  0
 19 20  2  0  0  0  0
 19 36  1  0  0  0  0
 21 22  1  0  0  0  0
 21 23  1  0  0  0  0
 21 27  1  0  0  0  0
 22 24  1  0  0  0  0
 22 28  1  0  0  0  0
 22 29  1  0  0  0  0
 23 30  1  0  0  0  0
 23 31  1  0  0  0  0
 23 32  1  0  0  0  0
 24 33  1  0  0  0  0
 24 34  1  0  0  0  0
 24 35  1  0  0  0  0
 36 37  1  0  0  0  0
 36 41  1  0  0  0  0
 37 38  1  0  0  0  0
 37 40  1  0  0  0  0
 37 42  1  0  0  0  0
 38 39  2  0  0  0  0
 38 46  1  0  0  0  0
 40 43  1  0  0  0  0
 40 44  1  0  0  0  0
 40 45  1  0  0  0  0
 46 47  1  0  0  0  0
 46 48  1  0  0  0  0
 47 49  1  0  0  0  0
 47 50  1  0  0  0  0
 47 51  1  0  0  0  0
M  END
$$$$

  -OEChem-05262216503D

 51 50  0     1  0  0  0  0  0999 V2000
    2.3627   -4.7113    0.7224 C   0  0  0  0  0  0  0  0  0  0  0  0
    2.4281   -4.0872   -0.3269 O   0  0  0  0  0  0  0  0  0  0  0  0
    3.6059   -5.3570    1.3028 C   0  0  0  0  0  0  0  0  0  0  0  0
    4.4485   -5.2386    0.6158 H   0  0  0  0  0  0  0  0  0  0  0  0
    3.8595   -4.8855    2.2556 H   0  0  0  0  0  0  0  0  0  0  0  0
    3.4316   -6.4233    1.4655 H   0  0  0  0  0  0  0  0  0  0  0  0
    1.1667   -4.7811    1.4066 N   0  0  0  0  0  0  0  0  0  0  0  0
    0.0274   -3.9327    1.0319 C   0  0  2  0  0  0  0  0  0  0  0  0
    0.2973   -2.4419    1.3303 C   0  0  0  0  0  0  0  0  0  0  0  0
    0.9022   -2.1415    2.3501 O   0  0  0  0  0  0  0  0  0  0  0  0
   -1.2066   -4.4164    1.7952 C   0  0  0  0  0  0  0  0  0  0  0  0
    1.2336   -5.0694    2.3785 H   0  0  0  0  0  0  0  0  0  0  0  0
   -0.1664   -4.0413   -0.0415 H   0  0  0  0  0  0  0  0  0  0  0  0
   -1.0560   -4.3122    2.8746 H   0  0  0  0  0  0  0  0  0  0  0  0
   -2.0843   -3.8282    1.5092 H   0  0  0  0  0  0  0  0  0  0  0  0
   -1.4063   -5.4683    1.5681 H   0  0  0  0  0  0  0  0  0  0  0  0
   -0.0557   -1.5056    0.3740 N   0  0  0  0  0  0  0  0  0  0  0  0
    0.3106   -0.0702    0.2657 C   0  0  2  0  0  0  0  0  0  0  0  0
    1.6210    0.0551   -0.5607 C   0  0  0  0  0  0  0  0  0  0  0  0
    1.8400    1.0977   -1.1671 O   0  0  0  0  0  0  0  0  0  0  0  0
    0.3172    0.7082    1.6242 C   0  0  2  0  0  0  0  0  0  0  0  0
   -1.1173    0.7055    2.2095 C   0  0  0  0  0  0  0  0  0  0  0  0
    0.7863    2.1672    1.4478 C   0  0  0  0  0  0  0  0  0  0  0  0
   -1.1849    1.2016    3.6575 C   0  0  0  0  0  0  0  0  0  0  0  0
   -0.3506   -1.9282   -0.5130 H   0  0  0  0  0  0  0  0  0  0  0  0
   -0.4598    0.4036   -0.3508 H   0  0  0  0  0  0  0  0  0  0  0  0
    1.0091    0.2403    2.3272 H   0  0  0  0  0  0  0  0  0  0  0  0
   -1.7757    1.3169    1.5840 H   0  0  0  0  0  0  0  0  0  0  0  0
   -1.5113   -0.3148    2.1982 H   0  0  0  0  0  0  0  0  0  0  0  0
    0.1829    2.6784    0.6909 H   0  0  0  0  0  0  0  0  0  0  0  0
    0.7132    2.7246    2.3842 H   0  0  0  0  0  0  0  0  0  0  0  0
    1.8359    2.2026    1.1426 H   0  0  0  0  0  0  0  0  0  0  0  0
   -0.4734    0.6523    4.2820 H   0  0  0  0  0  0  0  0  0  0  0  0
   -2.1905    1.0409    4.0572 H   0  0  0  0  0  0  0  0  0  0  0  0
   -0.9632    2.2698    3.7243 H   0  0  0  0  0  0  0  0  0  0  0  0
    2.2334   -1.0900   -1.0461 N   0  0  0  0  0  0  0  0  0  0  0  0
    2.3794   -1.3252   -2.4887 C   0  0  2  0  0  0  0  0  0  0  0  0
    1.2287   -2.2161   -3.0247 C   0  0  0  0  0  0  0  0  0  0  0  0
    0.2151   -2.4160   -2.3538 O   0  0  0  0  0  0  0  0  0  0  0  0
    3.7567   -1.9547   -2.7206 C   0  0  0  0  0  0  0  0  0  0  0  0
    1.9998   -1.9315   -0.5163 H   0  0  0  0  0  0  0  0  0  0  0  0
    2.3448   -0.3812   -3.0422 H   0  0  0  0  0  0  0  0  0  0  0  0
    3.8128   -2.9449   -2.2592 H   0  0  0  0  0  0  0  0  0  0  0  0
    3.9602   -2.0563   -3.7902 H   0  0  0  0  0  0  0  0  0  0  0  0
    4.5362   -1.3233   -2.2822 H   0  0  0  0  0  0  0  0  0  0  0  0
    1.2933   -2.7589   -4.2951 N   0  0  0  0  0  0  0  0  0  0  0  0
    0.2598   -3.6226   -4.8527 C   0  0  0  0  0  0  0  0  0  0  0  0
    2.1481   -2.6102   -4.8228 H   0  0  0  0  0  0  0  0  0  0  0  0
    0.5380   -3.9428   -5.8612 H   0  0  0  0  0  0  0  0  0  0  0  0
    0.1292   -4.5141   -4.2303 H   0  0  0  0  0  0  0  0  0  0  0  0
   -0.6949   -3.0896   -4.9104 H   0  0  0  0  0  0  0  0  0  0  0  0
  1  2  2  0  0  0  0
  1  3  1  0  0  0  0
  1  7  1  0  0  0  0
  3  4  1  0  0  0  0
  3  5  1  0  0  0  0
  3  6  1  0  0  0  0
  7  8  1  0  0  0  0
  7 12  1  0  0  0  0
  8  9  1  0  0  0  0
  8 11  1  0  0  0  0
  8 13  1  0  0  0  0
  9 10  2  0  0  0  0
  9 17  1  0  0  0  0
 11 14  1  0  0  0  0
 11 15  1  0  0  0  0
 11 16  1  0  0  0  0
 17 18  1  0  0  0  0
 17 25  1  0  0  0  0
 18 19  1  0  0  0  0
 18 21  1  0  0  0  0
 18 26  1  0  0  0  0
 19 20  2  0  0  0  0
 19 36  1  0  0  0  0
 21 22  1  0  0  0  0
 21 23  1  0  0  0  0
 21 27  1  0  0  0  0
 22 24  1  0  0  0  0
 22 28  1  0  0  0  0
 22 29  1  0  0  0  0
 23 30  1  0  0  0  0
 23 31  1  0  0  0  0
 23 32  1  0  0  0  0
 24 33  1  0  0  0  0
 24 34  1  0  0  0  0
 24 35  1  0  0  0  0
 36 37  1  0  0  0  0
 36 41  1  0  0  0  0
 37 38  1  0  0  0  0
 37 40  1  0  0  0  0
 37 42  1  0  0  0  0
 38 39  2  0  0  0  0
 38 46  1  0  0  0  0
 40 43  1  0  0  0  0
 40 44  1  0  0  0  0
 40 45  1  0  0  0  0
 46 47  1  0  0  0  0
 46 48  1  0  0  0  0
 47 49  1  0  0  0  0
 47 50  1  0  0  0  0
 47 51  1  0  0  0  0
M  END
$$$$

  -OEChem-05262216503D

 51 50  0     1  0  0  0  0  0999 V2000
    1.7265   -4.9736    0.6201 C   0  0  0  0  0  0  0  0  0  0  0  0
    1.3218   -4.4390   -0.4021 O   0  0  0  0  0  0  0  0  0  0  0  0
    3.0442   -5.7237    0.6196 C   0  0  0  0  0  0  0  0  0  0  0  0
    3.4580   -5.7596   -0.3921 H   0  0  0  0  0  0  0  0  0  0  0  0
    3.7593   -5.2196    1.2745 H   0  0  0  0  0  0  0  0  0  0  0  0
    2.8925   -6.7462    0.9737 H   0  0  0  0  0  0  0  0  0  0  0  0
    1.0071   -4.8333    1.7890 N   0  0  0  0  0  0  0  0  0  0  0  0
   -0.1286   -3.9072    1.8861 C   0  0  2  0  0  0  0  0  0  0  0  0
    0.3236   -2.4406    1.7160 C   0  0  0  0  0  0  0  0  0  0  0  0
    1.1212   -1.9696    2.5143 O   0  0  0  0  0  0  0  0  0  0  0  0
   -0.8127   -4.1176    3.2399 C   0  0  0  0  0  0  0  0  0  0  0  0
    1.4908   -5.0816    2.6475 H   0  0  0  0  0  0  0  0  0  0  0  0
   -0.8539   -4.1391    1.0986 H   0  0  0  0  0  0  0  0  0  0  0  0
   -0.1167   -3.9155    4.0606 H   0  0  0  0  0  0  0  0  0  0  0  0
   -1.6693   -3.4434    3.3397 H   0  0  0  0  0  0  0  0  0  0  0  0
   -1.1706   -5.1476    3.3296 H   0  0  0  0  0  0  0  0  0  0  0  0
   -0.0752   -1.7475    0.5843 N   0  0  0  0  0  0  0  0  0  0  0  0
    0.2506   -0.3588    0.1743 C   0  0  2  0  0  0  0  0  0  0  0  0
    1.5508   -0.3713   -0.6808 C   0  0  0  0  0  0  0  0  0  0  0  0
    1.9375    0.6469   -1.2437 O   0  0  0  0  0  0  0  0  0  0  0  0
    0.1755    0.6728    1.3568 C   0  0  2  0  0  0  0  0  0  0  0  0
   -1.2844    0.7199    1.8799 C   0  0  0  0  0  0  0  0  0  0  0  0
    0.5993    2.0950    0.9362 C   0  0  0  0  0  0  0  0  0  0  0  0
   -1.4402    1.4832    3.1999 C   0  0  0  0  0  0  0  0  0  0  0  0
   -0.5643   -2.3110   -0.1116 H   0  0  0  0  0  0  0  0  0  0  0  0
   -0.5256   -0.0521   -0.5341 H   0  0  0  0  0  0  0  0  0  0  0  0
    0.8467    0.3756    2.1642 H   0  0  0  0  0  0  0  0  0  0  0  0
   -1.9361    1.1680    1.1228 H   0  0  0  0  0  0  0  0  0  0  0  0
   -1.6409   -0.2990    2.0551 H   0  0  0  0  0  0  0  0  0  0  0  0
    0.0530    2.4132    0.0427 H   0  0  0  0  0  0  0  0  0  0  0  0
    0.4154    2.8200    1.7316 H   0  0  0  0  0  0  0  0  0  0  0  0
    1.6718    2.1310    0.7275 H   0  0  0  0  0  0  0  0  0  0  0  0
   -0.7157    1.1232    3.9372 H   0  0  0  0  0  0  0  0  0  0  0  0
   -2.4466    1.3280    3.6001 H   0  0  0  0  0  0  0  0  0  0  0  0
   -1.2976    2.5577    3.0594 H   0  0  0  0  0  0  0  0  0  0  0  0
    2.0128   -1.5766   -1.1898 N   0  0  0  0  0  0  0  0  0  0  0  0
    2.3706   -1.7105   -2.6080 C   0  0  2  0  0  0  0  0  0  0  0  0
    1.1163   -1.9460   -3.4827 C   0  0  0  0  0  0  0  0  0  0  0  0
    0.0231   -2.1849   -2.9742 O   0  0  0  0  0  0  0  0  0  0  0  0
    3.3594   -2.8705   -2.7439 C   0  0  0  0  0  0  0  0  0  0  0  0
    1.5498   -2.3953   -0.7896 H   0  0  0  0  0  0  0  0  0  0  0  0
    2.8672   -0.8022   -2.9641 H   0  0  0  0  0  0  0  0  0  0  0  0
    2.8855   -3.8157   -2.4635 H   0  0  0  0  0  0  0  0  0  0  0  0
    3.7120   -2.9534   -3.7761 H   0  0  0  0  0  0  0  0  0  0  0  0
    4.2249   -2.7066   -2.0944 H   0  0  0  0  0  0  0  0  0  0  0  0
    1.2092   -1.8714   -4.8607 N   0  0  0  0  0  0  0  0  0  0  0  0
    0.0654   -2.0366   -5.7489 C   0  0  0  0  0  0  0  0  0  0  0  0
    2.1083   -1.6142   -5.2563 H   0  0  0  0  0  0  0  0  0  0  0  0
    0.3754   -1.9187   -6.7916 H   0  0  0  0  0  0  0  0  0  0  0  0
   -0.3715   -3.0337   -5.6287 H   0  0  0  0  0  0  0  0  0  0  0  0
   -0.7021   -1.2868   -5.5292 H   0  0  0  0  0  0  0  0  0  0  0  0
  1  2  2  0  0  0  0
  1  3  1  0  0  0  0
  1  7  1  0  0  0  0
  3  4  1  0  0  0  0
  3  5  1  0  0  0  0
  3  6  1  0  0  0  0
  7  8  1  0  0  0  0
  7 12  1  0  0  0  0
  8  9  1  0  0  0  0
  8 11  1  0  0  0  0
  8 13  1  0  0  0  0
  9 10  2  0  0  0  0
  9 17  1  0  0  0  0
 11 14  1  0  0  0  0
 11 15  1  0  0  0  0
 11 16  1  0  0  0  0
 17 18  1  0  0  0  0
 17 25  1  0  0  0  0
 18 19  1  0  0  0  0
 18 21  1  0  0  0  0
 18 26  1  0  0  0  0
 19 20  2  0  0  0  0
 19 36  1  0  0  0  0
 21 22  1  0  0  0  0
 21 23  1  0  0  0  0
 21 27  1  0  0  0  0
 22 24  1  0  0  0  0
 22 28  1  0  0  0  0
 22 29  1  0  0  0  0
 23 30  1  0  0  0  0
 23 31  1  0  0  0  0
 23 32  1  0  0  0  0
 24 33  1  0  0  0  0
 24 34  1  0  0  0  0
 24 35  1  0  0  0  0
 36 37  1  0  0  0  0
 36 41  1  0  0  0  0
 37 38  1  0  0  0  0
 37 40  1  0  0  0  0
 37 42  1  0  0  0  0
 38 39  2  0  0  0  0
 38 46  1  0  0  0  0
 40 43  1  0  0  0  0
 40 44  1  0  0  0  0
 40 45  1  0  0  0  0
 46 47  1  0  0  0  0
 46 48  1  0  0  0  0
 47 49  1  0  0  0  0
 47 50  1  0  0  0  0
 47 51  1  0  0  0  0
M  END
$$$$

  -OEChem-05262216503D

 51 50  0     1  0  0  0  0  0999 V2000
    1.1019   -6.0809    1.7348 C   0  0  0  0  0  0  0  0  0  0  0  0
    0.0642   -6.6411    1.4184 O   0  0  0  0  0  0  0  0  0  0  0  0
    2.3595   -6.8909    1.9880 C   0  0  0  0  0  0  0  0  0  0  0  0
    2.1555   -7.9565    1.8512 H   0  0  0  0  0  0  0  0  0  0  0  0
    3.1438   -6.5901    1.2891 H   0  0  0  0  0  0  0  0  0  0  0  0
    2.7096   -6.7278    3.0102 H   0  0  0  0  0  0  0  0  0  0  0  0
    1.1354   -4.7076    1.8518 N   0  0  0  0  0  0  0  0  0  0  0  0
    0.0312   -3.8164    1.4743 C   0  0  2  0  0  0  0  0  0  0  0  0
    0.5471   -2.4300    1.0339 C   0  0  0  0  0  0  0  0  0  0  0  0
    1.7219   -2.1354    1.2124 O   0  0  0  0  0  0  0  0  0  0  0  0
   -0.9177   -3.6796    2.6695 C   0  0  0  0  0  0  0  0  0  0  0  0
    2.0464   -4.2712    1.9935 H   0  0  0  0  0  0  0  0  0  0  0  0
   -0.5133   -4.2486    0.6278 H   0  0  0  0  0  0  0  0  0  0  0  0
   -0.3982   -3.2262    3.5201 H   0  0  0  0  0  0  0  0  0  0  0  0
   -1.7769   -3.0539    2.4103 H   0  0  0  0  0  0  0  0  0  0  0  0
   -1.2904   -4.6633    2.9729 H   0  0  0  0  0  0  0  0  0  0  0  0
   -0.2888   -1.5684    0.3414 N   0  0  0  0  0  0  0  0  0  0  0  0
   -0.0934   -0.1052    0.1640 C   0  0  2  0  0  0  0  0  0  0  0  0
    0.7446    0.1228   -1.1293 C   0  0  0  0  0  0  0  0  0  0  0  0
    1.3444    1.1591   -1.3797 O   0  0  0  0  0  0  0  0  0  0  0  0
    0.3486    0.6091    1.4935 C   0  0  2  0  0  0  0  0  0  0  0  0
   -0.7865    0.4485    2.5412 C   0  0  0  0  0  0  0  0  0  0  0  0
    0.6184    2.1166    1.2954 C   0  0  0  0  0  0  0  0  0  0  0  0
   -0.3824    0.8625    3.9610 C   0  0  0  0  0  0  0  0  0  0  0  0
   -1.2392   -1.9110    0.2275 H   0  0  0  0  0  0  0  0  0  0  0  0
   -1.0703    0.3209   -0.0836 H   0  0  0  0  0  0  0  0  0  0  0  0
    1.2695    0.1646    1.8790 H   0  0  0  0  0  0  0  0  0  0  0  0
   -1.6618    1.0291    2.2319 H   0  0  0  0  0  0  0  0  0  0  0  0
   -1.0925   -0.5990    2.5917 H   0  0  0  0  0  0  0  0  0  0  0  0
   -0.1877    2.5814    0.7192 H   0  0  0  0  0  0  0  0  0  0  0  0
    0.7072    2.6422    2.2478 H   0  0  0  0  0  0  0  0  0  0  0  0
    1.5651    2.2746    0.7729 H   0  0  0  0  0  0  0  0  0  0  0  0
    0.5573    0.3796    4.2465 H   0  0  0  0  0  0  0  0  0  0  0  0
   -1.1571    0.5545    4.6699 H   0  0  0  0  0  0  0  0  0  0  0  0
   -0.2634    1.9456    4.0463 H   0  0  0  0  0  0  0  0  0  0  0  0
    0.6322   -0.7930   -2.1590 N   0  0  0  0  0  0  0  0  0  0  0  0
    1.2655   -0.6964   -3.4787 C   0  0  2  0  0  0  0  0  0  0  0  0
    0.5620   -1.6167   -4.4990 C   0  0  0  0  0  0  0  0  0  0  0  0
   -0.2667   -2.4397   -4.1211 O   0  0  0  0  0  0  0  0  0  0  0  0
    2.7445   -1.0793   -3.3453 C   0  0  0  0  0  0  0  0  0  0  0  0
    0.0987   -1.6382   -1.9657 H   0  0  0  0  0  0  0  0  0  0  0  0
    1.1873    0.3320   -3.8469 H   0  0  0  0  0  0  0  0  0  0  0  0
    2.8419   -2.1057   -2.9773 H   0  0  0  0  0  0  0  0  0  0  0  0
    3.2506   -1.0053   -4.3122 H   0  0  0  0  0  0  0  0  0  0  0  0
    3.2506   -0.4098   -2.6426 H   0  0  0  0  0  0  0  0  0  0  0  0
    0.8542   -1.5229   -5.8473 N   0  0  0  0  0  0  0  0  0  0  0  0
    0.2416   -2.3734   -6.8606 C   0  0  0  0  0  0  0  0  0  0  0  0
    1.5472   -0.8369   -6.1324 H   0  0  0  0  0  0  0  0  0  0  0  0
    0.4453   -3.4286   -6.6490 H   0  0  0  0  0  0  0  0  0  0  0  0
   -0.8427   -2.2215   -6.8845 H   0  0  0  0  0  0  0  0  0  0  0  0
    0.6455   -2.1354   -7.8494 H   0  0  0  0  0  0  0  0  0  0  0  0
  1  2  2  0  0  0  0
  1  3  1  0  0  0  0
  1  7  1  0  0  0  0
  3  4  1  0  0  0  0
  3  5  1  0  0  0  0
  3  6  1  0  0  0  0
  7  8  1  0  0  0  0
  7 12  1  0  0  0  0
  8  9  1  0  0  0  0
  8 11  1  0  0  0  0
  8 13  1  0  0  0  0
  9 10  2  0  0  0  0
  9 17  1  0  0  0  0
 11 14  1  0  0  0  0
 11 15  1  0  0  0  0
 11 16  1  0  0  0  0
 17 18  1  0  0  0  0
 17 25  1  0  0  0  0
 18 19  1  0  0  0  0
 18 21  1  0  0  0  0
 18 26  1  0  0  0  0
 19 20  2  0  0  0  0
 19 36  1  0  0  0  0
 21 22  1  0  0  0  0
 21 23  1  0  0  0  0
 21 27  1  0  0  0  0
 22 24  1  0  0  0  0
 22 28  1  0  0  0  0
 22 29  1  0  0  0  0
 23 30  1  0  0  0  0
 23 31  1  0  0  0  0
 23 32  1  0  0  0  0
 24 33  1  0  0  0  0
 24 34  1  0  0  0  0
 24 35  1  0  0  0  0
 36 37  1  0  0  0  0
 36 41  1  0  0  0  0
 37 38  1  0  0  0  0
 37 40  1  0  0  0  0
 37 42  1  0  0  0  0
 38 39  2  0  0  0  0
 38 46  1  0  0  0  0
 40 43  1  0  0  0  0
 40 44  1  0  0  0  0
 40 45  1  0  0  0  0
 46 47  1  0  0  0  0
 46 48  1  0  0  0  0
 47 49  1  0  0  0  0
 47 50  1  0  0  0  0
 47 51  1  0  0  0  0
M  END
$$$$

  -OEChem-05262216503D

 51 50  0     1  0  0  0  0  0999 V2000
    1.1759   -6.0799    1.6181 C   0  0  0  0  0  0  0  0  0  0  0  0
    0.1495   -6.6377    1.2626 O   0  0  0  0  0  0  0  0  0  0  0  0
    2.4429   -6.8843    1.8409 C   0  0  0  0  0  0  0  0  0  0  0  0
    2.2592   -7.9422    1.6327 H   0  0  0  0  0  0  0  0  0  0  0  0
    3.2342   -6.5270    1.1771 H   0  0  0  0  0  0  0  0  0  0  0  0
    2.7729   -6.7815    2.8777 H   0  0  0  0  0  0  0  0  0  0  0  0
    1.1863   -4.7151    1.8107 N   0  0  0  0  0  0  0  0  0  0  0  0
    0.0685   -3.8241    1.4765 C   0  0  2  0  0  0  0  0  0  0  0  0
    0.5635   -2.4251    1.0544 C   0  0  0  0  0  0  0  0  0  0  0  0
    1.7257   -2.1068    1.2682 O   0  0  0  0  0  0  0  0  0  0  0  0
   -0.8507   -3.7206    2.6971 C   0  0  0  0  0  0  0  0  0  0  0  0
    2.0889   -4.2717    1.9815 H   0  0  0  0  0  0  0  0  0  0  0  0
   -0.4936   -4.2413    0.6339 H   0  0  0  0  0  0  0  0  0  0  0  0
   -0.3098   -3.2917    3.5467 H   0  0  0  0  0  0  0  0  0  0  0  0
   -1.7147   -3.0869    2.4769 H   0  0  0  0  0  0  0  0  0  0  0  0
   -1.2162   -4.7124    2.9815 H   0  0  0  0  0  0  0  0  0  0  0  0
   -0.2842   -1.5781    0.3587 N   0  0  0  0  0  0  0  0  0  0  0  0
   -0.1066   -0.1173    0.1644 C   0  0  2  0  0  0  0  0  0  0  0  0
    0.7201    0.0856   -1.1383 C   0  0  0  0  0  0  0  0  0  0  0  0
    1.6048    0.9188   -1.2745 O   0  0  0  0  0  0  0  0  0  0  0  0
    0.3358    0.6336    1.4703 C   0  0  2  0  0  0  0  0  0  0  0  0
   -0.7886    0.4795    2.5307 C   0  0  0  0  0  0  0  0  0  0  0  0
    0.5558    2.1442    1.2246 C   0  0  0  0  0  0  0  0  0  0  0  0
   -0.3785    0.9329    3.9365 C   0  0  0  0  0  0  0  0  0  0  0  0
   -1.2248   -1.9403    0.2305 H   0  0  0  0  0  0  0  0  0  0  0  0
   -1.0889    0.2953   -0.0832 H   0  0  0  0  0  0  0  0  0  0  0  0
    1.2718    0.2205    1.8546 H   0  0  0  0  0  0  0  0  0  0  0  0
   -1.6767    1.0375    2.2168 H   0  0  0  0  0  0  0  0  0  0  0  0
   -1.0756   -0.5722    2.6079 H   0  0  0  0  0  0  0  0  0  0  0  0
   -0.2742    2.5677    0.6508 H   0  0  0  0  0  0  0  0  0  0  0  0
    0.6431    2.6976    2.1610 H   0  0  0  0  0  0  0  0  0  0  0  0
    1.4866    2.3230    0.6825 H   0  0  0  0  0  0  0  0  0  0  0  0
    0.5670    0.4648    4.2275 H   0  0  0  0  0  0  0  0  0  0  0  0
   -1.1464    0.6377    4.6579 H   0  0  0  0  0  0  0  0  0  0  0  0
   -0.2674    2.0184    3.9939 H   0  0  0  0  0  0  0  0  0  0  0  0
    0.3786   -0.6546   -2.2553 N   0  0  0  0  0  0  0  0  0  0  0  0
    1.0005   -0.5459   -3.5797 C   0  0  2  0  0  0  0  0  0  0  0  0
    0.0567   -1.0807   -4.6770 C   0  0  0  0  0  0  0  0  0  0  0  0
   -0.9514   -1.7102   -4.3703 O   0  0  0  0  0  0  0  0  0  0  0  0
    2.3177   -1.3312   -3.5725 C   0  0  0  0  0  0  0  0  0  0  0  0
   -0.3804   -1.3259   -2.1588 H   0  0  0  0  0  0  0  0  0  0  0  0
    1.2070    0.5065   -3.8017 H   0  0  0  0  0  0  0  0  0  0  0  0
    2.1329   -2.3870   -3.3499 H   0  0  0  0  0  0  0  0  0  0  0  0
    2.8135   -1.2603   -4.5449 H   0  0  0  0  0  0  0  0  0  0  0  0
    2.9966   -0.9307   -2.8126 H   0  0  0  0  0  0  0  0  0  0  0  0
    0.3288   -0.8481   -6.0123 N   0  0  0  0  0  0  0  0  0  0  0  0
   -0.5177   -1.3302   -7.0969 C   0  0  0  0  0  0  0  0  0  0  0  0
    1.1645   -0.3160   -6.2373 H   0  0  0  0  0  0  0  0  0  0  0  0
   -0.6089   -2.4209   -7.0557 H   0  0  0  0  0  0  0  0  0  0  0  0
   -1.5180   -0.8899   -7.0269 H   0  0  0  0  0  0  0  0  0  0  0  0
   -0.0860   -1.0565   -8.0645 H   0  0  0  0  0  0  0  0  0  0  0  0
  1  2  2  0  0  0  0
  1  3  1  0  0  0  0
  1  7  1  0  0  0  0
  3  4  1  0  0  0  0
  3  5  1  0  0  0  0
  3  6  1  0  0  0  0
  7  8  1  0  0  0  0
  7 12  1  0  0  0  0
  8  9  1  0  0  0  0
  8 11  1  0  0  0  0
  8 13  1  0  0  0  0
  9 10  2  0  0  0  0
  9 17  1  0  0  0  0
 11 14  1  0  0  0  0
 11 15  1  0  0  0  0
 11 16  1  0  0  0  0
 17 18  1  0  0  0  0
 17 25  1  0  0  0  0
 18 19  1  0  0  0  0
 18 21  1  0  0  0  0
 18 26  1  0  0  0  0
 19 20  2  0  0  0  0
 19 36  1  0  0  0  0
 21 22  1  0  0  0  0
 21 23  1  0  0  0  0
 21 27  1  0  0  0  0
 22 24  1  0  0  0  0
 22 28  1  0  0  0  0
 22 29  1  0  0  0  0
 23 30  1  0  0  0  0
 23 31  1  0  0  0  0
 23 32  1  0  0  0  0
 24 33  1  0  0  0  0
 24 34  1  0  0  0  0
 24 35  1  0  0  0  0
 36 37  1  0  0  0  0
 36 41  1  0  0  0  0
 37 38  1  0  0  0  0
 37 40  1  0  0  0  0
 37 42  1  0  0  0  0
 38 39  2  0  0  0  0
 38 46  1  0  0  0  0
 40 43  1  0  0  0  0
 40 44  1  0  0  0  0
 40 45  1  0  0  0  0
 46 47  1  0  0  0  0
 46 48  1  0  0  0  0
 47 49  1  0  0  0  0
 47 50  1  0  0  0  0
 47 51  1  0  0  0  0
M  END
$$$$

  -OEChem-05262216503D

 51 50  0     1  0  0  0  0  0999 V2000
    1.3050   -5.9236    1.0335 C   0  0  0  0  0  0  0  0  0  0  0  0
    0.4042   -6.4060    0.3649 O   0  0  0  0  0  0  0  0  0  0  0  0
    2.6349   -6.6446    1.1496 C   0  0  0  0  0  0  0  0  0  0  0  0
    2.6476   -7.5206    0.4949 H   0  0  0  0  0  0  0  0  0  0  0  0
    3.4495   -5.9766    0.8587 H   0  0  0  0  0  0  0  0  0  0  0  0
    2.7922   -6.9723    2.1800 H   0  0  0  0  0  0  0  0  0  0  0  0
    1.1218   -4.7182    1.6775 N   0  0  0  0  0  0  0  0  0  0  0  0
   -0.0237   -3.8281    1.4461 C   0  0  2  0  0  0  0  0  0  0  0  0
    0.4299   -2.3697    1.2312 C   0  0  0  0  0  0  0  0  0  0  0  0
    1.5298   -2.0263    1.6410 O   0  0  0  0  0  0  0  0  0  0  0  0
   -0.9570   -3.9294    2.6542 C   0  0  0  0  0  0  0  0  0  0  0  0
    1.9549   -4.2816    2.0718 H   0  0  0  0  0  0  0  0  0  0  0  0
   -0.5674   -4.1362    0.5468 H   0  0  0  0  0  0  0  0  0  0  0  0
   -0.4381   -3.6148    3.5656 H   0  0  0  0  0  0  0  0  0  0  0  0
   -1.8362   -3.2930    2.5157 H   0  0  0  0  0  0  0  0  0  0  0  0
   -1.2948   -4.9628    2.7836 H   0  0  0  0  0  0  0  0  0  0  0  0
   -0.3866   -1.5054    0.5179 N   0  0  0  0  0  0  0  0  0  0  0  0
   -0.1908   -0.0548    0.2742 C   0  0  2  0  0  0  0  0  0  0  0  0
    0.6296    0.0707   -1.0383 C   0  0  0  0  0  0  0  0  0  0  0  0
    1.7562    0.5448   -1.0950 O   0  0  0  0  0  0  0  0  0  0  0  0
    0.3158    0.7607    1.5108 C   0  0  2  0  0  0  0  0  0  0  0  0
   -0.7551    0.6832    2.6302 C   0  0  0  0  0  0  0  0  0  0  0  0
    0.5133    2.2541    1.1581 C   0  0  0  0  0  0  0  0  0  0  0  0
   -0.2640    1.2140    3.9816 C   0  0  0  0  0  0  0  0  0  0  0  0
   -1.2635   -1.9111    0.2046 H   0  0  0  0  0  0  0  0  0  0  0  0
   -1.1711    0.3677    0.0349 H   0  0  0  0  0  0  0  0  0  0  0  0
    1.2729    0.3703    1.8657 H   0  0  0  0  0  0  0  0  0  0  0  0
   -1.6527    1.2337    2.3297 H   0  0  0  0  0  0  0  0  0  0  0  0
   -1.0467   -0.3601    2.7808 H   0  0  0  0  0  0  0  0  0  0  0  0
   -0.4102    2.6819    0.7559 H   0  0  0  0  0  0  0  0  0  0  0  0
    0.8065    2.8300    2.0387 H   0  0  0  0  0  0  0  0  0  0  0  0
    1.3074    2.3949    0.4228 H   0  0  0  0  0  0  0  0  0  0  0  0
    0.6741    0.7260    4.2643 H   0  0  0  0  0  0  0  0  0  0  0  0
   -1.0088    1.0033    4.7548 H   0  0  0  0  0  0  0  0  0  0  0  0
   -0.1052    2.2951    3.9545 H   0  0  0  0  0  0  0  0  0  0  0  0
    0.0975   -0.4538   -2.2024 N   0  0  0  0  0  0  0  0  0  0  0  0
    0.7593   -0.4606   -3.5124 C   0  0  2  0  0  0  0  0  0  0  0  0
   -0.2730   -0.5531   -4.6558 C   0  0  0  0  0  0  0  0  0  0  0  0
   -1.4453   -0.8167   -4.4053 O   0  0  0  0  0  0  0  0  0  0  0  0
    1.7256   -1.6498   -3.5658 C   0  0  0  0  0  0  0  0  0  0  0  0
   -0.8588   -0.8012   -2.1747 H   0  0  0  0  0  0  0  0  0  0  0  0
    1.3202    0.4707   -3.6456 H   0  0  0  0  0  0  0  0  0  0  0  0
    1.1829   -2.5901   -3.4265 H   0  0  0  0  0  0  0  0  0  0  0  0
    2.2422   -1.6844   -4.5294 H   0  0  0  0  0  0  0  0  0  0  0  0
    2.4790   -1.5635   -2.7763 H   0  0  0  0  0  0  0  0  0  0  0  0
    0.1077   -0.3313   -5.9663 N   0  0  0  0  0  0  0  0  0  0  0  0
   -0.8169   -0.3961   -7.0915 C   0  0  0  0  0  0  0  0  0  0  0  0
    1.0834   -0.1090   -6.1420 H   0  0  0  0  0  0  0  0  0  0  0  0
   -1.2823   -1.3858   -7.1494 H   0  0  0  0  0  0  0  0  0  0  0  0
   -1.6040    0.3579   -6.9846 H   0  0  0  0  0  0  0  0  0  0  0  0
   -0.2849   -0.2096   -8.0295 H   0  0  0  0  0  0  0  0  0  0  0  0
  1  2  2  0  0  0  0
  1  3  1  0  0  0  0
  1  7  1  0  0  0  0
  3  4  1  0  0  0  0
  3  5  1  0  0  0  0
  3  6  1  0  0  0  0
  7  8  1  0  0  0  0
  7 12  1  0  0  0  0
  8  9  1  0  0  0  0
  8 11  1  0  0  0  0
  8 13  1  0  0  0  0
  9 10  2  0  0  0  0
  9 17  1  0  0  0  0
 11 14  1  0  0  0  0
 11 15  1  0  0  0  0
 11 16  1  0  0  0  0
 17 18  1  0  0  0  0
 17 25  1  0  0  0  0
 18 19  1  0  0  0  0
 18 21  1  0  0  0  0
 18 26  1  0  0  0  0
 19 20  2  0  0  0  0
 19 36  1  0  0  0  0
 21 22  1  0  0  0  0
 21 23  1  0  0  0  0
 21 27  1  0  0  0  0
 22 24  1  0  0  0  0
 22 28  1  0  0  0  0
 22 29  1  0  0  0  0
 23 30  1  0  0  0  0
 23 31  1  0  0  0  0
 23 32  1  0  0  0  0
 24 33  1  0  0  0  0
 24 34  1  0  0  0  0
 24 35  1  0  0  0  0
 36 37  1  0  0  0  0
 36 41  1  0  0  0  0
 37 38  1  0  0  0  0
 37 40  1  0  0  0  0
 37 42  1  0  0  0  0
 38 39  2  0  0  0  0
 38 46  1  0  0  0  0
 40 43  1  0  0  0  0
 40 44  1  0  0  0  0
 40 45  1  0  0  0  0
 46 47  1  0  0  0  0
 46 48  1  0  0  0  0
 47 49  1  0  0  0  0
 47 50  1  0  0  0  0
 47 51  1  0  0  0  0
M  END
$$$$

  -OEChem-05262216503D

 51 50  0     1  0  0  0  0  0999 V2000
    1.3622   -5.9262    1.0248 C   0  0  0  0  0  0  0  0  0  0  0  0
    0.5131   -6.4131    0.2943 O   0  0  0  0  0  0  0  0  0  0  0  0
    2.7040   -6.6139    1.1931 C   0  0  0  0  0  0  0  0  0  0  0  0
    2.7570   -7.4996    0.5537 H   0  0  0  0  0  0  0  0  0  0  0  0
    3.5118   -5.9315    0.9166 H   0  0  0  0  0  0  0  0  0  0  0  0
    2.8367   -6.9216    2.2330 H   0  0  0  0  0  0  0  0  0  0  0  0
    1.1090   -4.7473    1.6936 N   0  0  0  0  0  0  0  0  0  0  0  0
   -0.0496   -3.8842    1.4297 C   0  0  2  0  0  0  0  0  0  0  0  0
    0.3672   -2.4044    1.2988 C   0  0  0  0  0  0  0  0  0  0  0  0
    1.4157   -2.0412    1.8129 O   0  0  0  0  0  0  0  0  0  0  0  0
   -1.0484   -4.0627    2.5749 C   0  0  0  0  0  0  0  0  0  0  0  0
    1.9047   -4.3008    2.1493 H   0  0  0  0  0  0  0  0  0  0  0  0
   -0.5293   -4.1733    0.4886 H   0  0  0  0  0  0  0  0  0  0  0  0
   -0.5942   -3.7713    3.5275 H   0  0  0  0  0  0  0  0  0  0  0  0
   -1.9374   -3.4467    2.4093 H   0  0  0  0  0  0  0  0  0  0  0  0
   -1.3606   -5.1096    2.6429 H   0  0  0  0  0  0  0  0  0  0  0  0
   -0.4377   -1.5436    0.5674 N   0  0  0  0  0  0  0  0  0  0  0  0
   -0.2344   -0.1021    0.2847 C   0  0  2  0  0  0  0  0  0  0  0  0
    0.5794   -0.0020   -1.0306 C   0  0  0  0  0  0  0  0  0  0  0  0
    1.7824    0.2226   -1.0554 O   0  0  0  0  0  0  0  0  0  0  0  0
    0.3112    0.7537    1.4721 C   0  0  2  0  0  0  0  0  0  0  0  0
   -0.7203    0.7309    2.6277 C   0  0  0  0  0  0  0  0  0  0  0  0
    0.5174    2.2238    1.0413 C   0  0  0  0  0  0  0  0  0  0  0  0
   -0.1719    1.3128    3.9344 C   0  0  0  0  0  0  0  0  0  0  0  0
   -1.2528   -1.9814    0.1490 H   0  0  0  0  0  0  0  0  0  0  0  0
   -1.2164    0.3209    0.0544 H   0  0  0  0  0  0  0  0  0  0  0  0
    1.2761    0.3679    1.8114 H   0  0  0  0  0  0  0  0  0  0  0  0
   -1.6250    1.2750    2.3371 H   0  0  0  0  0  0  0  0  0  0  0  0
   -1.0117   -0.3037    2.8308 H   0  0  0  0  0  0  0  0  0  0  0  0
   -0.4209    2.6564    0.6811 H   0  0  0  0  0  0  0  0  0  0  0  0
    0.8800    2.8282    1.8762 H   0  0  0  0  0  0  0  0  0  0  0  0
    1.2633    2.3082    0.2478 H   0  0  0  0  0  0  0  0  0  0  0  0
    0.7730    0.8286    4.2006 H   0  0  0  0  0  0  0  0  0  0  0  0
   -0.8873    1.1447    4.7448 H   0  0  0  0  0  0  0  0  0  0  0  0
   -0.0052    2.3897    3.8511 H   0  0  0  0  0  0  0  0  0  0  0  0
   -0.0583   -0.2511   -2.2323 N   0  0  0  0  0  0  0  0  0  0  0  0
    0.5759   -0.1570   -3.5529 C   0  0  2  0  0  0  0  0  0  0  0  0
   -0.4590    0.1913   -4.6426 C   0  0  0  0  0  0  0  0  0  0  0  0
   -1.6584    0.1452   -4.3864 O   0  0  0  0  0  0  0  0  0  0  0  0
    1.2572   -1.4940   -3.8634 C   0  0  0  0  0  0  0  0  0  0  0  0
   -1.0728   -0.3430   -2.2230 H   0  0  0  0  0  0  0  0  0  0  0  0
    1.3277    0.6396   -3.5450 H   0  0  0  0  0  0  0  0  0  0  0  0
    0.5204   -2.3032   -3.8854 H   0  0  0  0  0  0  0  0  0  0  0  0
    1.7606   -1.4537   -4.8337 H   0  0  0  0  0  0  0  0  0  0  0  0
    2.0056   -1.7257   -3.0989 H   0  0  0  0  0  0  0  0  0  0  0  0
   -0.0485    0.5717   -5.9067 N   0  0  0  0  0  0  0  0  0  0  0  0
   -0.9739    0.9191   -6.9782 C   0  0  0  0  0  0  0  0  0  0  0  0
    0.9509    0.6093   -6.0866 H   0  0  0  0  0  0  0  0  0  0  0  0
   -1.6156    0.0657   -7.2215 H   0  0  0  0  0  0  0  0  0  0  0  0
   -1.6063    1.7621   -6.6805 H   0  0  0  0  0  0  0  0  0  0  0  0
   -0.4208    1.2041   -7.8785 H   0  0  0  0  0  0  0  0  0  0  0  0
  1  2  2  0  0  0  0
  1  3  1  0  0  0  0
  1  7  1  0  0  0  0
  3  4  1  0  0  0  0
  3  5  1  0  0  0  0
  3  6  1  0  0  0  0
  7  8  1  0  0  0  0
  7 12  1  0  0  0  0
  8  9  1  0  0  0  0
  8 11  1  0  0  0  0
  8 13  1  0  0  0  0
  9 10  2  0  0  0  0
  9 17  1  0  0  0  0
 11 14  1  0  0  0  0
 11 15  1  0  0  0  0
 11 16  1  0  0  0  0
 17 18  1  0  0  0  0
 17 25  1  0  0  0  0
 18 19  1  0  0  0  0
 18 21  1  0  0  0  0
 18 26  1  0  0  0  0
 19 20  2  0  0  0  0
 19 36  1  0  0  0  0
 21 22  1  0  0  0  0
 21 23  1  0  0  0  0
 21 27  1  0  0  0  0
 22 24  1  0  0  0  0
 22 28  1  0  0  0  0
 22 29  1  0  0  0  0
 23 30  1  0  0  0  0
 23 31  1  0  0  0  0
 23 32  1  0  0  0  0
 24 33  1  0  0  0  0
 24 34  1  0  0  0  0
 24 35  1  0  0  0  0
 36 37  1  0  0  0  0
 36 41  1  0  0  0  0
 37 38  1  0  0  0  0
 37 40  1  0  0  0  0
 37 42  1  0  0  0  0
 38 39  2  0  0  0  0
 38 46  1  0  0  0  0
 40 43  1  0  0  0  0
 40 44  1  0  0  0  0
 40 45  1  0  0  0  0
 46 47  1  0  0  0  0
 46 48  1  0  0  0  0
 47 49  1  0  0  0  0
 47 50  1  0  0  0  0
 47 51  1  0  0  0  0
M  END
$$$$

  -OEChem-05262216503D

 51 50  0     1  0  0  0  0  0999 V2000
    1.4118   -5.9501    1.0616 C   0  0  0  0  0  0  0  0  0  0  0  0
    0.5705   -6.4795    0.3518 O   0  0  0  0  0  0  0  0  0  0  0  0
    2.7646   -6.6081    1.2587 C   0  0  0  0  0  0  0  0  0  0  0  0
    2.7923   -7.5749    0.7481 H   0  0  0  0  0  0  0  0  0  0  0  0
    3.5518   -5.9701    0.8493 H   0  0  0  0  0  0  0  0  0  0  0  0
    2.9514   -6.7673    2.3236 H   0  0  0  0  0  0  0  0  0  0  0  0
    1.1400   -4.7474    1.6784 N   0  0  0  0  0  0  0  0  0  0  0  0
   -0.0418   -3.9228    1.3970 C   0  0  2  0  0  0  0  0  0  0  0  0
    0.3200   -2.4242    1.3285 C   0  0  0  0  0  0  0  0  0  0  0  0
    1.3230   -2.0371    1.9116 O   0  0  0  0  0  0  0  0  0  0  0  0
   -1.0770   -4.1787    2.4950 C   0  0  0  0  0  0  0  0  0  0  0  0
    1.9204   -4.2742    2.1337 H   0  0  0  0  0  0  0  0  0  0  0  0
   -0.4686   -4.2009    0.4277 H   0  0  0  0  0  0  0  0  0  0  0  0
   -0.6705   -3.9069    3.4748 H   0  0  0  0  0  0  0  0  0  0  0  0
   -1.9808   -3.5885    2.3163 H   0  0  0  0  0  0  0  0  0  0  0  0
   -1.3538   -5.2377    2.5135 H   0  0  0  0  0  0  0  0  0  0  0  0
   -0.4908   -1.5738    0.5901 N   0  0  0  0  0  0  0  0  0  0  0  0
   -0.2893   -0.1378    0.2778 C   0  0  2  0  0  0  0  0  0  0  0  0
    0.5073   -0.0427   -1.0465 C   0  0  0  0  0  0  0  0  0  0  0  0
    1.7306   -0.0645   -1.0790 O   0  0  0  0  0  0  0  0  0  0  0  0
    0.2863    0.7484    1.4255 C   0  0  2  0  0  0  0  0  0  0  0  0
   -0.7114    0.7621    2.6092 C   0  0  0  0  0  0  0  0  0  0  0  0
    0.5001    2.1984    0.9374 C   0  0  0  0  0  0  0  0  0  0  0  0
   -0.1246    1.3802    3.8820 C   0  0  0  0  0  0  0  0  0  0  0  0
   -1.2533   -2.0398    0.1076 H   0  0  0  0  0  0  0  0  0  0  0  0
   -1.2778    0.2784    0.0635 H   0  0  0  0  0  0  0  0  0  0  0  0
    1.2571    0.3661    1.7510 H   0  0  0  0  0  0  0  0  0  0  0  0
   -1.6217    1.3015    2.3284 H   0  0  0  0  0  0  0  0  0  0  0  0
   -1.0003   -0.2656    2.8486 H   0  0  0  0  0  0  0  0  0  0  0  0
   -0.4408    2.6308    0.5827 H   0  0  0  0  0  0  0  0  0  0  0  0
    0.8893    2.8281    1.7413 H   0  0  0  0  0  0  0  0  0  0  0  0
    1.2295    2.2386    0.1236 H   0  0  0  0  0  0  0  0  0  0  0  0
    0.8231    0.8965    4.1386 H   0  0  0  0  0  0  0  0  0  0  0  0
   -0.8199    1.2433    4.7156 H   0  0  0  0  0  0  0  0  0  0  0  0
    0.0481    2.4527    3.7604 H   0  0  0  0  0  0  0  0  0  0  0  0
   -0.1787    0.0093   -2.2458 N   0  0  0  0  0  0  0  0  0  0  0  0
    0.4520    0.1861   -3.5595 C   0  0  2  0  0  0  0  0  0  0  0  0
   -0.4768    0.9561   -4.5207 C   0  0  0  0  0  0  0  0  0  0  0  0
   -1.6547    1.1320   -4.2244 O   0  0  0  0  0  0  0  0  0  0  0  0
    0.7917   -1.1975   -4.1231 C   0  0  0  0  0  0  0  0  0  0  0  0
   -1.1865    0.1558   -2.2086 H   0  0  0  0  0  0  0  0  0  0  0  0
    1.3726    0.7705   -3.4544 H   0  0  0  0  0  0  0  0  0  0  0  0
   -0.1173   -1.7947   -4.2477 H   0  0  0  0  0  0  0  0  0  0  0  0
    1.2859   -1.1069   -5.0950 H   0  0  0  0  0  0  0  0  0  0  0  0
    1.4662   -1.7276   -3.4429 H   0  0  0  0  0  0  0  0  0  0  0  0
    0.0089    1.4686   -5.7090 N   0  0  0  0  0  0  0  0  0  0  0  0
   -0.8117    2.2223   -6.6488 C   0  0  0  0  0  0  0  0  0  0  0  0
    0.9927    1.3238   -5.9181 H   0  0  0  0  0  0  0  0  0  0  0  0
   -1.6464    1.6094   -7.0049 H   0  0  0  0  0  0  0  0  0  0  0  0
   -1.2140    3.1218   -6.1710 H   0  0  0  0  0  0  0  0  0  0  0  0
   -0.2141    2.5282   -7.5128 H   0  0  0  0  0  0  0  0  0  0  0  0
  1  2  2  0  0  0  0
  1  3  1  0  0  0  0
  1  7  1  0  0  0  0
  3  4  1  0  0  0  0
  3  5  1  0  0  0  0
  3  6  1  0  0  0  0
  7  8  1  0  0  0  0
  7 12  1  0  0  0  0
  8  9  1  0  0  0  0
  8 11  1  0  0  0  0
  8 13  1  0  0  0  0
  9 10  2  0  0  0  0
  9 17  1  0  0  0  0
 11 14  1  0  0  0  0
 11 15  1  0  0  0  0
 11 16  1  0  0  0  0
 17 18  1  0  0  0  0
 17 25  1  0  0  0  0
 18 19  1  0  0  0  0
 18 21  1  0  0  0  0
 18 26  1  0  0  0  0
 19 20  2  0  0  0  0
 19 36  1  0  0  0  0
 21 22  1  0  0  0  0
 21 23  1  0  0  0  0
 21 27  1  0  0  0  0
 22 24  1  0  0  0  0
 22 28  1  0  0  0  0
 22 29  1  0  0  0  0
 23 30  1  0  0  0  0
 23 31  1  0  0  0  0
 23 32  1  0  0  0  0
 24 33  1  0  0  0  0
 24 34  1  0  0  0  0
 24 35  1  0  0  0  0
 36 37  1  0  0  0  0
 36 41  1  0  0  0  0
 37 38  1  0  0  0  0
 37 40  1  0  0  0  0
 37 42  1  0  0  0  0
 38 39  2  0  0  0  0
 38 46  1  0  0  0  0
 40 43  1  0  0  0  0
 40 44  1  0  0  0  0
 40 45  1  0  0  0  0
 46 47  1  0  0  0  0
 46 48  1  0  0  0  0
 47 49  1  0  0  0  0
 47 50  1  0  0  0  0
 47 51  1  0  0  0  0
M  END
$$$$

  -OEChem-05262216503D

 51 50  0     1  0  0  0  0  0999 V2000
    1.4356   -5.9210    1.0028 C   0  0  0  0  0  0  0  0  0  0  0  0
    0.6175   -6.4663    0.2779 O   0  0  0  0  0  0  0  0  0  0  0  0
    2.7952   -6.5548    1.2286 C   0  0  0  0  0  0  0  0  0  0  0  0
    2.8488   -7.5223    0.7217 H   0  0  0  0  0  0  0  0  0  0  0  0
    3.5794   -5.9049    0.8323 H   0  0  0  0  0  0  0  0  0  0  0  0
    2.9638   -6.7073    2.2974 H   0  0  0  0  0  0  0  0  0  0  0  0
    1.1312   -4.7197    1.6063 N   0  0  0  0  0  0  0  0  0  0  0  0
   -0.0552   -3.9151    1.2898 C   0  0  2  0  0  0  0  0  0  0  0  0
    0.2621   -2.4048    1.3255 C   0  0  0  0  0  0  0  0  0  0  0  0
    1.2283   -2.0268    1.9741 O   0  0  0  0  0  0  0  0  0  0  0  0
   -1.1551   -4.2606    2.2966 C   0  0  0  0  0  0  0  0  0  0  0  0
    1.8894   -4.2343    2.0861 H   0  0  0  0  0  0  0  0  0  0  0  0
   -0.4034   -4.1527    0.2790 H   0  0  0  0  0  0  0  0  0  0  0  0
   -0.8276   -4.0281    3.3151 H   0  0  0  0  0  0  0  0  0  0  0  0
   -2.0641   -3.6907    2.0831 H   0  0  0  0  0  0  0  0  0  0  0  0
   -1.3950   -5.3274    2.2422 H   0  0  0  0  0  0  0  0  0  0  0  0
   -0.5494   -1.5349    0.6100 N   0  0  0  0  0  0  0  0  0  0  0  0
   -0.3325   -0.0970    0.3164 C   0  0  2  0  0  0  0  0  0  0  0  0
    0.4466    0.0196   -1.0152 C   0  0  0  0  0  0  0  0  0  0  0  0
    1.6279   -0.2876   -1.1016 O   0  0  0  0  0  0  0  0  0  0  0  0
    0.2845    0.7681    1.4570 C   0  0  2  0  0  0  0  0  0  0  0  0
   -0.6806    0.7849    2.6666 C   0  0  0  0  0  0  0  0  0  0  0  0
    0.5217    2.2151    0.9741 C   0  0  0  0  0  0  0  0  0  0  0  0
   -0.0504    1.3814    3.9284 C   0  0  0  0  0  0  0  0  0  0  0  0
   -1.2748   -1.9979    0.0712 H   0  0  0  0  0  0  0  0  0  0  0  0
   -1.3212    0.3327    0.1301 H   0  0  0  0  0  0  0  0  0  0  0  0
    1.2558    0.3644    1.7546 H   0  0  0  0  0  0  0  0  0  0  0  0
   -1.5885    1.3427    2.4150 H   0  0  0  0  0  0  0  0  0  0  0  0
   -0.9800   -0.2402    2.9034 H   0  0  0  0  0  0  0  0  0  0  0  0
   -0.4155    2.6702    0.6385 H   0  0  0  0  0  0  0  0  0  0  0  0
    0.9392    2.8308    1.7749 H   0  0  0  0  0  0  0  0  0  0  0  0
    1.2384    2.2416    0.1480 H   0  0  0  0  0  0  0  0  0  0  0  0
    0.8936    0.8767    4.1566 H   0  0  0  0  0  0  0  0  0  0  0  0
   -0.7270    1.2504    4.7782 H   0  0  0  0  0  0  0  0  0  0  0  0
    0.1404    2.4513    3.8108 H   0  0  0  0  0  0  0  0  0  0  0  0
   -0.2146    0.4137   -2.1633 N   0  0  0  0  0  0  0  0  0  0  0  0
    0.4264    0.6088   -3.4698 C   0  0  2  0  0  0  0  0  0  0  0  0
   -0.3401    1.6482   -4.3142 C   0  0  0  0  0  0  0  0  0  0  0  0
   -1.4437    2.0405   -3.9483 O   0  0  0  0  0  0  0  0  0  0  0  0
    0.4816   -0.7423   -4.1912 C   0  0  0  0  0  0  0  0  0  0  0  0
   -1.1594    0.7839   -2.0649 H   0  0  0  0  0  0  0  0  0  0  0  0
    1.4450    0.9867   -3.3294 H   0  0  0  0  0  0  0  0  0  0  0  0
   -0.5283   -1.1358   -4.3441 H   0  0  0  0  0  0  0  0  0  0  0  0
    0.9679   -0.6395   -5.1657 H   0  0  0  0  0  0  0  0  0  0  0  0
    1.0512   -1.4661   -3.5993 H   0  0  0  0  0  0  0  0  0  0  0  0
    0.2113    2.1568   -5.4756 N   0  0  0  0  0  0  0  0  0  0  0  0
   -0.4549    3.1487   -6.3107 C   0  0  0  0  0  0  0  0  0  0  0  0
    1.1316    1.8222   -5.7468 H   0  0  0  0  0  0  0  0  0  0  0  0
   -1.4135    2.7630   -6.6736 H   0  0  0  0  0  0  0  0  0  0  0  0
   -0.6364    4.0677   -5.7434 H   0  0  0  0  0  0  0  0  0  0  0  0
    0.1681    3.3942   -7.1762 H   0  0  0  0  0  0  0  0  0  0  0  0
  1  2  2  0  0  0  0
  1  3  1  0  0  0  0
  1  7  1  0  0  0  0
  3  4  1  0  0  0  0
  3  5  1  0  0  0  0
  3  6  1  0  0  0  0
  7  8  1  0  0  0  0
  7 12  1  0  0  0  0
  8  9  1  0  0  0  0
  8 11  1  0  0  0  0
  8 13  1  0  0  0  0
  9 10  2  0  0  0  0
  9 17  1  0  0  0  0
 11 14  1  0  0  0  0
 11 15  1  0  0  0  0
 11 16  1  0  0  0  0
 17 18  1  0  0  0  0
 17 25  1  0  0  0  0
 18 19  1  0  0  0  0
 18 21  1  0  0  0  0
 18 26  1  0  0  0  0
 19 20  2  0  0  0  0
 19 36  1  0  0  0  0
 21 22  1  0  0  0  0
 21 23  1  0  0  0  0
 21 27  1  0  0  0  0
 22 24  1  0  0  0  0
 22 28  1  0  0  0  0
 22 29  1  0  0  0  0
 23 30  1  0  0  0  0
 23 31  1  0  0  0  0
 23 32  1  0  0  0  0
 24 33  1  0  0  0  0
 24 34  1  0  0  0  0
 24 35  1  0  0  0  0
 36 37  1  0  0  0  0
 36 41  1  0  0  0  0
 37 38  1  0  0  0  0
 37 40  1  0  0  0  0
 37 42  1  0  0  0  0
 38 39  2  0  0  0  0
 38 46  1  0  0  0  0
 40 43  1  0  0  0  0
 40 44  1  0  0  0  0
 40 45  1  0  0  0  0
 46 47  1  0  0  0  0
 46 48  1  0  0  0  0
 47 49  1  0  0  0  0
 47 50  1  0  0  0  0
 47 51  1  0  0  0  0
M  END
$$$$

  -OEChem-05262216503D

 51 50  0     1  0  0  0  0  0999 V2000
    1.4760   -5.9349    1.0791 C   0  0  0  0  0  0  0  0  0  0  0  0
    0.6758   -6.5190    0.3648 O   0  0  0  0  0  0  0  0  0  0  0  0
    2.8373   -6.5447    1.3561 C   0  0  0  0  0  0  0  0  0  0  0  0
    2.9027   -7.5402    0.9080 H   0  0  0  0  0  0  0  0  0  0  0  0
    3.6213   -5.9136    0.9301 H   0  0  0  0  0  0  0  0  0  0  0  0
    2.9958   -6.6322    2.4339 H   0  0  0  0  0  0  0  0  0  0  0  0
    1.1503   -4.7123    1.6254 N   0  0  0  0  0  0  0  0  0  0  0  0
   -0.0344   -3.9309    1.2516 C   0  0  2  0  0  0  0  0  0  0  0  0
    0.2536   -2.4156    1.3013 C   0  0  0  0  0  0  0  0  0  0  0  0
    1.2089   -2.0226    1.9581 O   0  0  0  0  0  0  0  0  0  0  0  0
   -1.1796   -4.2955    2.2012 C   0  0  0  0  0  0  0  0  0  0  0  0
    1.8955   -4.1996    2.0970 H   0  0  0  0  0  0  0  0  0  0  0  0
   -0.3242   -4.1745    0.2239 H   0  0  0  0  0  0  0  0  0  0  0  0
   -0.9122   -4.0508    3.2343 H   0  0  0  0  0  0  0  0  0  0  0  0
   -2.0887   -3.7469    1.9371 H   0  0  0  0  0  0  0  0  0  0  0  0
   -1.3945   -5.3675    2.1414 H   0  0  0  0  0  0  0  0  0  0  0  0
   -0.5811   -1.5570    0.5995 N   0  0  0  0  0  0  0  0  0  0  0  0
   -0.3778   -0.1208    0.2879 C   0  0  2  0  0  0  0  0  0  0  0  0
    0.3655   -0.0025   -1.0647 C   0  0  0  0  0  0  0  0  0  0  0  0
    1.4354   -0.5636   -1.2619 O   0  0  0  0  0  0  0  0  0  0  0  0
    0.2743    0.7553    1.4010 C   0  0  2  0  0  0  0  0  0  0  0  0
   -0.6514    0.7786    2.6415 C   0  0  0  0  0  0  0  0  0  0  0  0
    0.4917    2.1999    0.9016 C   0  0  0  0  0  0  0  0  0  0  0  0
    0.0156    1.3861    3.8794 C   0  0  0  0  0  0  0  0  0  0  0  0
   -1.2828   -2.0364    0.0439 H   0  0  0  0  0  0  0  0  0  0  0  0
   -1.3746    0.3001    0.1282 H   0  0  0  0  0  0  0  0  0  0  0  0
    1.2567    0.3572    1.6684 H   0  0  0  0  0  0  0  0  0  0  0  0
   -1.5688    1.3312    2.4150 H   0  0  0  0  0  0  0  0  0  0  0  0
   -0.9397   -0.2457    2.8958 H   0  0  0  0  0  0  0  0  0  0  0  0
   -0.4564    2.6499    0.5907 H   0  0  0  0  0  0  0  0  0  0  0  0
    0.9298    2.8224    1.6858 H   0  0  0  0  0  0  0  0  0  0  0  0
    1.1843    2.2236    0.0551 H   0  0  0  0  0  0  0  0  0  0  0  0
    0.9672    0.8852    4.0840 H   0  0  0  0  0  0  0  0  0  0  0  0
   -0.6347    1.2600    4.7503 H   0  0  0  0  0  0  0  0  0  0  0  0
    0.2005    2.4556    3.7488 H   0  0  0  0  0  0  0  0  0  0  0  0
   -0.2266    0.6699   -2.1174 N   0  0  0  0  0  0  0  0  0  0  0  0
    0.4396    0.9544   -3.3947 C   0  0  2  0  0  0  0  0  0  0  0  0
   -0.0478    2.2935   -3.9864 C   0  0  0  0  0  0  0  0  0  0  0  0
   -1.0148    2.8655   -3.4929 O   0  0  0  0  0  0  0  0  0  0  0  0
    0.1601   -0.2024   -4.3590 C   0  0  0  0  0  0  0  0  0  0  0  0
   -1.0479    1.2368   -1.9074 H   0  0  0  0  0  0  0  0  0  0  0  0
    1.5205    1.0408   -3.2389 H   0  0  0  0  0  0  0  0  0  0  0  0
   -0.9157   -0.3059   -4.5316 H   0  0  0  0  0  0  0  0  0  0  0  0
    0.6535   -0.0304   -5.3200 H   0  0  0  0  0  0  0  0  0  0  0  0
    0.5386   -1.1414   -3.9426 H   0  0  0  0  0  0  0  0  0  0  0  0
    0.6063    2.8687   -5.0599 N   0  0  0  0  0  0  0  0  0  0  0  0
    0.2028    4.1354   -5.6581 C   0  0  0  0  0  0  0  0  0  0  0  0
    1.4145    2.3812   -5.4360 H   0  0  0  0  0  0  0  0  0  0  0  0
   -0.8207    4.0687   -6.0418 H   0  0  0  0  0  0  0  0  0  0  0  0
    0.2501    4.9417   -4.9184 H   0  0  0  0  0  0  0  0  0  0  0  0
    0.8674    4.3900   -6.4892 H   0  0  0  0  0  0  0  0  0  0  0  0
  1  2  2  0  0  0  0
  1  3  1  0  0  0  0
  1  7  1  0  0  0  0
  3  4  1  0  0  0  0
  3  5  1  0  0  0  0
  3  6  1  0  0  0  0
  7  8  1  0  0  0  0
  7 12  1  0  0  0  0
  8  9  1  0  0  0  0
  8 11  1  0  0  0  0
  8 13  1  0  0  0  0
  9 10  2  0  0  0  0
  9 17  1  0  0  0  0
 11 14  1  0  0  0  0
 11 15  1  0  0  0  0
 11 16  1  0  0  0  0
 17 18  1  0  0  0  0
 17 25  1  0  0  0  0
 18 19  1  0  0  0  0
 18 21  1  0  0  0  0
 18 26  1  0  0  0  0
 19 20  2  0  0  0  0
 19 36  1  0  0  0  0
 21 22  1  0  0  0  0
 21 23  1  0  0  0  0
 21 27  1  0  0  0  0
 22 24  1  0  0  0  0
 22 28  1  0  0  0  0
 22 29  1  0  0  0  0
 23 30  1  0  0  0  0
 23 31  1  0  0  0  0
 23 32  1  0  0  0  0
 24 33  1  0  0  0  0
 24 34  1  0  0  0  0
 24 35  1  0  0  0  0
 36 37  1  0  0  0  0
 36 41  1  0  0  0  0
 37 38  1  0  0  0  0
 37 40  1  0  0  0  0
 37 42  1  0  0  0  0
 38 39  2  0  0  0  0
 38 46  1  0  0  0  0
 40 43  1  0  0  0  0
 40 44  1  0  0  0  0
 40 45  1  0  0  0  0
 46 47  1  0  0  0  0
 46 48  1  0  0  0  0
 47 49  1  0  0  0  0
 47 50  1  0  0  0  0
 47 51  1  0  0  0  0
M  END
$$$$

  -OEChem-05262216503D

 51 50  0     1  0  0  0  0  0999 V2000
    1.4941   -5.9278    1.0562 C   0  0  0  0  0  0  0  0  0  0  0  0
    0.6980   -6.5186    0.3427 O   0  0  0  0  0  0  0  0  0  0  0  0
    2.8421   -6.5489    1.3704 C   0  0  0  0  0  0  0  0  0  0  0  0
    2.9049   -7.5520    0.9395 H   0  0  0  0  0  0  0  0  0  0  0  0
    3.6418   -5.9341    0.9507 H   0  0  0  0  0  0  0  0  0  0  0  0
    2.9774   -6.6208    2.4522 H   0  0  0  0  0  0  0  0  0  0  0  0
    1.1728   -4.6915    1.5741 N   0  0  0  0  0  0  0  0  0  0  0  0
   -0.0110   -3.9145    1.1873 C   0  0  2  0  0  0  0  0  0  0  0  0
    0.2540   -2.3960    1.2765 C   0  0  0  0  0  0  0  0  0  0  0  0
    1.2050   -2.0047    1.9417 O   0  0  0  0  0  0  0  0  0  0  0  0
   -1.1745   -4.3149    2.0999 C   0  0  0  0  0  0  0  0  0  0  0  0
    1.9105   -4.1794    2.0578 H   0  0  0  0  0  0  0  0  0  0  0  0
   -0.2708   -4.1395    0.1471 H   0  0  0  0  0  0  0  0  0  0  0  0
   -0.9314   -4.0975    3.1449 H   0  0  0  0  0  0  0  0  0  0  0  0
   -2.0822   -3.7670    1.8306 H   0  0  0  0  0  0  0  0  0  0  0  0
   -1.3791   -5.3862    2.0052 H   0  0  0  0  0  0  0  0  0  0  0  0
   -0.5952   -1.5322    0.5981 N   0  0  0  0  0  0  0  0  0  0  0  0
   -0.3981   -0.0921    0.2955 C   0  0  2  0  0  0  0  0  0  0  0  0
    0.3203    0.0498   -1.0700 C   0  0  0  0  0  0  0  0  0  0  0  0
    1.2060   -0.7228   -1.4144 O   0  0  0  0  0  0  0  0  0  0  0  0
    0.2648    0.7737    1.4122 C   0  0  2  0  0  0  0  0  0  0  0  0
   -0.6515    0.7803    2.6600 C   0  0  0  0  0  0  0  0  0  0  0  0
    0.4870    2.2256    0.9356 C   0  0  0  0  0  0  0  0  0  0  0  0
    0.0251    1.3748    3.8989 C   0  0  0  0  0  0  0  0  0  0  0  0
   -1.2719   -2.0130    0.0133 H   0  0  0  0  0  0  0  0  0  0  0  0
   -1.3989    0.3257    0.1533 H   0  0  0  0  0  0  0  0  0  0  0  0
    1.2475    0.3703    1.6680 H   0  0  0  0  0  0  0  0  0  0  0  0
   -1.5727    1.3324    2.4464 H   0  0  0  0  0  0  0  0  0  0  0  0
   -0.9350   -0.2478    2.9047 H   0  0  0  0  0  0  0  0  0  0  0  0
   -0.4577    2.6808    0.6220 H   0  0  0  0  0  0  0  0  0  0  0  0
    0.9180    2.8379    1.7314 H   0  0  0  0  0  0  0  0  0  0  0  0
    1.1892    2.2604    0.0976 H   0  0  0  0  0  0  0  0  0  0  0  0
    0.9857    0.8821    4.0798 H   0  0  0  0  0  0  0  0  0  0  0  0
   -0.6107    1.2247    4.7765 H   0  0  0  0  0  0  0  0  0  0  0  0
    0.1944    2.4486    3.7845 H   0  0  0  0  0  0  0  0  0  0  0  0
   -0.1296    0.9783   -1.9904 N   0  0  0  0  0  0  0  0  0  0  0  0
    0.5601    1.2920   -3.2483 C   0  0  2  0  0  0  0  0  0  0  0  0
    0.3857    2.7802   -3.6182 C   0  0  0  0  0  0  0  0  0  0  0  0
   -0.3986    3.4801   -2.9850 O   0  0  0  0  0  0  0  0  0  0  0  0
    0.0020    0.3871   -4.3505 C   0  0  0  0  0  0  0  0  0  0  0  0
   -0.7756    1.6904   -1.6498 H   0  0  0  0  0  0  0  0  0  0  0  0
    1.6344    1.1066   -3.1391 H   0  0  0  0  0  0  0  0  0  0  0  0
   -1.0690    0.5666   -4.4872 H   0  0  0  0  0  0  0  0  0  0  0  0
    0.5121    0.5775   -5.2993 H   0  0  0  0  0  0  0  0  0  0  0  0
    0.1488   -0.6651   -4.0866 H   0  0  0  0  0  0  0  0  0  0  0  0
    1.1192    3.3419   -4.6467 N   0  0  0  0  0  0  0  0  0  0  0  0
    1.0063    4.7415   -5.0396 C   0  0  0  0  0  0  0  0  0  0  0  0
    1.7711    2.7416   -5.1435 H   0  0  0  0  0  0  0  0  0  0  0  0
   -0.0070    4.9597   -5.3927 H   0  0  0  0  0  0  0  0  0  0  0  0
    1.2339    5.3977   -4.1930 H   0  0  0  0  0  0  0  0  0  0  0  0
    1.7093    4.9654   -5.8476 H   0  0  0  0  0  0  0  0  0  0  0  0
  1  2  2  0  0  0  0
  1  3  1  0  0  0  0
  1  7  1  0  0  0  0
  3  4  1  0  0  0  0
  3  5  1  0  0  0  0
  3  6  1  0  0  0  0
  7  8  1  0  0  0  0
  7 12  1  0  0  0  0
  8  9  1  0  0  0  0
  8 11  1  0  0  0  0
  8 13  1  0  0  0  0
  9 10  2  0  0  0  0
  9 17  1  0  0  0  0
 11 14  1  0  0  0  0
 11 15  1  0  0  0  0
 11 16  1  0  0  0  0
 17 18  1  0  0  0  0
 17 25  1  0  0  0  0
 18 19  1  0  0  0  0
 18 21  1  0  0  0  0
 18 26  1  0  0  0  0
 19 20  2  0  0  0  0
 19 36  1  0  0  0  0
 21 22  1  0  0  0  0
 21 23  1  0  0  0  0
 21 27  1  0  0  0  0
 22 24  1  0  0  0  0
 22 28  1  0  0  0  0
 22 29  1  0  0  0  0
 23 30  1  0  0  0  0
 23 31  1  0  0  0  0
 23 32  1  0  0  0  0
 24 33  1  0  0  0  0
 24 34  1  0  0  0  0
 24 35  1  0  0  0  0
 36 37  1  0  0  0  0
 36 41  1  0  0  0  0
 37 38  1  0  0  0  0
 37 40  1  0  0  0  0
 37 42  1  0  0  0  0
 38 39  2  0  0  0  0
 38 46  1  0  0  0  0
 40 43  1  0  0  0  0
 40 44  1  0  0  0  0
 40 45  1  0  0  0  0
 46 47  1  0  0  0  0
 46 48  1  0  0  0  0
 47 49  1  0  0  0  0
 47 50  1  0  0  0  0
 47 51  1  0  0  0  0
M  END
$$$$

  -OEChem-05262216503D

 51 50  0     1  0  0  0  0  0999 V2000
    1.4929   -5.9505    1.0841 C   0  0  0  0  0  0  0  0  0  0  0  0
    0.6851   -6.5463    0.3882 O   0  0  0  0  0  0  0  0  0  0  0  0
    2.8121   -6.6056    1.4482 C   0  0  0  0  0  0  0  0  0  0  0  0
    2.8604   -7.6142    1.0287 H   0  0  0  0  0  0  0  0  0  0  0  0
    3.6424   -6.0181    1.0492 H   0  0  0  0  0  0  0  0  0  0  0  0
    2.9099   -6.6710    2.5345 H   0  0  0  0  0  0  0  0  0  0  0  0
    1.2090   -4.6805    1.5392 N   0  0  0  0  0  0  0  0  0  0  0  0
    0.0466   -3.8886    1.1176 C   0  0  2  0  0  0  0  0  0  0  0  0
    0.3264   -2.3719    1.2019 C   0  0  0  0  0  0  0  0  0  0  0  0
    1.3076   -1.9885    1.8269 O   0  0  0  0  0  0  0  0  0  0  0  0
   -1.1471   -4.2635    2.0025 C   0  0  0  0  0  0  0  0  0  0  0  0
    1.9572   -4.1707    2.0090 H   0  0  0  0  0  0  0  0  0  0  0  0
   -0.1891   -4.1184    0.0728 H   0  0  0  0  0  0  0  0  0  0  0  0
   -0.9248   -4.0498    3.0529 H   0  0  0  0  0  0  0  0  0  0  0  0
   -2.0365   -3.6971    1.7113 H   0  0  0  0  0  0  0  0  0  0  0  0
   -1.3730   -5.3300    1.9041 H   0  0  0  0  0  0  0  0  0  0  0  0
   -0.5420   -1.5004    0.5587 N   0  0  0  0  0  0  0  0  0  0  0  0
   -0.3744   -0.0493    0.2882 C   0  0  2  0  0  0  0  0  0  0  0  0
    0.3220    0.1426   -1.0861 C   0  0  0  0  0  0  0  0  0  0  0  0
    0.9855   -0.7508   -1.5997 O   0  0  0  0  0  0  0  0  0  0  0  0
    0.2643    0.7868    1.4467 C   0  0  2  0  0  0  0  0  0  0  0  0
   -0.6712    0.7294    2.6801 C   0  0  0  0  0  0  0  0  0  0  0  0
    0.4876    2.2608    1.0474 C   0  0  0  0  0  0  0  0  0  0  0  0
   -0.0302    1.2848    3.9561 C   0  0  0  0  0  0  0  0  0  0  0  0
   -1.2197   -1.9758   -0.0296 H   0  0  0  0  0  0  0  0  0  0  0  0
   -1.3836    0.3526    0.1576 H   0  0  0  0  0  0  0  0  0  0  0  0
    1.2464    0.3848    1.7046 H   0  0  0  0  0  0  0  0  0  0  0  0
   -1.5980    1.2743    2.4725 H   0  0  0  0  0  0  0  0  0  0  0  0
   -0.9409   -0.3118    2.8799 H   0  0  0  0  0  0  0  0  0  0  0  0
   -0.4468    2.7200    0.7098 H   0  0  0  0  0  0  0  0  0  0  0  0
    0.8727    2.8426    1.8882 H   0  0  0  0  0  0  0  0  0  0  0  0
    1.2318    2.3392    0.2498 H   0  0  0  0  0  0  0  0  0  0  0  0
    0.9427    0.8146    4.1305 H   0  0  0  0  0  0  0  0  0  0  0  0
   -0.6740    1.0747    4.8154 H   0  0  0  0  0  0  0  0  0  0  0  0
    0.1059    2.3677    3.8954 H   0  0  0  0  0  0  0  0  0  0  0  0
    0.0607    1.2667   -1.8478 N   0  0  0  0  0  0  0  0  0  0  0  0
    0.7515    1.5975   -3.1002 C   0  0  2  0  0  0  0  0  0  0  0  0
    0.9168    3.1242   -3.2521 C   0  0  0  0  0  0  0  0  0  0  0  0
    0.3459    3.8829   -2.4746 O   0  0  0  0  0  0  0  0  0  0  0  0
   -0.0526    1.0169   -4.2675 C   0  0  0  0  0  0  0  0  0  0  0  0
   -0.3949    2.0466   -1.3742 H   0  0  0  0  0  0  0  0  0  0  0  0
    1.7553    1.1589   -3.0992 H   0  0  0  0  0  0  0  0  0  0  0  0
   -1.0559    1.4537   -4.2952 H   0  0  0  0  0  0  0  0  0  0  0  0
    0.4453    1.2237   -5.2194 H   0  0  0  0  0  0  0  0  0  0  0  0
   -0.1474   -0.0682   -4.1592 H   0  0  0  0  0  0  0  0  0  0  0  0
    1.7186    3.6493   -4.2484 N   0  0  0  0  0  0  0  0  0  0  0  0
    1.9288    5.0796   -4.4378 C   0  0  0  0  0  0  0  0  0  0  0  0
    2.1995    2.9957   -4.8599 H   0  0  0  0  0  0  0  0  0  0  0  0
    0.9747    5.5872   -4.6150 H   0  0  0  0  0  0  0  0  0  0  0  0
    2.4029    5.5182   -3.5535 H   0  0  0  0  0  0  0  0  0  0  0  0
    2.5780    5.2555   -5.3011 H   0  0  0  0  0  0  0  0  0  0  0  0
  1  2  2  0  0  0  0
  1  3  1  0  0  0  0
  1  7  1  0  0  0  0
  3  4  1  0  0  0  0
  3  5  1  0  0  0  0
  3  6  1  0  0  0  0
  7  8  1  0  0  0  0
  7 12  1  0  0  0  0
  8  9  1  0  0  0  0
  8 11  1  0  0  0  0
  8 13  1  0  0  0  0
  9 10  2  0  0  0  0
  9 17  1  0  0  0  0
 11 14  1  0  0  0  0
 11 15  1  0  0  0  0
 11 16  1  0  0  0  0
 17 18  1  0  0  0  0
 17 25  1  0  0  0  0
 18 19  1  0  0  0  0
 18 21  1  0  0  0  0
 18 26  1  0  0  0  0
 19 20  2  0  0  0  0
 19 36  1  0  0  0  0
 21 22  1  0  0  0  0
 21 23  1  0  0  0  0
 21 27  1  0  0  0  0
 22 24  1  0  0  0  0
 22 28  1  0  0  0  0
 22 29  1  0  0  0  0
 23 30  1  0  0  0  0
 23 31  1  0  0  0  0
 23 32  1  0  0  0  0
 24 33  1  0  0  0  0
 24 34  1  0  0  0  0
 24 35  1  0  0  0  0
 36 37  1  0  0  0  0
 36 41  1  0  0  0  0
 37 38  1  0  0  0  0
 37 40  1  0  0  0  0
 37 42  1  0  0  0  0
 38 39  2  0  0  0  0
 38 46  1  0  0  0  0
 40 43  1  0  0  0  0
 40 44  1  0  0  0  0
 40 45  1  0  0  0  0
 46 47  1  0  0  0  0
 46 48  1  0  0  0  0
 47 49  1  0  0  0  0
 47 50  1  0  0  0  0
 47 51  1  0  0  0  0
M  END
$$$$

  -OEChem-05262216503D

 51 50  0     1  0  0  0  0  0999 V2000
    1.4859   -5.9326    1.0415 C   0  0  0  0  0  0  0  0  0  0  0  0
    0.6750   -6.5212    0.3432 O   0  0  0  0  0  0  0  0  0  0  0  0
    2.7858   -6.6095    1.4332 C   0  0  0  0  0  0  0  0  0  0  0  0
    2.8277   -7.6178    1.0122 H   0  0  0  0  0  0  0  0  0  0  0  0
    3.6345   -6.0343    1.0553 H   0  0  0  0  0  0  0  0  0  0  0  0
    2.8566   -6.6788    2.5213 H   0  0  0  0  0  0  0  0  0  0  0  0
    1.2218   -4.6532    1.4812 N   0  0  0  0  0  0  0  0  0  0  0  0
    0.0741   -3.8456    1.0495 C   0  0  2  0  0  0  0  0  0  0  0  0
    0.3714   -2.3327    1.1427 C   0  0  0  0  0  0  0  0  0  0  0  0
    1.3818   -1.9658    1.7301 O   0  0  0  0  0  0  0  0  0  0  0  0
   -1.1327   -4.2078    1.9224 C   0  0  0  0  0  0  0  0  0  0  0  0
    1.9732   -4.1543    1.9572 H   0  0  0  0  0  0  0  0  0  0  0  0
   -0.1545   -4.0691    0.0016 H   0  0  0  0  0  0  0  0  0  0  0  0
   -0.9239   -3.9830    2.9732 H   0  0  0  0  0  0  0  0  0  0  0  0
   -2.0166   -3.6423    1.6131 H   0  0  0  0  0  0  0  0  0  0  0  0
   -1.3605   -5.2747    1.8333 H   0  0  0  0  0  0  0  0  0  0  0  0
   -0.5114   -1.4455    0.5429 N   0  0  0  0  0  0  0  0  0  0  0  0
   -0.3642    0.0167    0.3186 C   0  0  2  0  0  0  0  0  0  0  0  0
    0.3130    0.2459   -1.0647 C   0  0  0  0  0  0  0  0  0  0  0  0
    0.7329   -0.6970   -1.7280 O   0  0  0  0  0  0  0  0  0  0  0  0
    0.2663    0.8013    1.5237 C   0  0  2  0  0  0  0  0  0  0  0  0
   -0.6801    0.6706    2.7453 C   0  0  0  0  0  0  0  0  0  0  0  0
    0.4815    2.2987    1.2195 C   0  0  0  0  0  0  0  0  0  0  0  0
   -0.0601    1.1619    4.0580 C   0  0  0  0  0  0  0  0  0  0  0  0
   -1.1919   -1.9061   -0.0544 H   0  0  0  0  0  0  0  0  0  0  0  0
   -1.3758    0.4167    0.2048 H   0  0  0  0  0  0  0  0  0  0  0  0
    1.2498    0.3960    1.7687 H   0  0  0  0  0  0  0  0  0  0  0  0
   -1.6104    1.2164    2.5573 H   0  0  0  0  0  0  0  0  0  0  0  0
   -0.9414   -0.3820    2.8883 H   0  0  0  0  0  0  0  0  0  0  0  0
   -0.4407    2.7586    0.8507 H   0  0  0  0  0  0  0  0  0  0  0  0
    0.8030    2.8435    2.1097 H   0  0  0  0  0  0  0  0  0  0  0  0
    1.2740    2.4329    0.4786 H   0  0  0  0  0  0  0  0  0  0  0  0
    0.9228    0.7048    4.2106 H   0  0  0  0  0  0  0  0  0  0  0  0
   -0.7035    0.8836    4.8980 H   0  0  0  0  0  0  0  0  0  0  0  0
    0.0498    2.2492    4.0669 H   0  0  0  0  0  0  0  0  0  0  0  0
    0.3002    1.4862   -1.6751 N   0  0  0  0  0  0  0  0  0  0  0  0
    1.0130    1.8123   -2.9168 C   0  0  2  0  0  0  0  0  0  0  0  0
    1.5048    3.2749   -2.9031 C   0  0  0  0  0  0  0  0  0  0  0  0
    1.1147    4.0445   -2.0306 O   0  0  0  0  0  0  0  0  0  0  0  0
    0.0707    1.5679   -4.0996 C   0  0  0  0  0  0  0  0  0  0  0  0
    0.0370    2.2811   -1.0929 H   0  0  0  0  0  0  0  0  0  0  0  0
    1.8959    1.1716   -3.0174 H   0  0  0  0  0  0  0  0  0  0  0  0
   -0.8157    2.2053   -4.0208 H   0  0  0  0  0  0  0  0  0  0  0  0
    0.5752    1.7866   -5.0454 H   0  0  0  0  0  0  0  0  0  0  0  0
   -0.2523    0.5222   -4.1167 H   0  0  0  0  0  0  0  0  0  0  0  0
    2.3946    3.7282   -3.8591 N   0  0  0  0  0  0  0  0  0  0  0  0
    2.9088    5.0920   -3.8899 C   0  0  0  0  0  0  0  0  0  0  0  0
    2.7166    3.0637   -4.5570 H   0  0  0  0  0  0  0  0  0  0  0  0
    2.0875    5.8090   -3.9934 H   0  0  0  0  0  0  0  0  0  0  0  0
    3.4577    5.3150   -2.9689 H   0  0  0  0  0  0  0  0  0  0  0  0
    3.5885    5.2210   -4.7377 H   0  0  0  0  0  0  0  0  0  0  0  0
  1  2  2  0  0  0  0
  1  3  1  0  0  0  0
  1  7  1  0  0  0  0
  3  4  1  0  0  0  0
  3  5  1  0  0  0  0
  3  6  1  0  0  0  0
  7  8  1  0  0  0  0
  7 12  1  0  0  0  0
  8  9  1  0  0  0  0
  8 11  1  0  0  0  0
  8 13  1  0  0  0  0
  9 10  2  0  0  0  0
  9 17  1  0  0  0  0
 11 14  1  0  0  0  0
 11 15  1  0  0  0  0
 11 16  1  0  0  0  0
 17 18  1  0  0  0  0
 17 25  1  0  0  0  0
 18 19  1  0  0  0  0
 18 21  1  0  0  0  0
 18 26  1  0  0  0  0
 19 20  2  0  0  0  0
 19 36  1  0  0  0  0
 21 22  1  0  0  0  0
 21 23  1  0  0  0  0
 21 27  1  0  0  0  0
 22 24  1  0  0  0  0
 22 28  1  0  0  0  0
 22 29  1  0  0  0  0
 23 30  1  0  0  0  0
 23 31  1  0  0  0  0
 23 32  1  0  0  0  0
 24 33  1  0  0  0  0
 24 34  1  0  0  0  0
 24 35  1  0  0  0  0
 36 37  1  0  0  0  0
 36 41  1  0  0  0  0
 37 38  1  0  0  0  0
 37 40  1  0  0  0  0
 37 42  1  0  0  0  0
 38 39  2  0  0  0  0
 38 46  1  0  0  0  0
 40 43  1  0  0  0  0
 40 44  1  0  0  0  0
 40 45  1  0  0  0  0
 46 47  1  0  0  0  0
 46 48  1  0  0  0  0
 47 49  1  0  0  0  0
 47 50  1  0  0  0  0
 47 51  1  0  0  0  0
M  END
$$$$

  -OEChem-05262216503D

 51 50  0     1  0  0  0  0  0999 V2000
    1.4786   -5.9434    0.7896 C   0  0  0  0  0  0  0  0  0  0  0  0
    0.6998   -6.4574    0.0021 O   0  0  0  0  0  0  0  0  0  0  0  0
    2.7425   -6.6761    1.1980 C   0  0  0  0  0  0  0  0  0  0  0  0
    2.7961   -7.6455    0.6947 H   0  0  0  0  0  0  0  0  0  0  0  0
    3.6207   -6.0870    0.9227 H   0  0  0  0  0  0  0  0  0  0  0  0
    2.7456   -6.8390    2.2785 H   0  0  0  0  0  0  0  0  0  0  0  0
    1.2142   -4.6947    1.3093 N   0  0  0  0  0  0  0  0  0  0  0  0
    0.1105   -3.8292    0.8746 C   0  0  2  0  0  0  0  0  0  0  0  0
    0.4372   -2.3345    1.0909 C   0  0  0  0  0  0  0  0  0  0  0  0
    1.4404   -2.0416    1.7301 O   0  0  0  0  0  0  0  0  0  0  0  0
   -1.1492   -4.2211    1.6557 C   0  0  0  0  0  0  0  0  0  0  0  0
    1.9463   -4.2509    1.8634 H   0  0  0  0  0  0  0  0  0  0  0  0
   -0.0664   -3.9740   -0.1970 H   0  0  0  0  0  0  0  0  0  0  0  0
   -0.9894   -4.0842    2.7300 H   0  0  0  0  0  0  0  0  0  0  0  0
   -2.0012   -3.6075    1.3483 H   0  0  0  0  0  0  0  0  0  0  0  0
   -1.4000   -5.2708    1.4723 H   0  0  0  0  0  0  0  0  0  0  0  0
   -0.4109   -1.3838    0.5393 N   0  0  0  0  0  0  0  0  0  0  0  0
   -0.2797    0.0961    0.4419 C   0  0  2  0  0  0  0  0  0  0  0  0
    0.0898    0.4359   -1.0350 C   0  0  0  0  0  0  0  0  0  0  0  0
    0.0715   -0.4464   -1.8890 O   0  0  0  0  0  0  0  0  0  0  0  0
    0.5763    0.7696    1.5762 C   0  0  2  0  0  0  0  0  0  0  0  0
   -0.1319    0.5208    2.9373 C   0  0  0  0  0  0  0  0  0  0  0  0
    0.7597    2.2910    1.3894 C   0  0  0  0  0  0  0  0  0  0  0  0
    0.7205    0.8864    4.1581 C   0  0  0  0  0  0  0  0  0  0  0  0
   -1.0530   -1.7843   -0.1412 H   0  0  0  0  0  0  0  0  0  0  0  0
   -1.2867    0.5036    0.5694 H   0  0  0  0  0  0  0  0  0  0  0  0
    1.5805    0.3387    1.5912 H   0  0  0  0  0  0  0  0  0  0  0  0
   -1.0696    1.0849    2.9726 H   0  0  0  0  0  0  0  0  0  0  0  0
   -0.3902   -0.5370    3.0320 H   0  0  0  0  0  0  0  0  0  0  0  0
   -0.1932    2.7717    1.1468 H   0  0  0  0  0  0  0  0  0  0  0  0
    1.1582    2.7639    2.2887 H   0  0  0  0  0  0  0  0  0  0  0  0
    1.4854    2.4953    0.5981 H   0  0  0  0  0  0  0  0  0  0  0  0
    1.7111    0.4274    4.0810 H   0  0  0  0  0  0  0  0  0  0  0  0
    0.2392    0.5160    5.0682 H   0  0  0  0  0  0  0  0  0  0  0  0
    0.8377    1.9679    4.2603 H   0  0  0  0  0  0  0  0  0  0  0  0
    0.2872    1.7271   -1.4857 N   0  0  0  0  0  0  0  0  0  0  0  0
    0.6965    2.0972   -2.8466 C   0  0  2  0  0  0  0  0  0  0  0  0
    1.4917    3.4203   -2.8446 C   0  0  0  0  0  0  0  0  0  0  0  0
    1.5265    4.1137   -1.8328 O   0  0  0  0  0  0  0  0  0  0  0  0
   -0.5562    2.2244   -3.7206 C   0  0  0  0  0  0  0  0  0  0  0  0
    0.3665    2.4588   -0.7805 H   0  0  0  0  0  0  0  0  0  0  0  0
    1.3496    1.3202   -3.2584 H   0  0  0  0  0  0  0  0  0  0  0  0
   -1.2199    3.0015   -3.3281 H   0  0  0  0  0  0  0  0  0  0  0  0
   -0.2842    2.4839   -4.7479 H   0  0  0  0  0  0  0  0  0  0  0  0
   -1.1037    1.2770   -3.7407 H   0  0  0  0  0  0  0  0  0  0  0  0
    2.1749    3.8339   -3.9734 N   0  0  0  0  0  0  0  0  0  0  0  0
    2.9511    5.0668   -4.0319 C   0  0  0  0  0  0  0  0  0  0  0  0
    2.1437    3.2318   -4.7912 H   0  0  0  0  0  0  0  0  0  0  0  0
    2.3157    5.9314   -3.8124 H   0  0  0  0  0  0  0  0  0  0  0  0
    3.7709    5.0387   -3.3064 H   0  0  0  0  0  0  0  0  0  0  0  0
    3.3775    5.1977   -5.0310 H   0  0  0  0  0  0  0  0  0  0  0  0
  1  2  2  0  0  0  0
  1  3  1  0  0  0  0
  1  7  1  0  0  0  0
  3  4  1  0  0  0  0
  3  5  1  0  0  0  0
  3  6  1  0  0  0  0
  7  8  1  0  0  0  0
  7 12  1  0  0  0  0
  8  9  1  0  0  0  0
  8 11  1  0  0  0  0
  8 13  1  0  0  0  0
  9 10  2  0  0  0  0
  9 17  1  0  0  0  0
 11 14  1  0  0  0  0
 11 15  1  0  0  0  0
 11 16  1  0  0  0  0
 17 18  1  0  0  0  0
 17 25  1  0  0  0  0
 18 19  1  0  0  0  0
 18 21  1  0  0  0  0
 18 26  1  0  0  0  0
 19 20  2  0  0  0  0
 19 36  1  0  0  0  0
 21 22  1  0  0  0  0
 21 23  1  0  0  0  0
 21 27  1  0  0  0  0
 22 24  1  0  0  0  0
 22 28  1  0  0  0  0
 22 29  1  0  0  0  0
 23 30  1  0  0  0  0
 23 31  1  0  0  0  0
 23 32  1  0  0  0  0
 24 33  1  0  0  0  0
 24 34  1  0  0  0  0
 24 35  1  0  0  0  0
 36 37  1  0  0  0  0
 36 41  1  0  0  0  0
 37 38  1  0  0  0  0
 37 40  1  0  0  0  0
 37 42  1  0  0  0  0
 38 39  2  0  0  0  0
 38 46  1  0  0  0  0
 40 43  1  0  0  0  0
 40 44  1  0  0  0  0
 40 45  1  0  0  0  0
 46 47  1  0  0  0  0
 46 48  1  0  0  0  0
 47 49  1  0  0  0  0
 47 50  1  0  0  0  0
 47 51  1  0  0  0  0
M  END
$$$$

  -OEChem-05262216503D

 51 50  0     1  0  0  0  0  0999 V2000
    1.4687   -5.9364    0.7484 C   0  0  0  0  0  0  0  0  0  0  0  0
    0.6813   -6.4294   -0.0440 O   0  0  0  0  0  0  0  0  0  0  0  0
    2.7104   -6.7029    1.1633 C   0  0  0  0  0  0  0  0  0  0  0  0
    2.7781   -7.6411    0.6056 H   0  0  0  0  0  0  0  0  0  0  0  0
    3.6031   -6.1069    0.9588 H   0  0  0  0  0  0  0  0  0  0  0  0
    2.6680   -6.9296    2.2313 H   0  0  0  0  0  0  0  0  0  0  0  0
    1.2322   -4.6823    1.2698 N   0  0  0  0  0  0  0  0  0  0  0  0
    0.1377   -3.7971    0.8496 C   0  0  2  0  0  0  0  0  0  0  0  0
    0.4807   -2.3077    1.0761 C   0  0  0  0  0  0  0  0  0  0  0  0
    1.4844   -2.0262    1.7193 O   0  0  0  0  0  0  0  0  0  0  0  0
   -1.1225   -4.1770    1.6356 C   0  0  0  0  0  0  0  0  0  0  0  0
    1.9674   -4.2608    1.8367 H   0  0  0  0  0  0  0  0  0  0  0  0
   -0.0482   -3.9309   -0.2219 H   0  0  0  0  0  0  0  0  0  0  0  0
   -0.9583   -4.0390    2.7091 H   0  0  0  0  0  0  0  0  0  0  0  0
   -1.9697   -3.5564    1.3294 H   0  0  0  0  0  0  0  0  0  0  0  0
   -1.3825   -5.2248    1.4547 H   0  0  0  0  0  0  0  0  0  0  0  0
   -0.3555   -1.3448    0.5284 N   0  0  0  0  0  0  0  0  0  0  0  0
   -0.2289    0.1366    0.4750 C   0  0  2  0  0  0  0  0  0  0  0  0
    0.1788    0.4971   -0.9877 C   0  0  0  0  0  0  0  0  0  0  0  0
   -0.0634   -0.3047   -1.8865 O   0  0  0  0  0  0  0  0  0  0  0  0
    0.5743    0.7828    1.6633 C   0  0  2  0  0  0  0  0  0  0  0  0
   -0.1963    0.4887    2.9815 C   0  0  0  0  0  0  0  0  0  0  0  0
    0.7381    2.3129    1.5259 C   0  0  0  0  0  0  0  0  0  0  0  0
    0.5910    0.8196    4.2552 C   0  0  0  0  0  0  0  0  0  0  0  0
   -0.9946   -1.7266   -0.1664 H   0  0  0  0  0  0  0  0  0  0  0  0
   -1.2419    0.5379    0.5741 H   0  0  0  0  0  0  0  0  0  0  0  0
    1.5817    0.3622    1.7149 H   0  0  0  0  0  0  0  0  0  0  0  0
   -1.1402    1.0433    2.9889 H   0  0  0  0  0  0  0  0  0  0  0  0
   -0.4470   -0.5740    3.0309 H   0  0  0  0  0  0  0  0  0  0  0  0
   -0.1763    2.7698    1.1343 H   0  0  0  0  0  0  0  0  0  0  0  0
    0.9670    2.7887    2.4804 H   0  0  0  0  0  0  0  0  0  0  0  0
    1.5776    2.5481    0.8665 H   0  0  0  0  0  0  0  0  0  0  0  0
    1.5888    0.3719    4.2121 H   0  0  0  0  0  0  0  0  0  0  0  0
    0.0683    0.4115    5.1254 H   0  0  0  0  0  0  0  0  0  0  0  0
    0.6923    1.8973    4.4036 H   0  0  0  0  0  0  0  0  0  0  0  0
    0.6782    1.7243   -1.3786 N   0  0  0  0  0  0  0  0  0  0  0  0
    1.1071    2.0762   -2.7383 C   0  0  2  0  0  0  0  0  0  0  0  0
    2.1718    3.1934   -2.7108 C   0  0  0  0  0  0  0  0  0  0  0  0
    2.3739    3.8229   -1.6773 O   0  0  0  0  0  0  0  0  0  0  0  0
   -0.1168    2.5261   -3.5444 C   0  0  0  0  0  0  0  0  0  0  0  0
    0.9385    2.3793   -0.6440 H   0  0  0  0  0  0  0  0  0  0  0  0
    1.5580    1.2014   -3.2191 H   0  0  0  0  0  0  0  0  0  0  0  0
   -0.5795    3.4031   -3.0801 H   0  0  0  0  0  0  0  0  0  0  0  0
    0.1704    2.7839   -4.5683 H   0  0  0  0  0  0  0  0  0  0  0  0
   -0.8597    1.7234   -3.5891 H   0  0  0  0  0  0  0  0  0  0  0  0
    2.9096    3.4913   -3.8417 N   0  0  0  0  0  0  0  0  0  0  0  0
    3.9506    4.5120   -3.8722 C   0  0  0  0  0  0  0  0  0  0  0  0
    2.7439    2.9316   -4.6733 H   0  0  0  0  0  0  0  0  0  0  0  0
    3.5550    5.4753   -3.5331 H   0  0  0  0  0  0  0  0  0  0  0  0
    4.7856    4.2267   -3.2238 H   0  0  0  0  0  0  0  0  0  0  0  0
    4.3290    4.6358   -4.8914 H   0  0  0  0  0  0  0  0  0  0  0  0
  1  2  2  0  0  0  0
  1  3  1  0  0  0  0
  1  7  1  0  0  0  0
  3  4  1  0  0  0  0
  3  5  1  0  0  0  0
  3  6  1  0  0  0  0
  7  8  1  0  0  0  0
  7 12  1  0  0  0  0
  8  9  1  0  0  0  0
  8 11  1  0  0  0  0
  8 13  1  0  0  0  0
  9 10  2  0  0  0  0
  9 17  1  0  0  0  0
 11 14  1  0  0  0  0
 11 15  1  0  0  0  0
 11 16  1  0  0  0  0
 17 18  1  0  0  0  0
 17 25  1  0  0  0  0
 18 19  1  0  0  0  0
 18 21  1  0  0  0  0
 18 26  1  0  0  0  0
 19 20  2  0  0  0  0
 19 36  1  0  0  0  0
 21 22  1  0  0  0  0
 21 23  1  0  0  0  0
 21 27  1  0  0  0  0
 22 24  1  0  0  0  0
 22 28  1  0  0  0  0
 22 29  1  0  0  0  0
 23 30  1  0  0  0  0
 23 31  1  0  0  0  0
 23 32  1  0  0  0  0
 24 33  1  0  0  0  0
 24 34  1  0  0  0  0
 24 35  1  0  0  0  0
 36 37  1  0  0  0  0
 36 41  1  0  0  0  0
 37 38  1  0  0  0  0
 37 40  1  0  0  0  0
 37 42  1  0  0  0  0
 38 39  2  0  0  0  0
 38 46  1  0  0  0  0
 40 43  1  0  0  0  0
 40 44  1  0  0  0  0
 40 45  1  0  0  0  0
 46 47  1  0  0  0  0
 46 48  1  0  0  0  0
 47 49  1  0  0  0  0
 47 50  1  0  0  0  0
 47 51  1  0  0  0  0
M  END
$$$$

  -OEChem-05262216503D

 51 50  0     1  0  0  0  0  0999 V2000
    1.0288   -5.8082    0.4263 C   0  0  0  0  0  0  0  0  0  0  0  0
   -0.0301   -6.3041    0.0761 O   0  0  0  0  0  0  0  0  0  0  0  0
    2.3121   -6.6130    0.3396 C   0  0  0  0  0  0  0  0  0  0  0  0
    2.0937   -7.6384    0.0282 H   0  0  0  0  0  0  0  0  0  0  0  0
    2.9881   -6.1595   -0.3893 H   0  0  0  0  0  0  0  0  0  0  0  0
    2.8031   -6.6392    1.3154 H   0  0  0  0  0  0  0  0  0  0  0  0
    1.0630   -4.5121    0.8955 N   0  0  0  0  0  0  0  0  0  0  0  0
   -0.0875   -3.5986    0.9028 C   0  0  2  0  0  0  0  0  0  0  0  0
    0.3510   -2.1208    0.8105 C   0  0  0  0  0  0  0  0  0  0  0  0
    1.5400   -1.8406    0.9117 O   0  0  0  0  0  0  0  0  0  0  0  0
   -0.8885   -3.8368    2.1876 C   0  0  0  0  0  0  0  0  0  0  0  0
    1.9781   -4.0981    1.0692 H   0  0  0  0  0  0  0  0  0  0  0  0
   -0.7242   -3.8057    0.0355 H   0  0  0  0  0  0  0  0  0  0  0  0
   -0.2695   -3.6330    3.0671 H   0  0  0  0  0  0  0  0  0  0  0  0
   -1.7671   -3.1858    2.2208 H   0  0  0  0  0  0  0  0  0  0  0  0
   -1.2304   -4.8756    2.2356 H   0  0  0  0  0  0  0  0  0  0  0  0
   -0.6006   -1.1486    0.5474 N   0  0  0  0  0  0  0  0  0  0  0  0
   -0.4421    0.3217    0.4406 C   0  0  2  0  0  0  0  0  0  0  0  0
   -0.5205    0.5760   -1.0952 C   0  0  0  0  0  0  0  0  0  0  0  0
   -1.4795    0.1135   -1.6983 O   0  0  0  0  0  0  0  0  0  0  0  0
    0.6995    0.9749    1.2941 C   0  0  2  0  0  0  0  0  0  0  0  0
    0.3846    0.7251    2.7953 C   0  0  0  0  0  0  0  0  0  0  0  0
    0.7233    2.5175    1.1407 C   0  0  0  0  0  0  0  0  0  0  0  0
    1.5477    1.0742    3.7311 C   0  0  0  0  0  0  0  0  0  0  0  0
   -1.5092   -1.5075    0.2590 H   0  0  0  0  0  0  0  0  0  0  0  0
   -1.3618    0.7675    0.8329 H   0  0  0  0  0  0  0  0  0  0  0  0
    1.6781    0.5727    1.0225 H   0  0  0  0  0  0  0  0  0  0  0  0
   -0.5064    1.2852    3.0973 H   0  0  0  0  0  0  0  0  0  0  0  0
    0.1631   -0.3349    2.9464 H   0  0  0  0  0  0  0  0  0  0  0  0
    0.9255    2.8414    0.1242 H   0  0  0  0  0  0  0  0  0  0  0  0
    1.5075    2.9587    1.7602 H   0  0  0  0  0  0  0  0  0  0  0  0
   -0.2379    2.9473    1.4406 H   0  0  0  0  0  0  0  0  0  0  0  0
    2.4696    0.5922    3.3908 H   0  0  0  0  0  0  0  0  0  0  0  0
    1.3268    0.7196    4.7424 H   0  0  0  0  0  0  0  0  0  0  0  0
    1.7111    2.1538    3.7833 H   0  0  0  0  0  0  0  0  0  0  0  0
    0.0882    1.5636   -1.8296 N   0  0  0  0  0  0  0  0  0  0  0  0
    1.5440    1.5171   -2.0469 C   0  0  2  0  0  0  0  0  0  0  0  0
    2.1306    2.8758   -2.4874 C   0  0  0  0  0  0  0  0  0  0  0  0
    1.4447    3.6881   -3.0941 O   0  0  0  0  0  0  0  0  0  0  0  0
    1.8436    0.4560   -3.1122 C   0  0  0  0  0  0  0  0  0  0  0  0
   -0.4483    1.7766   -2.6690 H   0  0  0  0  0  0  0  0  0  0  0  0
    2.0509    1.2272   -1.1234 H   0  0  0  0  0  0  0  0  0  0  0  0
    1.3455    0.7085   -4.0542 H   0  0  0  0  0  0  0  0  0  0  0  0
    2.9206    0.3919   -3.2957 H   0  0  0  0  0  0  0  0  0  0  0  0
    1.4929   -0.5285   -2.7862 H   0  0  0  0  0  0  0  0  0  0  0  0
    3.4512    3.1804   -2.2114 N   0  0  0  0  0  0  0  0  0  0  0  0
    4.0751    4.4433   -2.5880 C   0  0  0  0  0  0  0  0  0  0  0  0
    4.0028    2.4892   -1.7116 H   0  0  0  0  0  0  0  0  0  0  0  0
    4.0538    4.5727   -3.6753 H   0  0  0  0  0  0  0  0  0  0  0  0
    3.5494    5.2839   -2.1226 H   0  0  0  0  0  0  0  0  0  0  0  0
    5.1183    4.4632   -2.2578 H   0  0  0  0  0  0  0  0  0  0  0  0
  1  2  2  0  0  0  0
  1  3  1  0  0  0  0
  1  7  1  0  0  0  0
  3  4  1  0  0  0  0
  3  5  1  0  0  0  0
  3  6  1  0  0  0  0
  7  8  1  0  0  0  0
  7 12  1  0  0  0  0
  8  9  1  0  0  0  0
  8 11  1  0  0  0  0
  8 13  1  0  0  0  0
  9 10  2  0  0  0  0
  9 17  1  0  0  0  0
 11 14  1  0  0  0  0
 11 15  1  0  0  0  0
 11 16  1  0  0  0  0
 17 18  1  0  0  0  0
 17 25  1  0  0  0  0
 18 19  1  0  0  0  0
 18 21  1  0  0  0  0
 18 26  1  0  0  0  0
 19 20  2  0  0  0  0
 19 36  1  0  0  0  0
 21 22  1  0  0  0  0
 21 23  1  0  0  0  0
 21 27  1  0  0  0  0
 22 24  1  0  0  0  0
 22 28  1  0  0  0  0
 22 29  1  0  0  0  0
 23 30  1  0  0  0  0
 23 31  1  0  0  0  0
 23 32  1  0  0  0  0
 24 33  1  0  0  0  0
 24 34  1  0  0  0  0
 24 35  1  0  0  0  0
 36 37  1  0  0  0  0
 36 41  1  0  0  0  0
 37 38  1  0  0  0  0
 37 40  1  0  0  0  0
 37 42  1  0  0  0  0
 38 39  2  0  0  0  0
 38 46  1  0  0  0  0
 40 43  1  0  0  0  0
 40 44  1  0  0  0  0
 40 45  1  0  0  0  0
 46 47  1  0  0  0  0
 46 48  1  0  0  0  0
 47 49  1  0  0  0  0
 47 50  1  0  0  0  0
 47 51  1  0  0  0  0
M  END
$$$$

  -OEChem-05262216503D

 51 50  0     1  0  0  0  0  0999 V2000
    1.4513   -5.8862    0.7728 C   0  0  0  0  0  0  0  0  0  0  0  0
    0.6700   -6.3819   -0.0239 O   0  0  0  0  0  0  0  0  0  0  0  0
    2.7021   -6.6410    1.1826 C   0  0  0  0  0  0  0  0  0  0  0  0
    2.7378   -7.6126    0.6818 H   0  0  0  0  0  0  0  0  0  0  0  0
    3.5911   -6.0690    0.9057 H   0  0  0  0  0  0  0  0  0  0  0  0
    2.7025   -6.8014    2.2634 H   0  0  0  0  0  0  0  0  0  0  0  0
    1.2007   -4.6377    1.3011 N   0  0  0  0  0  0  0  0  0  0  0  0
    0.1040   -3.7582    0.8753 C   0  0  2  0  0  0  0  0  0  0  0  0
    0.4571   -2.2675    1.0710 C   0  0  0  0  0  0  0  0  0  0  0  0
    1.4553   -1.9751    1.7175 O   0  0  0  0  0  0  0  0  0  0  0  0
   -1.1490   -4.1198    1.6804 C   0  0  0  0  0  0  0  0  0  0  0  0
    1.9337   -4.2103    1.8668 H   0  0  0  0  0  0  0  0  0  0  0  0
   -0.0941   -3.9110   -0.1912 H   0  0  0  0  0  0  0  0  0  0  0  0
   -0.9739   -3.9640    2.7498 H   0  0  0  0  0  0  0  0  0  0  0  0
   -1.9975   -3.5016    1.3719 H   0  0  0  0  0  0  0  0  0  0  0  0
   -1.4136   -5.1699    1.5198 H   0  0  0  0  0  0  0  0  0  0  0  0
   -0.3418   -1.3032    0.4757 N   0  0  0  0  0  0  0  0  0  0  0  0
   -0.2024    0.1742    0.4596 C   0  0  2  0  0  0  0  0  0  0  0  0
    0.3119    0.5130   -0.9670 C   0  0  0  0  0  0  0  0  0  0  0  0
   -0.2622    0.0005   -1.9236 O   0  0  0  0  0  0  0  0  0  0  0  0
    0.5240    0.8276    1.6878 C   0  0  2  0  0  0  0  0  0  0  0  0
   -0.3194    0.5298    2.9591 C   0  0  0  0  0  0  0  0  0  0  0  0
    0.6159    2.3682    1.5462 C   0  0  0  0  0  0  0  0  0  0  0  0
    0.3948    0.8710    4.2728 C   0  0  0  0  0  0  0  0  0  0  0  0
   -1.0076   -1.6734   -0.2003 H   0  0  0  0  0  0  0  0  0  0  0  0
   -1.2174    0.5830    0.4873 H   0  0  0  0  0  0  0  0  0  0  0  0
    1.5387    0.4360    1.7973 H   0  0  0  0  0  0  0  0  0  0  0  0
   -1.2684    1.0742    2.9126 H   0  0  0  0  0  0  0  0  0  0  0  0
   -0.5611   -0.5358    2.9960 H   0  0  0  0  0  0  0  0  0  0  0  0
   -0.3223    2.7764    1.1573 H   0  0  0  0  0  0  0  0  0  0  0  0
    1.4310    2.6641    0.8845 H   0  0  0  0  0  0  0  0  0  0  0  0
    0.8221    2.8517    2.5024 H   0  0  0  0  0  0  0  0  0  0  0  0
    1.3901    0.4159    4.2924 H   0  0  0  0  0  0  0  0  0  0  0  0
   -0.1797    0.4777    5.1168 H   0  0  0  0  0  0  0  0  0  0  0  0
    0.4966    1.9494    4.4136 H   0  0  0  0  0  0  0  0  0  0  0  0
    1.3387    1.3949   -1.2375 N   0  0  0  0  0  0  0  0  0  0  0  0
    1.8918    1.6660   -2.5703 C   0  0  2  0  0  0  0  0  0  0  0  0
    3.3622    2.1254   -2.4792 C   0  0  0  0  0  0  0  0  0  0  0  0
    3.8410    2.4428   -1.3955 O   0  0  0  0  0  0  0  0  0  0  0  0
    1.0383    2.7433   -3.2483 C   0  0  0  0  0  0  0  0  0  0  0  0
    1.9142    1.6824   -0.4461 H   0  0  0  0  0  0  0  0  0  0  0  0
    1.8694    0.7508   -3.1715 H   0  0  0  0  0  0  0  0  0  0  0  0
    1.0465    3.6648   -2.6575 H   0  0  0  0  0  0  0  0  0  0  0  0
    1.4227    2.9667   -4.2479 H   0  0  0  0  0  0  0  0  0  0  0  0
    0.0031    2.4023   -3.3474 H   0  0  0  0  0  0  0  0  0  0  0  0
    4.1534    2.1797   -3.6121 N   0  0  0  0  0  0  0  0  0  0  0  0
    5.5497    2.5988   -3.5933 C   0  0  0  0  0  0  0  0  0  0  0  0
    3.7339    1.9010   -4.4944 H   0  0  0  0  0  0  0  0  0  0  0  0
    5.6357    3.6279   -3.2293 H   0  0  0  0  0  0  0  0  0  0  0  0
    6.1380    1.9441   -2.9418 H   0  0  0  0  0  0  0  0  0  0  0  0
    5.9722    2.5523   -4.6016 H   0  0  0  0  0  0  0  0  0  0  0  0
  1  2  2  0  0  0  0
  1  3  1  0  0  0  0
  1  7  1  0  0  0  0
  3  4  1  0  0  0  0
  3  5  1  0  0  0  0
  3  6  1  0  0  0  0
  7  8  1  0  0  0  0
  7 12  1  0  0  0  0
  8  9  1  0  0  0  0
  8 11  1  0  0  0  0
  8 13  1  0  0  0  0
  9 10  2  0  0  0  0
  9 17  1  0  0  0  0
 11 14  1  0  0  0  0
 11 15  1  0  0  0  0
 11 16  1  0  0  0  0
 17 18  1  0  0  0  0
 17 25  1  0  0  0  0
 18 19  1  0  0  0  0
 18 21  1  0  0  0  0
 18 26  1  0  0  0  0
 19 20  2  0  0  0  0
 19 36  1  0  0  0  0
 21 22  1  0  0  0  0
 21 23  1  0  0  0  0
 21 27  1  0  0  0  0
 22 24  1  0  0  0  0
 22 28  1  0  0  0  0
 22 29  1  0  0  0  0
 23 30  1  0  0  0  0
 23 31  1  0  0  0  0
 23 32  1  0  0  0  0
 24 33  1  0  0  0  0
 24 34  1  0  0  0  0
 24 35  1  0  0  0  0
 36 37  1  0  0  0  0
 36 41  1  0  0  0  0
 37 38  1  0  0  0  0
 37 40  1  0  0  0  0
 37 42  1  0  0  0  0
 38 39  2  0  0  0  0
 38 46  1  0  0  0  0
 40 43  1  0  0  0  0
 40 44  1  0  0  0  0
 40 45  1  0  0  0  0
 46 47  1  0  0  0  0
 46 48  1  0  0  0  0
 47 49  1  0  0  0  0
 47 50  1  0  0  0  0
 47 51  1  0  0  0  0
M  END
$$$$

  -OEChem-05262216503D

 51 50  0     1  0  0  0  0  0999 V2000
    1.4285   -5.8772    0.7376 C   0  0  0  0  0  0  0  0  0  0  0  0
    0.6498   -6.3568   -0.0714 O   0  0  0  0  0  0  0  0  0  0  0  0
    2.6948   -6.6242    1.1124 C   0  0  0  0  0  0  0  0  0  0  0  0
    2.7772   -7.5455    0.5289 H   0  0  0  0  0  0  0  0  0  0  0  0
    3.5689   -6.0006    0.9105 H   0  0  0  0  0  0  0  0  0  0  0  0
    2.6761   -6.8799    2.1746 H   0  0  0  0  0  0  0  0  0  0  0  0
    1.1649   -4.6494    1.3061 N   0  0  0  0  0  0  0  0  0  0  0  0
    0.0631   -3.7666    0.9015 C   0  0  2  0  0  0  0  0  0  0  0  0
    0.4318   -2.2774    1.0745 C   0  0  0  0  0  0  0  0  0  0  0  0
    1.4341   -1.9854    1.7146 O   0  0  0  0  0  0  0  0  0  0  0  0
   -1.1685   -4.1157    1.7427 C   0  0  0  0  0  0  0  0  0  0  0  0
    1.9004   -4.2281    1.8731 H   0  0  0  0  0  0  0  0  0  0  0  0
   -0.1657   -3.9256   -0.1579 H   0  0  0  0  0  0  0  0  0  0  0  0
   -0.9617   -3.9596    2.8063 H   0  0  0  0  0  0  0  0  0  0  0  0
   -2.0202   -3.4912    1.4570 H   0  0  0  0  0  0  0  0  0  0  0  0
   -1.4453   -5.1641    1.5917 H   0  0  0  0  0  0  0  0  0  0  0  0
   -0.3478   -1.3122    0.4560 N   0  0  0  0  0  0  0  0  0  0  0  0
   -0.1971    0.1629    0.4401 C   0  0  2  0  0  0  0  0  0  0  0  0
    0.3534    0.4856   -0.9722 C   0  0  0  0  0  0  0  0  0  0  0  0
   -0.3120    0.1459   -1.9450 O   0  0  0  0  0  0  0  0  0  0  0  0
    0.5307    0.8257    1.6577 C   0  0  2  0  0  0  0  0  0  0  0  0
   -0.3029    0.5485    2.9381 C   0  0  0  0  0  0  0  0  0  0  0  0
    0.6108    2.3648    1.5006 C   0  0  0  0  0  0  0  0  0  0  0  0
    0.4299    0.9096    4.2350 C   0  0  0  0  0  0  0  0  0  0  0  0
   -1.0411   -1.6806   -0.1924 H   0  0  0  0  0  0  0  0  0  0  0  0
   -1.2081    0.5821    0.4526 H   0  0  0  0  0  0  0  0  0  0  0  0
    1.5474    0.4364    1.7611 H   0  0  0  0  0  0  0  0  0  0  0  0
   -1.2509    1.0948    2.8948 H   0  0  0  0  0  0  0  0  0  0  0  0
   -0.5479   -0.5156    2.9913 H   0  0  0  0  0  0  0  0  0  0  0  0
   -0.3859    2.7854    1.3338 H   0  0  0  0  0  0  0  0  0  0  0  0
    1.0349    2.8286    2.3938 H   0  0  0  0  0  0  0  0  0  0  0  0
    1.2513    2.6659    0.6718 H   0  0  0  0  0  0  0  0  0  0  0  0
    1.4201    0.4435    4.2548 H   0  0  0  0  0  0  0  0  0  0  0  0
   -0.1396    0.5446    5.0949 H   0  0  0  0  0  0  0  0  0  0  0  0
    0.5452    1.9906    4.3441 H   0  0  0  0  0  0  0  0  0  0  0  0
    1.5645    1.1107   -1.1960 N   0  0  0  0  0  0  0  0  0  0  0  0
    2.1752    1.3250   -2.5136 C   0  0  2  0  0  0  0  0  0  0  0  0
    3.7060    1.4860   -2.4012 C   0  0  0  0  0  0  0  0  0  0  0  0
    4.2271    1.6668   -1.3061 O   0  0  0  0  0  0  0  0  0  0  0  0
    1.5554    2.5747   -3.1499 C   0  0  0  0  0  0  0  0  0  0  0  0
    2.1728    1.2400   -0.3863 H   0  0  0  0  0  0  0  0  0  0  0  0
    1.9804    0.4567   -3.1515 H   0  0  0  0  0  0  0  0  0  0  0  0
    1.7405    3.4537   -2.5239 H   0  0  0  0  0  0  0  0  0  0  0  0
    1.9840    2.7549   -4.1403 H   0  0  0  0  0  0  0  0  0  0  0  0
    0.4739    2.4496   -3.2632 H   0  0  0  0  0  0  0  0  0  0  0  0
    4.5048    1.4265   -3.5285 N   0  0  0  0  0  0  0  0  0  0  0  0
    5.9553    1.5745   -3.4899 C   0  0  0  0  0  0  0  0  0  0  0  0
    4.0486    1.2669   -4.4220 H   0  0  0  0  0  0  0  0  0  0  0  0
    6.2295    2.5563   -3.0897 H   0  0  0  0  0  0  0  0  0  0  0  0
    6.4041    0.7999   -2.8592 H   0  0  0  0  0  0  0  0  0  0  0  0
    6.3724    1.4832   -4.4974 H   0  0  0  0  0  0  0  0  0  0  0  0
  1  2  2  0  0  0  0
  1  3  1  0  0  0  0
  1  7  1  0  0  0  0
  3  4  1  0  0  0  0
  3  5  1  0  0  0  0
  3  6  1  0  0  0  0
  7  8  1  0  0  0  0
  7 12  1  0  0  0  0
  8  9  1  0  0  0  0
  8 11  1  0  0  0  0
  8 13  1  0  0  0  0
  9 10  2  0  0  0  0
  9 17  1  0  0  0  0
 11 14  1  0  0  0  0
 11 15  1  0  0  0  0
 11 16  1  0  0  0  0
 17 18  1  0  0  0  0
 17 25  1  0  0  0  0
 18 19  1  0  0  0  0
 18 21  1  0  0  0  0
 18 26  1  0  0  0  0
 19 20  2  0  0  0  0
 19 36  1  0  0  0  0
 21 22  1  0  0  0  0
 21 23  1  0  0  0  0
 21 27  1  0  0  0  0
 22 24  1  0  0  0  0
 22 28  1  0  0  0  0
 22 29  1  0  0  0  0
 23 30  1  0  0  0  0
 23 31  1  0  0  0  0
 23 32  1  0  0  0  0
 24 33  1  0  0  0  0
 24 34  1  0  0  0  0
 24 35  1  0  0  0  0
 36 37  1  0  0  0  0
 36 41  1  0  0  0  0
 37 38  1  0  0  0  0
 37 40  1  0  0  0  0
 37 42  1  0  0  0  0
 38 39  2  0  0  0  0
 38 46  1  0  0  0  0
 40 43  1  0  0  0  0
 40 44  1  0  0  0  0
 40 45  1  0  0  0  0
 46 47  1  0  0  0  0
 46 48  1  0  0  0  0
 47 49  1  0  0  0  0
 47 50  1  0  0  0  0
 47 51  1  0  0  0  0
M  END
$$$$

  -OEChem-05262216503D

 51 50  0     1  0  0  0  0  0999 V2000
    1.3958   -5.8860    0.7603 C   0  0  0  0  0  0  0  0  0  0  0  0
    0.5864   -6.3738   -0.0128 O   0  0  0  0  0  0  0  0  0  0  0  0
    2.6828   -6.6228    1.0820 C   0  0  0  0  0  0  0  0  0  0  0  0
    2.7219   -7.5702    0.5369 H   0  0  0  0  0  0  0  0  0  0  0  0
    3.5433   -6.0143    0.7929 H   0  0  0  0  0  0  0  0  0  0  0  0
    2.7365   -6.8310    2.1534 H   0  0  0  0  0  0  0  0  0  0  0  0
    1.1485   -4.6575    1.3343 N   0  0  0  0  0  0  0  0  0  0  0  0
    0.0313   -3.7785    0.9652 C   0  0  2  0  0  0  0  0  0  0  0  0
    0.4293   -2.2897    1.0547 C   0  0  0  0  0  0  0  0  0  0  0  0
    1.4453   -1.9823    1.6648 O   0  0  0  0  0  0  0  0  0  0  0  0
   -1.1446   -4.0758    1.9005 C   0  0  0  0  0  0  0  0  0  0  0  0
    1.9088   -4.2276    1.8607 H   0  0  0  0  0  0  0  0  0  0  0  0
   -0.2705   -3.9760   -0.0691 H   0  0  0  0  0  0  0  0  0  0  0  0
   -0.8639   -3.8808    2.9406 H   0  0  0  0  0  0  0  0  0  0  0  0
   -2.0061   -3.4498    1.6485 H   0  0  0  0  0  0  0  0  0  0  0  0
   -1.4433   -5.1252    1.8108 H   0  0  0  0  0  0  0  0  0  0  0  0
   -0.3367   -1.3404    0.3962 N   0  0  0  0  0  0  0  0  0  0  0  0
   -0.1918    0.1342    0.3675 C   0  0  2  0  0  0  0  0  0  0  0  0
    0.4035    0.4647   -1.0195 C   0  0  0  0  0  0  0  0  0  0  0  0
   -0.3107    0.3524   -2.0089 O   0  0  0  0  0  0  0  0  0  0  0  0
    0.5080    0.8204    1.5848 C   0  0  2  0  0  0  0  0  0  0  0  0
   -0.3366    0.5666    2.8602 C   0  0  0  0  0  0  0  0  0  0  0  0
    0.5946    2.3515    1.3806 C   0  0  0  0  0  0  0  0  0  0  0  0
    0.3857    0.9613    4.1522 C   0  0  0  0  0  0  0  0  0  0  0  0
   -1.0686   -1.7203   -0.2001 H   0  0  0  0  0  0  0  0  0  0  0  0
   -1.2053    0.5476    0.3511 H   0  0  0  0  0  0  0  0  0  0  0  0
    1.5240    0.4367    1.7115 H   0  0  0  0  0  0  0  0  0  0  0  0
   -1.2861    1.1080    2.7956 H   0  0  0  0  0  0  0  0  0  0  0  0
   -0.5756   -0.4979    2.9343 H   0  0  0  0  0  0  0  0  0  0  0  0
   -0.4062    2.7816    1.2727 H   0  0  0  0  0  0  0  0  0  0  0  0
    1.0869    2.8292    2.2314 H   0  0  0  0  0  0  0  0  0  0  0  0
    1.1753    2.6162    0.4952 H   0  0  0  0  0  0  0  0  0  0  0  0
    1.3664    0.4778    4.2032 H   0  0  0  0  0  0  0  0  0  0  0  0
   -0.2024    0.6399    5.0170 H   0  0  0  0  0  0  0  0  0  0  0  0
    0.5214    2.0436    4.2204 H   0  0  0  0  0  0  0  0  0  0  0  0
    1.7280    0.8204   -1.1890 N   0  0  0  0  0  0  0  0  0  0  0  0
    2.3842    1.0112   -2.4879 C   0  0  2  0  0  0  0  0  0  0  0  0
    3.9039    0.7591   -2.4000 C   0  0  0  0  0  0  0  0  0  0  0  0
    4.4628    0.7268   -1.3095 O   0  0  0  0  0  0  0  0  0  0  0  0
    2.1090    2.4402   -2.9674 C   0  0  0  0  0  0  0  0  0  0  0  0
    2.3369    0.7348   -0.3734 H   0  0  0  0  0  0  0  0  0  0  0  0
    1.9751    0.2989   -3.2123 H   0  0  0  0  0  0  0  0  0  0  0  0
    2.5107    3.1658   -2.2527 H   0  0  0  0  0  0  0  0  0  0  0  0
    2.5742    2.6156   -3.9419 H   0  0  0  0  0  0  0  0  0  0  0  0
    1.0319    2.6080   -3.0660 H   0  0  0  0  0  0  0  0  0  0  0  0
    4.6492    0.5664   -3.5489 N   0  0  0  0  0  0  0  0  0  0  0  0
    6.0854    0.3155   -3.5381 C   0  0  0  0  0  0  0  0  0  0  0  0
    4.1574    0.5801   -4.4376 H   0  0  0  0  0  0  0  0  0  0  0  0
    6.6189    1.1593   -3.0878 H   0  0  0  0  0  0  0  0  0  0  0  0
    6.3123   -0.5901   -2.9655 H   0  0  0  0  0  0  0  0  0  0  0  0
    6.4534    0.1796   -4.5596 H   0  0  0  0  0  0  0  0  0  0  0  0
  1  2  2  0  0  0  0
  1  3  1  0  0  0  0
  1  7  1  0  0  0  0
  3  4  1  0  0  0  0
  3  5  1  0  0  0  0
  3  6  1  0  0  0  0
  7  8  1  0  0  0  0
  7 12  1  0  0  0  0
  8  9  1  0  0  0  0
  8 11  1  0  0  0  0
  8 13  1  0  0  0  0
  9 10  2  0  0  0  0
  9 17  1  0  0  0  0
 11 14  1  0  0  0  0
 11 15  1  0  0  0  0
 11 16  1  0  0  0  0
 17 18  1  0  0  0  0
 17 25  1  0  0  0  0
 18 19  1  0  0  0  0
 18 21  1  0  0  0  0
 18 26  1  0  0  0  0
 19 20  2  0  0  0  0
 19 36  1  0  0  0  0
 21 22  1  0  0  0  0
 21 23  1  0  0  0  0
 21 27  1  0  0  0  0
 22 24  1  0  0  0  0
 22 28  1  0  0  0  0
 22 29  1  0  0  0  0
 23 30  1  0  0  0  0
 23 31  1  0  0  0  0
 23 32  1  0  0  0  0
 24 33  1  0  0  0  0
 24 34  1  0  0  0  0
 24 35  1  0  0  0  0
 36 37  1  0  0  0  0
 36 41  1  0  0  0  0
 37 38  1  0  0  0  0
 37 40  1  0  0  0  0
 37 42  1  0  0  0  0
 38 39  2  0  0  0  0
 38 46  1  0  0  0  0
 40 43  1  0  0  0  0
 40 44  1  0  0  0  0
 40 45  1  0  0  0  0
 46 47  1  0  0  0  0
 46 48  1  0  0  0  0
 47 49  1  0  0  0  0
 47 50  1  0  0  0  0
 47 51  1  0  0  0  0
M  END
$$$$

  -OEChem-05262216503D

 51 50  0     1  0  0  0  0  0999 V2000
    1.3466   -5.8817    0.7515 C   0  0  0  0  0  0  0  0  0  0  0  0
    0.5025   -6.3600    0.0099 O   0  0  0  0  0  0  0  0  0  0  0  0
    2.6575   -6.6095    0.9815 C   0  0  0  0  0  0  0  0  0  0  0  0
    2.6684   -7.5502    0.4237 H   0  0  0  0  0  0  0  0  0  0  0  0
    3.4921   -5.9897    0.6441 H   0  0  0  0  0  0  0  0  0  0  0  0
    2.7818   -6.8287    2.0448 H   0  0  0  0  0  0  0  0  0  0  0  0
    1.1154   -4.6730    1.3725 N   0  0  0  0  0  0  0  0  0  0  0  0
   -0.0147   -3.7892    1.0599 C   0  0  2  0  0  0  0  0  0  0  0  0
    0.4069   -2.3056    1.0840 C   0  0  0  0  0  0  0  0  0  0  0  0
    1.4360   -1.9897    1.6665 O   0  0  0  0  0  0  0  0  0  0  0  0
   -1.1255   -4.0473    2.0811 C   0  0  0  0  0  0  0  0  0  0  0  0
    1.9015   -4.2461    1.8626 H   0  0  0  0  0  0  0  0  0  0  0  0
   -0.3910   -4.0067    0.0545 H   0  0  0  0  0  0  0  0  0  0  0  0
   -0.7727   -3.8257    3.0935 H   0  0  0  0  0  0  0  0  0  0  0  0
   -1.9957   -3.4188    1.8692 H   0  0  0  0  0  0  0  0  0  0  0  0
   -1.4391   -5.0954    2.0425 H   0  0  0  0  0  0  0  0  0  0  0  0
   -0.3412   -1.3732    0.3831 N   0  0  0  0  0  0  0  0  0  0  0  0
   -0.1853    0.0985    0.3216 C   0  0  2  0  0  0  0  0  0  0  0  0
    0.4423    0.4180   -1.0497 C   0  0  0  0  0  0  0  0  0  0  0  0
   -0.2837    0.5713   -2.0241 O   0  0  0  0  0  0  0  0  0  0  0  0
    0.5017    0.8142    1.5266 C   0  0  2  0  0  0  0  0  0  0  0  0
   -0.3557    0.6061    2.7995 C   0  0  0  0  0  0  0  0  0  0  0  0
    0.6280    2.3301    1.2572 C   0  0  0  0  0  0  0  0  0  0  0  0
    0.3604    1.0370    4.0829 C   0  0  0  0  0  0  0  0  0  0  0  0
   -1.1075   -1.7610   -0.1621 H   0  0  0  0  0  0  0  0  0  0  0  0
   -1.1970    0.5153    0.2822 H   0  0  0  0  0  0  0  0  0  0  0  0
    1.5103    0.4216    1.6808 H   0  0  0  0  0  0  0  0  0  0  0  0
   -1.3000    1.1528    2.7081 H   0  0  0  0  0  0  0  0  0  0  0  0
   -0.6035   -0.4538    2.9043 H   0  0  0  0  0  0  0  0  0  0  0  0
   -0.3577    2.7750    1.0879 H   0  0  0  0  0  0  0  0  0  0  0  0
    1.0974    2.8396    2.1026 H   0  0  0  0  0  0  0  0  0  0  0  0
    1.2513    2.5299    0.3819 H   0  0  0  0  0  0  0  0  0  0  0  0
    1.3364    0.5472    4.1564 H   0  0  0  0  0  0  0  0  0  0  0  0
   -0.2363    0.7506    4.9541 H   0  0  0  0  0  0  0  0  0  0  0  0
    0.5050    2.1199    4.1143 H   0  0  0  0  0  0  0  0  0  0  0  0
    1.8139    0.4682   -1.2085 N   0  0  0  0  0  0  0  0  0  0  0  0
    2.4988    0.6160   -2.4982 C   0  0  2  0  0  0  0  0  0  0  0  0
    3.9002   -0.0296   -2.4825 C   0  0  0  0  0  0  0  0  0  0  0  0
    4.4142   -0.3708   -1.4235 O   0  0  0  0  0  0  0  0  0  0  0  0
    2.6001    2.1102   -2.8227 C   0  0  0  0  0  0  0  0  0  0  0  0
    2.3783    0.1480   -0.4186 H   0  0  0  0  0  0  0  0  0  0  0  0
    1.9190    0.1132   -3.2795 H   0  0  0  0  0  0  0  0  0  0  0  0
    3.1817    2.6295   -2.0542 H   0  0  0  0  0  0  0  0  0  0  0  0
    3.0869    2.2620   -3.7906 H   0  0  0  0  0  0  0  0  0  0  0  0
    1.6022    2.5580   -2.8660 H   0  0  0  0  0  0  0  0  0  0  0  0
    4.5879   -0.2364   -3.6643 N   0  0  0  0  0  0  0  0  0  0  0  0
    5.9152   -0.8364   -3.7225 C   0  0  0  0  0  0  0  0  0  0  0  0
    4.1382    0.0508   -4.5286 H   0  0  0  0  0  0  0  0  0  0  0  0
    6.6388   -0.2181   -3.1807 H   0  0  0  0  0  0  0  0  0  0  0  0
    5.9034   -1.8371   -3.2777 H   0  0  0  0  0  0  0  0  0  0  0  0
    6.2456   -0.9246   -4.7620 H   0  0  0  0  0  0  0  0  0  0  0  0
  1  2  2  0  0  0  0
  1  3  1  0  0  0  0
  1  7  1  0  0  0  0
  3  4  1  0  0  0  0
  3  5  1  0  0  0  0
  3  6  1  0  0  0  0
  7  8  1  0  0  0  0
  7 12  1  0  0  0  0
  8  9  1  0  0  0  0
  8 11  1  0  0  0  0
  8 13  1  0  0  0  0
  9 10  2  0  0  0  0
  9 17  1  0  0  0  0
 11 14  1  0  0  0  0
 11 15  1  0  0  0  0
 11 16  1  0  0  0  0
 17 18  1  0  0  0  0
 17 25  1  0  0  0  0
 18 19  1  0  0  0  0
 18 21  1  0  0  0  0
 18 26  1  0  0  0  0
 19 20  2  0  0  0  0
 19 36  1  0  0  0  0
 21 22  1  0  0  0  0
 21 23  1  0  0  0  0
 21 27  1  0  0  0  0
 22 24  1  0  0  0  0
 22 28  1  0  0  0  0
 22 29  1  0  0  0  0
 23 30  1  0  0  0  0
 23 31  1  0  0  0  0
 23 32  1  0  0  0  0
 24 33  1  0  0  0  0
 24 34  1  0  0  0  0
 24 35  1  0  0  0  0
 36 37  1  0  0  0  0
 36 41  1  0  0  0  0
 37 38  1  0  0  0  0
 37 40  1  0  0  0  0
 37 42  1  0  0  0  0
 38 39  2  0  0  0  0
 38 46  1  0  0  0  0
 40 43  1  0  0  0  0
 40 44  1  0  0  0  0
 40 45  1  0  0  0  0
 46 47  1  0  0  0  0
 46 48  1  0  0  0  0
 47 49  1  0  0  0  0
 47 50  1  0  0  0  0
 47 51  1  0  0  0  0
M  END
$$$$

  -OEChem-05262216503D

 51 50  0     1  0  0  0  0  0999 V2000
    2.3694   -5.4490    0.8045 C   0  0  0  0  0  0  0  0  0  0  0  0
    1.8235   -6.0720   -0.0932 O   0  0  0  0  0  0  0  0  0  0  0  0
    3.6780   -5.9486    1.3872 C   0  0  0  0  0  0  0  0  0  0  0  0
    3.9437   -6.9136    0.9463 H   0  0  0  0  0  0  0  0  0  0  0  0
    4.4758   -5.2322    1.1760 H   0  0  0  0  0  0  0  0  0  0  0  0
    3.5838   -6.0698    2.4690 H   0  0  0  0  0  0  0  0  0  0  0  0
    1.8050   -4.2911    1.2950 N   0  0  0  0  0  0  0  0  0  0  0  0
    0.6990   -3.5786    0.6441 C   0  0  2  0  0  0  0  0  0  0  0  0
    0.7457   -2.0649    0.9457 C   0  0  0  0  0  0  0  0  0  0  0  0
    1.5019   -1.6471    1.8162 O   0  0  0  0  0  0  0  0  0  0  0  0
   -0.6287   -4.1771    1.1199 C   0  0  0  0  0  0  0  0  0  0  0  0
    2.3664   -3.7436    1.9461 H   0  0  0  0  0  0  0  0  0  0  0  0
    0.7829   -3.6968   -0.4422 H   0  0  0  0  0  0  0  0  0  0  0  0
   -0.7330   -4.0633    2.2035 H   0  0  0  0  0  0  0  0  0  0  0  0
   -1.4719   -3.6777    0.6332 H   0  0  0  0  0  0  0  0  0  0  0  0
   -0.6737   -5.2431    0.8758 H   0  0  0  0  0  0  0  0  0  0  0  0
    0.0183   -1.1947    0.1487 N   0  0  0  0  0  0  0  0  0  0  0  0
   -0.0577    0.2839    0.1957 C   0  0  2  0  0  0  0  0  0  0  0  0
    0.7868    0.7620   -0.9957 C   0  0  0  0  0  0  0  0  0  0  0  0
    0.2604    0.9956   -2.0770 O   0  0  0  0  0  0  0  0  0  0  0  0
    0.2685    1.0143    1.5332 C   0  0  2  0  0  0  0  0  0  0  0  0
   -0.7562    0.5975    2.6158 C   0  0  0  0  0  0  0  0  0  0  0  0
    0.2114    2.5435    1.3333 C   0  0  0  0  0  0  0  0  0  0  0  0
   -0.3572    1.0541    4.0222 C   0  0  0  0  0  0  0  0  0  0  0  0
   -0.4189   -1.6355   -0.6576 H   0  0  0  0  0  0  0  0  0  0  0  0
   -1.0928    0.5526   -0.0383 H   0  0  0  0  0  0  0  0  0  0  0  0
    1.2808    0.7648    1.8626 H   0  0  0  0  0  0  0  0  0  0  0  0
   -1.7436    1.0008    2.3689 H   0  0  0  0  0  0  0  0  0  0  0  0
   -0.8468   -0.4921    2.6354 H   0  0  0  0  0  0  0  0  0  0  0  0
   -0.7830    2.8516    0.9947 H   0  0  0  0  0  0  0  0  0  0  0  0
    0.4388    3.0685    2.2646 H   0  0  0  0  0  0  0  0  0  0  0  0
    0.9466    2.8724    0.5930 H   0  0  0  0  0  0  0  0  0  0  0  0
    0.6534    0.7087    4.2616 H   0  0  0  0  0  0  0  0  0  0  0  0
   -1.0487    0.6338    4.7585 H   0  0  0  0  0  0  0  0  0  0  0  0
   -0.3889    2.1432    4.1113 H   0  0  0  0  0  0  0  0  0  0  0  0
    2.1626    0.6896   -0.8901 N   0  0  0  0  0  0  0  0  0  0  0  0
    2.9809    0.4356   -2.0813 C   0  0  2  0  0  0  0  0  0  0  0  0
    2.8721   -1.0359   -2.5456 C   0  0  0  0  0  0  0  0  0  0  0  0
    2.6437   -1.9289   -1.7353 O   0  0  0  0  0  0  0  0  0  0  0  0
    4.4305    0.7809   -1.7367 C   0  0  0  0  0  0  0  0  0  0  0  0
    2.4631    0.2160   -0.0379 H   0  0  0  0  0  0  0  0  0  0  0  0
    2.6542    1.0835   -2.9016 H   0  0  0  0  0  0  0  0  0  0  0  0
    4.7946    0.1420   -0.9253 H   0  0  0  0  0  0  0  0  0  0  0  0
    5.0751    0.6358   -2.6090 H   0  0  0  0  0  0  0  0  0  0  0  0
    4.5065    1.8257   -1.4199 H   0  0  0  0  0  0  0  0  0  0  0  0
    3.0359   -1.3643   -3.8784 N   0  0  0  0  0  0  0  0  0  0  0  0
    2.8621   -2.7193   -4.3886 C   0  0  0  0  0  0  0  0  0  0  0  0
    3.1132   -0.5982   -4.5410 H   0  0  0  0  0  0  0  0  0  0  0  0
    3.5495   -3.4095   -3.8882 H   0  0  0  0  0  0  0  0  0  0  0  0
    1.8358   -3.0630   -4.2218 H   0  0  0  0  0  0  0  0  0  0  0  0
    3.0679   -2.7487   -5.4627 H   0  0  0  0  0  0  0  0  0  0  0  0
  1  2  2  0  0  0  0
  1  3  1  0  0  0  0
  1  7  1  0  0  0  0
  3  4  1  0  0  0  0
  3  5  1  0  0  0  0
  3  6  1  0  0  0  0
  7  8  1  0  0  0  0
  7 12  1  0  0  0  0
  8  9  1  0  0  0  0
  8 11  1  0  0  0  0
  8 13  1  0  0  0  0
  9 10  2  0  0  0  0
  9 17  1  0  0  0  0
 11 14  1  0  0  0  0
 11 15  1  0  0  0  0
 11 16  1  0  0  0  0
 17 18  1  0  0  0  0
 17 25  1  0  0  0  0
 18 19  1  0  0  0  0
 18 21  1  0  0  0  0
 18 26  1  0  0  0  0
 19 20  2  0  0  0  0
 19 36  1  0  0  0  0
 21 22  1  0  0  0  0
 21 23  1  0  0  0  0
 21 27  1  0  0  0  0
 22 24  1  0  0  0  0
 22 28  1  0  0  0  0
 22 29  1  0  0  0  0
 23 30  1  0  0  0  0
 23 31  1  0  0  0  0
 23 32  1  0  0  0  0
 24 33  1  0  0  0  0
 24 34  1  0  0  0  0
 24 35  1  0  0  0  0
 36 37  1  0  0  0  0
 36 41  1  0  0  0  0
 37 38  1  0  0  0  0
 37 40  1  0  0  0  0
 37 42  1  0  0  0  0
 38 39  2  0  0  0  0
 38 46  1  0  0  0  0
 40 43  1  0  0  0  0
 40 44  1  0  0  0  0
 40 45  1  0  0  0  0
 46 47  1  0  0  0  0
 46 48  1  0  0  0  0
 47 49  1  0  0  0  0
 47 50  1  0  0  0  0
 47 51  1  0  0  0  0
M  END
$$$$

  -OEChem-05262216503D

 51 50  0     1  0  0  0  0  0999 V2000
    1.2876   -4.6789   -0.3992 C   0  0  0  0  0  0  0  0  0  0  0  0
    0.2010   -4.2626   -0.7789 O   0  0  0  0  0  0  0  0  0  0  0  0
    2.1299   -5.5731   -1.2896 C   0  0  0  0  0  0  0  0  0  0  0  0
    1.5952   -5.7949   -2.2168 H   0  0  0  0  0  0  0  0  0  0  0  0
    3.0726   -5.0789   -1.5349 H   0  0  0  0  0  0  0  0  0  0  0  0
    2.3466   -6.5134   -0.7771 H   0  0  0  0  0  0  0  0  0  0  0  0
    1.7199   -4.3645    0.8723 N   0  0  0  0  0  0  0  0  0  0  0  0
    0.9226   -3.6089    1.8503 C   0  0  2  0  0  0  0  0  0  0  0  0
    0.9368   -2.0878    1.5709 C   0  0  0  0  0  0  0  0  0  0  0  0
    1.5985   -1.3278    2.2649 O   0  0  0  0  0  0  0  0  0  0  0  0
    1.4489   -3.9653    3.2462 C   0  0  0  0  0  0  0  0  0  0  0  0
    2.6768   -4.6144    1.1092 H   0  0  0  0  0  0  0  0  0  0  0  0
   -0.1216   -3.9356    1.7987 H   0  0  0  0  0  0  0  0  0  0  0  0
    2.4986   -3.6720    3.3507 H   0  0  0  0  0  0  0  0  0  0  0  0
    0.8670   -3.4462    4.0145 H   0  0  0  0  0  0  0  0  0  0  0  0
    1.3677   -5.0426    3.4209 H   0  0  0  0  0  0  0  0  0  0  0  0
    0.3541   -1.6195    0.4069 N   0  0  0  0  0  0  0  0  0  0  0  0
    0.1034   -0.2211   -0.0174 C   0  0  2  0  0  0  0  0  0  0  0  0
    1.1691    0.0843   -1.0807 C   0  0  0  0  0  0  0  0  0  0  0  0
    0.8744    0.2670   -2.2573 O   0  0  0  0  0  0  0  0  0  0  0  0
   -0.0095    0.8757    1.0839 C   0  0  2  0  0  0  0  0  0  0  0  0
   -1.2244    0.5749    1.9938 C   0  0  0  0  0  0  0  0  0  0  0  0
   -0.1830    2.2650    0.4364 C   0  0  0  0  0  0  0  0  0  0  0  0
   -1.2556    1.4423    3.2558 C   0  0  0  0  0  0  0  0  0  0  0  0
   -0.0060   -2.3633   -0.2009 H   0  0  0  0  0  0  0  0  0  0  0  0
   -0.8585   -0.2175   -0.5408 H   0  0  0  0  0  0  0  0  0  0  0  0
    0.9050    0.9080    1.6817 H   0  0  0  0  0  0  0  0  0  0  0  0
   -2.1544    0.7147    1.4331 H   0  0  0  0  0  0  0  0  0  0  0  0
   -1.1919   -0.4699    2.3140 H   0  0  0  0  0  0  0  0  0  0  0  0
   -1.0798    2.2890   -0.1910 H   0  0  0  0  0  0  0  0  0  0  0  0
   -0.2712    3.0439    1.1980 H   0  0  0  0  0  0  0  0  0  0  0  0
    0.6812    2.5200   -0.1840 H   0  0  0  0  0  0  0  0  0  0  0  0
   -0.3061    1.3655    3.7952 H   0  0  0  0  0  0  0  0  0  0  0  0
   -2.0575    1.1038    3.9188 H   0  0  0  0  0  0  0  0  0  0  0  0
   -1.4393    2.4921    3.0124 H   0  0  0  0  0  0  0  0  0  0  0  0
    2.4943   -0.0098   -0.7005 N   0  0  0  0  0  0  0  0  0  0  0  0
    3.5717   -0.2625   -1.6628 C   0  0  2  0  0  0  0  0  0  0  0  0
    3.4297   -1.6582   -2.3175 C   0  0  0  0  0  0  0  0  0  0  0  0
    4.0157   -2.6413   -1.8754 O   0  0  0  0  0  0  0  0  0  0  0  0
    4.9039   -0.0957   -0.9242 C   0  0  0  0  0  0  0  0  0  0  0  0
    2.6266   -0.3446    0.2556 H   0  0  0  0  0  0  0  0  0  0  0  0
    3.5319    0.4859   -2.4614 H   0  0  0  0  0  0  0  0  0  0  0  0
    4.9800   -0.8084   -0.0965 H   0  0  0  0  0  0  0  0  0  0  0  0
    5.7402   -0.2686   -1.6087 H   0  0  0  0  0  0  0  0  0  0  0  0
    4.9896    0.9177   -0.5204 H   0  0  0  0  0  0  0  0  0  0  0  0
    2.5618   -1.8016   -3.3824 N   0  0  0  0  0  0  0  0  0  0  0  0
    2.1889   -3.0859   -3.9587 C   0  0  0  0  0  0  0  0  0  0  0  0
    1.9178   -1.0162   -3.5095 H   0  0  0  0  0  0  0  0  0  0  0  0
    3.0625   -3.7378   -4.0640 H   0  0  0  0  0  0  0  0  0  0  0  0
    1.4484   -3.5839   -3.3263 H   0  0  0  0  0  0  0  0  0  0  0  0
    1.7546   -2.9379   -4.9519 H   0  0  0  0  0  0  0  0  0  0  0  0
  1  2  2  0  0  0  0
  1  3  1  0  0  0  0
  1  7  1  0  0  0  0
  3  4  1  0  0  0  0
  3  5  1  0  0  0  0
  3  6  1  0  0  0  0
  7  8  1  0  0  0  0
  7 12  1  0  0  0  0
  8  9  1  0  0  0  0
  8 11  1  0  0  0  0
  8 13  1  0  0  0  0
  9 10  2  0  0  0  0
  9 17  1  0  0  0  0
 11 14  1  0  0  0  0
 11 15  1  0  0  0  0
 11 16  1  0  0  0  0
 17 18  1  0  0  0  0
 17 25  1  0  0  0  0
 18 19  1  0  0  0  0
 18 21  1  0  0  0  0
 18 26  1  0  0  0  0
 19 20  2  0  0  0  0
 19 36  1  0  0  0  0
 21 22  1  0  0  0  0
 21 23  1  0  0  0  0
 21 27  1  0  0  0  0
 22 24  1  0  0  0  0
 22 28  1  0  0  0  0
 22 29  1  0  0  0  0
 23 30  1  0  0  0  0
 23 31  1  0  0  0  0
 23 32  1  0  0  0  0
 24 33  1  0  0  0  0
 24 34  1  0  0  0  0
 24 35  1  0  0  0  0
 36 37  1  0  0  0  0
 36 41  1  0  0  0  0
 37 38  1  0  0  0  0
 37 40  1  0  0  0  0
 37 42  1  0  0  0  0
 38 39  2  0  0  0  0
 38 46  1  0  0  0  0
 40 43  1  0  0  0  0
 40 44  1  0  0  0  0
 40 45  1  0  0  0  0
 46 47  1  0  0  0  0
 46 48  1  0  0  0  0
 47 49  1  0  0  0  0
 47 50  1  0  0  0  0
 47 51  1  0  0  0  0
M  END
$$$$

  -OEChem-05262216503D

 51 50  0     1  0  0  0  0  0999 V2000
    1.0100   -4.7762   -0.3783 C   0  0  0  0  0  0  0  0  0  0  0  0
   -0.0672   -4.2912   -0.6978 O   0  0  0  0  0  0  0  0  0  0  0  0
    1.7129   -5.7684   -1.2855 C   0  0  0  0  0  0  0  0  0  0  0  0
    1.7000   -6.7615   -0.8304 H   0  0  0  0  0  0  0  0  0  0  0  0
    1.2103   -5.8186   -2.2546 H   0  0  0  0  0  0  0  0  0  0  0  0
    2.7504   -5.4651   -1.4443 H   0  0  0  0  0  0  0  0  0  0  0  0
    1.5536   -4.4523    0.8477 N   0  0  0  0  0  0  0  0  0  0  0  0
    0.8758   -3.6340    1.8664 C   0  0  2  0  0  0  0  0  0  0  0  0
    0.9497   -2.1193    1.5593 C   0  0  0  0  0  0  0  0  0  0  0  0
    1.6373   -1.3692    2.2379 O   0  0  0  0  0  0  0  0  0  0  0  0
    1.4894   -3.9990    3.2240 C   0  0  0  0  0  0  0  0  0  0  0  0
    2.4918   -4.7940    1.0396 H   0  0  0  0  0  0  0  0  0  0  0  0
   -0.1858   -3.9017    1.9008 H   0  0  0  0  0  0  0  0  0  0  0  0
    2.5568   -3.7559    3.2440 H   0  0  0  0  0  0  0  0  0  0  0  0
    0.9936   -3.4430    4.0263 H   0  0  0  0  0  0  0  0  0  0  0  0
    1.3706   -5.0688    3.4209 H   0  0  0  0  0  0  0  0  0  0  0  0
    0.4058   -1.6552    0.3760 N   0  0  0  0  0  0  0  0  0  0  0  0
    0.1631   -0.2617   -0.0737 C   0  0  2  0  0  0  0  0  0  0  0  0
    1.2559    0.0573   -1.1093 C   0  0  0  0  0  0  0  0  0  0  0  0
    0.9693    0.3785   -2.2578 O   0  0  0  0  0  0  0  0  0  0  0  0
    0.0159    0.8332    1.0246 C   0  0  2  0  0  0  0  0  0  0  0  0
   -1.2240    0.5271    1.8989 C   0  0  0  0  0  0  0  0  0  0  0  0
   -0.1368    2.2258    0.3785 C   0  0  0  0  0  0  0  0  0  0  0  0
   -1.2945    1.3923    3.1604 C   0  0  0  0  0  0  0  0  0  0  0  0
   -0.0070   -2.3994   -0.1970 H   0  0  0  0  0  0  0  0  0  0  0  0
   -0.7845   -0.2666   -0.6226 H   0  0  0  0  0  0  0  0  0  0  0  0
    0.9128    0.8624    1.6487 H   0  0  0  0  0  0  0  0  0  0  0  0
   -2.1375    0.6649    1.3112 H   0  0  0  0  0  0  0  0  0  0  0  0
   -1.1985   -0.5178    2.2191 H   0  0  0  0  0  0  0  0  0  0  0  0
   -1.0110    2.2516   -0.2800 H   0  0  0  0  0  0  0  0  0  0  0  0
   -0.2521    3.0012    1.1399 H   0  0  0  0  0  0  0  0  0  0  0  0
    0.7485    2.4851   -0.2098 H   0  0  0  0  0  0  0  0  0  0  0  0
   -0.3608    1.3180    3.7269 H   0  0  0  0  0  0  0  0  0  0  0  0
   -2.1144    1.0506    3.7994 H   0  0  0  0  0  0  0  0  0  0  0  0
   -1.4749    2.4415    2.9123 H   0  0  0  0  0  0  0  0  0  0  0  0
    2.5524   -0.3106   -0.8025 N   0  0  0  0  0  0  0  0  0  0  0  0
    3.5365   -0.6838   -1.8224 C   0  0  2  0  0  0  0  0  0  0  0  0
    3.1436   -2.0136   -2.5094 C   0  0  0  0  0  0  0  0  0  0  0  0
    3.6268   -3.0863   -2.1613 O   0  0  0  0  0  0  0  0  0  0  0  0
    4.9065   -0.7542   -1.1392 C   0  0  0  0  0  0  0  0  0  0  0  0
    2.6539   -0.7236    0.1260 H   0  0  0  0  0  0  0  0  0  0  0  0
    3.5829    0.0921   -2.5940 H   0  0  0  0  0  0  0  0  0  0  0  0
    4.9008   -1.4977   -0.3354 H   0  0  0  0  0  0  0  0  0  0  0  0
    5.6774   -1.0328   -1.8644 H   0  0  0  0  0  0  0  0  0  0  0  0
    5.1672    0.2188   -0.7118 H   0  0  0  0  0  0  0  0  0  0  0  0
    2.1522   -1.9920   -3.4709 N   0  0  0  0  0  0  0  0  0  0  0  0
    1.5366   -3.1890   -4.0273 C   0  0  0  0  0  0  0  0  0  0  0  0
    1.6315   -1.1124   -3.5264 H   0  0  0  0  0  0  0  0  0  0  0  0
    2.2957   -3.9340   -4.2881 H   0  0  0  0  0  0  0  0  0  0  0  0
    0.8408   -3.6280   -3.3062 H   0  0  0  0  0  0  0  0  0  0  0  0
    0.9818   -2.9366   -4.9360 H   0  0  0  0  0  0  0  0  0  0  0  0
  1  2  2  0  0  0  0
  1  3  1  0  0  0  0
  1  7  1  0  0  0  0
  3  4  1  0  0  0  0
  3  5  1  0  0  0  0
  3  6  1  0  0  0  0
  7  8  1  0  0  0  0
  7 12  1  0  0  0  0
  8  9  1  0  0  0  0
  8 11  1  0  0  0  0
  8 13  1  0  0  0  0
  9 10  2  0  0  0  0
  9 17  1  0  0  0  0
 11 14  1  0  0  0  0
 11 15  1  0  0  0  0
 11 16  1  0  0  0  0
 17 18  1  0  0  0  0
 17 25  1  0  0  0  0
 18 19  1  0  0  0  0
 18 21  1  0  0  0  0
 18 26  1  0  0  0  0
 19 20  2  0  0  0  0
 19 36  1  0  0  0  0
 21 22  1  0  0  0  0
 21 23  1  0  0  0  0
 21 27  1  0  0  0  0
 22 24  1  0  0  0  0
 22 28  1  0  0  0  0
 22 29  1  0  0  0  0
 23 30  1  0  0  0  0
 23 31  1  0  0  0  0
 23 32  1  0  0  0  0
 24 33  1  0  0  0  0
 24 34  1  0  0  0  0
 24 35  1  0  0  0  0
 36 37  1  0  0  0  0
 36 41  1  0  0  0  0
 37 38  1  0  0  0  0
 37 40  1  0  0  0  0
 37 42  1  0  0  0  0
 38 39  2  0  0  0  0
 38 46  1  0  0  0  0
 40 43  1  0  0  0  0
 40 44  1  0  0  0  0
 40 45  1  0  0  0  0
 46 47  1  0  0  0  0
 46 48  1  0  0  0  0
 47 49  1  0  0  0  0
 47 50  1  0  0  0  0
 47 51  1  0  0  0  0
M  END
$$$$

  -OEChem-05262216503D

 51 50  0     1  0  0  0  0  0999 V2000
    0.3769   -4.7993   -0.1561 C   0  0  0  0  0  0  0  0  0  0  0  0
   -0.7293   -4.2777   -0.1751 O   0  0  0  0  0  0  0  0  0  0  0  0
    0.7736   -5.7877   -1.2368 C   0  0  0  0  0  0  0  0  0  0  0  0
    0.2252   -5.5741   -2.1579 H   0  0  0  0  0  0  0  0  0  0  0  0
    1.8441   -5.7172   -1.4442 H   0  0  0  0  0  0  0  0  0  0  0  0
    0.5426   -6.8048   -0.9111 H   0  0  0  0  0  0  0  0  0  0  0  0
    1.2400   -4.4999    0.8786 N   0  0  0  0  0  0  0  0  0  0  0  0
    0.8956   -3.6424    2.0268 C   0  0  2  0  0  0  0  0  0  0  0  0
    0.9646   -2.1316    1.6920 C   0  0  0  0  0  0  0  0  0  0  0  0
    1.7090   -1.3811    2.3059 O   0  0  0  0  0  0  0  0  0  0  0  0
    1.8207   -4.0415    3.1836 C   0  0  0  0  0  0  0  0  0  0  0  0
    2.2013   -4.8150    0.7746 H   0  0  0  0  0  0  0  0  0  0  0  0
   -0.1334   -3.8519    2.3386 H   0  0  0  0  0  0  0  0  0  0  0  0
    2.8656   -3.8373    2.9288 H   0  0  0  0  0  0  0  0  0  0  0  0
    1.5678   -3.4741    4.0852 H   0  0  0  0  0  0  0  0  0  0  0  0
    1.7157   -5.1076    3.4065 H   0  0  0  0  0  0  0  0  0  0  0  0
    0.3172   -1.6817    0.5563 N   0  0  0  0  0  0  0  0  0  0  0  0
    0.0342   -0.3001    0.0914 C   0  0  2  0  0  0  0  0  0  0  0  0
    1.0176    0.0171   -1.0562 C   0  0  0  0  0  0  0  0  0  0  0  0
    0.6270    0.5621   -2.0821 O   0  0  0  0  0  0  0  0  0  0  0  0
   -0.0151    0.8077    1.1887 C   0  0  2  0  0  0  0  0  0  0  0  0
   -1.1731    0.5123    2.1738 C   0  0  0  0  0  0  0  0  0  0  0  0
   -0.2264    2.1980    0.5538 C   0  0  0  0  0  0  0  0  0  0  0  0
   -1.1337    1.3893    3.4290 C   0  0  0  0  0  0  0  0  0  0  0  0
   -0.2109   -2.4251    0.0876 H   0  0  0  0  0  0  0  0  0  0  0  0
   -0.9607   -0.3194   -0.3652 H   0  0  0  0  0  0  0  0  0  0  0  0
    0.9342    0.8401    1.7295 H   0  0  0  0  0  0  0  0  0  0  0  0
   -2.1346    0.6460    1.6673 H   0  0  0  0  0  0  0  0  0  0  0  0
   -1.1210   -0.5294    2.5012 H   0  0  0  0  0  0  0  0  0  0  0  0
   -1.1488    2.2169   -0.0354 H   0  0  0  0  0  0  0  0  0  0  0  0
   -0.2870    2.9755    1.3190 H   0  0  0  0  0  0  0  0  0  0  0  0
    0.6096    2.4610   -0.1008 H   0  0  0  0  0  0  0  0  0  0  0  0
   -0.1533    1.3210    3.9111 H   0  0  0  0  0  0  0  0  0  0  0  0
   -1.8927    1.0511    4.1408 H   0  0  0  0  0  0  0  0  0  0  0  0
   -1.3379    2.4362    3.1903 H   0  0  0  0  0  0  0  0  0  0  0  0
    2.2623   -0.5837   -1.0455 N   0  0  0  0  0  0  0  0  0  0  0  0
    3.0166   -0.9045   -2.2588 C   0  0  2  0  0  0  0  0  0  0  0  0
    2.6553   -2.3156   -2.7642 C   0  0  0  0  0  0  0  0  0  0  0  0
    2.7045   -3.2780   -2.0026 O   0  0  0  0  0  0  0  0  0  0  0  0
    4.5076   -0.8037   -1.9311 C   0  0  0  0  0  0  0  0  0  0  0  0
    2.4278   -1.1675   -0.2260 H   0  0  0  0  0  0  0  0  0  0  0  0
    2.7932   -0.1811   -3.0498 H   0  0  0  0  0  0  0  0  0  0  0  0
    4.7780   -1.5121   -1.1413 H   0  0  0  0  0  0  0  0  0  0  0  0
    5.1077   -1.0264   -2.8187 H   0  0  0  0  0  0  0  0  0  0  0  0
    4.7523    0.2074   -1.5910 H   0  0  0  0  0  0  0  0  0  0  0  0
    2.2664   -2.5040   -4.0768 N   0  0  0  0  0  0  0  0  0  0  0  0
    1.7925   -3.7817   -4.5928 C   0  0  0  0  0  0  0  0  0  0  0  0
    2.0929   -1.6648   -4.6246 H   0  0  0  0  0  0  0  0  0  0  0  0
    2.5153   -4.5763   -4.3794 H   0  0  0  0  0  0  0  0  0  0  0  0
    0.8327   -4.0447   -4.1368 H   0  0  0  0  0  0  0  0  0  0  0  0
    1.6584   -3.7238   -5.6772 H   0  0  0  0  0  0  0  0  0  0  0  0
  1  2  2  0  0  0  0
  1  3  1  0  0  0  0
  1  7  1  0  0  0  0
  3  4  1  0  0  0  0
  3  5  1  0  0  0  0
  3  6  1  0  0  0  0
  7  8  1  0  0  0  0
  7 12  1  0  0  0  0
  8  9  1  0  0  0  0
  8 11  1  0  0  0  0
  8 13  1  0  0  0  0
  9 10  2  0  0  0  0
  9 17  1  0  0  0  0
 11 14  1  0  0  0  0
 11 15  1  0  0  0  0
 11 16  1  0  0  0  0
 17 18  1  0  0  0  0
 17 25  1  0  0  0  0
 18 19  1  0  0  0  0
 18 21  1  0  0  0  0
 18 26  1  0  0  0  0
 19 20  2  0  0  0  0
 19 36  1  0  0  0  0
 21 22  1  0  0  0  0
 21 23  1  0  0  0  0
 21 27  1  0  0  0  0
 22 24  1  0  0  0  0
 22 28  1  0  0  0  0
 22 29  1  0  0  0  0
 23 30  1  0  0  0  0
 23 31  1  0  0  0  0
 23 32  1  0  0  0  0
 24 33  1  0  0  0  0
 24 34  1  0  0  0  0
 24 35  1  0  0  0  0
 36 37  1  0  0  0  0
 36 41  1  0  0  0  0
 37 38  1  0  0  0  0
 37 40  1  0  0  0  0
 37 42  1  0  0  0  0
 38 39  2  0  0  0  0
 38 46  1  0  0  0  0
 40 43  1  0  0  0  0
 40 44  1  0  0  0  0
 40 45  1  0  0  0  0
 46 47  1  0  0  0  0
 46 48  1  0  0  0  0
 47 49  1  0  0  0  0
 47 50  1  0  0  0  0
 47 51  1  0  0  0  0
M  END
$$$$

  -OEChem-05262216503D

 51 50  0     1  0  0  0  0  0999 V2000
    1.1653   -6.1198    1.5487 C   0  0  0  0  0  0  0  0  0  0  0  0
    0.1991   -6.6806    1.0562 O   0  0  0  0  0  0  0  0  0  0  0  0
    2.3927   -6.9201    1.9415 C   0  0  0  0  0  0  0  0  0  0  0  0
    2.2260   -7.9834    1.7487 H   0  0  0  0  0  0  0  0  0  0  0  0
    3.2559   -6.5879    1.3599 H   0  0  0  0  0  0  0  0  0  0  0  0
    2.6038   -6.7835    3.0049 H   0  0  0  0  0  0  0  0  0  0  0  0
    1.1465   -4.7551    1.7427 N   0  0  0  0  0  0  0  0  0  0  0  0
    0.0941   -3.8617    1.2425 C   0  0  2  0  0  0  0  0  0  0  0  0
    0.6233   -2.4288    1.0197 C   0  0  0  0  0  0  0  0  0  0  0  0
    1.7348   -2.1258    1.4322 O   0  0  0  0  0  0  0  0  0  0  0  0
   -1.0621   -3.8482    2.2491 C   0  0  0  0  0  0  0  0  0  0  0  0
    2.0132   -4.3130    2.0483 H   0  0  0  0  0  0  0  0  0  0  0  0
   -0.2689   -4.2327    0.2773 H   0  0  0  0  0  0  0  0  0  0  0  0
   -0.7185   -3.4770    3.2198 H   0  0  0  0  0  0  0  0  0  0  0  0
   -1.8736   -3.2047    1.8966 H   0  0  0  0  0  0  0  0  0  0  0  0
   -1.4611   -4.8585    2.3847 H   0  0  0  0  0  0  0  0  0  0  0  0
   -0.1195   -1.5374    0.2611 N   0  0  0  0  0  0  0  0  0  0  0  0
   -0.0052   -0.0550    0.1607 C   0  0  2  0  0  0  0  0  0  0  0  0
    0.6717    0.3134   -1.1832 C   0  0  0  0  0  0  0  0  0  0  0  0
    0.4123    1.3702   -1.7455 O   0  0  0  0  0  0  0  0  0  0  0  0
    0.6141    0.6574    1.4093 C   0  0  2  0  0  0  0  0  0  0  0  0
   -0.3018    0.4282    2.6390 C   0  0  0  0  0  0  0  0  0  0  0  0
    0.7743    2.1738    1.1744 C   0  0  0  0  0  0  0  0  0  0  0  0
    0.3418    0.8522    3.9632 C   0  0  0  0  0  0  0  0  0  0  0  0
   -0.9722   -1.9367   -0.1239 H   0  0  0  0  0  0  0  0  0  0  0  0
   -1.0256    0.3324    0.0759 H   0  0  0  0  0  0  0  0  0  0  0  0
    1.6132    0.2637    1.6098 H   0  0  0  0  0  0  0  0  0  0  0  0
   -1.2435    0.9708    2.5051 H   0  0  0  0  0  0  0  0  0  0  0  0
   -0.5482   -0.6331    2.7238 H   0  0  0  0  0  0  0  0  0  0  0  0
   -0.1832    2.6246    0.8949 H   0  0  0  0  0  0  0  0  0  0  0  0
    1.1475    2.6773    2.0691 H   0  0  0  0  0  0  0  0  0  0  0  0
    1.4990    2.3696    0.3789 H   0  0  0  0  0  0  0  0  0  0  0  0
    1.3253    0.3852    4.0761 H   0  0  0  0  0  0  0  0  0  0  0  0
   -0.2886    0.5344    4.7992 H   0  0  0  0  0  0  0  0  0  0  0  0
    0.4571    1.9374    4.0222 H   0  0  0  0  0  0  0  0  0  0  0  0
    1.3332   -0.6635   -1.8998 N   0  0  0  0  0  0  0  0  0  0  0  0
    1.6257   -0.6217   -3.3355 C   0  0  2  0  0  0  0  0  0  0  0  0
    1.4614   -2.0204   -3.9695 C   0  0  0  0  0  0  0  0  0  0  0  0
    1.1974   -2.9904   -3.2650 O   0  0  0  0  0  0  0  0  0  0  0  0
    3.0518   -0.0933   -3.5125 C   0  0  0  0  0  0  0  0  0  0  0  0
    1.3882   -1.5768   -1.4487 H   0  0  0  0  0  0  0  0  0  0  0  0
    0.9254    0.0502   -3.8430 H   0  0  0  0  0  0  0  0  0  0  0  0
    3.7697   -0.7583   -3.0215 H   0  0  0  0  0  0  0  0  0  0  0  0
    3.3094   -0.0216   -4.5732 H   0  0  0  0  0  0  0  0  0  0  0  0
    3.1410    0.9035   -3.0687 H   0  0  0  0  0  0  0  0  0  0  0  0
    1.5862   -2.1946   -5.3356 N   0  0  0  0  0  0  0  0  0  0  0  0
    1.4617   -3.4916   -5.9905 C   0  0  0  0  0  0  0  0  0  0  0  0
    1.8076   -1.3775   -5.8972 H   0  0  0  0  0  0  0  0  0  0  0  0
    2.2266   -4.1821   -5.6196 H   0  0  0  0  0  0  0  0  0  0  0  0
    0.4741   -3.9250   -5.8002 H   0  0  0  0  0  0  0  0  0  0  0  0
    1.5883   -3.3835   -7.0721 H   0  0  0  0  0  0  0  0  0  0  0  0
  1  2  2  0  0  0  0
  1  3  1  0  0  0  0
  1  7  1  0  0  0  0
  3  4  1  0  0  0  0
  3  5  1  0  0  0  0
  3  6  1  0  0  0  0
  7  8  1  0  0  0  0
  7 12  1  0  0  0  0
  8  9  1  0  0  0  0
  8 11  1  0  0  0  0
  8 13  1  0  0  0  0
  9 10  2  0  0  0  0
  9 17  1  0  0  0  0
 11 14  1  0  0  0  0
 11 15  1  0  0  0  0
 11 16  1  0  0  0  0
 17 18  1  0  0  0  0
 17 25  1  0  0  0  0
 18 19  1  0  0  0  0
 18 21  1  0  0  0  0
 18 26  1  0  0  0  0
 19 20  2  0  0  0  0
 19 36  1  0  0  0  0
 21 22  1  0  0  0  0
 21 23  1  0  0  0  0
 21 27  1  0  0  0  0
 22 24  1  0  0  0  0
 22 28  1  0  0  0  0
 22 29  1  0  0  0  0
 23 30  1  0  0  0  0
 23 31  1  0  0  0  0
 23 32  1  0  0  0  0
 24 33  1  0  0  0  0
 24 34  1  0  0  0  0
 24 35  1  0  0  0  0
 36 37  1  0  0  0  0
 36 41  1  0  0  0  0
 37 38  1  0  0  0  0
 37 40  1  0  0  0  0
 37 42  1  0  0  0  0
 38 39  2  0  0  0  0
 38 46  1  0  0  0  0
 40 43  1  0  0  0  0
 40 44  1  0  0  0  0
 40 45  1  0  0  0  0
 46 47  1  0  0  0  0
 46 48  1  0  0  0  0
 47 49  1  0  0  0  0
 47 50  1  0  0  0  0
 47 51  1  0  0  0  0
M  END
$$$$

  -OEChem-05262216503D

 51 50  0     1  0  0  0  0  0999 V2000
    2.3143   -4.7221    0.5544 C   0  0  0  0  0  0  0  0  0  0  0  0
    2.3353   -4.0507   -0.4680 O   0  0  0  0  0  0  0  0  0  0  0  0
    3.5943   -5.3347    1.0897 C   0  0  0  0  0  0  0  0  0  0  0  0
    4.4280   -5.1146    0.4170 H   0  0  0  0  0  0  0  0  0  0  0  0
    3.8204   -4.9219    2.0762 H   0  0  0  0  0  0  0  0  0  0  0  0
    3.4847   -6.4188    1.1719 H   0  0  0  0  0  0  0  0  0  0  0  0
    1.1333   -4.8703    1.2532 N   0  0  0  0  0  0  0  0  0  0  0  0
   -0.0394   -4.0433    0.9381 C   0  0  2  0  0  0  0  0  0  0  0  0
    0.2283   -2.5508    1.2303 C   0  0  0  0  0  0  0  0  0  0  0  0
    0.7564   -2.2450    2.2912 O   0  0  0  0  0  0  0  0  0  0  0  0
   -1.2291   -4.5499    1.7555 C   0  0  0  0  0  0  0  0  0  0  0  0
    1.2267   -5.2027    2.2086 H   0  0  0  0  0  0  0  0  0  0  0  0
   -0.2817   -4.1514   -0.1256 H   0  0  0  0  0  0  0  0  0  0  0  0
   -1.0262   -4.4608    2.8277 H   0  0  0  0  0  0  0  0  0  0  0  0
   -2.1244   -3.9650    1.5223 H   0  0  0  0  0  0  0  0  0  0  0  0
   -1.4309   -5.5999    1.5224 H   0  0  0  0  0  0  0  0  0  0  0  0
   -0.0255   -1.6367    0.2214 N   0  0  0  0  0  0  0  0  0  0  0  0
    0.3495   -0.2063    0.0802 C   0  0  2  0  0  0  0  0  0  0  0  0
    1.5084   -0.0985   -0.9499 C   0  0  0  0  0  0  0  0  0  0  0  0
    1.6265    0.9418   -1.5883 O   0  0  0  0  0  0  0  0  0  0  0  0
    0.5870    0.5758    1.4148 C   0  0  2  0  0  0  0  0  0  0  0  0
   -0.7336    0.6144    2.2281 C   0  0  0  0  0  0  0  0  0  0  0  0
    1.0687    2.0196    1.1625 C   0  0  0  0  0  0  0  0  0  0  0  0
   -0.5494    1.1183    3.6631 C   0  0  0  0  0  0  0  0  0  0  0  0
   -0.3500   -2.0695   -0.6508 H   0  0  0  0  0  0  0  0  0  0  0  0
   -0.5020    0.2857   -0.4004 H   0  0  0  0  0  0  0  0  0  0  0  0
    1.3694    0.0796    1.9951 H   0  0  0  0  0  0  0  0  0  0  0  0
   -1.4641    1.2479    1.7147 H   0  0  0  0  0  0  0  0  0  0  0  0
   -1.1635   -0.3885    2.2862 H   0  0  0  0  0  0  0  0  0  0  0  0
    0.3682    2.5517    0.5110 H   0  0  0  0  0  0  0  0  0  0  0  0
    1.1657    2.5763    2.0970 H   0  0  0  0  0  0  0  0  0  0  0  0
    2.0564    2.0218    0.6931 H   0  0  0  0  0  0  0  0  0  0  0  0
    0.2424    0.5537    4.1653 H   0  0  0  0  0  0  0  0  0  0  0  0
   -1.4787    0.9833    4.2245 H   0  0  0  0  0  0  0  0  0  0  0  0
   -0.2948    2.1810    3.6843 H   0  0  0  0  0  0  0  0  0  0  0  0
    2.0060   -1.2470   -1.5485 N   0  0  0  0  0  0  0  0  0  0  0  0
    1.9090   -1.4358   -3.0017 C   0  0  2  0  0  0  0  0  0  0  0  0
    0.5081   -1.9516   -3.4097 C   0  0  0  0  0  0  0  0  0  0  0  0
   -0.2742   -2.3999   -2.5710 O   0  0  0  0  0  0  0  0  0  0  0  0
    2.9969   -2.4226   -3.4299 C   0  0  0  0  0  0  0  0  0  0  0  0
    1.8666   -2.0995   -0.9993 H   0  0  0  0  0  0  0  0  0  0  0  0
    2.0891   -0.4886   -3.5206 H   0  0  0  0  0  0  0  0  0  0  0  0
    2.8143   -3.4104   -2.9961 H   0  0  0  0  0  0  0  0  0  0  0  0
    3.0171   -2.5217   -4.5192 H   0  0  0  0  0  0  0  0  0  0  0  0
    3.9781   -2.0715   -3.0957 H   0  0  0  0  0  0  0  0  0  0  0  0
    0.1015   -1.8772   -4.7289 N   0  0  0  0  0  0  0  0  0  0  0  0
   -1.2339   -2.2513   -5.1778 C   0  0  0  0  0  0  0  0  0  0  0  0
    0.7339   -1.4310   -5.3870 H   0  0  0  0  0  0  0  0  0  0  0  0
   -1.4622   -3.2827   -4.8882 H   0  0  0  0  0  0  0  0  0  0  0  0
   -1.9853   -1.5869   -4.7381 H   0  0  0  0  0  0  0  0  0  0  0  0
   -1.3010   -2.1780   -6.2675 H   0  0  0  0  0  0  0  0  0  0  0  0
  1  2  2  0  0  0  0
  1  3  1  0  0  0  0
  1  7  1  0  0  0  0
  3  4  1  0  0  0  0
  3  5  1  0  0  0  0
  3  6  1  0  0  0  0
  7  8  1  0  0  0  0
  7 12  1  0  0  0  0
  8  9  1  0  0  0  0
  8 11  1  0  0  0  0
  8 13  1  0  0  0  0
  9 10  2  0  0  0  0
  9 17  1  0  0  0  0
 11 14  1  0  0  0  0
 11 15  1  0  0  0  0
 11 16  1  0  0  0  0
 17 18  1  0  0  0  0
 17 25  1  0  0  0  0
 18 19  1  0  0  0  0
 18 21  1  0  0  0  0
 18 26  1  0  0  0  0
 19 20  2  0  0  0  0
 19 36  1  0  0  0  0
 21 22  1  0  0  0  0
 21 23  1  0  0  0  0
 21 27  1  0  0  0  0
 22 24  1  0  0  0  0
 22 28  1  0  0  0  0
 22 29  1  0  0  0  0
 23 30  1  0  0  0  0
 23 31  1  0  0  0  0
 23 32  1  0  0  0  0
 24 33  1  0  0  0  0
 24 34  1  0  0  0  0
 24 35  1  0  0  0  0
 36 37  1  0  0  0  0
 36 41  1  0  0  0  0
 37 38  1  0  0  0  0
 37 40  1  0  0  0  0
 37 42  1  0  0  0  0
 38 39  2  0  0  0  0
 38 46  1  0  0  0  0
 40 43  1  0  0  0  0
 40 44  1  0  0  0  0
 40 45  1  0  0  0  0
 46 47  1  0  0  0  0
 46 48  1  0  0  0  0
 47 49  1  0  0  0  0
 47 50  1  0  0  0  0
 47 51  1  0  0  0  0
M  END
$$$$

  -OEChem-05262216503D

 51 50  0     1  0  0  0  0  0999 V2000
    1.4313   -6.1434    1.7404 C   0  0  0  0  0  0  0  0  0  0  0  0
    0.5213   -6.7496    1.1976 O   0  0  0  0  0  0  0  0  0  0  0  0
    2.6531   -6.8905    2.2404 C   0  0  0  0  0  0  0  0  0  0  0  0
    2.5045   -7.9686    2.1352 H   0  0  0  0  0  0  0  0  0  0  0  0
    3.5314   -6.5976    1.6605 H   0  0  0  0  0  0  0  0  0  0  0  0
    2.8273   -6.6610    3.2943 H   0  0  0  0  0  0  0  0  0  0  0  0
    1.3547   -4.7752    1.8898 N   0  0  0  0  0  0  0  0  0  0  0  0
    0.2973   -3.9354    1.3129 C   0  0  2  0  0  0  0  0  0  0  0  0
    0.8036   -2.5084    1.0126 C   0  0  0  0  0  0  0  0  0  0  0  0
    1.8949   -2.1581    1.4411 O   0  0  0  0  0  0  0  0  0  0  0  0
   -0.8767   -3.8885    2.2962 C   0  0  0  0  0  0  0  0  0  0  0  0
    2.1843   -4.2925    2.2347 H   0  0  0  0  0  0  0  0  0  0  0  0
   -0.0405   -4.3713    0.3663 H   0  0  0  0  0  0  0  0  0  0  0  0
   -0.5599   -3.4505    3.2483 H   0  0  0  0  0  0  0  0  0  0  0  0
   -1.6962   -3.2876    1.8906 H   0  0  0  0  0  0  0  0  0  0  0  0
   -1.2534   -4.8987    2.4862 H   0  0  0  0  0  0  0  0  0  0  0  0
    0.0656   -1.6830    0.1775 N   0  0  0  0  0  0  0  0  0  0  0  0
    0.1321   -0.2002    0.0317 C   0  0  2  0  0  0  0  0  0  0  0  0
    0.8750    0.1445   -1.2924 C   0  0  0  0  0  0  0  0  0  0  0  0
    0.9813    1.2962   -1.6927 O   0  0  0  0  0  0  0  0  0  0  0  0
    0.5885    0.5579    1.3315 C   0  0  2  0  0  0  0  0  0  0  0  0
   -0.4580    0.3085    2.4513 C   0  0  0  0  0  0  0  0  0  0  0  0
    0.7287    2.0795    1.1179 C   0  0  0  0  0  0  0  0  0  0  0  0
    0.0023    0.7691    3.8390 C   0  0  0  0  0  0  0  0  0  0  0  0
   -0.7891   -2.1139   -0.1695 H   0  0  0  0  0  0  0  0  0  0  0  0
   -0.8924    0.1390   -0.1506 H   0  0  0  0  0  0  0  0  0  0  0  0
    1.5687    0.2005    1.6532 H   0  0  0  0  0  0  0  0  0  0  0  0
   -1.3969    0.8119    2.1987 H   0  0  0  0  0  0  0  0  0  0  0  0
   -0.6728   -0.7602    2.5239 H   0  0  0  0  0  0  0  0  0  0  0  0
   -0.1729    2.4897    0.6524 H   0  0  0  0  0  0  0  0  0  0  0  0
    0.9009    2.6043    2.0595 H   0  0  0  0  0  0  0  0  0  0  0  0
    1.5893    2.3014    0.4812 H   0  0  0  0  0  0  0  0  0  0  0  0
    0.9956    0.3681    4.0641 H   0  0  0  0  0  0  0  0  0  0  0  0
   -0.6963    0.4067    4.5993 H   0  0  0  0  0  0  0  0  0  0  0  0
    0.0362    1.8594    3.9089 H   0  0  0  0  0  0  0  0  0  0  0  0
    1.0569   -0.8594   -2.2260 N   0  0  0  0  0  0  0  0  0  0  0  0
    1.0840   -0.6728   -3.6820 C   0  0  2  0  0  0  0  0  0  0  0  0
    0.0001   -1.5379   -4.3607 C   0  0  0  0  0  0  0  0  0  0  0  0
   -0.5975   -2.3948   -3.7149 O   0  0  0  0  0  0  0  0  0  0  0  0
    2.4807   -1.0543   -4.1766 C   0  0  0  0  0  0  0  0  0  0  0  0
    0.7776   -1.7840   -1.9054 H   0  0  0  0  0  0  0  0  0  0  0  0
    0.8857    0.3708   -3.9467 H   0  0  0  0  0  0  0  0  0  0  0  0
    2.6945   -2.1036   -3.9490 H   0  0  0  0  0  0  0  0  0  0  0  0
    2.5599   -0.9082   -5.2580 H   0  0  0  0  0  0  0  0  0  0  0  0
    3.2360   -0.4308   -3.6876 H   0  0  0  0  0  0  0  0  0  0  0  0
   -0.3138   -1.3542   -5.6948 N   0  0  0  0  0  0  0  0  0  0  0  0
   -1.3276   -2.1344   -6.3943 C   0  0  0  0  0  0  0  0  0  0  0  0
    0.1805   -0.6238   -6.1992 H   0  0  0  0  0  0  0  0  0  0  0  0
   -1.0692   -3.1985   -6.3820 H   0  0  0  0  0  0  0  0  0  0  0  0
   -2.3061   -2.0041   -5.9203 H   0  0  0  0  0  0  0  0  0  0  0  0
   -1.4026   -1.8099   -7.4367 H   0  0  0  0  0  0  0  0  0  0  0  0
  1  2  2  0  0  0  0
  1  3  1  0  0  0  0
  1  7  1  0  0  0  0
  3  4  1  0  0  0  0
  3  5  1  0  0  0  0
  3  6  1  0  0  0  0
  7  8  1  0  0  0  0
  7 12  1  0  0  0  0
  8  9  1  0  0  0  0
  8 11  1  0  0  0  0
  8 13  1  0  0  0  0
  9 10  2  0  0  0  0
  9 17  1  0  0  0  0
 11 14  1  0  0  0  0
 11 15  1  0  0  0  0
 11 16  1  0  0  0  0
 17 18  1  0  0  0  0
 17 25  1  0  0  0  0
 18 19  1  0  0  0  0
 18 21  1  0  0  0  0
 18 26  1  0  0  0  0
 19 20  2  0  0  0  0
 19 36  1  0  0  0  0
 21 22  1  0  0  0  0
 21 23  1  0  0  0  0
 21 27  1  0  0  0  0
 22 24  1  0  0  0  0
 22 28  1  0  0  0  0
 22 29  1  0  0  0  0
 23 30  1  0  0  0  0
 23 31  1  0  0  0  0
 23 32  1  0  0  0  0
 24 33  1  0  0  0  0
 24 34  1  0  0  0  0
 24 35  1  0  0  0  0
 36 37  1  0  0  0  0
 36 41  1  0  0  0  0
 37 38  1  0  0  0  0
 37 40  1  0  0  0  0
 37 42  1  0  0  0  0
 38 39  2  0  0  0  0
 38 46  1  0  0  0  0
 40 43  1  0  0  0  0
 40 44  1  0  0  0  0
 40 45  1  0  0  0  0
 46 47  1  0  0  0  0
 46 48  1  0  0  0  0
 47 49  1  0  0  0  0
 47 50  1  0  0  0  0
 47 51  1  0  0  0  0
M  END
$$$$

  -OEChem-05262216503D

 51 50  0     1  0  0  0  0  0999 V2000
    1.2356   -6.1404    1.5069 C   0  0  0  0  0  0  0  0  0  0  0  0
    0.2084   -6.6872    1.1375 O   0  0  0  0  0  0  0  0  0  0  0  0
    2.4982   -6.9541    1.7210 C   0  0  0  0  0  0  0  0  0  0  0  0
    2.2996   -8.0137    1.5369 H   0  0  0  0  0  0  0  0  0  0  0  0
    3.2789   -6.6175    1.0346 H   0  0  0  0  0  0  0  0  0  0  0  0
    2.8504   -6.8356    2.7485 H   0  0  0  0  0  0  0  0  0  0  0  0
    1.2535   -4.7775    1.7138 N   0  0  0  0  0  0  0  0  0  0  0  0
    0.1484   -3.8732    1.3710 C   0  0  2  0  0  0  0  0  0  0  0  0
    0.6610   -2.4701    0.9815 C   0  0  0  0  0  0  0  0  0  0  0  0
    1.8261   -2.1743    1.2103 O   0  0  0  0  0  0  0  0  0  0  0  0
   -0.7959   -3.7820    2.5738 C   0  0  0  0  0  0  0  0  0  0  0  0
    2.1579   -4.3434    1.8986 H   0  0  0  0  0  0  0  0  0  0  0  0
   -0.3992   -4.2732    0.5104 H   0  0  0  0  0  0  0  0  0  0  0  0
   -0.2695   -3.3756    3.4436 H   0  0  0  0  0  0  0  0  0  0  0  0
   -1.6479   -3.1343    2.3468 H   0  0  0  0  0  0  0  0  0  0  0  0
   -1.1783   -4.7750    2.8307 H   0  0  0  0  0  0  0  0  0  0  0  0
   -0.1764   -1.6053    0.2921 N   0  0  0  0  0  0  0  0  0  0  0  0
   -0.0565   -0.1272    0.1458 C   0  0  2  0  0  0  0  0  0  0  0  0
    0.4590    0.1709   -1.2945 C   0  0  0  0  0  0  0  0  0  0  0  0
    0.9753    1.2269   -1.6316 O   0  0  0  0  0  0  0  0  0  0  0  0
    0.6322    0.5948    1.3630 C   0  0  2  0  0  0  0  0  0  0  0  0
   -0.2480    0.3785    2.6253 C   0  0  0  0  0  0  0  0  0  0  0  0
    0.7893    2.1161    1.1429 C   0  0  0  0  0  0  0  0  0  0  0  0
    0.4312    0.7964    3.9347 C   0  0  0  0  0  0  0  0  0  0  0  0
   -1.1066   -1.9849    0.1355 H   0  0  0  0  0  0  0  0  0  0  0  0
   -1.0772    0.2662    0.1344 H   0  0  0  0  0  0  0  0  0  0  0  0
    1.6343    0.1943    1.5302 H   0  0  0  0  0  0  0  0  0  0  0  0
   -1.1902    0.9261    2.5183 H   0  0  0  0  0  0  0  0  0  0  0  0
   -0.4980   -0.6808    2.7215 H   0  0  0  0  0  0  0  0  0  0  0  0
   -0.1361    2.5485    0.7504 H   0  0  0  0  0  0  0  0  0  0  0  0
    1.0459    2.6365    2.0668 H   0  0  0  0  0  0  0  0  0  0  0  0
    1.6031    2.3237    0.4441 H   0  0  0  0  0  0  0  0  0  0  0  0
    1.4297    0.3536    4.0044 H   0  0  0  0  0  0  0  0  0  0  0  0
   -0.1613    0.4466    4.7853 H   0  0  0  0  0  0  0  0  0  0  0  0
    0.5196    1.8826    4.0150 H   0  0  0  0  0  0  0  0  0  0  0  0
    0.1326   -0.7066   -2.3126 N   0  0  0  0  0  0  0  0  0  0  0  0
    0.3673   -0.4954   -3.7454 C   0  0  2  0  0  0  0  0  0  0  0  0
   -0.6111   -1.3349   -4.5937 C   0  0  0  0  0  0  0  0  0  0  0  0
   -1.3191   -2.1834   -4.0591 O   0  0  0  0  0  0  0  0  0  0  0  0
    1.8184   -0.8711   -4.0650 C   0  0  0  0  0  0  0  0  0  0  0  0
   -0.3515   -1.5621   -2.0493 H   0  0  0  0  0  0  0  0  0  0  0  0
    0.2008    0.5581   -3.9942 H   0  0  0  0  0  0  0  0  0  0  0  0
    1.9997   -1.9253   -3.8328 H   0  0  0  0  0  0  0  0  0  0  0  0
    2.0364   -0.7038   -5.1239 H   0  0  0  0  0  0  0  0  0  0  0  0
    2.5084   -0.2614   -3.4729 H   0  0  0  0  0  0  0  0  0  0  0  0
   -0.7120   -1.1297   -5.9573 N   0  0  0  0  0  0  0  0  0  0  0  0
   -1.6194   -1.8819   -6.8153 C   0  0  0  0  0  0  0  0  0  0  0  0
   -0.1185   -0.4167   -6.3718 H   0  0  0  0  0  0  0  0  0  0  0  0
   -1.3912   -2.9521   -6.7704 H   0  0  0  0  0  0  0  0  0  0  0  0
   -2.6575   -1.7291   -6.5020 H   0  0  0  0  0  0  0  0  0  0  0  0
   -1.5198   -1.5507   -7.8535 H   0  0  0  0  0  0  0  0  0  0  0  0
  1  2  2  0  0  0  0
  1  3  1  0  0  0  0
  1  7  1  0  0  0  0
  3  4  1  0  0  0  0
  3  5  1  0  0  0  0
  3  6  1  0  0  0  0
  7  8  1  0  0  0  0
  7 12  1  0  0  0  0
  8  9  1  0  0  0  0
  8 11  1  0  0  0  0
  8 13  1  0  0  0  0
  9 10  2  0  0  0  0
  9 17  1  0  0  0  0
 11 14  1  0  0  0  0
 11 15  1  0  0  0  0
 11 16  1  0  0  0  0
 17 18  1  0  0  0  0
 17 25  1  0  0  0  0
 18 19  1  0  0  0  0
 18 21  1  0  0  0  0
 18 26  1  0  0  0  0
 19 20  2  0  0  0  0
 19 36  1  0  0  0  0
 21 22  1  0  0  0  0
 21 23  1  0  0  0  0
 21 27  1  0  0  0  0
 22 24  1  0  0  0  0
 22 28  1  0  0  0  0
 22 29  1  0  0  0  0
 23 30  1  0  0  0  0
 23 31  1  0  0  0  0
 23 32  1  0  0  0  0
 24 33  1  0  0  0  0
 24 34  1  0  0  0  0
 24 35  1  0  0  0  0
 36 37  1  0  0  0  0
 36 41  1  0  0  0  0
 37 38  1  0  0  0  0
 37 40  1  0  0  0  0
 37 42  1  0  0  0  0
 38 39  2  0  0  0  0
 38 46  1  0  0  0  0
 40 43  1  0  0  0  0
 40 44  1  0  0  0  0
 40 45  1  0  0  0  0
 46 47  1  0  0  0  0
 46 48  1  0  0  0  0
 47 49  1  0  0  0  0
 47 50  1  0  0  0  0
 47 51  1  0  0  0  0
M  END
$$$$

  -OEChem-05262216503D

 51 50  0     1  0  0  0  0  0999 V2000
    1.3156   -6.0655    1.1233 C   0  0  0  0  0  0  0  0  0  0  0  0
    0.3470   -6.5848    0.5912 O   0  0  0  0  0  0  0  0  0  0  0  0
    2.6161   -6.8352    1.2563 C   0  0  0  0  0  0  0  0  0  0  0  0
    2.5112   -7.8317    0.8185 H   0  0  0  0  0  0  0  0  0  0  0  0
    3.4186   -6.3056    0.7373 H   0  0  0  0  0  0  0  0  0  0  0  0
    2.8813   -6.9394    2.3109 H   0  0  0  0  0  0  0  0  0  0  0  0
    1.2342   -4.7720    1.5933 N   0  0  0  0  0  0  0  0  0  0  0  0
    0.1033   -3.8706    1.3388 C   0  0  2  0  0  0  0  0  0  0  0  0
    0.5774   -2.4221    1.0964 C   0  0  0  0  0  0  0  0  0  0  0  0
    1.6997   -2.0992    1.4602 O   0  0  0  0  0  0  0  0  0  0  0  0
   -0.8422   -3.9329    2.5418 C   0  0  0  0  0  0  0  0  0  0  0  0
    2.1029   -4.3335    1.8992 H   0  0  0  0  0  0  0  0  0  0  0  0
   -0.4340   -4.1939    0.4406 H   0  0  0  0  0  0  0  0  0  0  0  0
   -0.3254   -3.6101    3.4514 H   0  0  0  0  0  0  0  0  0  0  0  0
   -1.7096   -3.2847    2.3854 H   0  0  0  0  0  0  0  0  0  0  0  0
   -1.1994   -4.9574    2.6885 H   0  0  0  0  0  0  0  0  0  0  0  0
   -0.2515   -1.5489    0.4070 N   0  0  0  0  0  0  0  0  0  0  0  0
   -0.1169   -0.0779    0.2227 C   0  0  2  0  0  0  0  0  0  0  0  0
    0.3720    0.1481   -1.2378 C   0  0  0  0  0  0  0  0  0  0  0  0
    1.2906    0.8915   -1.5516 O   0  0  0  0  0  0  0  0  0  0  0  0
    0.6203    0.6924    1.3747 C   0  0  2  0  0  0  0  0  0  0  0  0
   -0.2074    0.5334    2.6796 C   0  0  0  0  0  0  0  0  0  0  0  0
    0.7282    2.2077    1.0777 C   0  0  0  0  0  0  0  0  0  0  0  0
    0.5278    1.0069    3.9391 C   0  0  0  0  0  0  0  0  0  0  0  0
   -1.1472   -1.9533    0.1502 H   0  0  0  0  0  0  0  0  0  0  0  0
   -1.1320    0.3301    0.2278 H   0  0  0  0  0  0  0  0  0  0  0  0
    1.6346    0.3089    1.5103 H   0  0  0  0  0  0  0  0  0  0  0  0
   -1.1553    1.0745    2.5893 H   0  0  0  0  0  0  0  0  0  0  0  0
   -0.4490   -0.5218    2.8308 H   0  0  0  0  0  0  0  0  0  0  0  0
   -0.2367    2.6072    0.7510 H   0  0  0  0  0  0  0  0  0  0  0  0
    1.0512    2.7674    1.9570 H   0  0  0  0  0  0  0  0  0  0  0  0
    1.4717    2.4107    0.3049 H   0  0  0  0  0  0  0  0  0  0  0  0
    1.5244    0.5572    3.9889 H   0  0  0  0  0  0  0  0  0  0  0  0
   -0.0317    0.7049    4.8296 H   0  0  0  0  0  0  0  0  0  0  0  0
    0.6295    2.0946    3.9630 H   0  0  0  0  0  0  0  0  0  0  0  0
   -0.2344   -0.5615   -2.2593 N   0  0  0  0  0  0  0  0  0  0  0  0
    0.0848   -0.4451   -3.6869 C   0  0  2  0  0  0  0  0  0  0  0  0
   -1.1316   -0.8288   -4.5554 C   0  0  0  0  0  0  0  0  0  0  0  0
   -2.1052   -1.3713   -4.0409 O   0  0  0  0  0  0  0  0  0  0  0  0
    1.2780   -1.3558   -3.9948 C   0  0  0  0  0  0  0  0  0  0  0  0
   -1.0421   -1.1327   -2.0223 H   0  0  0  0  0  0  0  0  0  0  0  0
    0.3485    0.5912   -3.9236 H   0  0  0  0  0  0  0  0  0  0  0  0
    1.0337   -2.3985   -3.7676 H   0  0  0  0  0  0  0  0  0  0  0  0
    1.5541   -1.2837   -5.0507 H   0  0  0  0  0  0  0  0  0  0  0  0
    2.1444   -1.0635   -3.3928 H   0  0  0  0  0  0  0  0  0  0  0  0
   -1.1448   -0.5524   -5.9100 N   0  0  0  0  0  0  0  0  0  0  0  0
   -2.2666   -0.8764   -6.7831 C   0  0  0  0  0  0  0  0  0  0  0  0
   -0.3297   -0.0922   -6.3051 H   0  0  0  0  0  0  0  0  0  0  0  0
   -2.4641   -1.9534   -6.7704 H   0  0  0  0  0  0  0  0  0  0  0  0
   -3.1698   -0.3488   -6.4591 H   0  0  0  0  0  0  0  0  0  0  0  0
   -2.0432   -0.5788   -7.8122 H   0  0  0  0  0  0  0  0  0  0  0  0
  1  2  2  0  0  0  0
  1  3  1  0  0  0  0
  1  7  1  0  0  0  0
  3  4  1  0  0  0  0
  3  5  1  0  0  0  0
  3  6  1  0  0  0  0
  7  8  1  0  0  0  0
  7 12  1  0  0  0  0
  8  9  1  0  0  0  0
  8 11  1  0  0  0  0
  8 13  1  0  0  0  0
  9 10  2  0  0  0  0
  9 17  1  0  0  0  0
 11 14  1  0  0  0  0
 11 15  1  0  0  0  0
 11 16  1  0  0  0  0
 17 18  1  0  0  0  0
 17 25  1  0  0  0  0
 18 19  1  0  0  0  0
 18 21  1  0  0  0  0
 18 26  1  0  0  0  0
 19 20  2  0  0  0  0
 19 36  1  0  0  0  0
 21 22  1  0  0  0  0
 21 23  1  0  0  0  0
 21 27  1  0  0  0  0
 22 24  1  0  0  0  0
 22 28  1  0  0  0  0
 22 29  1  0  0  0  0
 23 30  1  0  0  0  0
 23 31  1  0  0  0  0
 23 32  1  0  0  0  0
 24 33  1  0  0  0  0
 24 34  1  0  0  0  0
 24 35  1  0  0  0  0
 36 37  1  0  0  0  0
 36 41  1  0  0  0  0
 37 38  1  0  0  0  0
 37 40  1  0  0  0  0
 37 42  1  0  0  0  0
 38 39  2  0  0  0  0
 38 46  1  0  0  0  0
 40 43  1  0  0  0  0
 40 44  1  0  0  0  0
 40 45  1  0  0  0  0
 46 47  1  0  0  0  0
 46 48  1  0  0  0  0
 47 49  1  0  0  0  0
 47 50  1  0  0  0  0
 47 51  1  0  0  0  0
M  END
$$$$

  -OEChem-05262216503D

 51 50  0     1  0  0  0  0  0999 V2000
    1.4001   -5.9692    0.8682 C   0  0  0  0  0  0  0  0  0  0  0  0
    0.5331   -6.4585    0.1609 O   0  0  0  0  0  0  0  0  0  0  0  0
    2.7180   -6.6930    1.0680 C   0  0  0  0  0  0  0  0  0  0  0  0
    2.7140   -7.6411    0.5232 H   0  0  0  0  0  0  0  0  0  0  0  0
    3.5416   -6.0773    0.6984 H   0  0  0  0  0  0  0  0  0  0  0  0
    2.8736   -6.8980    2.1298 H   0  0  0  0  0  0  0  0  0  0  0  0
    1.1876   -4.7514    1.4785 N   0  0  0  0  0  0  0  0  0  0  0  0
    0.0410   -3.8773    1.2000 C   0  0  2  0  0  0  0  0  0  0  0  0
    0.4489   -2.3891    1.1926 C   0  0  0  0  0  0  0  0  0  0  0  0
    1.4895   -2.0624    1.7466 O   0  0  0  0  0  0  0  0  0  0  0  0
   -1.0328   -4.1376    2.2595 C   0  0  0  0  0  0  0  0  0  0  0  0
    1.9878   -4.3154    1.9366 H   0  0  0  0  0  0  0  0  0  0  0  0
   -0.3676   -4.1069    0.2102 H   0  0  0  0  0  0  0  0  0  0  0  0
   -0.6470   -3.9101    3.2584 H   0  0  0  0  0  0  0  0  0  0  0  0
   -1.9144   -3.5163    2.0758 H   0  0  0  0  0  0  0  0  0  0  0  0
   -1.3403   -5.1880    2.2351 H   0  0  0  0  0  0  0  0  0  0  0  0
   -0.3529   -1.4854    0.5097 N   0  0  0  0  0  0  0  0  0  0  0  0
   -0.1826   -0.0214    0.3152 C   0  0  2  0  0  0  0  0  0  0  0  0
    0.2932    0.1623   -1.1498 C   0  0  0  0  0  0  0  0  0  0  0  0
    1.4173    0.5406   -1.4515 O   0  0  0  0  0  0  0  0  0  0  0  0
    0.6325    0.7539    1.4012 C   0  0  2  0  0  0  0  0  0  0  0  0
   -0.1094    0.6479    2.7601 C   0  0  0  0  0  0  0  0  0  0  0  0
    0.7474    2.2561    1.0489 C   0  0  0  0  0  0  0  0  0  0  0  0
    0.7261    1.1387    3.9471 C   0  0  0  0  0  0  0  0  0  0  0  0
   -1.1496   -1.9113    0.0461 H   0  0  0  0  0  0  0  0  0  0  0  0
   -1.1834    0.4192    0.3508 H   0  0  0  0  0  0  0  0  0  0  0  0
    1.6453    0.3477    1.4760 H   0  0  0  0  0  0  0  0  0  0  0  0
   -1.0481    1.2104    2.7206 H   0  0  0  0  0  0  0  0  0  0  0  0
   -0.3671   -0.3964    2.9556 H   0  0  0  0  0  0  0  0  0  0  0  0
   -0.2450    2.7024    0.9324 H   0  0  0  0  0  0  0  0  0  0  0  0
    1.2831    2.8008    1.8296 H   0  0  0  0  0  0  0  0  0  0  0  0
    1.3063    2.4144    0.1249 H   0  0  0  0  0  0  0  0  0  0  0  0
    1.7036    0.6459    3.9542 H   0  0  0  0  0  0  0  0  0  0  0  0
    0.2134    0.9013    4.8840 H   0  0  0  0  0  0  0  0  0  0  0  0
    0.8760    2.2205    3.9105 H   0  0  0  0  0  0  0  0  0  0  0  0
   -0.5264   -0.2858   -2.1702 N   0  0  0  0  0  0  0  0  0  0  0  0
   -0.1968   -0.2427   -3.5997 C   0  0  2  0  0  0  0  0  0  0  0  0
   -1.4788   -0.1919   -4.4567 C   0  0  0  0  0  0  0  0  0  0  0  0
   -2.5711   -0.3955   -3.9349 O   0  0  0  0  0  0  0  0  0  0  0  0
    0.6349   -1.4824   -3.9483 C   0  0  0  0  0  0  0  0  0  0  0  0
   -1.4947   -0.5011   -1.9395 H   0  0  0  0  0  0  0  0  0  0  0  0
    0.3855    0.6590   -3.8179 H   0  0  0  0  0  0  0  0  0  0  0  0
    0.0670   -2.3948   -3.7405 H   0  0  0  0  0  0  0  0  0  0  0  0
    0.9107   -1.4764   -5.0070 H   0  0  0  0  0  0  0  0  0  0  0  0
    1.5547   -1.5028   -3.3550 H   0  0  0  0  0  0  0  0  0  0  0  0
   -1.4132    0.0938   -5.8076 N   0  0  0  0  0  0  0  0  0  0  0  0
   -2.5871    0.1601   -6.6695 C   0  0  0  0  0  0  0  0  0  0  0  0
   -0.4959    0.2656   -6.2094 H   0  0  0  0  0  0  0  0  0  0  0  0
   -3.1181   -0.7978   -6.6685 H   0  0  0  0  0  0  0  0  0  0  0  0
   -3.2713    0.9429   -6.3258 H   0  0  0  0  0  0  0  0  0  0  0  0
   -2.2892    0.3885   -7.6974 H   0  0  0  0  0  0  0  0  0  0  0  0
  1  2  2  0  0  0  0
  1  3  1  0  0  0  0
  1  7  1  0  0  0  0
  3  4  1  0  0  0  0
  3  5  1  0  0  0  0
  3  6  1  0  0  0  0
  7  8  1  0  0  0  0
  7 12  1  0  0  0  0
  8  9  1  0  0  0  0
  8 11  1  0  0  0  0
  8 13  1  0  0  0  0
  9 10  2  0  0  0  0
  9 17  1  0  0  0  0
 11 14  1  0  0  0  0
 11 15  1  0  0  0  0
 11 16  1  0  0  0  0
 17 18  1  0  0  0  0
 17 25  1  0  0  0  0
 18 19  1  0  0  0  0
 18 21  1  0  0  0  0
 18 26  1  0  0  0  0
 19 20  2  0  0  0  0
 19 36  1  0  0  0  0
 21 22  1  0  0  0  0
 21 23  1  0  0  0  0
 21 27  1  0  0  0  0
 22 24  1  0  0  0  0
 22 28  1  0  0  0  0
 22 29  1  0  0  0  0
 23 30  1  0  0  0  0
 23 31  1  0  0  0  0
 23 32  1  0  0  0  0
 24 33  1  0  0  0  0
 24 34  1  0  0  0  0
 24 35  1  0  0  0  0
 36 37  1  0  0  0  0
 36 41  1  0  0  0  0
 37 38  1  0  0  0  0
 37 40  1  0  0  0  0
 37 42  1  0  0  0  0
 38 39  2  0  0  0  0
 38 46  1  0  0  0  0
 40 43  1  0  0  0  0
 40 44  1  0  0  0  0
 40 45  1  0  0  0  0
 46 47  1  0  0  0  0
 46 48  1  0  0  0  0
 47 49  1  0  0  0  0
 47 50  1  0  0  0  0
 47 51  1  0  0  0  0
M  END
$$$$

  -OEChem-05262216503D

 51 50  0     1  0  0  0  0  0999 V2000
    1.4072   -5.9673    0.8476 C   0  0  0  0  0  0  0  0  0  0  0  0
    0.5524   -6.4531    0.1229 O   0  0  0  0  0  0  0  0  0  0  0  0
    2.7323   -6.6786    1.0458 C   0  0  0  0  0  0  0  0  0  0  0  0
    2.7594   -7.5985    0.4552 H   0  0  0  0  0  0  0  0  0  0  0  0
    3.5539   -6.0320    0.7278 H   0  0  0  0  0  0  0  0  0  0  0  0
    2.8643   -6.9327    2.1002 H   0  0  0  0  0  0  0  0  0  0  0  0
    1.1731   -4.7658    1.4815 N   0  0  0  0  0  0  0  0  0  0  0  0
    0.0187   -3.9006    1.2082 C   0  0  2  0  0  0  0  0  0  0  0  0
    0.4090   -2.4080    1.2247 C   0  0  0  0  0  0  0  0  0  0  0  0
    1.4276   -2.0752    1.8153 O   0  0  0  0  0  0  0  0  0  0  0  0
   -1.0574   -4.1863    2.2586 C   0  0  0  0  0  0  0  0  0  0  0  0
    1.9615   -4.3307    1.9607 H   0  0  0  0  0  0  0  0  0  0  0  0
   -0.3822   -4.1211    0.2132 H   0  0  0  0  0  0  0  0  0  0  0  0
   -0.6773   -3.9744    3.2632 H   0  0  0  0  0  0  0  0  0  0  0  0
   -1.9413   -3.5660    2.0823 H   0  0  0  0  0  0  0  0  0  0  0  0
   -1.3585   -5.2378    2.2140 H   0  0  0  0  0  0  0  0  0  0  0  0
   -0.3929   -1.5074    0.5373 N   0  0  0  0  0  0  0  0  0  0  0  0
   -0.2200   -0.0473    0.3289 C   0  0  2  0  0  0  0  0  0  0  0  0
    0.2488    0.1380   -1.1349 C   0  0  0  0  0  0  0  0  0  0  0  0
    1.4245    0.2902   -1.4396 O   0  0  0  0  0  0  0  0  0  0  0  0
    0.6117    0.7410    1.3888 C   0  0  2  0  0  0  0  0  0  0  0  0
   -0.1018    0.6612    2.7633 C   0  0  0  0  0  0  0  0  0  0  0  0
    0.7391    2.2296    0.9940 C   0  0  0  0  0  0  0  0  0  0  0  0
    0.7623    1.1712    3.9207 C   0  0  0  0  0  0  0  0  0  0  0  0
   -1.1592   -1.9428    0.0325 H   0  0  0  0  0  0  0  0  0  0  0  0
   -1.2198    0.3945    0.3761 H   0  0  0  0  0  0  0  0  0  0  0  0
    1.6222    0.3265    1.4542 H   0  0  0  0  0  0  0  0  0  0  0  0
   -1.0376    1.2289    2.7323 H   0  0  0  0  0  0  0  0  0  0  0  0
   -0.3618   -0.3777    2.9826 H   0  0  0  0  0  0  0  0  0  0  0  0
   -0.2488    2.6914    0.9027 H   0  0  0  0  0  0  0  0  0  0  0  0
    1.3132    2.7835    1.7407 H   0  0  0  0  0  0  0  0  0  0  0  0
    1.2650    2.3478    0.0436 H   0  0  0  0  0  0  0  0  0  0  0  0
    1.7361    0.6716    3.9179 H   0  0  0  0  0  0  0  0  0  0  0  0
    0.2687    0.9593    4.8739 H   0  0  0  0  0  0  0  0  0  0  0  0
    0.9187    2.2509    3.8545 H   0  0  0  0  0  0  0  0  0  0  0  0
   -0.6750   -0.0096   -2.1532 N   0  0  0  0  0  0  0  0  0  0  0  0
   -0.3747    0.1108   -3.5851 C   0  0  2  0  0  0  0  0  0  0  0  0
   -1.6291    0.5343   -4.3774 C   0  0  0  0  0  0  0  0  0  0  0  0
   -2.7296    0.5203   -3.8343 O   0  0  0  0  0  0  0  0  0  0  0  0
    0.1509   -1.2372   -4.0922 C   0  0  0  0  0  0  0  0  0  0  0  0
   -1.6621   -0.0298   -1.9006 H   0  0  0  0  0  0  0  0  0  0  0  0
    0.3906    0.8796   -3.7381 H   0  0  0  0  0  0  0  0  0  0  0  0
   -0.5998   -2.0206   -3.9473 H   0  0  0  0  0  0  0  0  0  0  0  0
    0.3932   -1.1797   -5.1575 H   0  0  0  0  0  0  0  0  0  0  0  0
    1.0585   -1.5208   -3.5495 H   0  0  0  0  0  0  0  0  0  0  0  0
   -1.5265    0.9416   -5.6943 N   0  0  0  0  0  0  0  0  0  0  0  0
   -2.6722    1.3529   -6.4967 C   0  0  0  0  0  0  0  0  0  0  0  0
   -0.6015    0.9494   -6.1149 H   0  0  0  0  0  0  0  0  0  0  0  0
   -3.3961    0.5351   -6.5789 H   0  0  0  0  0  0  0  0  0  0  0  0
   -3.1678    2.2180   -6.0434 H   0  0  0  0  0  0  0  0  0  0  0  0
   -2.3478    1.6297   -7.5045 H   0  0  0  0  0  0  0  0  0  0  0  0
  1  2  2  0  0  0  0
  1  3  1  0  0  0  0
  1  7  1  0  0  0  0
  3  4  1  0  0  0  0
  3  5  1  0  0  0  0
  3  6  1  0  0  0  0
  7  8  1  0  0  0  0
  7 12  1  0  0  0  0
  8  9  1  0  0  0  0
  8 11  1  0  0  0  0
  8 13  1  0  0  0  0
  9 10  2  0  0  0  0
  9 17  1  0  0  0  0
 11 14  1  0  0  0  0
 11 15  1  0  0  0  0
 11 16  1  0  0  0  0
 17 18  1  0  0  0  0
 17 25  1  0  0  0  0
 18 19  1  0  0  0  0
 18 21  1  0  0  0  0
 18 26  1  0  0  0  0
 19 20  2  0  0  0  0
 19 36  1  0  0  0  0
 21 22  1  0  0  0  0
 21 23  1  0  0  0  0
 21 27  1  0  0  0  0
 22 24  1  0  0  0  0
 22 28  1  0  0  0  0
 22 29  1  0  0  0  0
 23 30  1  0  0  0  0
 23 31  1  0  0  0  0
 23 32  1  0  0  0  0
 24 33  1  0  0  0  0
 24 34  1  0  0  0  0
 24 35  1  0  0  0  0
 36 37  1  0  0  0  0
 36 41  1  0  0  0  0
 37 38  1  0  0  0  0
 37 40  1  0  0  0  0
 37 42  1  0  0  0  0
 38 39  2  0  0  0  0
 38 46  1  0  0  0  0
 40 43  1  0  0  0  0
 40 44  1  0  0  0  0
 40 45  1  0  0  0  0
 46 47  1  0  0  0  0
 46 48  1  0  0  0  0
 47 49  1  0  0  0  0
 47 50  1  0  0  0  0
 47 51  1  0  0  0  0
M  END
$$$$

  -OEChem-05262216503D

 51 50  0     1  0  0  0  0  0999 V2000
    1.4214   -6.0094    0.9222 C   0  0  0  0  0  0  0  0  0  0  0  0
    0.5644   -6.5284    0.2236 O   0  0  0  0  0  0  0  0  0  0  0  0
    2.7482   -6.7100    1.1458 C   0  0  0  0  0  0  0  0  0  0  0  0
    2.7622   -7.6682    0.6188 H   0  0  0  0  0  0  0  0  0  0  0  0
    3.5654   -6.0893    0.7703 H   0  0  0  0  0  0  0  0  0  0  0  0
    2.8988   -6.8923    2.2126 H   0  0  0  0  0  0  0  0  0  0  0  0
    1.1885   -4.7797    1.5002 N   0  0  0  0  0  0  0  0  0  0  0  0
    0.0279   -3.9332    1.1975 C   0  0  2  0  0  0  0  0  0  0  0  0
    0.3934   -2.4341    1.2212 C   0  0  0  0  0  0  0  0  0  0  0  0
    1.4024   -2.0872    1.8204 O   0  0  0  0  0  0  0  0  0  0  0  0
   -1.0702   -4.2350    2.2213 C   0  0  0  0  0  0  0  0  0  0  0  0
    1.9750   -4.3229    1.9620 H   0  0  0  0  0  0  0  0  0  0  0  0
   -0.3422   -4.1630    0.1926 H   0  0  0  0  0  0  0  0  0  0  0  0
   -0.7219   -4.0053    3.2336 H   0  0  0  0  0  0  0  0  0  0  0  0
   -1.9635   -3.6376    2.0154 H   0  0  0  0  0  0  0  0  0  0  0  0
   -1.3466   -5.2935    2.1790 H   0  0  0  0  0  0  0  0  0  0  0  0
   -0.4235   -1.5438    0.5375 N   0  0  0  0  0  0  0  0  0  0  0  0
   -0.2669   -0.0835    0.3211 C   0  0  2  0  0  0  0  0  0  0  0  0
    0.1857    0.1192   -1.1441 C   0  0  0  0  0  0  0  0  0  0  0  0
    1.3633    0.0663   -1.4739 O   0  0  0  0  0  0  0  0  0  0  0  0
    0.5814    0.7182    1.3556 C   0  0  2  0  0  0  0  0  0  0  0  0
   -0.0930    0.6452    2.7494 C   0  0  0  0  0  0  0  0  0  0  0  0
    0.6959    2.1996    0.9323 C   0  0  0  0  0  0  0  0  0  0  0  0
    0.8006    1.1723    3.8764 C   0  0  0  0  0  0  0  0  0  0  0  0
   -1.1776   -1.9911    0.0248 H   0  0  0  0  0  0  0  0  0  0  0  0
   -1.2699    0.3478    0.3891 H   0  0  0  0  0  0  0  0  0  0  0  0
    1.5950    0.3087    1.4011 H   0  0  0  0  0  0  0  0  0  0  0  0
   -1.0321    1.2082    2.7385 H   0  0  0  0  0  0  0  0  0  0  0  0
   -0.3418   -0.3929    2.9853 H   0  0  0  0  0  0  0  0  0  0  0  0
   -0.2953    2.6562    0.8511 H   0  0  0  0  0  0  0  0  0  0  0  0
    1.2823    2.7694    1.6570 H   0  0  0  0  0  0  0  0  0  0  0  0
    1.2040    2.2981   -0.0308 H   0  0  0  0  0  0  0  0  0  0  0  0
    1.7665    0.6576    3.8662 H   0  0  0  0  0  0  0  0  0  0  0  0
    0.3234    0.9911    4.8442 H   0  0  0  0  0  0  0  0  0  0  0  0
    0.9721    2.2474    3.7806 H   0  0  0  0  0  0  0  0  0  0  0  0
   -0.7668    0.2806   -2.1328 N   0  0  0  0  0  0  0  0  0  0  0  0
   -0.4663    0.5239   -3.5491 C   0  0  2  0  0  0  0  0  0  0  0  0
   -1.6078    1.3064   -4.2312 C   0  0  0  0  0  0  0  0  0  0  0  0
   -2.6749    1.4644   -3.6464 O   0  0  0  0  0  0  0  0  0  0  0  0
   -0.2492   -0.8260   -4.2416 C   0  0  0  0  0  0  0  0  0  0  0  0
   -1.7318    0.4367   -1.8432 H   0  0  0  0  0  0  0  0  0  0  0  0
    0.4446    1.1263   -3.6344 H   0  0  0  0  0  0  0  0  0  0  0  0
   -1.1534   -1.4394   -4.1768 H   0  0  0  0  0  0  0  0  0  0  0  0
   -0.0004   -0.6821   -5.2971 H   0  0  0  0  0  0  0  0  0  0  0  0
    0.5744   -1.3685   -3.7666 H   0  0  0  0  0  0  0  0  0  0  0  0
   -1.4402    1.8407   -5.4952 N   0  0  0  0  0  0  0  0  0  0  0  0
   -2.4848    2.5768   -6.1974 C   0  0  0  0  0  0  0  0  0  0  0  0
   -0.5430    1.7017   -5.9516 H   0  0  0  0  0  0  0  0  0  0  0  0
   -3.3700    1.9467   -6.3353 H   0  0  0  0  0  0  0  0  0  0  0  0
   -2.7723    3.4695   -5.6317 H   0  0  0  0  0  0  0  0  0  0  0  0
   -2.1289    2.8922   -7.1830 H   0  0  0  0  0  0  0  0  0  0  0  0
  1  2  2  0  0  0  0
  1  3  1  0  0  0  0
  1  7  1  0  0  0  0
  3  4  1  0  0  0  0
  3  5  1  0  0  0  0
  3  6  1  0  0  0  0
  7  8  1  0  0  0  0
  7 12  1  0  0  0  0
  8  9  1  0  0  0  0
  8 11  1  0  0  0  0
  8 13  1  0  0  0  0
  9 10  2  0  0  0  0
  9 17  1  0  0  0  0
 11 14  1  0  0  0  0
 11 15  1  0  0  0  0
 11 16  1  0  0  0  0
 17 18  1  0  0  0  0
 17 25  1  0  0  0  0
 18 19  1  0  0  0  0
 18 21  1  0  0  0  0
 18 26  1  0  0  0  0
 19 20  2  0  0  0  0
 19 36  1  0  0  0  0
 21 22  1  0  0  0  0
 21 23  1  0  0  0  0
 21 27  1  0  0  0  0
 22 24  1  0  0  0  0
 22 28  1  0  0  0  0
 22 29  1  0  0  0  0
 23 30  1  0  0  0  0
 23 31  1  0  0  0  0
 23 32  1  0  0  0  0
 24 33  1  0  0  0  0
 24 34  1  0  0  0  0
 24 35  1  0  0  0  0
 36 37  1  0  0  0  0
 36 41  1  0  0  0  0
 37 38  1  0  0  0  0
 37 40  1  0  0  0  0
 37 42  1  0  0  0  0
 38 39  2  0  0  0  0
 38 46  1  0  0  0  0
 40 43  1  0  0  0  0
 40 44  1  0  0  0  0
 40 45  1  0  0  0  0
 46 47  1  0  0  0  0
 46 48  1  0  0  0  0
 47 49  1  0  0  0  0
 47 50  1  0  0  0  0
 47 51  1  0  0  0  0
M  END
$$$$

  -OEChem-05262216503D

 51 50  0     1  0  0  0  0  0999 V2000
    1.4458   -6.0109    0.9274 C   0  0  0  0  0  0  0  0  0  0  0  0
    0.5982   -6.5499    0.2324 O   0  0  0  0  0  0  0  0  0  0  0  0
    2.7810   -6.6911    1.1628 C   0  0  0  0  0  0  0  0  0  0  0  0
    2.7873   -7.6806    0.6970 H   0  0  0  0  0  0  0  0  0  0  0  0
    3.5858   -6.0917    0.7302 H   0  0  0  0  0  0  0  0  0  0  0  0
    2.9577   -6.8059    2.2348 H   0  0  0  0  0  0  0  0  0  0  0  0
    1.1944   -4.7782    1.4911 N   0  0  0  0  0  0  0  0  0  0  0  0
    0.0234   -3.9507    1.1764 C   0  0  2  0  0  0  0  0  0  0  0  0
    0.3574   -2.4450    1.2361 C   0  0  0  0  0  0  0  0  0  0  0  0
    1.3518   -2.0908    1.8558 O   0  0  0  0  0  0  0  0  0  0  0  0
   -1.0940   -4.2942    2.1656 C   0  0  0  0  0  0  0  0  0  0  0  0
    1.9717   -4.3061    1.9532 H   0  0  0  0  0  0  0  0  0  0  0  0
   -0.3156   -4.1694    0.1582 H   0  0  0  0  0  0  0  0  0  0  0  0
   -0.7765   -4.0763    3.1902 H   0  0  0  0  0  0  0  0  0  0  0  0
   -1.9942   -3.7120    1.9480 H   0  0  0  0  0  0  0  0  0  0  0  0
   -1.3471   -5.3571    2.0972 H   0  0  0  0  0  0  0  0  0  0  0  0
   -0.4674   -1.5579    0.5574 N   0  0  0  0  0  0  0  0  0  0  0  0
   -0.3037   -0.1013    0.3238 C   0  0  2  0  0  0  0  0  0  0  0  0
    0.1245    0.1073   -1.1470 C   0  0  0  0  0  0  0  0  0  0  0  0
    1.2413   -0.2036   -1.5392 O   0  0  0  0  0  0  0  0  0  0  0  0
    0.5614    0.7108    1.3345 C   0  0  2  0  0  0  0  0  0  0  0  0
   -0.0957    0.6616    2.7371 C   0  0  0  0  0  0  0  0  0  0  0  0
    0.6961    2.1814    0.8839 C   0  0  0  0  0  0  0  0  0  0  0  0
    0.8126    1.2004    3.8461 C   0  0  0  0  0  0  0  0  0  0  0  0
   -1.2008   -2.0119    0.0215 H   0  0  0  0  0  0  0  0  0  0  0  0
   -1.3059    0.3285    0.4082 H   0  0  0  0  0  0  0  0  0  0  0  0
    1.5703    0.2892    1.3757 H   0  0  0  0  0  0  0  0  0  0  0  0
   -1.0312    1.2301    2.7290 H   0  0  0  0  0  0  0  0  0  0  0  0
   -0.3485   -0.3714    2.9908 H   0  0  0  0  0  0  0  0  0  0  0  0
   -0.2883    2.6515    0.7964 H   0  0  0  0  0  0  0  0  0  0  0  0
    1.2930    2.7557    1.5967 H   0  0  0  0  0  0  0  0  0  0  0  0
    1.2038    2.2515   -0.0824 H   0  0  0  0  0  0  0  0  0  0  0  0
    1.7823    0.6934    3.8229 H   0  0  0  0  0  0  0  0  0  0  0  0
    0.3521    1.0207    4.8222 H   0  0  0  0  0  0  0  0  0  0  0  0
    0.9730    2.2766    3.7411 H   0  0  0  0  0  0  0  0  0  0  0  0
   -0.7902    0.5826   -2.0681 N   0  0  0  0  0  0  0  0  0  0  0  0
   -0.4751    0.8971   -3.4674 C   0  0  2  0  0  0  0  0  0  0  0  0
   -1.4075    1.9999   -4.0116 C   0  0  0  0  0  0  0  0  0  0  0  0
   -2.3835    2.3537   -3.3575 O   0  0  0  0  0  0  0  0  0  0  0  0
   -0.6058   -0.3838   -4.2988 C   0  0  0  0  0  0  0  0  0  0  0  0
   -1.6728    0.9500   -1.7128 H   0  0  0  0  0  0  0  0  0  0  0  0
    0.5520    1.2714   -3.5381 H   0  0  0  0  0  0  0  0  0  0  0  0
   -1.6274   -0.7729   -4.2447 H   0  0  0  0  0  0  0  0  0  0  0  0
   -0.3617   -0.1895   -5.3473 H   0  0  0  0  0  0  0  0  0  0  0  0
    0.0796   -1.1511   -3.9246 H   0  0  0  0  0  0  0  0  0  0  0  0
   -1.1446    2.6112   -5.2235 N   0  0  0  0  0  0  0  0  0  0  0  0
   -1.9778    3.6680   -5.7845 C   0  0  0  0  0  0  0  0  0  0  0  0
   -0.3218    2.3079   -5.7368 H   0  0  0  0  0  0  0  0  0  0  0  0
   -2.9960    3.3032   -5.9561 H   0  0  0  0  0  0  0  0  0  0  0  0
   -2.0206    4.5247   -5.1036 H   0  0  0  0  0  0  0  0  0  0  0  0
   -1.5671    4.0069   -6.7406 H   0  0  0  0  0  0  0  0  0  0  0  0
  1  2  2  0  0  0  0
  1  3  1  0  0  0  0
  1  7  1  0  0  0  0
  3  4  1  0  0  0  0
  3  5  1  0  0  0  0
  3  6  1  0  0  0  0
  7  8  1  0  0  0  0
  7 12  1  0  0  0  0
  8  9  1  0  0  0  0
  8 11  1  0  0  0  0
  8 13  1  0  0  0  0
  9 10  2  0  0  0  0
  9 17  1  0  0  0  0
 11 14  1  0  0  0  0
 11 15  1  0  0  0  0
 11 16  1  0  0  0  0
 17 18  1  0  0  0  0
 17 25  1  0  0  0  0
 18 19  1  0  0  0  0
 18 21  1  0  0  0  0
 18 26  1  0  0  0  0
 19 20  2  0  0  0  0
 19 36  1  0  0  0  0
 21 22  1  0  0  0  0
 21 23  1  0  0  0  0
 21 27  1  0  0  0  0
 22 24  1  0  0  0  0
 22 28  1  0  0  0  0
 22 29  1  0  0  0  0
 23 30  1  0  0  0  0
 23 31  1  0  0  0  0
 23 32  1  0  0  0  0
 24 33  1  0  0  0  0
 24 34  1  0  0  0  0
 24 35  1  0  0  0  0
 36 37  1  0  0  0  0
 36 41  1  0  0  0  0
 37 38  1  0  0  0  0
 37 40  1  0  0  0  0
 37 42  1  0  0  0  0
 38 39  2  0  0  0  0
 38 46  1  0  0  0  0
 40 43  1  0  0  0  0
 40 44  1  0  0  0  0
 40 45  1  0  0  0  0
 46 47  1  0  0  0  0
 46 48  1  0  0  0  0
 47 49  1  0  0  0  0
 47 50  1  0  0  0  0
 47 51  1  0  0  0  0
M  END
$$$$

  -OEChem-05262216503D

 51 50  0     1  0  0  0  0  0999 V2000
    1.4867   -6.0270    0.9743 C   0  0  0  0  0  0  0  0  0  0  0  0
    0.6524   -6.5937    0.2855 O   0  0  0  0  0  0  0  0  0  0  0  0
    2.8106   -6.7030    1.2756 C   0  0  0  0  0  0  0  0  0  0  0  0
    2.8318   -7.7032    0.8336 H   0  0  0  0  0  0  0  0  0  0  0  0
    3.6325   -6.1157    0.8589 H   0  0  0  0  0  0  0  0  0  0  0  0
    2.9464   -6.7920    2.3563 H   0  0  0  0  0  0  0  0  0  0  0  0
    1.2274   -4.7713    1.4796 N   0  0  0  0  0  0  0  0  0  0  0  0
    0.0563   -3.9613    1.1227 C   0  0  2  0  0  0  0  0  0  0  0  0
    0.3654   -2.4503    1.1930 C   0  0  0  0  0  0  0  0  0  0  0  0
    1.3557   -2.0833    1.8131 O   0  0  0  0  0  0  0  0  0  0  0  0
   -1.0914   -4.3193    2.0726 C   0  0  0  0  0  0  0  0  0  0  0  0
    1.9944   -4.2817    1.9405 H   0  0  0  0  0  0  0  0  0  0  0  0
   -0.2418   -4.1860    0.0927 H   0  0  0  0  0  0  0  0  0  0  0  0
   -0.8143   -4.0934    3.1073 H   0  0  0  0  0  0  0  0  0  0  0  0
   -1.9924   -3.7522    1.8206 H   0  0  0  0  0  0  0  0  0  0  0  0
   -1.3255   -5.3861    1.9991 H   0  0  0  0  0  0  0  0  0  0  0  0
   -0.4832   -1.5714    0.5333 N   0  0  0  0  0  0  0  0  0  0  0  0
   -0.3428   -0.1111    0.3055 C   0  0  2  0  0  0  0  0  0  0  0  0
    0.0580    0.1225   -1.1698 C   0  0  0  0  0  0  0  0  0  0  0  0
    1.0416   -0.4196   -1.6567 O   0  0  0  0  0  0  0  0  0  0  0  0
    0.5316    0.7079    1.3029 C   0  0  2  0  0  0  0  0  0  0  0  0
   -0.0942    0.6450    2.7196 C   0  0  0  0  0  0  0  0  0  0  0  0
    0.6391    2.1826    0.8566 C   0  0  0  0  0  0  0  0  0  0  0  0
    0.8310    1.1915    3.8113 C   0  0  0  0  0  0  0  0  0  0  0  0
   -1.1956   -2.0364   -0.0215 H   0  0  0  0  0  0  0  0  0  0  0  0
   -1.3508    0.3001    0.4108 H   0  0  0  0  0  0  0  0  0  0  0  0
    1.5460    0.2986    1.3212 H   0  0  0  0  0  0  0  0  0  0  0  0
   -1.0366    1.2021    2.7336 H   0  0  0  0  0  0  0  0  0  0  0  0
   -0.3292   -0.3918    2.9747 H   0  0  0  0  0  0  0  0  0  0  0  0
   -0.3532    2.6392    0.7853 H   0  0  0  0  0  0  0  0  0  0  0  0
    1.2372    2.7631    1.5632 H   0  0  0  0  0  0  0  0  0  0  0  0
    1.1325    2.2646   -0.1164 H   0  0  0  0  0  0  0  0  0  0  0  0
    1.8030    0.6900    3.7706 H   0  0  0  0  0  0  0  0  0  0  0  0
    0.3906    1.0093    4.7962 H   0  0  0  0  0  0  0  0  0  0  0  0
    0.9835    2.2684    3.7036 H   0  0  0  0  0  0  0  0  0  0  0  0
   -0.7567    0.8744   -1.9952 N   0  0  0  0  0  0  0  0  0  0  0  0
   -0.4177    1.2496   -3.3739 C   0  0  2  0  0  0  0  0  0  0  0  0
   -1.0203    2.6231   -3.7379 C   0  0  0  0  0  0  0  0  0  0  0  0
   -1.8297    3.1545   -2.9842 O   0  0  0  0  0  0  0  0  0  0  0  0
   -0.9359    0.1587   -4.3167 C   0  0  0  0  0  0  0  0  0  0  0  0
   -1.4938    1.4223   -1.5519 H   0  0  0  0  0  0  0  0  0  0  0  0
    0.6695    1.3316   -3.4795 H   0  0  0  0  0  0  0  0  0  0  0  0
   -2.0239    0.0691   -4.2370 H   0  0  0  0  0  0  0  0  0  0  0  0
   -0.6795    0.3925   -5.3542 H   0  0  0  0  0  0  0  0  0  0  0  0
   -0.4871   -0.8069   -4.0621 H   0  0  0  0  0  0  0  0  0  0  0  0
   -0.6452    3.2747   -4.8983 N   0  0  0  0  0  0  0  0  0  0  0  0
   -1.1676    4.5792   -5.2882 C   0  0  0  0  0  0  0  0  0  0  0  0
    0.0408    2.8203   -5.4946 H   0  0  0  0  0  0  0  0  0  0  0  0
   -2.2562    4.5388   -5.4007 H   0  0  0  0  0  0  0  0  0  0  0  0
   -0.9191    5.3327   -4.5333 H   0  0  0  0  0  0  0  0  0  0  0  0
   -0.7340    4.8909   -6.2433 H   0  0  0  0  0  0  0  0  0  0  0  0
  1  2  2  0  0  0  0
  1  3  1  0  0  0  0
  1  7  1  0  0  0  0
  3  4  1  0  0  0  0
  3  5  1  0  0  0  0
  3  6  1  0  0  0  0
  7  8  1  0  0  0  0
  7 12  1  0  0  0  0
  8  9  1  0  0  0  0
  8 11  1  0  0  0  0
  8 13  1  0  0  0  0
  9 10  2  0  0  0  0
  9 17  1  0  0  0  0
 11 14  1  0  0  0  0
 11 15  1  0  0  0  0
 11 16  1  0  0  0  0
 17 18  1  0  0  0  0
 17 25  1  0  0  0  0
 18 19  1  0  0  0  0
 18 21  1  0  0  0  0
 18 26  1  0  0  0  0
 19 20  2  0  0  0  0
 19 36  1  0  0  0  0
 21 22  1  0  0  0  0
 21 23  1  0  0  0  0
 21 27  1  0  0  0  0
 22 24  1  0  0  0  0
 22 28  1  0  0  0  0
 22 29  1  0  0  0  0
 23 30  1  0  0  0  0
 23 31  1  0  0  0  0
 23 32  1  0  0  0  0
 24 33  1  0  0  0  0
 24 34  1  0  0  0  0
 24 35  1  0  0  0  0
 36 37  1  0  0  0  0
 36 41  1  0  0  0  0
 37 38  1  0  0  0  0
 37 40  1  0  0  0  0
 37 42  1  0  0  0  0
 38 39  2  0  0  0  0
 38 46  1  0  0  0  0
 40 43  1  0  0  0  0
 40 44  1  0  0  0  0
 40 45  1  0  0  0  0
 46 47  1  0  0  0  0
 46 48  1  0  0  0  0
 47 49  1  0  0  0  0
 47 50  1  0  0  0  0
 47 51  1  0  0  0  0
M  END
$$$$

  -OEChem-05262216503D

 51 50  0     1  0  0  0  0  0999 V2000
    1.5009   -6.0133    0.9586 C   0  0  0  0  0  0  0  0  0  0  0  0
    0.6878   -6.5819    0.2463 O   0  0  0  0  0  0  0  0  0  0  0  0
    2.8182   -6.6851    1.2962 C   0  0  0  0  0  0  0  0  0  0  0  0
    2.8381   -7.7008    0.8912 H   0  0  0  0  0  0  0  0  0  0  0  0
    3.6466   -6.1168    0.8662 H   0  0  0  0  0  0  0  0  0  0  0  0
    2.9446   -6.7360    2.3804 H   0  0  0  0  0  0  0  0  0  0  0  0
    1.2259   -4.7575    1.4554 N   0  0  0  0  0  0  0  0  0  0  0  0
    0.0674   -3.9464    1.0618 C   0  0  2  0  0  0  0  0  0  0  0  0
    0.3625   -2.4340    1.1699 C   0  0  0  0  0  0  0  0  0  0  0  0
    1.3487   -2.0728    1.8002 O   0  0  0  0  0  0  0  0  0  0  0  0
   -1.1188   -4.3284    1.9538 C   0  0  0  0  0  0  0  0  0  0  0  0
    1.9762   -4.2699    1.9447 H   0  0  0  0  0  0  0  0  0  0  0  0
   -0.1832   -4.1546    0.0160 H   0  0  0  0  0  0  0  0  0  0  0  0
   -0.8864   -4.1280    3.0045 H   0  0  0  0  0  0  0  0  0  0  0  0
   -2.0092   -3.7559    1.6777 H   0  0  0  0  0  0  0  0  0  0  0  0
   -1.3481   -5.3934    1.8454 H   0  0  0  0  0  0  0  0  0  0  0  0
   -0.4939   -1.5464    0.5318 N   0  0  0  0  0  0  0  0  0  0  0  0
   -0.3566   -0.0825    0.3159 C   0  0  2  0  0  0  0  0  0  0  0  0
    0.0227    0.1726   -1.1633 C   0  0  0  0  0  0  0  0  0  0  0  0
    0.7879   -0.5716   -1.7640 O   0  0  0  0  0  0  0  0  0  0  0  0
    0.5292    0.7207    1.3195 C   0  0  2  0  0  0  0  0  0  0  0  0
   -0.0902    0.6358    2.7382 C   0  0  0  0  0  0  0  0  0  0  0  0
    0.6521    2.2034    0.9041 C   0  0  0  0  0  0  0  0  0  0  0  0
    0.8397    1.1617    3.8360 C   0  0  0  0  0  0  0  0  0  0  0  0
   -1.1773   -2.0088   -0.0607 H   0  0  0  0  0  0  0  0  0  0  0  0
   -1.3647    0.3254    0.4350 H   0  0  0  0  0  0  0  0  0  0  0  0
    1.5408    0.3042    1.3256 H   0  0  0  0  0  0  0  0  0  0  0  0
   -1.0312    1.1943    2.7652 H   0  0  0  0  0  0  0  0  0  0  0  0
   -0.3266   -0.4043    2.9778 H   0  0  0  0  0  0  0  0  0  0  0  0
   -0.3349    2.6724    0.8410 H   0  0  0  0  0  0  0  0  0  0  0  0
    1.2551    2.7639    1.6226 H   0  0  0  0  0  0  0  0  0  0  0  0
    1.1498    2.3005   -0.0652 H   0  0  0  0  0  0  0  0  0  0  0  0
    1.8142    0.6664    3.7792 H   0  0  0  0  0  0  0  0  0  0  0  0
    0.4052    0.9558    4.8188 H   0  0  0  0  0  0  0  0  0  0  0  0
    0.9863    2.2415    3.7519 H   0  0  0  0  0  0  0  0  0  0  0  0
   -0.6173    1.1684   -1.8771 N   0  0  0  0  0  0  0  0  0  0  0  0
   -0.2544    1.5713   -3.2414 C   0  0  2  0  0  0  0  0  0  0  0  0
   -0.4905    3.0817   -3.4526 C   0  0  0  0  0  0  0  0  0  0  0  0
   -1.0759    3.7351   -2.5947 O   0  0  0  0  0  0  0  0  0  0  0  0
   -1.0826    0.7441   -4.2297 C   0  0  0  0  0  0  0  0  0  0  0  0
   -1.1536    1.8503   -1.3407 H   0  0  0  0  0  0  0  0  0  0  0  0
    0.8104    1.3807   -3.4143 H   0  0  0  0  0  0  0  0  0  0  0  0
   -2.1515    0.9252   -4.0789 H   0  0  0  0  0  0  0  0  0  0  0  0
   -0.8256    1.0046   -5.2607 H   0  0  0  0  0  0  0  0  0  0  0  0
   -0.8862   -0.3233   -4.0871 H   0  0  0  0  0  0  0  0  0  0  0  0
   -0.0326    3.7138   -4.5939 N   0  0  0  0  0  0  0  0  0  0  0  0
   -0.2207    5.1363   -4.8533 C   0  0  0  0  0  0  0  0  0  0  0  0
    0.4597    3.1492   -5.2802 H   0  0  0  0  0  0  0  0  0  0  0  0
   -1.2876    5.3810   -4.8892 H   0  0  0  0  0  0  0  0  0  0  0  0
    0.2524    5.7365   -4.0689 H   0  0  0  0  0  0  0  0  0  0  0  0
    0.2286    5.4081   -5.8134 H   0  0  0  0  0  0  0  0  0  0  0  0
  1  2  2  0  0  0  0
  1  3  1  0  0  0  0
  1  7  1  0  0  0  0
  3  4  1  0  0  0  0
  3  5  1  0  0  0  0
  3  6  1  0  0  0  0
  7  8  1  0  0  0  0
  7 12  1  0  0  0  0
  8  9  1  0  0  0  0
  8 11  1  0  0  0  0
  8 13  1  0  0  0  0
  9 10  2  0  0  0  0
  9 17  1  0  0  0  0
 11 14  1  0  0  0  0
 11 15  1  0  0  0  0
 11 16  1  0  0  0  0
 17 18  1  0  0  0  0
 17 25  1  0  0  0  0
 18 19  1  0  0  0  0
 18 21  1  0  0  0  0
 18 26  1  0  0  0  0
 19 20  2  0  0  0  0
 19 36  1  0  0  0  0
 21 22  1  0  0  0  0
 21 23  1  0  0  0  0
 21 27  1  0  0  0  0
 22 24  1  0  0  0  0
 22 28  1  0  0  0  0
 22 29  1  0  0  0  0
 23 30  1  0  0  0  0
 23 31  1  0  0  0  0
 23 32  1  0  0  0  0
 24 33  1  0  0  0  0
 24 34  1  0  0  0  0
 24 35  1  0  0  0  0
 36 37  1  0  0  0  0
 36 41  1  0  0  0  0
 37 38  1  0  0  0  0
 37 40  1  0  0  0  0
 37 42  1  0  0  0  0
 38 39  2  0  0  0  0
 38 46  1  0  0  0  0
 40 43  1  0  0  0  0
 40 44  1  0  0  0  0
 40 45  1  0  0  0  0
 46 47  1  0  0  0  0
 46 48  1  0  0  0  0
 47 49  1  0  0  0  0
 47 50  1  0  0  0  0
 47 51  1  0  0  0  0
M  END
$$$$

  -OEChem-05262216503D

 51 50  0     1  0  0  0  0  0999 V2000
    1.4888   -5.9985    0.9154 C   0  0  0  0  0  0  0  0  0  0  0  0
    0.6900   -6.5517    0.1757 O   0  0  0  0  0  0  0  0  0  0  0  0
    2.7821   -6.6957    1.2950 C   0  0  0  0  0  0  0  0  0  0  0  0
    2.8213   -7.6907    0.8430 H   0  0  0  0  0  0  0  0  0  0  0  0
    3.6373   -6.1144    0.9415 H   0  0  0  0  0  0  0  0  0  0  0  0
    2.8445   -6.8000    2.3808 H   0  0  0  0  0  0  0  0  0  0  0  0
    1.2171   -4.7399    1.4083 N   0  0  0  0  0  0  0  0  0  0  0  0
    0.0781   -3.9114    0.9915 C   0  0  2  0  0  0  0  0  0  0  0  0
    0.3785   -2.4036    1.1435 C   0  0  0  0  0  0  0  0  0  0  0  0
    1.3666   -2.0652    1.7839 O   0  0  0  0  0  0  0  0  0  0  0  0
   -1.1427   -4.3021    1.8326 C   0  0  0  0  0  0  0  0  0  0  0  0
    1.9579   -4.2662    1.9249 H   0  0  0  0  0  0  0  0  0  0  0  0
   -0.1362   -4.0961   -0.0669 H   0  0  0  0  0  0  0  0  0  0  0  0
   -0.9468   -4.1247    2.8949 H   0  0  0  0  0  0  0  0  0  0  0  0
   -2.0189   -3.7176    1.5368 H   0  0  0  0  0  0  0  0  0  0  0  0
   -1.3760   -5.3625    1.6938 H   0  0  0  0  0  0  0  0  0  0  0  0
   -0.4776   -1.4955    0.5342 N   0  0  0  0  0  0  0  0  0  0  0  0
   -0.3403   -0.0266    0.3454 C   0  0  2  0  0  0  0  0  0  0  0  0
    0.0239    0.2553   -1.1370 C   0  0  0  0  0  0  0  0  0  0  0  0
    0.5317   -0.6093   -1.8421 O   0  0  0  0  0  0  0  0  0  0  0  0
    0.5501    0.7374    1.3809 C   0  0  2  0  0  0  0  0  0  0  0  0
   -0.0821    0.6098    2.7919 C   0  0  0  0  0  0  0  0  0  0  0  0
    0.7080    2.2317    1.0286 C   0  0  0  0  0  0  0  0  0  0  0  0
    0.8413    1.0888    3.9165 C   0  0  0  0  0  0  0  0  0  0  0  0
   -1.1380   -1.9426   -0.0957 H   0  0  0  0  0  0  0  0  0  0  0  0
   -1.3461    0.3836    0.4751 H   0  0  0  0  0  0  0  0  0  0  0  0
    1.5560    0.3079    1.3818 H   0  0  0  0  0  0  0  0  0  0  0  0
   -1.0183    1.1759    2.8297 H   0  0  0  0  0  0  0  0  0  0  0  0
   -0.3303   -0.4350    2.9945 H   0  0  0  0  0  0  0  0  0  0  0  0
   -0.2694    2.7158    0.9398 H   0  0  0  0  0  0  0  0  0  0  0  0
    1.2842    2.7586    1.7927 H   0  0  0  0  0  0  0  0  0  0  0  0
    1.2539    2.3549    0.0890 H   0  0  0  0  0  0  0  0  0  0  0  0
    1.8187    0.6020    3.8398 H   0  0  0  0  0  0  0  0  0  0  0  0
    0.4053    0.8346    4.8872 H   0  0  0  0  0  0  0  0  0  0  0  0
    0.9814    2.1723    3.8842 H   0  0  0  0  0  0  0  0  0  0  0  0
   -0.3727    1.4318   -1.7455 N   0  0  0  0  0  0  0  0  0  0  0  0
    0.0116    1.8379   -3.1034 C   0  0  2  0  0  0  0  0  0  0  0  0
    0.1246    3.3738   -3.2067 C   0  0  0  0  0  0  0  0  0  0  0  0
   -0.2332    4.0789   -2.2682 O   0  0  0  0  0  0  0  0  0  0  0  0
   -1.0312    1.3013   -4.0895 C   0  0  0  0  0  0  0  0  0  0  0  0
   -0.6930    2.1814   -1.1322 H   0  0  0  0  0  0  0  0  0  0  0  0
    0.9935    1.4202   -3.3521 H   0  0  0  0  0  0  0  0  0  0  0  0
   -2.0186    1.7175   -3.8667 H   0  0  0  0  0  0  0  0  0  0  0  0
   -0.7632    1.5672   -5.1161 H   0  0  0  0  0  0  0  0  0  0  0  0
   -1.0900    0.2104   -4.0229 H   0  0  0  0  0  0  0  0  0  0  0  0
    0.6382    3.9681   -4.3444 N   0  0  0  0  0  0  0  0  0  0  0  0
    0.7682    5.4113   -4.5047 C   0  0  0  0  0  0  0  0  0  0  0  0
    0.9362    3.3594   -5.1014 H   0  0  0  0  0  0  0  0  0  0  0  0
   -0.2121    5.8947   -4.4338 H   0  0  0  0  0  0  0  0  0  0  0  0
    1.4224    5.8257   -3.7305 H   0  0  0  0  0  0  0  0  0  0  0  0
    1.1995    5.6460   -5.4828 H   0  0  0  0  0  0  0  0  0  0  0  0
  1  2  2  0  0  0  0
  1  3  1  0  0  0  0
  1  7  1  0  0  0  0
  3  4  1  0  0  0  0
  3  5  1  0  0  0  0
  3  6  1  0  0  0  0
  7  8  1  0  0  0  0
  7 12  1  0  0  0  0
  8  9  1  0  0  0  0
  8 11  1  0  0  0  0
  8 13  1  0  0  0  0
  9 10  2  0  0  0  0
  9 17  1  0  0  0  0
 11 14  1  0  0  0  0
 11 15  1  0  0  0  0
 11 16  1  0  0  0  0
 17 18  1  0  0  0  0
 17 25  1  0  0  0  0
 18 19  1  0  0  0  0
 18 21  1  0  0  0  0
 18 26  1  0  0  0  0
 19 20  2  0  0  0  0
 19 36  1  0  0  0  0
 21 22  1  0  0  0  0
 21 23  1  0  0  0  0
 21 27  1  0  0  0  0
 22 24  1  0  0  0  0
 22 28  1  0  0  0  0
 22 29  1  0  0  0  0
 23 30  1  0  0  0  0
 23 31  1  0  0  0  0
 23 32  1  0  0  0  0
 24 33  1  0  0  0  0
 24 34  1  0  0  0  0
 24 35  1  0  0  0  0
 36 37  1  0  0  0  0
 36 41  1  0  0  0  0
 37 38  1  0  0  0  0
 37 40  1  0  0  0  0
 37 42  1  0  0  0  0
 38 39  2  0  0  0  0
 38 46  1  0  0  0  0
 40 43  1  0  0  0  0
 40 44  1  0  0  0  0
 40 45  1  0  0  0  0
 46 47  1  0  0  0  0
 46 48  1  0  0  0  0
 47 49  1  0  0  0  0
 47 50  1  0  0  0  0
 47 51  1  0  0  0  0
M  END
$$$$

  -OEChem-05262216503D

 51 50  0     1  0  0  0  0  0999 V2000
    1.4686   -5.9881    0.8770 C   0  0  0  0  0  0  0  0  0  0  0  0
    0.6714   -6.5260    0.1246 O   0  0  0  0  0  0  0  0  0  0  0  0
    2.7427   -6.7083    1.2778 C   0  0  0  0  0  0  0  0  0  0  0  0
    2.7840   -7.6939    0.8056 H   0  0  0  0  0  0  0  0  0  0  0  0
    3.6136   -6.1296    0.9606 H   0  0  0  0  0  0  0  0  0  0  0  0
    2.7738   -6.8358    2.3626 H   0  0  0  0  0  0  0  0  0  0  0  0
    1.2153   -4.7236    1.3637 N   0  0  0  0  0  0  0  0  0  0  0  0
    0.0993   -3.8722    0.9317 C   0  0  2  0  0  0  0  0  0  0  0  0
    0.4281   -2.3715    1.0955 C   0  0  0  0  0  0  0  0  0  0  0  0
    1.4295   -2.0577    1.7280 O   0  0  0  0  0  0  0  0  0  0  0  0
   -1.1397   -4.2395    1.7564 C   0  0  0  0  0  0  0  0  0  0  0  0
    1.9582   -4.2644    1.8903 H   0  0  0  0  0  0  0  0  0  0  0  0
   -0.1044   -4.0484   -0.1304 H   0  0  0  0  0  0  0  0  0  0  0  0
   -0.9522   -4.0700    2.8214 H   0  0  0  0  0  0  0  0  0  0  0  0
   -1.9994   -3.6348    1.4531 H   0  0  0  0  0  0  0  0  0  0  0  0
   -1.3944   -5.2938    1.6108 H   0  0  0  0  0  0  0  0  0  0  0  0
   -0.4247   -1.4418    0.5152 N   0  0  0  0  0  0  0  0  0  0  0  0
   -0.2960    0.0344    0.3753 C   0  0  2  0  0  0  0  0  0  0  0  0
    0.0729    0.3549   -1.1022 C   0  0  0  0  0  0  0  0  0  0  0  0
    0.3118   -0.5480   -1.8979 O   0  0  0  0  0  0  0  0  0  0  0  0
    0.5723    0.7480    1.4702 C   0  0  2  0  0  0  0  0  0  0  0  0
   -0.1074    0.5476    2.8524 C   0  0  0  0  0  0  0  0  0  0  0  0
    0.7507    2.2588    1.2130 C   0  0  0  0  0  0  0  0  0  0  0  0
    0.7704    0.9622    4.0379 C   0  0  0  0  0  0  0  0  0  0  0  0
   -1.0734   -1.8670   -0.1425 H   0  0  0  0  0  0  0  0  0  0  0  0
   -1.3039    0.4398    0.5022 H   0  0  0  0  0  0  0  0  0  0  0  0
    1.5771    0.3181    1.4810 H   0  0  0  0  0  0  0  0  0  0  0  0
   -1.0455    1.1110    2.8864 H   0  0  0  0  0  0  0  0  0  0  0  0
   -0.3605   -0.5066    2.9915 H   0  0  0  0  0  0  0  0  0  0  0  0
   -0.2176    2.7446    1.0575 H   0  0  0  0  0  0  0  0  0  0  0  0
    1.2492    2.7497    2.0514 H   0  0  0  0  0  0  0  0  0  0  0  0
    1.3859    2.4294    0.3396 H   0  0  0  0  0  0  0  0  0  0  0  0
    1.7546    0.4889    3.9655 H   0  0  0  0  0  0  0  0  0  0  0  0
    0.3021    0.6420    4.9734 H   0  0  0  0  0  0  0  0  0  0  0  0
    0.9000    2.0464    4.0823 H   0  0  0  0  0  0  0  0  0  0  0  0
   -0.0388    1.6335   -1.6156 N   0  0  0  0  0  0  0  0  0  0  0  0
    0.3420    2.0301   -2.9769 C   0  0  2  0  0  0  0  0  0  0  0  0
    0.8002    3.5036   -3.0189 C   0  0  0  0  0  0  0  0  0  0  0  0
    0.6529    4.2199   -2.0336 O   0  0  0  0  0  0  0  0  0  0  0  0
   -0.8597    1.8125   -3.9024 C   0  0  0  0  0  0  0  0  0  0  0  0
   -0.1545    2.3932   -0.9452 H   0  0  0  0  0  0  0  0  0  0  0  0
    1.1811    1.4151   -3.3201 H   0  0  0  0  0  0  0  0  0  0  0  0
   -1.7067    2.4264   -3.5798 H   0  0  0  0  0  0  0  0  0  0  0  0
   -0.6064    2.0803   -4.9325 H   0  0  0  0  0  0  0  0  0  0  0  0
   -1.1659    0.7616   -3.8871 H   0  0  0  0  0  0  0  0  0  0  0  0
    1.3838    4.0274   -4.1577 N   0  0  0  0  0  0  0  0  0  0  0  0
    1.8409    5.4079   -4.2617 C   0  0  0  0  0  0  0  0  0  0  0  0
    1.5111    3.4055   -4.9508 H   0  0  0  0  0  0  0  0  0  0  0  0
    1.0193    6.1009   -4.0519 H   0  0  0  0  0  0  0  0  0  0  0  0
    2.6523    5.5978   -3.5513 H   0  0  0  0  0  0  0  0  0  0  0  0
    2.2112    5.6084   -5.2717 H   0  0  0  0  0  0  0  0  0  0  0  0
  1  2  2  0  0  0  0
  1  3  1  0  0  0  0
  1  7  1  0  0  0  0
  3  4  1  0  0  0  0
  3  5  1  0  0  0  0
  3  6  1  0  0  0  0
  7  8  1  0  0  0  0
  7 12  1  0  0  0  0
  8  9  1  0  0  0  0
  8 11  1  0  0  0  0
  8 13  1  0  0  0  0
  9 10  2  0  0  0  0
  9 17  1  0  0  0  0
 11 14  1  0  0  0  0
 11 15  1  0  0  0  0
 11 16  1  0  0  0  0
 17 18  1  0  0  0  0
 17 25  1  0  0  0  0
 18 19  1  0  0  0  0
 18 21  1  0  0  0  0
 18 26  1  0  0  0  0
 19 20  2  0  0  0  0
 19 36  1  0  0  0  0
 21 22  1  0  0  0  0
 21 23  1  0  0  0  0
 21 27  1  0  0  0  0
 22 24  1  0  0  0  0
 22 28  1  0  0  0  0
 22 29  1  0  0  0  0
 23 30  1  0  0  0  0
 23 31  1  0  0  0  0
 23 32  1  0  0  0  0
 24 33  1  0  0  0  0
 24 34  1  0  0  0  0
 24 35  1  0  0  0  0
 36 37  1  0  0  0  0
 36 41  1  0  0  0  0
 37 38  1  0  0  0  0
 37 40  1  0  0  0  0
 37 42  1  0  0  0  0
 38 39  2  0  0  0  0
 38 46  1  0  0  0  0
 40 43  1  0  0  0  0
 40 44  1  0  0  0  0
 40 45  1  0  0  0  0
 46 47  1  0  0  0  0
 46 48  1  0  0  0  0
 47 49  1  0  0  0  0
 47 50  1  0  0  0  0
 47 51  1  0  0  0  0
M  END
$$$$

  -OEChem-05262216503D

 51 50  0     1  0  0  0  0  0999 V2000
    1.3707   -6.0336    0.6439 C   0  0  0  0  0  0  0  0  0  0  0  0
    0.5286   -6.5148   -0.0975 O   0  0  0  0  0  0  0  0  0  0  0  0
    2.6224   -6.8191    0.9870 C   0  0  0  0  0  0  0  0  0  0  0  0
    2.5920   -7.8038    0.5124 H   0  0  0  0  0  0  0  0  0  0  0  0
    3.5069   -6.2837    0.6334 H   0  0  0  0  0  0  0  0  0  0  0  0
    2.6937   -6.9520    2.0692 H   0  0  0  0  0  0  0  0  0  0  0  0
    1.1906   -4.7731    1.1710 N   0  0  0  0  0  0  0  0  0  0  0  0
    0.1063   -3.8580    0.7910 C   0  0  2  0  0  0  0  0  0  0  0  0
    0.5139   -2.3804    0.9868 C   0  0  0  0  0  0  0  0  0  0  0  0
    1.5812   -2.1366    1.5382 O   0  0  0  0  0  0  0  0  0  0  0  0
   -1.1307   -4.1895    1.6337 C   0  0  0  0  0  0  0  0  0  0  0  0
    1.9754   -4.3599    1.6744 H   0  0  0  0  0  0  0  0  0  0  0  0
   -0.1314   -3.9938   -0.2699 H   0  0  0  0  0  0  0  0  0  0  0  0
   -0.9180   -4.0429    2.6974 H   0  0  0  0  0  0  0  0  0  0  0  0
   -1.9714   -3.5481    1.3531 H   0  0  0  0  0  0  0  0  0  0  0  0
   -1.4286   -5.2312    1.4780 H   0  0  0  0  0  0  0  0  0  0  0  0
   -0.3147   -1.3915    0.4732 N   0  0  0  0  0  0  0  0  0  0  0  0
   -0.1943    0.0925    0.4475 C   0  0  2  0  0  0  0  0  0  0  0  0
   -0.1833    0.5317   -1.0486 C   0  0  0  0  0  0  0  0  0  0  0  0
   -0.4022   -0.2975   -1.9279 O   0  0  0  0  0  0  0  0  0  0  0  0
    0.8655    0.7199    1.4244 C   0  0  2  0  0  0  0  0  0  0  0  0
    0.4526    0.4065    2.8930 C   0  0  0  0  0  0  0  0  0  0  0  0
    1.0319    2.2462    1.2686 C   0  0  0  0  0  0  0  0  0  0  0  0
    1.5378    0.7285    3.9271 C   0  0  0  0  0  0  0  0  0  0  0  0
   -1.0055   -1.7551   -0.1815 H   0  0  0  0  0  0  0  0  0  0  0  0
   -1.1514    0.4727    0.8165 H   0  0  0  0  0  0  0  0  0  0  0  0
    1.8436    0.2760    1.2168 H   0  0  0  0  0  0  0  0  0  0  0  0
   -0.4490    0.9753    3.1423 H   0  0  0  0  0  0  0  0  0  0  0  0
    0.1948   -0.6477    3.0060 H   0  0  0  0  0  0  0  0  0  0  0  0
    0.0580    2.7460    1.2693 H   0  0  0  0  0  0  0  0  0  0  0  0
    1.6327    2.6715    2.0745 H   0  0  0  0  0  0  0  0  0  0  0  0
    1.5648    2.4815    0.3439 H   0  0  0  0  0  0  0  0  0  0  0  0
    2.4893    0.2747    3.6323 H   0  0  0  0  0  0  0  0  0  0  0  0
    1.2500    0.3215    4.9010 H   0  0  0  0  0  0  0  0  0  0  0  0
    1.6789    1.8056    4.0443 H   0  0  0  0  0  0  0  0  0  0  0  0
   -0.0849    1.8496   -1.4509 N   0  0  0  0  0  0  0  0  0  0  0  0
    0.0078    2.3073   -2.8428 C   0  0  2  0  0  0  0  0  0  0  0  0
    0.7869    3.6363   -2.9346 C   0  0  0  0  0  0  0  0  0  0  0  0
    1.0504    4.2645   -1.9141 O   0  0  0  0  0  0  0  0  0  0  0  0
   -1.4090    2.4749   -3.4014 C   0  0  0  0  0  0  0  0  0  0  0  0
    0.1568    2.5369   -0.7379 H   0  0  0  0  0  0  0  0  0  0  0  0
    0.5492    1.5658   -3.4401 H   0  0  0  0  0  0  0  0  0  0  0  0
   -1.9663    3.2114   -2.8139 H   0  0  0  0  0  0  0  0  0  0  0  0
   -1.3754    2.8109   -4.4419 H   0  0  0  0  0  0  0  0  0  0  0  0
   -1.9466    1.5222   -3.3664 H   0  0  0  0  0  0  0  0  0  0  0  0
    1.2010    4.1270   -4.1590 N   0  0  0  0  0  0  0  0  0  0  0  0
    1.9397    5.3746   -4.3114 C   0  0  0  0  0  0  0  0  0  0  0  0
    0.9797    3.5804   -4.9864 H   0  0  0  0  0  0  0  0  0  0  0  0
    1.3591    6.2144   -3.9152 H   0  0  0  0  0  0  0  0  0  0  0  0
    2.8941    5.3232   -3.7769 H   0  0  0  0  0  0  0  0  0  0  0  0
    2.1455    5.5661   -5.3688 H   0  0  0  0  0  0  0  0  0  0  0  0
  1  2  2  0  0  0  0
  1  3  1  0  0  0  0
  1  7  1  0  0  0  0
  3  4  1  0  0  0  0
  3  5  1  0  0  0  0
  3  6  1  0  0  0  0
  7  8  1  0  0  0  0
  7 12  1  0  0  0  0
  8  9  1  0  0  0  0
  8 11  1  0  0  0  0
  8 13  1  0  0  0  0
  9 10  2  0  0  0  0
  9 17  1  0  0  0  0
 11 14  1  0  0  0  0
 11 15  1  0  0  0  0
 11 16  1  0  0  0  0
 17 18  1  0  0  0  0
 17 25  1  0  0  0  0
 18 19  1  0  0  0  0
 18 21  1  0  0  0  0
 18 26  1  0  0  0  0
 19 20  2  0  0  0  0
 19 36  1  0  0  0  0
 21 22  1  0  0  0  0
 21 23  1  0  0  0  0
 21 27  1  0  0  0  0
 22 24  1  0  0  0  0
 22 28  1  0  0  0  0
 22 29  1  0  0  0  0
 23 30  1  0  0  0  0
 23 31  1  0  0  0  0
 23 32  1  0  0  0  0
 24 33  1  0  0  0  0
 24 34  1  0  0  0  0
 24 35  1  0  0  0  0
 36 37  1  0  0  0  0
 36 41  1  0  0  0  0
 37 38  1  0  0  0  0
 37 40  1  0  0  0  0
 37 42  1  0  0  0  0
 38 39  2  0  0  0  0
 38 46  1  0  0  0  0
 40 43  1  0  0  0  0
 40 44  1  0  0  0  0
 40 45  1  0  0  0  0
 46 47  1  0  0  0  0
 46 48  1  0  0  0  0
 47 49  1  0  0  0  0
 47 50  1  0  0  0  0
 47 51  1  0  0  0  0
M  END
$$$$

  -OEChem-05262216503D

 51 50  0     1  0  0  0  0  0999 V2000
    1.3650   -6.0213    0.6094 C   0  0  0  0  0  0  0  0  0  0  0  0
    0.5220   -6.4857   -0.1418 O   0  0  0  0  0  0  0  0  0  0  0  0
    2.6021   -6.8274    0.9576 C   0  0  0  0  0  0  0  0  0  0  0  0
    2.5598   -7.8088    0.4769 H   0  0  0  0  0  0  0  0  0  0  0  0
    3.4973   -6.3040    0.6128 H   0  0  0  0  0  0  0  0  0  0  0  0
    2.6643   -6.9676    2.0395 H   0  0  0  0  0  0  0  0  0  0  0  0
    1.2007   -4.7595    1.1390 N   0  0  0  0  0  0  0  0  0  0  0  0
    0.1284   -3.8293    0.7615 C   0  0  2  0  0  0  0  0  0  0  0  0
    0.5515   -2.3571    0.9622 C   0  0  0  0  0  0  0  0  0  0  0  0
    1.6160   -2.1239    1.5230 O   0  0  0  0  0  0  0  0  0  0  0  0
   -1.1114   -4.1466    1.6053 C   0  0  0  0  0  0  0  0  0  0  0  0
    1.9846   -4.3622    1.6563 H   0  0  0  0  0  0  0  0  0  0  0  0
   -0.1120   -3.9592   -0.2995 H   0  0  0  0  0  0  0  0  0  0  0  0
   -0.8912   -4.0215    2.6702 H   0  0  0  0  0  0  0  0  0  0  0  0
   -1.9390   -3.4821    1.3398 H   0  0  0  0  0  0  0  0  0  0  0  0
   -1.4331   -5.1788    1.4353 H   0  0  0  0  0  0  0  0  0  0  0  0
   -0.2638   -1.3556    0.4525 N   0  0  0  0  0  0  0  0  0  0  0  0
   -0.1453    0.1282    0.4713 C   0  0  2  0  0  0  0  0  0  0  0  0
   -0.0940    0.5874   -1.0195 C   0  0  0  0  0  0  0  0  0  0  0  0
   -0.5326   -0.1652   -1.8861 O   0  0  0  0  0  0  0  0  0  0  0  0
    0.8756    0.7290    1.5058 C   0  0  2  0  0  0  0  0  0  0  0  0
    0.3991    0.3681    2.9447 C   0  0  0  0  0  0  0  0  0  0  0  0
    1.0204    2.2639    1.4061 C   0  0  0  0  0  0  0  0  0  0  0  0
    1.4347    0.6556    4.0386 C   0  0  0  0  0  0  0  0  0  0  0  0
   -0.9622   -1.7001   -0.2053 H   0  0  0  0  0  0  0  0  0  0  0  0
   -1.1148    0.5001    0.8157 H   0  0  0  0  0  0  0  0  0  0  0  0
    1.8667    0.3016    1.3276 H   0  0  0  0  0  0  0  0  0  0  0  0
   -0.5151    0.9261    3.1717 H   0  0  0  0  0  0  0  0  0  0  0  0
    0.1422   -0.6906    3.0111 H   0  0  0  0  0  0  0  0  0  0  0  0
    0.0455    2.7383    1.2557 H   0  0  0  0  0  0  0  0  0  0  0  0
    1.4667    2.6932    2.3042 H   0  0  0  0  0  0  0  0  0  0  0  0
    1.6902    2.5312    0.5852 H   0  0  0  0  0  0  0  0  0  0  0  0
    2.4010    0.2166    3.7707 H   0  0  0  0  0  0  0  0  0  0  0  0
    1.1047    0.2100    4.9818 H   0  0  0  0  0  0  0  0  0  0  0  0
    1.5653    1.7273    4.2048 H   0  0  0  0  0  0  0  0  0  0  0  0
    0.3047    1.8415   -1.4399 N   0  0  0  0  0  0  0  0  0  0  0  0
    0.4213    2.2747   -2.8385 C   0  0  2  0  0  0  0  0  0  0  0  0
    1.4803    3.3877   -2.9855 C   0  0  0  0  0  0  0  0  0  0  0  0
    1.9167    3.9546   -1.9888 O   0  0  0  0  0  0  0  0  0  0  0  0
   -0.9478    2.7717   -3.3166 C   0  0  0  0  0  0  0  0  0  0  0  0
    0.7240    2.4563   -0.7453 H   0  0  0  0  0  0  0  0  0  0  0  0
    0.7399    1.4312   -3.4603 H   0  0  0  0  0  0  0  0  0  0  0  0
   -1.2767    3.6248   -2.7145 H   0  0  0  0  0  0  0  0  0  0  0  0
   -0.9003    3.0819   -4.3647 H   0  0  0  0  0  0  0  0  0  0  0  0
   -1.6942    1.9758   -3.2286 H   0  0  0  0  0  0  0  0  0  0  0  0
    1.9508    3.7524   -4.2335 N   0  0  0  0  0  0  0  0  0  0  0  0
    2.9653    4.7798   -4.4369 C   0  0  0  0  0  0  0  0  0  0  0  0
    1.5904    3.2500   -5.0396 H   0  0  0  0  0  0  0  0  0  0  0  0
    2.6408    5.7310   -4.0015 H   0  0  0  0  0  0  0  0  0  0  0  0
    3.9103    4.4824   -3.9701 H   0  0  0  0  0  0  0  0  0  0  0  0
    3.1406    4.9327   -5.5062 H   0  0  0  0  0  0  0  0  0  0  0  0
  1  2  2  0  0  0  0
  1  3  1  0  0  0  0
  1  7  1  0  0  0  0
  3  4  1  0  0  0  0
  3  5  1  0  0  0  0
  3  6  1  0  0  0  0
  7  8  1  0  0  0  0
  7 12  1  0  0  0  0
  8  9  1  0  0  0  0
  8 11  1  0  0  0  0
  8 13  1  0  0  0  0
  9 10  2  0  0  0  0
  9 17  1  0  0  0  0
 11 14  1  0  0  0  0
 11 15  1  0  0  0  0
 11 16  1  0  0  0  0
 17 18  1  0  0  0  0
 17 25  1  0  0  0  0
 18 19  1  0  0  0  0
 18 21  1  0  0  0  0
 18 26  1  0  0  0  0
 19 20  2  0  0  0  0
 19 36  1  0  0  0  0
 21 22  1  0  0  0  0
 21 23  1  0  0  0  0
 21 27  1  0  0  0  0
 22 24  1  0  0  0  0
 22 28  1  0  0  0  0
 22 29  1  0  0  0  0
 23 30  1  0  0  0  0
 23 31  1  0  0  0  0
 23 32  1  0  0  0  0
 24 33  1  0  0  0  0
 24 34  1  0  0  0  0
 24 35  1  0  0  0  0
 36 37  1  0  0  0  0
 36 41  1  0  0  0  0
 37 38  1  0  0  0  0
 37 40  1  0  0  0  0
 37 42  1  0  0  0  0
 38 39  2  0  0  0  0
 38 46  1  0  0  0  0
 40 43  1  0  0  0  0
 40 44  1  0  0  0  0
 40 45  1  0  0  0  0
 46 47  1  0  0  0  0
 46 48  1  0  0  0  0
 47 49  1  0  0  0  0
 47 50  1  0  0  0  0
 47 51  1  0  0  0  0
M  END
$$$$

  -OEChem-05262216503D

 51 50  0     1  0  0  0  0  0999 V2000
    0.9232   -5.8731    0.3984 C   0  0  0  0  0  0  0  0  0  0  0  0
   -0.1604   -6.3410    0.0872 O   0  0  0  0  0  0  0  0  0  0  0  0
    2.1785   -6.7176    0.2849 C   0  0  0  0  0  0  0  0  0  0  0  0
    1.9200   -7.7402   -0.0043 H   0  0  0  0  0  0  0  0  0  0  0  0
    2.8455   -6.2949   -0.4704 H   0  0  0  0  0  0  0  0  0  0  0  0
    2.6981   -6.7452    1.2458 H   0  0  0  0  0  0  0  0  0  0  0  0
    1.0110   -4.5731    0.8487 N   0  0  0  0  0  0  0  0  0  0  0  0
   -0.1087   -3.6221    0.8733 C   0  0  2  0  0  0  0  0  0  0  0  0
    0.3782   -2.1618    0.7445 C   0  0  0  0  0  0  0  0  0  0  0  0
    1.5817   -1.9292    0.7740 O   0  0  0  0  0  0  0  0  0  0  0  0
   -0.8794   -3.8128    2.1843 C   0  0  0  0  0  0  0  0  0  0  0  0
    1.9440   -4.1835    0.9783 H   0  0  0  0  0  0  0  0  0  0  0  0
   -0.7777   -3.8214    0.0289 H   0  0  0  0  0  0  0  0  0  0  0  0
   -0.2329   -3.6005    3.0418 H   0  0  0  0  0  0  0  0  0  0  0  0
   -1.7441   -3.1436    2.2246 H   0  0  0  0  0  0  0  0  0  0  0  0
   -1.2400   -4.8430    2.2665 H   0  0  0  0  0  0  0  0  0  0  0  0
   -0.5474   -1.1542    0.5210 N   0  0  0  0  0  0  0  0  0  0  0  0
   -0.3773    0.3202    0.4874 C   0  0  2  0  0  0  0  0  0  0  0  0
   -0.8202    0.6978   -0.9579 C   0  0  0  0  0  0  0  0  0  0  0  0
   -1.9028    0.2798   -1.3464 O   0  0  0  0  0  0  0  0  0  0  0  0
    0.9293    0.9237    1.1111 C   0  0  2  0  0  0  0  0  0  0  0  0
    0.9537    0.5871    2.6316 C   0  0  0  0  0  0  0  0  0  0  0  0
    0.9467    2.4722    1.0389 C   0  0  0  0  0  0  0  0  0  0  0  0
    2.2976    0.8832    3.3080 C   0  0  0  0  0  0  0  0  0  0  0  0
   -1.4908   -1.4787    0.3118 H   0  0  0  0  0  0  0  0  0  0  0  0
   -1.1743    0.7311    1.1153 H   0  0  0  0  0  0  0  0  0  0  0  0
    1.8142    0.5270    0.6058 H   0  0  0  0  0  0  0  0  0  0  0  0
    0.1627    1.1386    3.1504 H   0  0  0  0  0  0  0  0  0  0  0  0
    0.7454   -0.4739    2.7829 H   0  0  0  0  0  0  0  0  0  0  0  0
    0.9769    2.8498    0.0212 H   0  0  0  0  0  0  0  0  0  0  0  0
    1.8315    2.8776    1.5343 H   0  0  0  0  0  0  0  0  0  0  0  0
    0.0578    2.8879    1.5243 H   0  0  0  0  0  0  0  0  0  0  0  0
    3.1169    0.4296    2.7417 H   0  0  0  0  0  0  0  0  0  0  0  0
    2.3023    0.4618    4.3177 H   0  0  0  0  0  0  0  0  0  0  0  0
    2.4783    1.9576    3.3942 H   0  0  0  0  0  0  0  0  0  0  0  0
   -0.3802    1.7353   -1.7421 N   0  0  0  0  0  0  0  0  0  0  0  0
    0.9766    1.6900   -2.3135 C   0  0  2  0  0  0  0  0  0  0  0  0
    1.4567    3.0691   -2.8139 C   0  0  0  0  0  0  0  0  0  0  0  0
    0.6561    3.8907   -3.2406 O   0  0  0  0  0  0  0  0  0  0  0  0
    0.9861    0.6903   -3.4761 C   0  0  0  0  0  0  0  0  0  0  0  0
   -1.0977    2.0189   -2.4078 H   0  0  0  0  0  0  0  0  0  0  0  0
    1.6899    1.3456   -1.5604 H   0  0  0  0  0  0  0  0  0  0  0  0
    0.2722    0.9957   -4.2484 H   0  0  0  0  0  0  0  0  0  0  0  0
    1.9822    0.6372   -3.9262 H   0  0  0  0  0  0  0  0  0  0  0  0
    0.7144   -0.3110   -3.1273 H   0  0  0  0  0  0  0  0  0  0  0  0
    2.8049    3.3776   -2.8106 N   0  0  0  0  0  0  0  0  0  0  0  0
    3.3354    4.6453   -3.2981 C   0  0  0  0  0  0  0  0  0  0  0  0
    3.4521    2.6732   -2.4695 H   0  0  0  0  0  0  0  0  0  0  0  0
    3.1147    4.7679   -4.3638 H   0  0  0  0  0  0  0  0  0  0  0  0
    2.8946    5.4840   -2.7485 H   0  0  0  0  0  0  0  0  0  0  0  0
    4.4209    4.6777   -3.1632 H   0  0  0  0  0  0  0  0  0  0  0  0
  1  2  2  0  0  0  0
  1  3  1  0  0  0  0
  1  7  1  0  0  0  0
  3  4  1  0  0  0  0
  3  5  1  0  0  0  0
  3  6  1  0  0  0  0
  7  8  1  0  0  0  0
  7 12  1  0  0  0  0
  8  9  1  0  0  0  0
  8 11  1  0  0  0  0
  8 13  1  0  0  0  0
  9 10  2  0  0  0  0
  9 17  1  0  0  0  0
 11 14  1  0  0  0  0
 11 15  1  0  0  0  0
 11 16  1  0  0  0  0
 17 18  1  0  0  0  0
 17 25  1  0  0  0  0
 18 19  1  0  0  0  0
 18 21  1  0  0  0  0
 18 26  1  0  0  0  0
 19 20  2  0  0  0  0
 19 36  1  0  0  0  0
 21 22  1  0  0  0  0
 21 23  1  0  0  0  0
 21 27  1  0  0  0  0
 22 24  1  0  0  0  0
 22 28  1  0  0  0  0
 22 29  1  0  0  0  0
 23 30  1  0  0  0  0
 23 31  1  0  0  0  0
 23 32  1  0  0  0  0
 24 33  1  0  0  0  0
 24 34  1  0  0  0  0
 24 35  1  0  0  0  0
 36 37  1  0  0  0  0
 36 41  1  0  0  0  0
 37 38  1  0  0  0  0
 37 40  1  0  0  0  0
 37 42  1  0  0  0  0
 38 39  2  0  0  0  0
 38 46  1  0  0  0  0
 40 43  1  0  0  0  0
 40 44  1  0  0  0  0
 40 45  1  0  0  0  0
 46 47  1  0  0  0  0
 46 48  1  0  0  0  0
 47 49  1  0  0  0  0
 47 50  1  0  0  0  0
 47 51  1  0  0  0  0
M  END
$$$$

  -OEChem-05262216503D

 51 50  0     1  0  0  0  0  0999 V2000
    1.3155   -6.0085    0.6691 C   0  0  0  0  0  0  0  0  0  0  0  0
    0.4651   -6.4680   -0.0769 O   0  0  0  0  0  0  0  0  0  0  0  0
    2.5452   -6.8261    1.0171 C   0  0  0  0  0  0  0  0  0  0  0  0
    2.4861   -7.8132    0.5499 H   0  0  0  0  0  0  0  0  0  0  0  0
    3.4441   -6.3188    0.6582 H   0  0  0  0  0  0  0  0  0  0  0  0
    2.6146   -6.9533    2.1002 H   0  0  0  0  0  0  0  0  0  0  0  0
    1.1647   -4.7425    1.1935 N   0  0  0  0  0  0  0  0  0  0  0  0
    0.0944   -3.8087    0.8196 C   0  0  2  0  0  0  0  0  0  0  0  0
    0.5405   -2.3376    0.9681 C   0  0  0  0  0  0  0  0  0  0  0  0
    1.5969   -2.0941    1.5388 O   0  0  0  0  0  0  0  0  0  0  0  0
   -1.1251   -4.0869    1.7052 C   0  0  0  0  0  0  0  0  0  0  0  0
    1.9545   -4.3487    1.7045 H   0  0  0  0  0  0  0  0  0  0  0  0
   -0.1767   -3.9650   -0.2302 H   0  0  0  0  0  0  0  0  0  0  0  0
   -0.8764   -3.9259    2.7590 H   0  0  0  0  0  0  0  0  0  0  0  0
   -1.9546   -3.4255    1.4374 H   0  0  0  0  0  0  0  0  0  0  0  0
   -1.4580   -5.1222    1.5801 H   0  0  0  0  0  0  0  0  0  0  0  0
   -0.2337   -1.3393    0.3957 N   0  0  0  0  0  0  0  0  0  0  0  0
   -0.0991    0.1390    0.4293 C   0  0  2  0  0  0  0  0  0  0  0  0
    0.0665    0.5675   -1.0544 C   0  0  0  0  0  0  0  0  0  0  0  0
   -0.7056    0.0910   -1.8813 O   0  0  0  0  0  0  0  0  0  0  0  0
    0.8498    0.7625    1.5131 C   0  0  2  0  0  0  0  0  0  0  0  0
    0.2891    0.4186    2.9246 C   0  0  0  0  0  0  0  0  0  0  0  0
    0.9212    2.3062    1.3979 C   0  0  0  0  0  0  0  0  0  0  0  0
    1.2562    0.7330    4.0732 C   0  0  0  0  0  0  0  0  0  0  0  0
   -0.9699   -1.6799   -0.2211 H   0  0  0  0  0  0  0  0  0  0  0  0
   -1.0886    0.5211    0.6986 H   0  0  0  0  0  0  0  0  0  0  0  0
    1.8624    0.3625    1.4018 H   0  0  0  0  0  0  0  0  0  0  0  0
   -0.6461    0.9640    3.0889 H   0  0  0  0  0  0  0  0  0  0  0  0
    0.0482   -0.6444    2.9886 H   0  0  0  0  0  0  0  0  0  0  0  0
   -0.0650    2.7228    1.1693 H   0  0  0  0  0  0  0  0  0  0  0  0
    1.6253    2.6151    0.6235 H   0  0  0  0  0  0  0  0  0  0  0  0
    1.2738    2.7693    2.3205 H   0  0  0  0  0  0  0  0  0  0  0  0
    2.2353    0.2847    3.8769 H   0  0  0  0  0  0  0  0  0  0  0  0
    0.8669    0.3138    5.0058 H   0  0  0  0  0  0  0  0  0  0  0  0
    1.3830    1.8080    4.2202 H   0  0  0  0  0  0  0  0  0  0  0  0
    1.0024    1.4773   -1.5031 N   0  0  0  0  0  0  0  0  0  0  0  0
    1.2295    1.8391   -2.9077 C   0  0  2  0  0  0  0  0  0  0  0  0
    2.6723    2.3425   -3.1233 C   0  0  0  0  0  0  0  0  0  0  0  0
    3.3788    2.6118   -2.1574 O   0  0  0  0  0  0  0  0  0  0  0  0
    0.2222    2.9229   -3.3067 C   0  0  0  0  0  0  0  0  0  0  0  0
    1.7373    1.7409   -0.8470 H   0  0  0  0  0  0  0  0  0  0  0  0
    1.0871    0.9577   -3.5419 H   0  0  0  0  0  0  0  0  0  0  0  0
    0.3472    3.8100   -2.6775 H   0  0  0  0  0  0  0  0  0  0  0  0
    0.3634    3.2137   -4.3518 H   0  0  0  0  0  0  0  0  0  0  0  0
   -0.8015    2.5540   -3.1889 H   0  0  0  0  0  0  0  0  0  0  0  0
    3.1846    2.4912   -4.3990 N   0  0  0  0  0  0  0  0  0  0  0  0
    4.5403    2.9561   -4.6659 C   0  0  0  0  0  0  0  0  0  0  0  0
    2.5839    2.2478   -5.1812 H   0  0  0  0  0  0  0  0  0  0  0  0
    4.6888    3.9596   -4.2535 H   0  0  0  0  0  0  0  0  0  0  0  0
    5.2732    2.2779   -4.2163 H   0  0  0  0  0  0  0  0  0  0  0  0
    4.7223    2.9955   -5.7440 H   0  0  0  0  0  0  0  0  0  0  0  0
  1  2  2  0  0  0  0
  1  3  1  0  0  0  0
  1  7  1  0  0  0  0
  3  4  1  0  0  0  0
  3  5  1  0  0  0  0
  3  6  1  0  0  0  0
  7  8  1  0  0  0  0
  7 12  1  0  0  0  0
  8  9  1  0  0  0  0
  8 11  1  0  0  0  0
  8 13  1  0  0  0  0
  9 10  2  0  0  0  0
  9 17  1  0  0  0  0
 11 14  1  0  0  0  0
 11 15  1  0  0  0  0
 11 16  1  0  0  0  0
 17 18  1  0  0  0  0
 17 25  1  0  0  0  0
 18 19  1  0  0  0  0
 18 21  1  0  0  0  0
 18 26  1  0  0  0  0
 19 20  2  0  0  0  0
 19 36  1  0  0  0  0
 21 22  1  0  0  0  0
 21 23  1  0  0  0  0
 21 27  1  0  0  0  0
 22 24  1  0  0  0  0
 22 28  1  0  0  0  0
 22 29  1  0  0  0  0
 23 30  1  0  0  0  0
 23 31  1  0  0  0  0
 23 32  1  0  0  0  0
 24 33  1  0  0  0  0
 24 34  1  0  0  0  0
 24 35  1  0  0  0  0
 36 37  1  0  0  0  0
 36 41  1  0  0  0  0
 37 38  1  0  0  0  0
 37 40  1  0  0  0  0
 37 42  1  0  0  0  0
 38 39  2  0  0  0  0
 38 46  1  0  0  0  0
 40 43  1  0  0  0  0
 40 44  1  0  0  0  0
 40 45  1  0  0  0  0
 46 47  1  0  0  0  0
 46 48  1  0  0  0  0
 47 49  1  0  0  0  0
 47 50  1  0  0  0  0
 47 51  1  0  0  0  0
M  END
$$$$

  -OEChem-05262216503D

 51 50  0     1  0  0  0  0  0999 V2000
    1.2978   -6.0049    0.6612 C   0  0  0  0  0  0  0  0  0  0  0  0
    0.4311   -6.4681   -0.0634 O   0  0  0  0  0  0  0  0  0  0  0  0
    2.5484   -6.8085    0.9632 C   0  0  0  0  0  0  0  0  0  0  0  0
    2.4951   -7.7861    0.4757 H   0  0  0  0  0  0  0  0  0  0  0  0
    3.4296   -6.2777    0.5949 H   0  0  0  0  0  0  0  0  0  0  0  0
    2.6456   -6.9576    2.0414 H   0  0  0  0  0  0  0  0  0  0  0  0
    1.1487   -4.7441    1.1974 N   0  0  0  0  0  0  0  0  0  0  0  0
    0.0702   -3.8133    0.8410 C   0  0  2  0  0  0  0  0  0  0  0  0
    0.5303   -2.3432    0.9438 C   0  0  0  0  0  0  0  0  0  0  0  0
    1.5964   -2.0933    1.4933 O   0  0  0  0  0  0  0  0  0  0  0  0
   -1.1159   -4.0675    1.7764 C   0  0  0  0  0  0  0  0  0  0  0  0
    1.9487   -4.3461    1.6890 H   0  0  0  0  0  0  0  0  0  0  0  0
   -0.2400   -3.9892   -0.1948 H   0  0  0  0  0  0  0  0  0  0  0  0
   -0.8257   -3.8906    2.8170 H   0  0  0  0  0  0  0  0  0  0  0  0
   -1.9510   -3.4052    1.5296 H   0  0  0  0  0  0  0  0  0  0  0  0
   -1.4585   -5.1027    1.6810 H   0  0  0  0  0  0  0  0  0  0  0  0
   -0.2370   -1.3508    0.3526 N   0  0  0  0  0  0  0  0  0  0  0  0
   -0.1072    0.1267    0.3963 C   0  0  2  0  0  0  0  0  0  0  0  0
    0.0947    0.5531   -1.0789 C   0  0  0  0  0  0  0  0  0  0  0  0
   -0.7728    0.2544   -1.8929 O   0  0  0  0  0  0  0  0  0  0  0  0
    0.8353    0.7574    1.4766 C   0  0  2  0  0  0  0  0  0  0  0  0
    0.2867    0.4124    2.8908 C   0  0  0  0  0  0  0  0  0  0  0  0
    0.8712    2.3025    1.3702 C   0  0  0  0  0  0  0  0  0  0  0  0
    1.2632    0.7426    4.0248 C   0  0  0  0  0  0  0  0  0  0  0  0
   -1.0051   -1.6939   -0.2216 H   0  0  0  0  0  0  0  0  0  0  0  0
   -1.1005    0.5092    0.6529 H   0  0  0  0  0  0  0  0  0  0  0  0
    1.8535    0.3740    1.3549 H   0  0  0  0  0  0  0  0  0  0  0  0
   -0.6529    0.9480    3.0624 H   0  0  0  0  0  0  0  0  0  0  0  0
    0.0568   -0.6524    2.9596 H   0  0  0  0  0  0  0  0  0  0  0  0
   -0.1440    2.7112    1.3954 H   0  0  0  0  0  0  0  0  0  0  0  0
    1.4385    2.7421    2.1933 H   0  0  0  0  0  0  0  0  0  0  0  0
    1.3569    2.6439    0.4562 H   0  0  0  0  0  0  0  0  0  0  0  0
    2.2431    0.2989    3.8223 H   0  0  0  0  0  0  0  0  0  0  0  0
    0.8867    0.3313    4.9660 H   0  0  0  0  0  0  0  0  0  0  0  0
    1.3827    1.8208    4.1550 H   0  0  0  0  0  0  0  0  0  0  0  0
    1.2145    1.2215   -1.5331 N   0  0  0  0  0  0  0  0  0  0  0  0
    1.4966    1.5423   -2.9377 C   0  0  2  0  0  0  0  0  0  0  0  0
    3.0119    1.6952   -3.1854 C   0  0  0  0  0  0  0  0  0  0  0  0
    3.7822    1.8041   -2.2376 O   0  0  0  0  0  0  0  0  0  0  0  0
    0.7647    2.8386   -3.3010 C   0  0  0  0  0  0  0  0  0  0  0  0
    1.9917    1.3167   -0.8781 H   0  0  0  0  0  0  0  0  0  0  0  0
    1.1380    0.7295   -3.5782 H   0  0  0  0  0  0  0  0  0  0  0  0
    1.1091    3.6618   -2.6669 H   0  0  0  0  0  0  0  0  0  0  0  0
    0.9475    3.1033   -4.3466 H   0  0  0  0  0  0  0  0  0  0  0  0
   -0.3142    2.7190   -3.1610 H   0  0  0  0  0  0  0  0  0  0  0  0
    3.5153    1.7089   -4.4732 N   0  0  0  0  0  0  0  0  0  0  0  0
    4.9357    1.8393   -4.7757 C   0  0  0  0  0  0  0  0  0  0  0  0
    2.8562    1.6005   -5.2385 H   0  0  0  0  0  0  0  0  0  0  0  0
    5.3240    2.7890   -4.3925 H   0  0  0  0  0  0  0  0  0  0  0  0
    5.5017    1.0186   -4.3221 H   0  0  0  0  0  0  0  0  0  0  0  0
    5.0962    1.8118   -5.8578 H   0  0  0  0  0  0  0  0  0  0  0  0
  1  2  2  0  0  0  0
  1  3  1  0  0  0  0
  1  7  1  0  0  0  0
  3  4  1  0  0  0  0
  3  5  1  0  0  0  0
  3  6  1  0  0  0  0
  7  8  1  0  0  0  0
  7 12  1  0  0  0  0
  8  9  1  0  0  0  0
  8 11  1  0  0  0  0
  8 13  1  0  0  0  0
  9 10  2  0  0  0  0
  9 17  1  0  0  0  0
 11 14  1  0  0  0  0
 11 15  1  0  0  0  0
 11 16  1  0  0  0  0
 17 18  1  0  0  0  0
 17 25  1  0  0  0  0
 18 19  1  0  0  0  0
 18 21  1  0  0  0  0
 18 26  1  0  0  0  0
 19 20  2  0  0  0  0
 19 36  1  0  0  0  0
 21 22  1  0  0  0  0
 21 23  1  0  0  0  0
 21 27  1  0  0  0  0
 22 24  1  0  0  0  0
 22 28  1  0  0  0  0
 22 29  1  0  0  0  0
 23 30  1  0  0  0  0
 23 31  1  0  0  0  0
 23 32  1  0  0  0  0
 24 33  1  0  0  0  0
 24 34  1  0  0  0  0
 24 35  1  0  0  0  0
 36 37  1  0  0  0  0
 36 41  1  0  0  0  0
 37 38  1  0  0  0  0
 37 40  1  0  0  0  0
 37 42  1  0  0  0  0
 38 39  2  0  0  0  0
 38 46  1  0  0  0  0
 40 43  1  0  0  0  0
 40 44  1  0  0  0  0
 40 45  1  0  0  0  0
 46 47  1  0  0  0  0
 46 48  1  0  0  0  0
 47 49  1  0  0  0  0
 47 50  1  0  0  0  0
 47 51  1  0  0  0  0
M  END
$$$$

  -OEChem-05262216503D

 51 50  0     1  0  0  0  0  0999 V2000
    1.2537   -6.0228    0.7015 C   0  0  0  0  0  0  0  0  0  0  0  0
    0.3675   -6.4894    0.0032 O   0  0  0  0  0  0  0  0  0  0  0  0
    2.5074   -6.8300    0.9817 C   0  0  0  0  0  0  0  0  0  0  0  0
    2.4078   -7.8372    0.5675 H   0  0  0  0  0  0  0  0  0  0  0  0
    3.3733   -6.3443    0.5248 H   0  0  0  0  0  0  0  0  0  0  0  0
    2.6687   -6.9079    2.0595 H   0  0  0  0  0  0  0  0  0  0  0  0
    1.1219   -4.7559    1.2283 N   0  0  0  0  0  0  0  0  0  0  0  0
    0.0361   -3.8259    0.8923 C   0  0  2  0  0  0  0  0  0  0  0  0
    0.5078   -2.3571    0.9443 C   0  0  0  0  0  0  0  0  0  0  0  0
    1.5794   -2.0966    1.4774 O   0  0  0  0  0  0  0  0  0  0  0  0
   -1.1158   -4.0508    1.8765 C   0  0  0  0  0  0  0  0  0  0  0  0
    1.9345   -4.3564    1.6976 H   0  0  0  0  0  0  0  0  0  0  0  0
   -0.3147   -4.0218   -0.1267 H   0  0  0  0  0  0  0  0  0  0  0  0
   -0.7885   -3.8461    2.9009 H   0  0  0  0  0  0  0  0  0  0  0  0
   -1.9574   -3.3925    1.6407 H   0  0  0  0  0  0  0  0  0  0  0  0
   -1.4640   -5.0872    1.8227 H   0  0  0  0  0  0  0  0  0  0  0  0
   -0.2493   -1.3793    0.3171 N   0  0  0  0  0  0  0  0  0  0  0  0
   -0.1191    0.0977    0.3405 C   0  0  2  0  0  0  0  0  0  0  0  0
    0.1174    0.5180   -1.1270 C   0  0  0  0  0  0  0  0  0  0  0  0
   -0.8107    0.4293   -1.9223 O   0  0  0  0  0  0  0  0  0  0  0  0
    0.8171    0.7539    1.4066 C   0  0  2  0  0  0  0  0  0  0  0  0
    0.2826    0.4459    2.8326 C   0  0  0  0  0  0  0  0  0  0  0  0
    0.8575    2.2920    1.2444 C   0  0  0  0  0  0  0  0  0  0  0  0
    1.2733    0.8152    3.9413 C   0  0  0  0  0  0  0  0  0  0  0  0
   -1.0416   -1.7328   -0.2156 H   0  0  0  0  0  0  0  0  0  0  0  0
   -1.1143    0.4837    0.5831 H   0  0  0  0  0  0  0  0  0  0  0  0
    1.8343    0.3675    1.2908 H   0  0  0  0  0  0  0  0  0  0  0  0
   -0.6567    0.9836    2.9985 H   0  0  0  0  0  0  0  0  0  0  0  0
    0.0581   -0.6177    2.9338 H   0  0  0  0  0  0  0  0  0  0  0  0
   -0.1452    2.7161    1.3591 H   0  0  0  0  0  0  0  0  0  0  0  0
    1.5129    2.7457    1.9917 H   0  0  0  0  0  0  0  0  0  0  0  0
    1.2455    2.5923    0.2698 H   0  0  0  0  0  0  0  0  0  0  0  0
    2.2463    0.3513    3.7511 H   0  0  0  0  0  0  0  0  0  0  0  0
    0.9020    0.4535    4.9048 H   0  0  0  0  0  0  0  0  0  0  0  0
    1.4055    1.8974    4.0163 H   0  0  0  0  0  0  0  0  0  0  0  0
    1.3598    0.9056   -1.5914 N   0  0  0  0  0  0  0  0  0  0  0  0
    1.6847    1.1868   -2.9948 C   0  0  2  0  0  0  0  0  0  0  0  0
    3.1879    0.9840   -3.2784 C   0  0  0  0  0  0  0  0  0  0  0  0
    3.9852    0.9066   -2.3504 O   0  0  0  0  0  0  0  0  0  0  0  0
    1.2727    2.6282   -3.3128 C   0  0  0  0  0  0  0  0  0  0  0  0
    2.1466    0.8080   -0.9479 H   0  0  0  0  0  0  0  0  0  0  0  0
    1.1318    0.4992   -3.6435 H   0  0  0  0  0  0  0  0  0  0  0  0
    1.8123    3.3304   -2.6690 H   0  0  0  0  0  0  0  0  0  0  0  0
    1.4942    2.8708   -4.3565 H   0  0  0  0  0  0  0  0  0  0  0  0
    0.1986    2.7615   -3.1503 H   0  0  0  0  0  0  0  0  0  0  0  0
    3.6497    0.8842   -4.5782 N   0  0  0  0  0  0  0  0  0  0  0  0
    5.0547    0.6882   -4.9148 C   0  0  0  0  0  0  0  0  0  0  0  0
    2.9660    0.9384   -5.3275 H   0  0  0  0  0  0  0  0  0  0  0  0
    5.6554    1.5316   -4.5584 H   0  0  0  0  0  0  0  0  0  0  0  0
    5.4337   -0.2324   -4.4583 H   0  0  0  0  0  0  0  0  0  0  0  0
    5.1768    0.6110   -5.9995 H   0  0  0  0  0  0  0  0  0  0  0  0
  1  2  2  0  0  0  0
  1  3  1  0  0  0  0
  1  7  1  0  0  0  0
  3  4  1  0  0  0  0
  3  5  1  0  0  0  0
  3  6  1  0  0  0  0
  7  8  1  0  0  0  0
  7 12  1  0  0  0  0
  8  9  1  0  0  0  0
  8 11  1  0  0  0  0
  8 13  1  0  0  0  0
  9 10  2  0  0  0  0
  9 17  1  0  0  0  0
 11 14  1  0  0  0  0
 11 15  1  0  0  0  0
 11 16  1  0  0  0  0
 17 18  1  0  0  0  0
 17 25  1  0  0  0  0
 18 19  1  0  0  0  0
 18 21  1  0  0  0  0
 18 26  1  0  0  0  0
 19 20  2  0  0  0  0
 19 36  1  0  0  0  0
 21 22  1  0  0  0  0
 21 23  1  0  0  0  0
 21 27  1  0  0  0  0
 22 24  1  0  0  0  0
 22 28  1  0  0  0  0
 22 29  1  0  0  0  0
 23 30  1  0  0  0  0
 23 31  1  0  0  0  0
 23 32  1  0  0  0  0
 24 33  1  0  0  0  0
 24 34  1  0  0  0  0
 24 35  1  0  0  0  0
 36 37  1  0  0  0  0
 36 41  1  0  0  0  0
 37 38  1  0  0  0  0
 37 40  1  0  0  0  0
 37 42  1  0  0  0  0
 38 39  2  0  0  0  0
 38 46  1  0  0  0  0
 40 43  1  0  0  0  0
 40 44  1  0  0  0  0
 40 45  1  0  0  0  0
 46 47  1  0  0  0  0
 46 48  1  0  0  0  0
 47 49  1  0  0  0  0
 47 50  1  0  0  0  0
 47 51  1  0  0  0  0
M  END
$$$$

  -OEChem-05262216503D

 51 50  0     1  0  0  0  0  0999 V2000
    1.2137   -6.0248    0.7084 C   0  0  0  0  0  0  0  0  0  0  0  0
    0.2977   -6.4838    0.0440 O   0  0  0  0  0  0  0  0  0  0  0  0
    2.4864   -6.8264    0.9083 C   0  0  0  0  0  0  0  0  0  0  0  0
    2.4201   -7.7792    0.3754 H   0  0  0  0  0  0  0  0  0  0  0  0
    3.3436   -6.2678    0.5244 H   0  0  0  0  0  0  0  0  0  0  0  0
    2.6383   -7.0265    1.9718 H   0  0  0  0  0  0  0  0  0  0  0  0
    1.0990   -4.7710    1.2700 N   0  0  0  0  0  0  0  0  0  0  0  0
    0.0016   -3.8363    0.9901 C   0  0  2  0  0  0  0  0  0  0  0  0
    0.4896   -2.3725    0.9748 C   0  0  0  0  0  0  0  0  0  0  0  0
    1.5665   -2.0993    1.4899 O   0  0  0  0  0  0  0  0  0  0  0  0
   -1.0776   -4.0257    2.0591 C   0  0  0  0  0  0  0  0  0  0  0  0
    1.9327   -4.3767    1.7053 H   0  0  0  0  0  0  0  0  0  0  0  0
   -0.4246   -4.0507    0.0041 H   0  0  0  0  0  0  0  0  0  0  0  0
   -0.6740   -3.8057    3.0528 H   0  0  0  0  0  0  0  0  0  0  0  0
   -1.9257   -3.3603    1.8716 H   0  0  0  0  0  0  0  0  0  0  0  0
   -1.4407   -5.0582    2.0506 H   0  0  0  0  0  0  0  0  0  0  0  0
   -0.2578   -1.4161    0.3050 N   0  0  0  0  0  0  0  0  0  0  0  0
   -0.1284    0.0605    0.2921 C   0  0  2  0  0  0  0  0  0  0  0  0
    0.1387    0.4724   -1.1688 C   0  0  0  0  0  0  0  0  0  0  0  0
   -0.8065    0.6432   -1.9286 O   0  0  0  0  0  0  0  0  0  0  0  0
    0.7935    0.7502    1.3468 C   0  0  2  0  0  0  0  0  0  0  0  0
    0.2513    0.4885    2.7770 C   0  0  0  0  0  0  0  0  0  0  0  0
    0.8529    2.2758    1.1096 C   0  0  0  0  0  0  0  0  0  0  0  0
    1.2349    0.8979    3.8773 C   0  0  0  0  0  0  0  0  0  0  0  0
   -1.0736   -1.7825   -0.1804 H   0  0  0  0  0  0  0  0  0  0  0  0
   -1.1284    0.4476    0.5136 H   0  0  0  0  0  0  0  0  0  0  0  0
    1.8106    0.3557    1.2569 H   0  0  0  0  0  0  0  0  0  0  0  0
   -0.6905    1.0287    2.9183 H   0  0  0  0  0  0  0  0  0  0  0  0
    0.0306   -0.5722    2.9110 H   0  0  0  0  0  0  0  0  0  0  0  0
   -0.1470    2.7152    1.1815 H   0  0  0  0  0  0  0  0  0  0  0  0
    1.4986    2.7609    1.8456 H   0  0  0  0  0  0  0  0  0  0  0  0
    1.2641    2.5128    0.1253 H   0  0  0  0  0  0  0  0  0  0  0  0
    2.2089    0.4261    3.7132 H   0  0  0  0  0  0  0  0  0  0  0  0
    0.8545    0.5750    4.8510 H   0  0  0  0  0  0  0  0  0  0  0  0
    1.3684    1.9823    3.9103 H   0  0  0  0  0  0  0  0  0  0  0  0
    1.4275    0.5606   -1.6584 N   0  0  0  0  0  0  0  0  0  0  0  0
    1.7745    0.8007   -3.0642 C   0  0  2  0  0  0  0  0  0  0  0  0
    3.1549    0.2096   -3.4198 C   0  0  0  0  0  0  0  0  0  0  0  0
    3.9167   -0.1579   -2.5326 O   0  0  0  0  0  0  0  0  0  0  0  0
    1.7584    2.3120   -3.3170 C   0  0  0  0  0  0  0  0  0  0  0  0
    2.1780    0.2380   -1.0449 H   0  0  0  0  0  0  0  0  0  0  0  0
    1.0349    0.3169   -3.7108 H   0  0  0  0  0  0  0  0  0  0  0  0
    2.4930    2.8137   -2.6790 H   0  0  0  0  0  0  0  0  0  0  0  0
    1.9969    2.5295   -4.3623 H   0  0  0  0  0  0  0  0  0  0  0  0
    0.7680    2.7240   -3.0986 H   0  0  0  0  0  0  0  0  0  0  0  0
    3.5455    0.0845   -4.7405 N   0  0  0  0  0  0  0  0  0  0  0  0
    4.8368   -0.4588   -5.1442 C   0  0  0  0  0  0  0  0  0  0  0  0
    2.8945    0.3919   -5.4570 H   0  0  0  0  0  0  0  0  0  0  0  0
    5.6516    0.1519   -4.7411 H   0  0  0  0  0  0  0  0  0  0  0  0
    4.9525   -1.4852   -4.7801 H   0  0  0  0  0  0  0  0  0  0  0  0
    4.9189   -0.4686   -6.2354 H   0  0  0  0  0  0  0  0  0  0  0  0
  1  2  2  0  0  0  0
  1  3  1  0  0  0  0
  1  7  1  0  0  0  0
  3  4  1  0  0  0  0
  3  5  1  0  0  0  0
  3  6  1  0  0  0  0
  7  8  1  0  0  0  0
  7 12  1  0  0  0  0
  8  9  1  0  0  0  0
  8 11  1  0  0  0  0
  8 13  1  0  0  0  0
  9 10  2  0  0  0  0
  9 17  1  0  0  0  0
 11 14  1  0  0  0  0
 11 15  1  0  0  0  0
 11 16  1  0  0  0  0
 17 18  1  0  0  0  0
 17 25  1  0  0  0  0
 18 19  1  0  0  0  0
 18 21  1  0  0  0  0
 18 26  1  0  0  0  0
 19 20  2  0  0  0  0
 19 36  1  0  0  0  0
 21 22  1  0  0  0  0
 21 23  1  0  0  0  0
 21 27  1  0  0  0  0
 22 24  1  0  0  0  0
 22 28  1  0  0  0  0
 22 29  1  0  0  0  0
 23 30  1  0  0  0  0
 23 31  1  0  0  0  0
 23 32  1  0  0  0  0
 24 33  1  0  0  0  0
 24 34  1  0  0  0  0
 24 35  1  0  0  0  0
 36 37  1  0  0  0  0
 36 41  1  0  0  0  0
 37 38  1  0  0  0  0
 37 40  1  0  0  0  0
 37 42  1  0  0  0  0
 38 39  2  0  0  0  0
 38 46  1  0  0  0  0
 40 43  1  0  0  0  0
 40 44  1  0  0  0  0
 40 45  1  0  0  0  0
 46 47  1  0  0  0  0
 46 48  1  0  0  0  0
 47 49  1  0  0  0  0
 47 50  1  0  0  0  0
 47 51  1  0  0  0  0
M  END
$$$$

  -OEChem-05262216503D

 51 50  0     1  0  0  0  0  0999 V2000
    1.1790   -6.0257    0.7176 C   0  0  0  0  0  0  0  0  0  0  0  0
    0.2242   -6.4874    0.1121 O   0  0  0  0  0  0  0  0  0  0  0  0
    2.4661   -6.8204    0.8336 C   0  0  0  0  0  0  0  0  0  0  0  0
    2.3477   -7.8031    0.3685 H   0  0  0  0  0  0  0  0  0  0  0  0
    3.2781   -6.2881    0.3319 H   0  0  0  0  0  0  0  0  0  0  0  0
    2.7254   -6.9579    1.8860 H   0  0  0  0  0  0  0  0  0  0  0  0
    1.0957   -4.7724    1.2859 N   0  0  0  0  0  0  0  0  0  0  0  0
   -0.0164   -3.8392    1.0679 C   0  0  2  0  0  0  0  0  0  0  0  0
    0.4767   -2.3791    0.9974 C   0  0  0  0  0  0  0  0  0  0  0  0
    1.5619   -2.0927    1.4869 O   0  0  0  0  0  0  0  0  0  0  0  0
   -1.0222   -4.0098    2.2095 C   0  0  0  0  0  0  0  0  0  0  0  0
    1.9555   -4.3748    1.6638 H   0  0  0  0  0  0  0  0  0  0  0  0
   -0.5096   -4.0662    0.1166 H   0  0  0  0  0  0  0  0  0  0  0  0
   -0.5508   -3.7838    3.1715 H   0  0  0  0  0  0  0  0  0  0  0  0
   -1.8757   -3.3391    2.0728 H   0  0  0  0  0  0  0  0  0  0  0  0
   -1.3932   -5.0394    2.2366 H   0  0  0  0  0  0  0  0  0  0  0  0
   -0.2648   -1.4444    0.2918 N   0  0  0  0  0  0  0  0  0  0  0  0
   -0.1449    0.0339    0.2544 C   0  0  2  0  0  0  0  0  0  0  0  0
    0.1525    0.4341   -1.2022 C   0  0  0  0  0  0  0  0  0  0  0  0
   -0.7388    0.8821   -1.9121 O   0  0  0  0  0  0  0  0  0  0  0  0
    0.7678    0.7480    1.2994 C   0  0  2  0  0  0  0  0  0  0  0  0
    0.2273    0.5122    2.7341 C   0  0  0  0  0  0  0  0  0  0  0  0
    0.8288    2.2657    1.0196 C   0  0  0  0  0  0  0  0  0  0  0  0
    1.2090    0.9500    3.8252 C   0  0  0  0  0  0  0  0  0  0  0  0
   -1.0931   -1.8245   -0.1600 H   0  0  0  0  0  0  0  0  0  0  0  0
   -1.1494    0.4195    0.4584 H   0  0  0  0  0  0  0  0  0  0  0  0
    1.7861    0.3553    1.2195 H   0  0  0  0  0  0  0  0  0  0  0  0
   -0.7161    1.0524    2.8629 H   0  0  0  0  0  0  0  0  0  0  0  0
    0.0110   -0.5464    2.8903 H   0  0  0  0  0  0  0  0  0  0  0  0
   -0.1737    2.7039    1.0547 H   0  0  0  0  0  0  0  0  0  0  0  0
    1.4569    2.7762    1.7535 H   0  0  0  0  0  0  0  0  0  0  0  0
    1.2620    2.4698    0.0364 H   0  0  0  0  0  0  0  0  0  0  0  0
    2.1839    0.4765    3.6719 H   0  0  0  0  0  0  0  0  0  0  0  0
    0.8302    0.6492    4.8067 H   0  0  0  0  0  0  0  0  0  0  0  0
    1.3403    2.0350    3.8329 H   0  0  0  0  0  0  0  0  0  0  0  0
    1.4117    0.2276   -1.7299 N   0  0  0  0  0  0  0  0  0  0  0  0
    1.7737    0.4396   -3.1361 C   0  0  2  0  0  0  0  0  0  0  0  0
    2.8992   -0.5133   -3.5915 C   0  0  0  0  0  0  0  0  0  0  0  0
    3.5236   -1.1737   -2.7689 O   0  0  0  0  0  0  0  0  0  0  0  0
    2.2033    1.9004   -3.3041 C   0  0  0  0  0  0  0  0  0  0  0  0
    2.0696   -0.3016   -1.1541 H   0  0  0  0  0  0  0  0  0  0  0  0
    0.9048    0.2423   -3.7729 H   0  0  0  0  0  0  0  0  0  0  0  0
    3.0730    2.1177   -2.6757 H   0  0  0  0  0  0  0  0  0  0  0  0
    2.4653    2.1076   -4.3458 H   0  0  0  0  0  0  0  0  0  0  0  0
    1.3880    2.5709   -3.0142 H   0  0  0  0  0  0  0  0  0  0  0  0
    3.2089   -0.6387   -4.9335 N   0  0  0  0  0  0  0  0  0  0  0  0
    4.2602   -1.5159   -5.4341 C   0  0  0  0  0  0  0  0  0  0  0  0
    2.6709   -0.0870   -5.5953 H   0  0  0  0  0  0  0  0  0  0  0  0
    5.2331   -1.2166   -5.0301 H   0  0  0  0  0  0  0  0  0  0  0  0
    4.0626   -2.5541   -5.1468 H   0  0  0  0  0  0  0  0  0  0  0  0
    4.3084   -1.4630   -6.5259 H   0  0  0  0  0  0  0  0  0  0  0  0
  1  2  2  0  0  0  0
  1  3  1  0  0  0  0
  1  7  1  0  0  0  0
  3  4  1  0  0  0  0
  3  5  1  0  0  0  0
  3  6  1  0  0  0  0
  7  8  1  0  0  0  0
  7 12  1  0  0  0  0
  8  9  1  0  0  0  0
  8 11  1  0  0  0  0
  8 13  1  0  0  0  0
  9 10  2  0  0  0  0
  9 17  1  0  0  0  0
 11 14  1  0  0  0  0
 11 15  1  0  0  0  0
 11 16  1  0  0  0  0
 17 18  1  0  0  0  0
 17 25  1  0  0  0  0
 18 19  1  0  0  0  0
 18 21  1  0  0  0  0
 18 26  1  0  0  0  0
 19 20  2  0  0  0  0
 19 36  1  0  0  0  0
 21 22  1  0  0  0  0
 21 23  1  0  0  0  0
 21 27  1  0  0  0  0
 22 24  1  0  0  0  0
 22 28  1  0  0  0  0
 22 29  1  0  0  0  0
 23 30  1  0  0  0  0
 23 31  1  0  0  0  0
 23 32  1  0  0  0  0
 24 33  1  0  0  0  0
 24 34  1  0  0  0  0
 24 35  1  0  0  0  0
 36 37  1  0  0  0  0
 36 41  1  0  0  0  0
 37 38  1  0  0  0  0
 37 40  1  0  0  0  0
 37 42  1  0  0  0  0
 38 39  2  0  0  0  0
 38 46  1  0  0  0  0
 40 43  1  0  0  0  0
 40 44  1  0  0  0  0
 40 45  1  0  0  0  0
 46 47  1  0  0  0  0
 46 48  1  0  0  0  0
 47 49  1  0  0  0  0
 47 50  1  0  0  0  0
 47 51  1  0  0  0  0
M  END
$$$$

  -OEChem-05262216503D

 51 50  0     1  0  0  0  0  0999 V2000
    2.1514   -5.7466    0.8043 C   0  0  0  0  0  0  0  0  0  0  0  0
    1.7562   -6.2887   -0.2155 O   0  0  0  0  0  0  0  0  0  0  0  0
    3.2218   -6.4089    1.6512 C   0  0  0  0  0  0  0  0  0  0  0  0
    3.5232   -7.3597    1.2031 H   0  0  0  0  0  0  0  0  0  0  0  0
    4.0974   -5.7589    1.7214 H   0  0  0  0  0  0  0  0  0  0  0  0
    2.8365   -6.5994    2.6557 H   0  0  0  0  0  0  0  0  0  0  0  0
    1.6350   -4.5297    1.1942 N   0  0  0  0  0  0  0  0  0  0  0  0
    0.7320   -3.7056    0.3790 C   0  0  2  0  0  0  0  0  0  0  0  0
    0.8592   -2.2082    0.7403 C   0  0  0  0  0  0  0  0  0  0  0  0
    1.6650   -1.8695    1.6003 O   0  0  0  0  0  0  0  0  0  0  0  0
   -0.7062   -4.1914    0.5922 C   0  0  0  0  0  0  0  0  0  0  0  0
    2.0974   -4.0568    1.9700 H   0  0  0  0  0  0  0  0  0  0  0  0
    0.9942   -3.8108   -0.6802 H   0  0  0  0  0  0  0  0  0  0  0  0
   -0.9965   -4.0785    1.6413 H   0  0  0  0  0  0  0  0  0  0  0  0
   -1.4022   -3.6181   -0.0274 H   0  0  0  0  0  0  0  0  0  0  0  0
   -0.7956   -5.2472    0.3174 H   0  0  0  0  0  0  0  0  0  0  0  0
    0.1698   -1.2682   -0.0081 N   0  0  0  0  0  0  0  0  0  0  0  0
    0.0867    0.2075    0.1285 C   0  0  2  0  0  0  0  0  0  0  0  0
    0.6347    0.7824   -1.1873 C   0  0  0  0  0  0  0  0  0  0  0  0
   -0.1136    1.3086   -2.0016 O   0  0  0  0  0  0  0  0  0  0  0  0
    0.6361    0.8959    1.4136 C   0  0  2  0  0  0  0  0  0  0  0  0
   -0.1637    0.4317    2.6600 C   0  0  0  0  0  0  0  0  0  0  0  0
    0.5496    2.4309    1.2820 C   0  0  0  0  0  0  0  0  0  0  0  0
    0.4850    0.8534    3.9818 C   0  0  0  0  0  0  0  0  0  0  0  0
   -0.2160   -1.6491   -0.8741 H   0  0  0  0  0  0  0  0  0  0  0  0
   -0.9823    0.4454    0.1251 H   0  0  0  0  0  0  0  0  0  0  0  0
    1.6907    0.6308    1.5374 H   0  0  0  0  0  0  0  0  0  0  0  0
   -1.1778    0.8418    2.6140 H   0  0  0  0  0  0  0  0  0  0  0  0
   -0.2654   -0.6551    2.6694 H   0  0  0  0  0  0  0  0  0  0  0  0
   -0.4881    2.7461    1.1326 H   0  0  0  0  0  0  0  0  0  0  0  0
    0.9371    2.9244    2.1767 H   0  0  0  0  0  0  0  0  0  0  0  0
    1.1457    2.7882    0.4371 H   0  0  0  0  0  0  0  0  0  0  0  0
    1.5217    0.5051    4.0258 H   0  0  0  0  0  0  0  0  0  0  0  0
   -0.0629    0.4117    4.8196 H   0  0  0  0  0  0  0  0  0  0  0  0
    0.4712    1.9394    4.1045 H   0  0  0  0  0  0  0  0  0  0  0  0
    1.9349    0.4739   -1.5384 N   0  0  0  0  0  0  0  0  0  0  0  0
    2.2642    0.2386   -2.9503 C   0  0  2  0  0  0  0  0  0  0  0  0
    1.6283   -1.0663   -3.4927 C   0  0  0  0  0  0  0  0  0  0  0  0
    1.2237   -1.9374   -2.7254 O   0  0  0  0  0  0  0  0  0  0  0  0
    3.7884    0.1794   -3.0691 C   0  0  0  0  0  0  0  0  0  0  0  0
    2.3815   -0.1481   -0.8669 H   0  0  0  0  0  0  0  0  0  0  0  0
    1.8987    1.0747   -3.5565 H   0  0  0  0  0  0  0  0  0  0  0  0
    4.1856   -0.6607   -2.4902 H   0  0  0  0  0  0  0  0  0  0  0  0
    4.0865    0.0530   -4.1144 H   0  0  0  0  0  0  0  0  0  0  0  0
    4.2345    1.1053   -2.6927 H   0  0  0  0  0  0  0  0  0  0  0  0
    1.5102   -1.2665   -4.8554 N   0  0  0  0  0  0  0  0  0  0  0  0
    0.8741   -2.4416   -5.4387 C   0  0  0  0  0  0  0  0  0  0  0  0
    1.7763   -0.4995   -5.4658 H   0  0  0  0  0  0  0  0  0  0  0  0
    1.3745   -3.3560   -5.1022 H   0  0  0  0  0  0  0  0  0  0  0  0
   -0.1809   -2.4901   -5.1490 H   0  0  0  0  0  0  0  0  0  0  0  0
    0.9319   -2.4000   -6.5307 H   0  0  0  0  0  0  0  0  0  0  0  0
  1  2  2  0  0  0  0
  1  3  1  0  0  0  0
  1  7  1  0  0  0  0
  3  4  1  0  0  0  0
  3  5  1  0  0  0  0
  3  6  1  0  0  0  0
  7  8  1  0  0  0  0
  7 12  1  0  0  0  0
  8  9  1  0  0  0  0
  8 11  1  0  0  0  0
  8 13  1  0  0  0  0
  9 10  2  0  0  0  0
  9 17  1  0  0  0  0
 11 14  1  0  0  0  0
 11 15  1  0  0  0  0
 11 16  1  0  0  0  0
 17 18  1  0  0  0  0
 17 25  1  0  0  0  0
 18 19  1  0  0  0  0
 18 21  1  0  0  0  0
 18 26  1  0  0  0  0
 19 20  2  0  0  0  0
 19 36  1  0  0  0  0
 21 22  1  0  0  0  0
 21 23  1  0  0  0  0
 21 27  1  0  0  0  0
 22 24  1  0  0  0  0
 22 28  1  0  0  0  0
 22 29  1  0  0  0  0
 23 30  1  0  0  0  0
 23 31  1  0  0  0  0
 23 32  1  0  0  0  0
 24 33  1  0  0  0  0
 24 34  1  0  0  0  0
 24 35  1  0  0  0  0
 36 37  1  0  0  0  0
 36 41  1  0  0  0  0
 37 38  1  0  0  0  0
 37 40  1  0  0  0  0
 37 42  1  0  0  0  0
 38 39  2  0  0  0  0
 38 46  1  0  0  0  0
 40 43  1  0  0  0  0
 40 44  1  0  0  0  0
 40 45  1  0  0  0  0
 46 47  1  0  0  0  0
 46 48  1  0  0  0  0
 47 49  1  0  0  0  0
 47 50  1  0  0  0  0
 47 51  1  0  0  0  0
M  END
$$$$

  -OEChem-05262216503D

 51 50  0     1  0  0  0  0  0999 V2000
    2.0923   -5.8432    0.8937 C   0  0  0  0  0  0  0  0  0  0  0  0
    1.7712   -6.3558   -0.1665 O   0  0  0  0  0  0  0  0  0  0  0  0
    3.0866   -6.5416    1.8024 C   0  0  0  0  0  0  0  0  0  0  0  0
    3.4323   -7.4699    1.3390 H   0  0  0  0  0  0  0  0  0  0  0  0
    3.9488   -5.8945    1.9806 H   0  0  0  0  0  0  0  0  0  0  0  0
    2.6144   -6.7798    2.7585 H   0  0  0  0  0  0  0  0  0  0  0  0
    1.5606   -4.6276    1.2687 N   0  0  0  0  0  0  0  0  0  0  0  0
    0.7229   -3.7841    0.4041 C   0  0  2  0  0  0  0  0  0  0  0  0
    0.8586   -2.2870    0.7641 C   0  0  0  0  0  0  0  0  0  0  0  0
    1.6342   -1.9563    1.6534 O   0  0  0  0  0  0  0  0  0  0  0  0
   -0.7335   -4.2431    0.5342 C   0  0  0  0  0  0  0  0  0  0  0  0
    1.9668   -4.1748    2.0868 H   0  0  0  0  0  0  0  0  0  0  0  0
    1.0416   -3.8976   -0.6386 H   0  0  0  0  0  0  0  0  0  0  0  0
   -1.0846   -4.1180    1.5633 H   0  0  0  0  0  0  0  0  0  0  0  0
   -1.3809   -3.6627   -0.1301 H   0  0  0  0  0  0  0  0  0  0  0  0
   -0.8238   -5.2991    0.2604 H   0  0  0  0  0  0  0  0  0  0  0  0
    0.2243   -1.3430   -0.0270 N   0  0  0  0  0  0  0  0  0  0  0  0
    0.1648    0.1396    0.0709 C   0  0  2  0  0  0  0  0  0  0  0  0
    0.7749    0.6948   -1.2292 C   0  0  0  0  0  0  0  0  0  0  0  0
    0.1132    1.4087   -1.9726 O   0  0  0  0  0  0  0  0  0  0  0  0
    0.6784    0.8367    1.3661 C   0  0  2  0  0  0  0  0  0  0  0  0
   -0.1816    0.4115    2.5856 C   0  0  0  0  0  0  0  0  0  0  0  0
    0.6426    2.3717    1.2130 C   0  0  0  0  0  0  0  0  0  0  0  0
    0.4232    0.8402    3.9257 C   0  0  0  0  0  0  0  0  0  0  0  0
   -0.1401   -1.7345   -0.9011 H   0  0  0  0  0  0  0  0  0  0  0  0
   -0.8985    0.3962    0.0212 H   0  0  0  0  0  0  0  0  0  0  0  0
    1.7196    0.5449    1.5356 H   0  0  0  0  0  0  0  0  0  0  0  0
   -1.1828    0.8443    2.4914 H   0  0  0  0  0  0  0  0  0  0  0  0
   -0.3094   -0.6722    2.6080 H   0  0  0  0  0  0  0  0  0  0  0  0
   -0.3771    2.7145    1.0105 H   0  0  0  0  0  0  0  0  0  0  0  0
    1.0019    2.8654    2.1190 H   0  0  0  0  0  0  0  0  0  0  0  0
    1.2887    2.7006    0.3938 H   0  0  0  0  0  0  0  0  0  0  0  0
    1.4531    0.4796    4.0112 H   0  0  0  0  0  0  0  0  0  0  0  0
   -0.1605    0.4157    4.7478 H   0  0  0  0  0  0  0  0  0  0  0  0
    0.4188    1.9277    4.0358 H   0  0  0  0  0  0  0  0  0  0  0  0
    1.9506    0.1323   -1.6891 N   0  0  0  0  0  0  0  0  0  0  0  0
    2.1079   -0.1433   -3.1228 C   0  0  2  0  0  0  0  0  0  0  0  0
    1.1997   -1.3073   -3.5935 C   0  0  0  0  0  0  0  0  0  0  0  0
    0.7283   -2.1039   -2.7833 O   0  0  0  0  0  0  0  0  0  0  0  0
    3.5796   -0.4779   -3.3714 C   0  0  0  0  0  0  0  0  0  0  0  0
    2.3123   -0.5797   -1.0576 H   0  0  0  0  0  0  0  0  0  0  0  0
    1.8502    0.7504   -3.7016 H   0  0  0  0  0  0  0  0  0  0  0  0
    3.8669   -1.3786   -2.8190 H   0  0  0  0  0  0  0  0  0  0  0  0
    3.7582   -0.6519   -4.4369 H   0  0  0  0  0  0  0  0  0  0  0  0
    4.2168    0.3501   -3.0451 H   0  0  0  0  0  0  0  0  0  0  0  0
    0.9058   -1.4646   -4.9349 N   0  0  0  0  0  0  0  0  0  0  0  0
    0.0171   -2.5036   -5.4422 C   0  0  0  0  0  0  0  0  0  0  0  0
    1.2355   -0.7469   -5.5739 H   0  0  0  0  0  0  0  0  0  0  0  0
    0.3982   -3.4964   -5.1803 H   0  0  0  0  0  0  0  0  0  0  0  0
   -0.9870   -2.3889   -5.0204 H   0  0  0  0  0  0  0  0  0  0  0  0
   -0.0565   -2.4398   -6.5321 H   0  0  0  0  0  0  0  0  0  0  0  0
  1  2  2  0  0  0  0
  1  3  1  0  0  0  0
  1  7  1  0  0  0  0
  3  4  1  0  0  0  0
  3  5  1  0  0  0  0
  3  6  1  0  0  0  0
  7  8  1  0  0  0  0
  7 12  1  0  0  0  0
  8  9  1  0  0  0  0
  8 11  1  0  0  0  0
  8 13  1  0  0  0  0
  9 10  2  0  0  0  0
  9 17  1  0  0  0  0
 11 14  1  0  0  0  0
 11 15  1  0  0  0  0
 11 16  1  0  0  0  0
 17 18  1  0  0  0  0
 17 25  1  0  0  0  0
 18 19  1  0  0  0  0
 18 21  1  0  0  0  0
 18 26  1  0  0  0  0
 19 20  2  0  0  0  0
 19 36  1  0  0  0  0
 21 22  1  0  0  0  0
 21 23  1  0  0  0  0
 21 27  1  0  0  0  0
 22 24  1  0  0  0  0
 22 28  1  0  0  0  0
 22 29  1  0  0  0  0
 23 30  1  0  0  0  0
 23 31  1  0  0  0  0
 23 32  1  0  0  0  0
 24 33  1  0  0  0  0
 24 34  1  0  0  0  0
 24 35  1  0  0  0  0
 36 37  1  0  0  0  0
 36 41  1  0  0  0  0
 37 38  1  0  0  0  0
 37 40  1  0  0  0  0
 37 42  1  0  0  0  0
 38 39  2  0  0  0  0
 38 46  1  0  0  0  0
 40 43  1  0  0  0  0
 40 44  1  0  0  0  0
 40 45  1  0  0  0  0
 46 47  1  0  0  0  0
 46 48  1  0  0  0  0
 47 49  1  0  0  0  0
 47 50  1  0  0  0  0
 47 51  1  0  0  0  0
M  END
$$$$

  -OEChem-05262216503D

 51 50  0     1  0  0  0  0  0999 V2000
    2.0571   -5.9132    0.9115 C   0  0  0  0  0  0  0  0  0  0  0  0
    1.7331   -6.4126   -0.1544 O   0  0  0  0  0  0  0  0  0  0  0  0
    3.0752   -6.6068    1.7973 C   0  0  0  0  0  0  0  0  0  0  0  0
    3.4451   -7.5123    1.3088 H   0  0  0  0  0  0  0  0  0  0  0  0
    3.9195   -5.9406    1.9895 H   0  0  0  0  0  0  0  0  0  0  0  0
    2.6144   -6.8827    2.7487 H   0  0  0  0  0  0  0  0  0  0  0  0
    1.5075   -4.7148    1.3144 N   0  0  0  0  0  0  0  0  0  0  0  0
    0.6461   -3.8718    0.4734 C   0  0  2  0  0  0  0  0  0  0  0  0
    0.8331   -2.3716    0.7920 C   0  0  0  0  0  0  0  0  0  0  0  0
    1.6094   -2.0443    1.6812 O   0  0  0  0  0  0  0  0  0  0  0  0
   -0.8094   -4.2970    0.6901 C   0  0  0  0  0  0  0  0  0  0  0  0
    1.9226   -4.2652    2.1300 H   0  0  0  0  0  0  0  0  0  0  0  0
    0.9052   -4.0137   -0.5822 H   0  0  0  0  0  0  0  0  0  0  0  0
   -1.1021   -4.1457    1.7339 H   0  0  0  0  0  0  0  0  0  0  0  0
   -1.4794   -3.7149    0.0500 H   0  0  0  0  0  0  0  0  0  0  0  0
   -0.9344   -5.3560    0.4426 H   0  0  0  0  0  0  0  0  0  0  0  0
    0.2462   -1.4308   -0.0382 N   0  0  0  0  0  0  0  0  0  0  0  0
    0.2196    0.0567    0.0172 C   0  0  2  0  0  0  0  0  0  0  0  0
    0.8765    0.5848   -1.2767 C   0  0  0  0  0  0  0  0  0  0  0  0
    0.3242    1.4580   -1.9350 O   0  0  0  0  0  0  0  0  0  0  0  0
    0.7137    0.7597    1.3184 C   0  0  2  0  0  0  0  0  0  0  0  0
   -0.1966    0.3773    2.5160 C   0  0  0  0  0  0  0  0  0  0  0  0
    0.7308    2.2931    1.1464 C   0  0  0  0  0  0  0  0  0  0  0  0
    0.3759    0.8076    3.8699 C   0  0  0  0  0  0  0  0  0  0  0  0
   -0.1720   -1.8382   -0.8819 H   0  0  0  0  0  0  0  0  0  0  0  0
   -0.8359    0.3357   -0.0673 H   0  0  0  0  0  0  0  0  0  0  0  0
    1.7402    0.4411    1.5247 H   0  0  0  0  0  0  0  0  0  0  0  0
   -1.1812    0.8377    2.3838 H   0  0  0  0  0  0  0  0  0  0  0  0
   -0.3568   -0.7018    2.5492 H   0  0  0  0  0  0  0  0  0  0  0  0
   -0.2665    2.6624    0.8866 H   0  0  0  0  0  0  0  0  0  0  0  0
    1.0578    2.7900    2.0628 H   0  0  0  0  0  0  0  0  0  0  0  0
    1.4283    2.5909    0.3580 H   0  0  0  0  0  0  0  0  0  0  0  0
    1.3918    0.4195    3.9936 H   0  0  0  0  0  0  0  0  0  0  0  0
   -0.2458    0.4104    4.6778 H   0  0  0  0  0  0  0  0  0  0  0  0
    0.3986    1.8960    3.9662 H   0  0  0  0  0  0  0  0  0  0  0  0
    1.8621   -0.1818   -1.8713 N   0  0  0  0  0  0  0  0  0  0  0  0
    1.8155   -0.4389   -3.3158 C   0  0  2  0  0  0  0  0  0  0  0  0
    0.6959   -1.4447   -3.6795 C   0  0  0  0  0  0  0  0  0  0  0  0
    0.2287   -2.1962   -2.8241 O   0  0  0  0  0  0  0  0  0  0  0  0
    3.1821   -0.9818   -3.7364 C   0  0  0  0  0  0  0  0  0  0  0  0
    2.1297   -0.9757   -1.2935 H   0  0  0  0  0  0  0  0  0  0  0  0
    1.6316    0.4959   -3.8563 H   0  0  0  0  0  0  0  0  0  0  0  0
    3.3928   -1.9283   -3.2278 H   0  0  0  0  0  0  0  0  0  0  0  0
    3.2092   -1.1543   -4.8168 H   0  0  0  0  0  0  0  0  0  0  0  0
    3.9691   -0.2650   -3.4805 H   0  0  0  0  0  0  0  0  0  0  0  0
    0.2060   -1.5085   -4.9701 N   0  0  0  0  0  0  0  0  0  0  0  0
   -0.8863   -2.3885   -5.3683 C   0  0  0  0  0  0  0  0  0  0  0  0
    0.5535   -0.8260   -5.6379 H   0  0  0  0  0  0  0  0  0  0  0  0
   -0.6272   -3.4347   -5.1737 H   0  0  0  0  0  0  0  0  0  0  0  0
   -1.7984   -2.1424   -4.8145 H   0  0  0  0  0  0  0  0  0  0  0  0
   -1.0908   -2.2779   -6.4376 H   0  0  0  0  0  0  0  0  0  0  0  0
  1  2  2  0  0  0  0
  1  3  1  0  0  0  0
  1  7  1  0  0  0  0
  3  4  1  0  0  0  0
  3  5  1  0  0  0  0
  3  6  1  0  0  0  0
  7  8  1  0  0  0  0
  7 12  1  0  0  0  0
  8  9  1  0  0  0  0
  8 11  1  0  0  0  0
  8 13  1  0  0  0  0
  9 10  2  0  0  0  0
  9 17  1  0  0  0  0
 11 14  1  0  0  0  0
 11 15  1  0  0  0  0
 11 16  1  0  0  0  0
 17 18  1  0  0  0  0
 17 25  1  0  0  0  0
 18 19  1  0  0  0  0
 18 21  1  0  0  0  0
 18 26  1  0  0  0  0
 19 20  2  0  0  0  0
 19 36  1  0  0  0  0
 21 22  1  0  0  0  0
 21 23  1  0  0  0  0
 21 27  1  0  0  0  0
 22 24  1  0  0  0  0
 22 28  1  0  0  0  0
 22 29  1  0  0  0  0
 23 30  1  0  0  0  0
 23 31  1  0  0  0  0
 23 32  1  0  0  0  0
 24 33  1  0  0  0  0
 24 34  1  0  0  0  0
 24 35  1  0  0  0  0
 36 37  1  0  0  0  0
 36 41  1  0  0  0  0
 37 38  1  0  0  0  0
 37 40  1  0  0  0  0
 37 42  1  0  0  0  0
 38 39  2  0  0  0  0
 38 46  1  0  0  0  0
 40 43  1  0  0  0  0
 40 44  1  0  0  0  0
 40 45  1  0  0  0  0
 46 47  1  0  0  0  0
 46 48  1  0  0  0  0
 47 49  1  0  0  0  0
 47 50  1  0  0  0  0
 47 51  1  0  0  0  0
M  END
$$$$

  -OEChem-05262216503D

 51 50  0     1  0  0  0  0  0999 V2000
    1.9130   -5.9902    1.0752 C   0  0  0  0  0  0  0  0  0  0  0  0
    1.5648   -6.5223    0.0333 O   0  0  0  0  0  0  0  0  0  0  0  0
    2.9169   -6.6780    1.9814 C   0  0  0  0  0  0  0  0  0  0  0  0
    3.2336   -7.6279    1.5413 H   0  0  0  0  0  0  0  0  0  0  0  0
    3.7956   -6.0426    2.1172 H   0  0  0  0  0  0  0  0  0  0  0  0
    2.4641   -6.8748    2.9562 H   0  0  0  0  0  0  0  0  0  0  0  0
    1.4054   -4.7586    1.4297 N   0  0  0  0  0  0  0  0  0  0  0  0
    0.5768   -3.9196    0.5527 C   0  0  2  0  0  0  0  0  0  0  0  0
    0.8437   -2.4160    0.7869 C   0  0  0  0  0  0  0  0  0  0  0  0
    1.6388   -2.0792    1.6555 O   0  0  0  0  0  0  0  0  0  0  0  0
   -0.8961   -4.2549    0.8061 C   0  0  0  0  0  0  0  0  0  0  0  0
    1.8447   -4.2885    2.2207 H   0  0  0  0  0  0  0  0  0  0  0  0
    0.8141   -4.1316   -0.4962 H   0  0  0  0  0  0  0  0  0  0  0  0
   -1.1681   -4.0302    1.8423 H   0  0  0  0  0  0  0  0  0  0  0  0
   -1.5423   -3.6745    0.1403 H   0  0  0  0  0  0  0  0  0  0  0  0
   -1.0795   -5.3178    0.6191 H   0  0  0  0  0  0  0  0  0  0  0  0
    0.2861   -1.4940   -0.0842 N   0  0  0  0  0  0  0  0  0  0  0  0
    0.2756   -0.0040   -0.0831 C   0  0  2  0  0  0  0  0  0  0  0  0
    0.9623    0.4888   -1.3810 C   0  0  0  0  0  0  0  0  0  0  0  0
    0.5226    1.4725   -1.9643 O   0  0  0  0  0  0  0  0  0  0  0  0
    0.7499    0.7184    1.2180 C   0  0  2  0  0  0  0  0  0  0  0  0
   -0.2002    0.3719    2.3963 C   0  0  0  0  0  0  0  0  0  0  0  0
    0.7993    2.2488    1.0294 C   0  0  0  0  0  0  0  0  0  0  0  0
    0.3370    0.8158    3.7605 C   0  0  0  0  0  0  0  0  0  0  0  0
   -0.2130   -1.9237   -0.8715 H   0  0  0  0  0  0  0  0  0  0  0  0
   -0.7741    0.2845   -0.1977 H   0  0  0  0  0  0  0  0  0  0  0  0
    1.7653    0.3884    1.4570 H   0  0  0  0  0  0  0  0  0  0  0  0
   -1.1738    0.8427    2.2266 H   0  0  0  0  0  0  0  0  0  0  0  0
   -0.3754   -0.7043    2.4445 H   0  0  0  0  0  0  0  0  0  0  0  0
   -0.1801    2.6313    0.7251 H   0  0  0  0  0  0  0  0  0  0  0  0
    1.0976    2.7525    1.9516 H   0  0  0  0  0  0  0  0  0  0  0  0
    1.5340    2.5248    0.2675 H   0  0  0  0  0  0  0  0  0  0  0  0
    1.3439    0.4175    3.9201 H   0  0  0  0  0  0  0  0  0  0  0  0
   -0.3134    0.4377    4.5551 H   0  0  0  0  0  0  0  0  0  0  0  0
    0.3697    1.9052    3.8427 H   0  0  0  0  0  0  0  0  0  0  0  0
    1.7170   -0.4155   -2.1078 N   0  0  0  0  0  0  0  0  0  0  0  0
    1.4465   -0.6330   -3.5343 C   0  0  2  0  0  0  0  0  0  0  0  0
    0.1973   -1.5241   -3.7358 C   0  0  0  0  0  0  0  0  0  0  0  0
   -0.2027   -2.2486   -2.8247 O   0  0  0  0  0  0  0  0  0  0  0  0
    2.6827   -1.2939   -4.1471 C   0  0  0  0  0  0  0  0  0  0  0  0
    1.9066   -1.2608   -1.5742 H   0  0  0  0  0  0  0  0  0  0  0  0
    1.2772    0.3237   -4.0399 H   0  0  0  0  0  0  0  0  0  0  0  0
    2.8779   -2.2606   -3.6712 H   0  0  0  0  0  0  0  0  0  0  0  0
    2.5380   -1.4577   -5.2193 H   0  0  0  0  0  0  0  0  0  0  0  0
    3.5605   -0.6545   -4.0103 H   0  0  0  0  0  0  0  0  0  0  0  0
   -0.4870   -1.5117   -4.9363 N   0  0  0  0  0  0  0  0  0  0  0  0
   -1.7044   -2.2791   -5.1717 C   0  0  0  0  0  0  0  0  0  0  0  0
   -0.1809   -0.8489   -5.6431 H   0  0  0  0  0  0  0  0  0  0  0  0
   -1.5267   -3.3455   -4.9965 H   0  0  0  0  0  0  0  0  0  0  0  0
   -2.5052   -1.9407   -4.5059 H   0  0  0  0  0  0  0  0  0  0  0  0
   -2.0370   -2.1520   -6.2064 H   0  0  0  0  0  0  0  0  0  0  0  0
  1  2  2  0  0  0  0
  1  3  1  0  0  0  0
  1  7  1  0  0  0  0
  3  4  1  0  0  0  0
  3  5  1  0  0  0  0
  3  6  1  0  0  0  0
  7  8  1  0  0  0  0
  7 12  1  0  0  0  0
  8  9  1  0  0  0  0
  8 11  1  0  0  0  0
  8 13  1  0  0  0  0
  9 10  2  0  0  0  0
  9 17  1  0  0  0  0
 11 14  1  0  0  0  0
 11 15  1  0  0  0  0
 11 16  1  0  0  0  0
 17 18  1  0  0  0  0
 17 25  1  0  0  0  0
 18 19  1  0  0  0  0
 18 21  1  0  0  0  0
 18 26  1  0  0  0  0
 19 20  2  0  0  0  0
 19 36  1  0  0  0  0
 21 22  1  0  0  0  0
 21 23  1  0  0  0  0
 21 27  1  0  0  0  0
 22 24  1  0  0  0  0
 22 28  1  0  0  0  0
 22 29  1  0  0  0  0
 23 30  1  0  0  0  0
 23 31  1  0  0  0  0
 23 32  1  0  0  0  0
 24 33  1  0  0  0  0
 24 34  1  0  0  0  0
 24 35  1  0  0  0  0
 36 37  1  0  0  0  0
 36 41  1  0  0  0  0
 37 38  1  0  0  0  0
 37 40  1  0  0  0  0
 37 42  1  0  0  0  0
 38 39  2  0  0  0  0
 38 46  1  0  0  0  0
 40 43  1  0  0  0  0
 40 44  1  0  0  0  0
 40 45  1  0  0  0  0
 46 47  1  0  0  0  0
 46 48  1  0  0  0  0
 47 49  1  0  0  0  0
 47 50  1  0  0  0  0
 47 51  1  0  0  0  0
M  END
$$$$

  -OEChem-05262216503D

 51 50  0     1  0  0  0  0  0999 V2000
    1.7615   -6.0726    1.0123 C   0  0  0  0  0  0  0  0  0  0  0  0
    1.2412   -6.6061    0.0453 O   0  0  0  0  0  0  0  0  0  0  0  0
    2.8262   -6.8074    1.8049 C   0  0  0  0  0  0  0  0  0  0  0  0
    2.9683   -7.8143    1.4022 H   0  0  0  0  0  0  0  0  0  0  0  0
    3.7742   -6.2670    1.7471 H   0  0  0  0  0  0  0  0  0  0  0  0
    2.5236   -6.8867    2.8518 H   0  0  0  0  0  0  0  0  0  0  0  0
    1.3921   -4.7972    1.3821 N   0  0  0  0  0  0  0  0  0  0  0  0
    0.4954   -3.9335    0.6024 C   0  0  2  0  0  0  0  0  0  0  0  0
    0.8605   -2.4416    0.7610 C   0  0  0  0  0  0  0  0  0  0  0  0
    1.7189   -2.1192    1.5727 O   0  0  0  0  0  0  0  0  0  0  0  0
   -0.9447   -4.1853    1.0600 C   0  0  0  0  0  0  0  0  0  0  0  0
    1.9530   -4.3391    2.0999 H   0  0  0  0  0  0  0  0  0  0  0  0
    0.5795   -4.1783   -0.4624 H   0  0  0  0  0  0  0  0  0  0  0  0
   -1.0597   -3.9346    2.1194 H   0  0  0  0  0  0  0  0  0  0  0  0
   -1.6451   -3.5778    0.4783 H   0  0  0  0  0  0  0  0  0  0  0  0
   -1.2076   -5.2387    0.9201 H   0  0  0  0  0  0  0  0  0  0  0  0
    0.2922   -1.5209   -0.1047 N   0  0  0  0  0  0  0  0  0  0  0  0
    0.2890   -0.0296   -0.1106 C   0  0  2  0  0  0  0  0  0  0  0  0
    0.9560    0.4611   -1.4243 C   0  0  0  0  0  0  0  0  0  0  0  0
    0.6468    1.5507   -1.8908 O   0  0  0  0  0  0  0  0  0  0  0  0
    0.7925    0.6750    1.1938 C   0  0  2  0  0  0  0  0  0  0  0  0
   -0.1451    0.3227    2.3816 C   0  0  0  0  0  0  0  0  0  0  0  0
    0.8565    2.2088    1.0380 C   0  0  0  0  0  0  0  0  0  0  0  0
    0.4140    0.7434    3.7448 C   0  0  0  0  0  0  0  0  0  0  0  0
   -0.3108   -1.9463   -0.8180 H   0  0  0  0  0  0  0  0  0  0  0  0
   -0.7599    0.2679   -0.2077 H   0  0  0  0  0  0  0  0  0  0  0  0
    1.8084    0.3333    1.4129 H   0  0  0  0  0  0  0  0  0  0  0  0
   -1.1170    0.8036    2.2314 H   0  0  0  0  0  0  0  0  0  0  0  0
   -0.3278   -0.7527    2.4201 H   0  0  0  0  0  0  0  0  0  0  0  0
   -0.1165    2.6063    0.7325 H   0  0  0  0  0  0  0  0  0  0  0  0
    1.1504    2.6927    1.9717 H   0  0  0  0  0  0  0  0  0  0  0  0
    1.6030    2.4928    0.2910 H   0  0  0  0  0  0  0  0  0  0  0  0
    1.4245    0.3453    3.8803 H   0  0  0  0  0  0  0  0  0  0  0  0
   -0.2220    0.3485    4.5426 H   0  0  0  0  0  0  0  0  0  0  0  0
    0.4446    1.8309    3.8481 H   0  0  0  0  0  0  0  0  0  0  0  0
    1.4200   -0.4939   -2.3126 N   0  0  0  0  0  0  0  0  0  0  0  0
    0.8942   -0.5804   -3.6808 C   0  0  2  0  0  0  0  0  0  0  0  0
   -0.3883   -1.4444   -3.7232 C   0  0  0  0  0  0  0  0  0  0  0  0
   -0.6886   -2.1570   -2.7652 O   0  0  0  0  0  0  0  0  0  0  0  0
    1.9883   -1.1889   -4.5599 C   0  0  0  0  0  0  0  0  0  0  0  0
    1.5435   -1.3942   -1.8554 H   0  0  0  0  0  0  0  0  0  0  0  0
    0.6519    0.4149   -4.0684 H   0  0  0  0  0  0  0  0  0  0  0  0
    2.2469   -2.1941   -4.2115 H   0  0  0  0  0  0  0  0  0  0  0  0
    1.6528   -1.2567   -5.5992 H   0  0  0  0  0  0  0  0  0  0  0  0
    2.8881   -0.5662   -4.5272 H   0  0  0  0  0  0  0  0  0  0  0  0
   -1.2105   -1.4245   -4.8337 N   0  0  0  0  0  0  0  0  0  0  0  0
   -2.4399   -2.2017   -4.9373 C   0  0  0  0  0  0  0  0  0  0  0  0
   -0.9629   -0.7937   -5.5911 H   0  0  0  0  0  0  0  0  0  0  0  0
   -2.2298   -3.2701   -4.8199 H   0  0  0  0  0  0  0  0  0  0  0  0
   -3.1540   -1.8948   -4.1659 H   0  0  0  0  0  0  0  0  0  0  0  0
   -2.9023   -2.0484   -5.9171 H   0  0  0  0  0  0  0  0  0  0  0  0
  1  2  2  0  0  0  0
  1  3  1  0  0  0  0
  1  7  1  0  0  0  0
  3  4  1  0  0  0  0
  3  5  1  0  0  0  0
  3  6  1  0  0  0  0
  7  8  1  0  0  0  0
  7 12  1  0  0  0  0
  8  9  1  0  0  0  0
  8 11  1  0  0  0  0
  8 13  1  0  0  0  0
  9 10  2  0  0  0  0
  9 17  1  0  0  0  0
 11 14  1  0  0  0  0
 11 15  1  0  0  0  0
 11 16  1  0  0  0  0
 17 18  1  0  0  0  0
 17 25  1  0  0  0  0
 18 19  1  0  0  0  0
 18 21  1  0  0  0  0
 18 26  1  0  0  0  0
 19 20  2  0  0  0  0
 19 36  1  0  0  0  0
 21 22  1  0  0  0  0
 21 23  1  0  0  0  0
 21 27  1  0  0  0  0
 22 24  1  0  0  0  0
 22 28  1  0  0  0  0
 22 29  1  0  0  0  0
 23 30  1  0  0  0  0
 23 31  1  0  0  0  0
 23 32  1  0  0  0  0
 24 33  1  0  0  0  0
 24 34  1  0  0  0  0
 24 35  1  0  0  0  0
 36 37  1  0  0  0  0
 36 41  1  0  0  0  0
 37 38  1  0  0  0  0
 37 40  1  0  0  0  0
 37 42  1  0  0  0  0
 38 39  2  0  0  0  0
 38 46  1  0  0  0  0
 40 43  1  0  0  0  0
 40 44  1  0  0  0  0
 40 45  1  0  0  0  0
 46 47  1  0  0  0  0
 46 48  1  0  0  0  0
 47 49  1  0  0  0  0
 47 50  1  0  0  0  0
 47 51  1  0  0  0  0
M  END
$$$$

  -OEChem-05262216503D

 51 50  0     1  0  0  0  0  0999 V2000
    1.3356   -6.1879    1.3346 C   0  0  0  0  0  0  0  0  0  0  0  0
    0.3828   -6.7410    0.8086 O   0  0  0  0  0  0  0  0  0  0  0  0
    2.5671   -6.9880    1.7149 C   0  0  0  0  0  0  0  0  0  0  0  0
    2.3992   -8.0516    1.5239 H   0  0  0  0  0  0  0  0  0  0  0  0
    3.4249   -6.6542    1.1260 H   0  0  0  0  0  0  0  0  0  0  0  0
    2.7877   -6.8521    2.7763 H   0  0  0  0  0  0  0  0  0  0  0  0
    1.3002   -4.8301    1.5702 N   0  0  0  0  0  0  0  0  0  0  0  0
    0.2367   -3.9342    1.0988 C   0  0  2  0  0  0  0  0  0  0  0  0
    0.7573   -2.4977    0.8790 C   0  0  0  0  0  0  0  0  0  0  0  0
    1.8727   -2.2018    1.2863 O   0  0  0  0  0  0  0  0  0  0  0  0
   -0.8977   -3.9359    2.1290 C   0  0  0  0  0  0  0  0  0  0  0  0
    2.1587   -4.3870    1.8975 H   0  0  0  0  0  0  0  0  0  0  0  0
   -0.1458   -4.2971    0.1383 H   0  0  0  0  0  0  0  0  0  0  0  0
   -0.5371   -3.5692    3.0954 H   0  0  0  0  0  0  0  0  0  0  0  0
   -1.7205   -3.2956    1.7977 H   0  0  0  0  0  0  0  0  0  0  0  0
   -1.2862   -4.9505    2.2646 H   0  0  0  0  0  0  0  0  0  0  0  0
   -0.0158   -1.6048    0.1498 N   0  0  0  0  0  0  0  0  0  0  0  0
    0.0434   -0.1136    0.0747 C   0  0  2  0  0  0  0  0  0  0  0  0
    0.3335    0.2913   -1.4017 C   0  0  0  0  0  0  0  0  0  0  0  0
    0.3696    1.4578   -1.7691 O   0  0  0  0  0  0  0  0  0  0  0  0
    0.8941    0.5932    1.1934 C   0  0  2  0  0  0  0  0  0  0  0  0
    0.2532    0.3107    2.5827 C   0  0  0  0  0  0  0  0  0  0  0  0
    0.9916    2.1219    0.9997 C   0  0  0  0  0  0  0  0  0  0  0  0
    1.1358    0.7192    3.7675 C   0  0  0  0  0  0  0  0  0  0  0  0
   -0.8996   -2.0085   -0.1537 H   0  0  0  0  0  0  0  0  0  0  0  0
   -0.9786    0.2390    0.2435 H   0  0  0  0  0  0  0  0  0  0  0  0
    1.9178    0.2107    1.1698 H   0  0  0  0  0  0  0  0  0  0  0  0
   -0.7051    0.8354    2.6555 H   0  0  0  0  0  0  0  0  0  0  0  0
    0.0413   -0.7540    2.6933 H   0  0  0  0  0  0  0  0  0  0  0  0
   -0.0002    2.5562    0.8393 H   0  0  0  0  0  0  0  0  0  0  0  0
    1.4465    2.6117    1.8624 H   0  0  0  0  0  0  0  0  0  0  0  0
    1.6274    2.3613    0.1434 H   0  0  0  0  0  0  0  0  0  0  0  0
    2.1377    0.2918    3.6602 H   0  0  0  0  0  0  0  0  0  0  0  0
    0.6997    0.3455    4.6988 H   0  0  0  0  0  0  0  0  0  0  0  0
    1.2206    1.8052    3.8514 H   0  0  0  0  0  0  0  0  0  0  0  0
    0.1777   -0.6582   -2.3950 N   0  0  0  0  0  0  0  0  0  0  0  0
   -0.0906   -0.3914   -3.8126 C   0  0  2  0  0  0  0  0  0  0  0  0
   -1.1031   -1.4127   -4.3740 C   0  0  0  0  0  0  0  0  0  0  0  0
   -1.4551   -2.3687   -3.6881 O   0  0  0  0  0  0  0  0  0  0  0  0
    1.2389   -0.4541   -4.5692 C   0  0  0  0  0  0  0  0  0  0  0  0
    0.0104   -1.6104   -2.0774 H   0  0  0  0  0  0  0  0  0  0  0  0
   -0.5293    0.6044   -3.9358 H   0  0  0  0  0  0  0  0  0  0  0  0
    1.6897   -1.4469   -4.4710 H   0  0  0  0  0  0  0  0  0  0  0  0
    1.0891   -0.2416   -5.6318 H   0  0  0  0  0  0  0  0  0  0  0  0
    1.9366    0.2867   -4.1651 H   0  0  0  0  0  0  0  0  0  0  0  0
   -1.6410   -1.2503   -5.6371 N   0  0  0  0  0  0  0  0  0  0  0  0
   -2.6046   -2.1748   -6.2223 C   0  0  0  0  0  0  0  0  0  0  0  0
   -1.3375   -0.4464   -6.1791 H   0  0  0  0  0  0  0  0  0  0  0  0
   -2.1762   -3.1802   -6.2930 H   0  0  0  0  0  0  0  0  0  0  0  0
   -3.5125   -2.2208   -5.6115 H   0  0  0  0  0  0  0  0  0  0  0  0
   -2.8822   -1.8458   -7.2284 H   0  0  0  0  0  0  0  0  0  0  0  0
  1  2  2  0  0  0  0
  1  3  1  0  0  0  0
  1  7  1  0  0  0  0
  3  4  1  0  0  0  0
  3  5  1  0  0  0  0
  3  6  1  0  0  0  0
  7  8  1  0  0  0  0
  7 12  1  0  0  0  0
  8  9  1  0  0  0  0
  8 11  1  0  0  0  0
  8 13  1  0  0  0  0
  9 10  2  0  0  0  0
  9 17  1  0  0  0  0
 11 14  1  0  0  0  0
 11 15  1  0  0  0  0
 11 16  1  0  0  0  0
 17 18  1  0  0  0  0
 17 25  1  0  0  0  0
 18 19  1  0  0  0  0
 18 21  1  0  0  0  0
 18 26  1  0  0  0  0
 19 20  2  0  0  0  0
 19 36  1  0  0  0  0
 21 22  1  0  0  0  0
 21 23  1  0  0  0  0
 21 27  1  0  0  0  0
 22 24  1  0  0  0  0
 22 28  1  0  0  0  0
 22 29  1  0  0  0  0
 23 30  1  0  0  0  0
 23 31  1  0  0  0  0
 23 32  1  0  0  0  0
 24 33  1  0  0  0  0
 24 34  1  0  0  0  0
 24 35  1  0  0  0  0
 36 37  1  0  0  0  0
 36 41  1  0  0  0  0
 37 38  1  0  0  0  0
 37 40  1  0  0  0  0
 37 42  1  0  0  0  0
 38 39  2  0  0  0  0
 38 46  1  0  0  0  0
 40 43  1  0  0  0  0
 40 44  1  0  0  0  0
 40 45  1  0  0  0  0
 46 47  1  0  0  0  0
 46 48  1  0  0  0  0
 47 49  1  0  0  0  0
 47 50  1  0  0  0  0
 47 51  1  0  0  0  0
M  END
$$$$

  -OEChem-05262216503D

 51 50  0     1  0  0  0  0  0999 V2000
    1.2754   -6.1701    1.1652 C   0  0  0  0  0  0  0  0  0  0  0  0
    0.2611   -6.6879    0.7254 O   0  0  0  0  0  0  0  0  0  0  0  0
    2.5328   -6.9976    1.3530 C   0  0  0  0  0  0  0  0  0  0  0  0
    2.3279   -8.0491    1.1334 H   0  0  0  0  0  0  0  0  0  0  0  0
    3.3163   -6.6426    0.6791 H   0  0  0  0  0  0  0  0  0  0  0  0
    2.8842   -6.9155    2.3844 H   0  0  0  0  0  0  0  0  0  0  0  0
    1.2841   -4.8267    1.4748 N   0  0  0  0  0  0  0  0  0  0  0  0
    0.1839   -3.9009    1.1778 C   0  0  2  0  0  0  0  0  0  0  0  0
    0.6965   -2.4691    0.9115 C   0  0  0  0  0  0  0  0  0  0  0  0
    1.8411   -2.1808    1.2337 O   0  0  0  0  0  0  0  0  0  0  0  0
   -0.7889   -3.9066    2.3614 C   0  0  0  0  0  0  0  0  0  0  0  0
    2.1804   -4.4069    1.7211 H   0  0  0  0  0  0  0  0  0  0  0  0
   -0.3406   -4.2348    0.2757 H   0  0  0  0  0  0  0  0  0  0  0  0
   -0.2832   -3.5753    3.2743 H   0  0  0  0  0  0  0  0  0  0  0  0
   -1.6345   -3.2395    2.1695 H   0  0  0  0  0  0  0  0  0  0  0  0
   -1.1786   -4.9161    2.5266 H   0  0  0  0  0  0  0  0  0  0  0  0
   -0.1230   -1.5752    0.2354 N   0  0  0  0  0  0  0  0  0  0  0  0
   -0.0409   -0.0872    0.1354 C   0  0  2  0  0  0  0  0  0  0  0  0
    0.1309    0.2706   -1.3733 C   0  0  0  0  0  0  0  0  0  0  0  0
    0.5755    1.3326   -1.7841 O   0  0  0  0  0  0  0  0  0  0  0  0
    0.8854    0.6262    1.1889 C   0  0  2  0  0  0  0  0  0  0  0  0
    0.3151    0.3703    2.6142 C   0  0  0  0  0  0  0  0  0  0  0  0
    0.9679    2.1553    0.9765 C   0  0  0  0  0  0  0  0  0  0  0  0
    1.2635    0.7803    3.7470 C   0  0  0  0  0  0  0  0  0  0  0  0
   -1.0370   -1.9680    0.0262 H   0  0  0  0  0  0  0  0  0  0  0  0
   -1.0426    0.2860    0.3692 H   0  0  0  0  0  0  0  0  0  0  0  0
    1.9045    0.2370    1.1133 H   0  0  0  0  0  0  0  0  0  0  0  0
   -0.6322    0.9065    2.7316 H   0  0  0  0  0  0  0  0  0  0  0  0
    0.0983   -0.6910    2.7480 H   0  0  0  0  0  0  0  0  0  0  0  0
   -0.0261    2.5756    0.7948 H   0  0  0  0  0  0  0  0  0  0  0  0
    1.4023    2.6645    1.8378 H   0  0  0  0  0  0  0  0  0  0  0  0
    1.6156    2.3937    0.1294 H   0  0  0  0  0  0  0  0  0  0  0  0
    2.2585    0.3552    3.5817 H   0  0  0  0  0  0  0  0  0  0  0  0
    0.8821    0.4047    4.7012 H   0  0  0  0  0  0  0  0  0  0  0  0
    1.3516    1.8663    3.8290 H   0  0  0  0  0  0  0  0  0  0  0  0
   -0.4197   -0.5692   -2.3246 N   0  0  0  0  0  0  0  0  0  0  0  0
   -0.5529   -0.2858   -3.7575 C   0  0  2  0  0  0  0  0  0  0  0  0
   -1.7484   -1.0598   -4.3517 C   0  0  0  0  0  0  0  0  0  0  0  0
   -2.3246   -1.9094   -3.6778 O   0  0  0  0  0  0  0  0  0  0  0  0
    0.7530   -0.6786   -4.4564 C   0  0  0  0  0  0  0  0  0  0  0  0
   -0.8588   -1.4239   -1.9925 H   0  0  0  0  0  0  0  0  0  0  0  0
   -0.7400    0.7825   -3.9094 H   0  0  0  0  0  0  0  0  0  0  0  0
    0.9530   -1.7463   -4.3208 H   0  0  0  0  0  0  0  0  0  0  0  0
    0.6962   -0.4674   -5.5283 H   0  0  0  0  0  0  0  0  0  0  0  0
    1.5920   -0.1123   -4.0392 H   0  0  0  0  0  0  0  0  0  0  0  0
   -2.1923   -0.7968   -5.6341 N   0  0  0  0  0  0  0  0  0  0  0  0
   -3.3198   -1.4884   -6.2471 C   0  0  0  0  0  0  0  0  0  0  0  0
   -1.7027   -0.0830   -6.1661 H   0  0  0  0  0  0  0  0  0  0  0  0
   -3.1343   -2.5672   -6.2835 H   0  0  0  0  0  0  0  0  0  0  0  0
   -4.2366   -1.3075   -5.6760 H   0  0  0  0  0  0  0  0  0  0  0  0
   -3.4729   -1.1303   -7.2697 H   0  0  0  0  0  0  0  0  0  0  0  0
  1  2  2  0  0  0  0
  1  3  1  0  0  0  0
  1  7  1  0  0  0  0
  3  4  1  0  0  0  0
  3  5  1  0  0  0  0
  3  6  1  0  0  0  0
  7  8  1  0  0  0  0
  7 12  1  0  0  0  0
  8  9  1  0  0  0  0
  8 11  1  0  0  0  0
  8 13  1  0  0  0  0
  9 10  2  0  0  0  0
  9 17  1  0  0  0  0
 11 14  1  0  0  0  0
 11 15  1  0  0  0  0
 11 16  1  0  0  0  0
 17 18  1  0  0  0  0
 17 25  1  0  0  0  0
 18 19  1  0  0  0  0
 18 21  1  0  0  0  0
 18 26  1  0  0  0  0
 19 20  2  0  0  0  0
 19 36  1  0  0  0  0
 21 22  1  0  0  0  0
 21 23  1  0  0  0  0
 21 27  1  0  0  0  0
 22 24  1  0  0  0  0
 22 28  1  0  0  0  0
 22 29  1  0  0  0  0
 23 30  1  0  0  0  0
 23 31  1  0  0  0  0
 23 32  1  0  0  0  0
 24 33  1  0  0  0  0
 24 34  1  0  0  0  0
 24 35  1  0  0  0  0
 36 37  1  0  0  0  0
 36 41  1  0  0  0  0
 37 38  1  0  0  0  0
 37 40  1  0  0  0  0
 37 42  1  0  0  0  0
 38 39  2  0  0  0  0
 38 46  1  0  0  0  0
 40 43  1  0  0  0  0
 40 44  1  0  0  0  0
 40 45  1  0  0  0  0
 46 47  1  0  0  0  0
 46 48  1  0  0  0  0
 47 49  1  0  0  0  0
 47 50  1  0  0  0  0
 47 51  1  0  0  0  0
M  END
$$$$

  -OEChem-05262216503D

 51 50  0     1  0  0  0  0  0999 V2000
    1.3508   -6.1073    0.9174 C   0  0  0  0  0  0  0  0  0  0  0  0
    0.3957   -6.6112    0.3472 O   0  0  0  0  0  0  0  0  0  0  0  0
    2.6411   -6.8887    1.0786 C   0  0  0  0  0  0  0  0  0  0  0  0
    2.5324   -7.8892    0.6502 H   0  0  0  0  0  0  0  0  0  0  0  0
    3.4564   -6.3725    0.5655 H   0  0  0  0  0  0  0  0  0  0  0  0
    2.8892   -6.9844    2.1385 H   0  0  0  0  0  0  0  0  0  0  0  0
    1.2629   -4.8205    1.4044 N   0  0  0  0  0  0  0  0  0  0  0  0
    0.1384   -3.9128    1.1439 C   0  0  2  0  0  0  0  0  0  0  0  0
    0.6070   -2.4480    1.0116 C   0  0  0  0  0  0  0  0  0  0  0  0
    1.7169   -2.1457    1.4293 O   0  0  0  0  0  0  0  0  0  0  0  0
   -0.8712   -4.0527    2.2872 C   0  0  0  0  0  0  0  0  0  0  0  0
    2.1223   -4.3916    1.7478 H   0  0  0  0  0  0  0  0  0  0  0  0
   -0.3453   -4.1881    0.2005 H   0  0  0  0  0  0  0  0  0  0  0  0
   -0.4103   -3.7759    3.2410 H   0  0  0  0  0  0  0  0  0  0  0  0
   -1.7379   -3.4065    2.1186 H   0  0  0  0  0  0  0  0  0  0  0  0
   -1.2218   -5.0876    2.3572 H   0  0  0  0  0  0  0  0  0  0  0  0
   -0.2132   -1.5418    0.3533 N   0  0  0  0  0  0  0  0  0  0  0  0
   -0.1024   -0.0608    0.2207 C   0  0  2  0  0  0  0  0  0  0  0  0
    0.0140    0.2421   -1.3016 C   0  0  0  0  0  0  0  0  0  0  0  0
    0.8841    0.9434   -1.7978 O   0  0  0  0  0  0  0  0  0  0  0  0
    0.8811    0.6807    1.1928 C   0  0  2  0  0  0  0  0  0  0  0  0
    0.3915    0.4851    2.6565 C   0  0  0  0  0  0  0  0  0  0  0  0
    0.9249    2.2046    0.9206 C   0  0  0  0  0  0  0  0  0  0  0  0
    1.4094    0.9318    3.7124 C   0  0  0  0  0  0  0  0  0  0  0  0
   -1.0791   -1.9545    0.0205 H   0  0  0  0  0  0  0  0  0  0  0  0
   -1.0846    0.3366    0.4926 H   0  0  0  0  0  0  0  0  0  0  0  0
    1.8943    0.2866    1.0699 H   0  0  0  0  0  0  0  0  0  0  0  0
   -0.5440    1.0331    2.8083 H   0  0  0  0  0  0  0  0  0  0  0  0
    0.1746   -0.5680    2.8436 H   0  0  0  0  0  0  0  0  0  0  0  0
   -0.0877    2.6128    0.8457 H   0  0  0  0  0  0  0  0  0  0  0  0
    1.4523    2.7397    1.7122 H   0  0  0  0  0  0  0  0  0  0  0  0
    1.4637    2.4311   -0.0011 H   0  0  0  0  0  0  0  0  0  0  0  0
    2.3882    0.4868    3.5072 H   0  0  0  0  0  0  0  0  0  0  0  0
    1.0821    0.6021    4.7030 H   0  0  0  0  0  0  0  0  0  0  0  0
    1.5137    2.0192    3.7402 H   0  0  0  0  0  0  0  0  0  0  0  0
   -0.8385   -0.4064   -2.1788 N   0  0  0  0  0  0  0  0  0  0  0  0
   -0.8644   -0.2140   -3.6339 C   0  0  2  0  0  0  0  0  0  0  0  0
   -2.2763   -0.4826   -4.1944 C   0  0  0  0  0  0  0  0  0  0  0  0
   -3.1336   -0.9867   -3.4745 O   0  0  0  0  0  0  0  0  0  0  0  0
    0.1608   -1.1575   -4.2717 C   0  0  0  0  0  0  0  0  0  0  0  0
   -1.6348   -0.9002   -1.7824 H   0  0  0  0  0  0  0  0  0  0  0  0
   -0.6034    0.8218   -3.8758 H   0  0  0  0  0  0  0  0  0  0  0  0
   -0.0911   -2.2004   -4.0546 H   0  0  0  0  0  0  0  0  0  0  0  0
    0.1847   -1.0225   -5.3570 H   0  0  0  0  0  0  0  0  0  0  0  0
    1.1618   -0.9526   -3.8783 H   0  0  0  0  0  0  0  0  0  0  0  0
   -2.5951   -0.1391   -5.4947 N   0  0  0  0  0  0  0  0  0  0  0  0
   -3.9178   -0.3382   -6.0740 C   0  0  0  0  0  0  0  0  0  0  0  0
   -1.8694    0.2934   -6.0592 H   0  0  0  0  0  0  0  0  0  0  0  0
   -4.1981   -1.3961   -6.0364 H   0  0  0  0  0  0  0  0  0  0  0  0
   -4.6668    0.2448   -5.5278 H   0  0  0  0  0  0  0  0  0  0  0  0
   -3.9248   -0.0166   -7.1198 H   0  0  0  0  0  0  0  0  0  0  0  0
  1  2  2  0  0  0  0
  1  3  1  0  0  0  0
  1  7  1  0  0  0  0
  3  4  1  0  0  0  0
  3  5  1  0  0  0  0
  3  6  1  0  0  0  0
  7  8  1  0  0  0  0
  7 12  1  0  0  0  0
  8  9  1  0  0  0  0
  8 11  1  0  0  0  0
  8 13  1  0  0  0  0
  9 10  2  0  0  0  0
  9 17  1  0  0  0  0
 11 14  1  0  0  0  0
 11 15  1  0  0  0  0
 11 16  1  0  0  0  0
 17 18  1  0  0  0  0
 17 25  1  0  0  0  0
 18 19  1  0  0  0  0
 18 21  1  0  0  0  0
 18 26  1  0  0  0  0
 19 20  2  0  0  0  0
 19 36  1  0  0  0  0
 21 22  1  0  0  0  0
 21 23  1  0  0  0  0
 21 27  1  0  0  0  0
 22 24  1  0  0  0  0
 22 28  1  0  0  0  0
 22 29  1  0  0  0  0
 23 30  1  0  0  0  0
 23 31  1  0  0  0  0
 23 32  1  0  0  0  0
 24 33  1  0  0  0  0
 24 34  1  0  0  0  0
 24 35  1  0  0  0  0
 36 37  1  0  0  0  0
 36 41  1  0  0  0  0
 37 38  1  0  0  0  0
 37 40  1  0  0  0  0
 37 42  1  0  0  0  0
 38 39  2  0  0  0  0
 38 46  1  0  0  0  0
 40 43  1  0  0  0  0
 40 44  1  0  0  0  0
 40 45  1  0  0  0  0
 46 47  1  0  0  0  0
 46 48  1  0  0  0  0
 47 49  1  0  0  0  0
 47 50  1  0  0  0  0
 47 51  1  0  0  0  0
M  END
$$$$

  -OEChem-05262216503D

 51 50  0     1  0  0  0  0  0999 V2000
    1.3358   -6.0764    0.7882 C   0  0  0  0  0  0  0  0  0  0  0  0
    0.3979   -6.5636    0.1761 O   0  0  0  0  0  0  0  0  0  0  0  0
    2.6344   -6.8473    0.9325 C   0  0  0  0  0  0  0  0  0  0  0  0
    2.5321   -7.8446    0.4954 H   0  0  0  0  0  0  0  0  0  0  0  0
    3.4404   -6.3182    0.4183 H   0  0  0  0  0  0  0  0  0  0  0  0
    2.8922   -6.9509    1.9893 H   0  0  0  0  0  0  0  0  0  0  0  0
    1.2218   -4.8163    1.3357 N   0  0  0  0  0  0  0  0  0  0  0  0
    0.0928   -3.9099    1.0922 C   0  0  2  0  0  0  0  0  0  0  0  0
    0.5436   -2.4343    1.0515 C   0  0  0  0  0  0  0  0  0  0  0  0
    1.6332   -2.1390    1.5249 O   0  0  0  0  0  0  0  0  0  0  0  0
   -0.9466   -4.1237    2.1963 C   0  0  0  0  0  0  0  0  0  0  0  0
    2.0679   -4.3946    1.7189 H   0  0  0  0  0  0  0  0  0  0  0  0
   -0.3595   -4.1398    0.1213 H   0  0  0  0  0  0  0  0  0  0  0  0
   -0.5171   -3.8909    3.1762 H   0  0  0  0  0  0  0  0  0  0  0  0
   -1.8176   -3.4813    2.0355 H   0  0  0  0  0  0  0  0  0  0  0  0
   -1.2833   -5.1654    2.2019 H   0  0  0  0  0  0  0  0  0  0  0  0
   -0.2687   -1.5113    0.4073 N   0  0  0  0  0  0  0  0  0  0  0  0
   -0.1401   -0.0345    0.2790 C   0  0  2  0  0  0  0  0  0  0  0  0
   -0.0385    0.2624   -1.2392 C   0  0  0  0  0  0  0  0  0  0  0  0
    0.9867    0.6584   -1.7772 O   0  0  0  0  0  0  0  0  0  0  0  0
    0.8761    0.7064    1.2092 C   0  0  2  0  0  0  0  0  0  0  0  0
    0.4485    0.5330    2.6937 C   0  0  0  0  0  0  0  0  0  0  0  0
    0.9169    2.2231    0.9056 C   0  0  0  0  0  0  0  0  0  0  0  0
    1.5176    0.9896    3.6920 C   0  0  0  0  0  0  0  0  0  0  0  0
   -1.0889   -1.9252   -0.0260 H   0  0  0  0  0  0  0  0  0  0  0  0
   -1.1096    0.3768    0.5739 H   0  0  0  0  0  0  0  0  0  0  0  0
    1.8793    0.2985    1.0494 H   0  0  0  0  0  0  0  0  0  0  0  0
   -0.4737    1.0934    2.8785 H   0  0  0  0  0  0  0  0  0  0  0  0
    0.2278   -0.5145    2.9059 H   0  0  0  0  0  0  0  0  0  0  0  0
   -0.0803    2.6633    1.0047 H   0  0  0  0  0  0  0  0  0  0  0  0
    1.5938    2.7420    1.5880 H   0  0  0  0  0  0  0  0  0  0  0  0
    1.2844    2.4242   -0.1026 H   0  0  0  0  0  0  0  0  0  0  0  0
    2.4770    0.5131    3.4661 H   0  0  0  0  0  0  0  0  0  0  0  0
    1.2216    0.7050    4.7062 H   0  0  0  0  0  0  0  0  0  0  0  0
    1.6483    2.0745    3.6724 H   0  0  0  0  0  0  0  0  0  0  0  0
   -1.0871   -0.1170   -2.0582 N   0  0  0  0  0  0  0  0  0  0  0  0
   -1.1182    0.0476   -3.5166 C   0  0  2  0  0  0  0  0  0  0  0  0
   -2.5710    0.1699   -4.0216 C   0  0  0  0  0  0  0  0  0  0  0  0
   -3.5031   -0.0874   -3.2654 O   0  0  0  0  0  0  0  0  0  0  0  0
   -0.4218   -1.1568   -4.1604 C   0  0  0  0  0  0  0  0  0  0  0  0
   -1.9765   -0.3415   -1.6146 H   0  0  0  0  0  0  0  0  0  0  0  0
   -0.5903    0.9656   -3.7974 H   0  0  0  0  0  0  0  0  0  0  0  0
   -0.9400   -2.0849   -3.8988 H   0  0  0  0  0  0  0  0  0  0  0  0
   -0.4110   -1.0581   -5.2497 H   0  0  0  0  0  0  0  0  0  0  0  0
    0.6138   -1.2277   -3.8128 H   0  0  0  0  0  0  0  0  0  0  0  0
   -2.8382    0.5833   -5.3133 N   0  0  0  0  0  0  0  0  0  0  0  0
   -4.1887    0.7286   -5.8428 C   0  0  0  0  0  0  0  0  0  0  0  0
   -2.0472    0.8050   -5.9115 H   0  0  0  0  0  0  0  0  0  0  0  0
   -4.7258   -0.2243   -5.7891 H   0  0  0  0  0  0  0  0  0  0  0  0
   -4.7452    1.4795   -5.2723 H   0  0  0  0  0  0  0  0  0  0  0  0
   -4.1531    1.0463   -6.8893 H   0  0  0  0  0  0  0  0  0  0  0  0
  1  2  2  0  0  0  0
  1  3  1  0  0  0  0
  1  7  1  0  0  0  0
  3  4  1  0  0  0  0
  3  5  1  0  0  0  0
  3  6  1  0  0  0  0
  7  8  1  0  0  0  0
  7 12  1  0  0  0  0
  8  9  1  0  0  0  0
  8 11  1  0  0  0  0
  8 13  1  0  0  0  0
  9 10  2  0  0  0  0
  9 17  1  0  0  0  0
 11 14  1  0  0  0  0
 11 15  1  0  0  0  0
 11 16  1  0  0  0  0
 17 18  1  0  0  0  0
 17 25  1  0  0  0  0
 18 19  1  0  0  0  0
 18 21  1  0  0  0  0
 18 26  1  0  0  0  0
 19 20  2  0  0  0  0
 19 36  1  0  0  0  0
 21 22  1  0  0  0  0
 21 23  1  0  0  0  0
 21 27  1  0  0  0  0
 22 24  1  0  0  0  0
 22 28  1  0  0  0  0
 22 29  1  0  0  0  0
 23 30  1  0  0  0  0
 23 31  1  0  0  0  0
 23 32  1  0  0  0  0
 24 33  1  0  0  0  0
 24 34  1  0  0  0  0
 24 35  1  0  0  0  0
 36 37  1  0  0  0  0
 36 41  1  0  0  0  0
 37 38  1  0  0  0  0
 37 40  1  0  0  0  0
 37 42  1  0  0  0  0
 38 39  2  0  0  0  0
 38 46  1  0  0  0  0
 40 43  1  0  0  0  0
 40 44  1  0  0  0  0
 40 45  1  0  0  0  0
 46 47  1  0  0  0  0
 46 48  1  0  0  0  0
 47 49  1  0  0  0  0
 47 50  1  0  0  0  0
 47 51  1  0  0  0  0
M  END
$$$$

  -OEChem-05262216503D

 51 50  0     1  0  0  0  0  0999 V2000
    1.3387   -6.0971    0.8050 C   0  0  0  0  0  0  0  0  0  0  0  0
    0.4052   -6.5926    0.1929 O   0  0  0  0  0  0  0  0  0  0  0  0
    2.6388   -6.8632    0.9622 C   0  0  0  0  0  0  0  0  0  0  0  0
    2.5501   -7.8525    0.5046 H   0  0  0  0  0  0  0  0  0  0  0  0
    3.4530   -6.3211    0.4747 H   0  0  0  0  0  0  0  0  0  0  0  0
    2.8746   -6.9857    2.0223 H   0  0  0  0  0  0  0  0  0  0  0  0
    1.2156   -4.8349    1.3454 N   0  0  0  0  0  0  0  0  0  0  0  0
    0.0797   -3.9380    1.0994 C   0  0  2  0  0  0  0  0  0  0  0  0
    0.5183   -2.4585    1.0667 C   0  0  0  0  0  0  0  0  0  0  0  0
    1.6038   -2.1566    1.5457 O   0  0  0  0  0  0  0  0  0  0  0  0
   -0.9633   -4.1638    2.1978 C   0  0  0  0  0  0  0  0  0  0  0  0
    2.0573   -4.4058    1.7298 H   0  0  0  0  0  0  0  0  0  0  0  0
   -0.3659   -4.1682    0.1255 H   0  0  0  0  0  0  0  0  0  0  0  0
   -0.5385   -3.9351    3.1805 H   0  0  0  0  0  0  0  0  0  0  0  0
   -1.8366   -3.5246    2.0376 H   0  0  0  0  0  0  0  0  0  0  0  0
   -1.2954   -5.2069    2.1960 H   0  0  0  0  0  0  0  0  0  0  0  0
   -0.3011   -1.5400    0.4253 N   0  0  0  0  0  0  0  0  0  0  0  0
   -0.1800   -0.0647    0.2938 C   0  0  2  0  0  0  0  0  0  0  0  0
   -0.0869    0.2436   -1.2200 C   0  0  0  0  0  0  0  0  0  0  0  0
    0.9816    0.4335   -1.7861 O   0  0  0  0  0  0  0  0  0  0  0  0
    0.8483    0.6882    1.1970 C   0  0  2  0  0  0  0  0  0  0  0  0
    0.4640    0.5291    2.6941 C   0  0  0  0  0  0  0  0  0  0  0  0
    0.8816    2.1967    0.8598 C   0  0  0  0  0  0  0  0  0  0  0  0
    1.5601    1.0054    3.6528 C   0  0  0  0  0  0  0  0  0  0  0  0
   -1.1165   -1.9582   -0.0133 H   0  0  0  0  0  0  0  0  0  0  0  0
   -1.1465    0.3408    0.6067 H   0  0  0  0  0  0  0  0  0  0  0  0
    1.8484    0.2791    1.0188 H   0  0  0  0  0  0  0  0  0  0  0  0
   -0.4552    1.0873    2.8985 H   0  0  0  0  0  0  0  0  0  0  0  0
    0.2545   -0.5166    2.9261 H   0  0  0  0  0  0  0  0  0  0  0  0
   -0.1058    2.6464    1.0026 H   0  0  0  0  0  0  0  0  0  0  0  0
    1.5978    2.7237    1.4944 H   0  0  0  0  0  0  0  0  0  0  0  0
    1.1944    2.3702   -0.1726 H   0  0  0  0  0  0  0  0  0  0  0  0
    2.5109    0.5184    3.4146 H   0  0  0  0  0  0  0  0  0  0  0  0
    1.2896    0.7485    4.6812 H   0  0  0  0  0  0  0  0  0  0  0  0
    1.6947    2.0889    3.6009 H   0  0  0  0  0  0  0  0  0  0  0  0
   -1.2297    0.1638   -1.9948 N   0  0  0  0  0  0  0  0  0  0  0  0
   -1.2830    0.4318   -3.4377 C   0  0  2  0  0  0  0  0  0  0  0  0
   -2.6911    0.8998   -3.8615 C   0  0  0  0  0  0  0  0  0  0  0  0
   -3.6263    0.8147   -3.0714 O   0  0  0  0  0  0  0  0  0  0  0  0
   -0.8902   -0.8443   -4.1911 C   0  0  0  0  0  0  0  0  0  0  0  0
   -2.1270    0.1125   -1.5137 H   0  0  0  0  0  0  0  0  0  0  0  0
   -0.5790    1.2323   -3.6898 H   0  0  0  0  0  0  0  0  0  0  0  0
   -1.5890   -1.6553   -3.9625 H   0  0  0  0  0  0  0  0  0  0  0  0
   -0.8977   -0.6711   -5.2713 H   0  0  0  0  0  0  0  0  0  0  0  0
    0.1171   -1.1617   -3.9034 H   0  0  0  0  0  0  0  0  0  0  0  0
   -2.9104    1.4309   -5.1190 N   0  0  0  0  0  0  0  0  0  0  0  0
   -4.2140    1.9017   -5.5720 C   0  0  0  0  0  0  0  0  0  0  0  0
   -2.1145    1.5027   -5.7467 H   0  0  0  0  0  0  0  0  0  0  0  0
   -4.9472    1.0888   -5.5410 H   0  0  0  0  0  0  0  0  0  0  0  0
   -4.5679    2.7201   -4.9361 H   0  0  0  0  0  0  0  0  0  0  0  0
   -4.1480    2.2674   -6.6013 H   0  0  0  0  0  0  0  0  0  0  0  0
  1  2  2  0  0  0  0
  1  3  1  0  0  0  0
  1  7  1  0  0  0  0
  3  4  1  0  0  0  0
  3  5  1  0  0  0  0
  3  6  1  0  0  0  0
  7  8  1  0  0  0  0
  7 12  1  0  0  0  0
  8  9  1  0  0  0  0
  8 11  1  0  0  0  0
  8 13  1  0  0  0  0
  9 10  2  0  0  0  0
  9 17  1  0  0  0  0
 11 14  1  0  0  0  0
 11 15  1  0  0  0  0
 11 16  1  0  0  0  0
 17 18  1  0  0  0  0
 17 25  1  0  0  0  0
 18 19  1  0  0  0  0
 18 21  1  0  0  0  0
 18 26  1  0  0  0  0
 19 20  2  0  0  0  0
 19 36  1  0  0  0  0
 21 22  1  0  0  0  0
 21 23  1  0  0  0  0
 21 27  1  0  0  0  0
 22 24  1  0  0  0  0
 22 28  1  0  0  0  0
 22 29  1  0  0  0  0
 23 30  1  0  0  0  0
 23 31  1  0  0  0  0
 23 32  1  0  0  0  0
 24 33  1  0  0  0  0
 24 34  1  0  0  0  0
 24 35  1  0  0  0  0
 36 37  1  0  0  0  0
 36 41  1  0  0  0  0
 37 38  1  0  0  0  0
 37 40  1  0  0  0  0
 37 42  1  0  0  0  0
 38 39  2  0  0  0  0
 38 46  1  0  0  0  0
 40 43  1  0  0  0  0
 40 44  1  0  0  0  0
 40 45  1  0  0  0  0
 46 47  1  0  0  0  0
 46 48  1  0  0  0  0
 47 49  1  0  0  0  0
 47 50  1  0  0  0  0
 47 51  1  0  0  0  0
M  END
$$$$

  -OEChem-05262216503D

 51 50  0     1  0  0  0  0  0999 V2000
    1.3713   -6.1383    0.8625 C   0  0  0  0  0  0  0  0  0  0  0  0
    0.4381   -6.6558    0.2683 O   0  0  0  0  0  0  0  0  0  0  0  0
    2.6694   -6.9009    1.0514 C   0  0  0  0  0  0  0  0  0  0  0  0
    2.5870   -7.8999    0.6141 H   0  0  0  0  0  0  0  0  0  0  0  0
    3.4892   -6.3692    0.5624 H   0  0  0  0  0  0  0  0  0  0  0  0
    2.8929   -7.0005    2.1163 H   0  0  0  0  0  0  0  0  0  0  0  0
    1.2483   -4.8563    1.3548 N   0  0  0  0  0  0  0  0  0  0  0  0
    0.1056   -3.9733    1.0877 C   0  0  2  0  0  0  0  0  0  0  0  0
    0.5222   -2.4871    1.0503 C   0  0  0  0  0  0  0  0  0  0  0  0
    1.6006   -2.1674    1.5336 O   0  0  0  0  0  0  0  0  0  0  0  0
   -0.9497   -4.2022    2.1736 C   0  0  0  0  0  0  0  0  0  0  0  0
    2.0871   -4.4150    1.7319 H   0  0  0  0  0  0  0  0  0  0  0  0
   -0.3227   -4.2170    0.1093 H   0  0  0  0  0  0  0  0  0  0  0  0
   -0.5390   -3.9650    3.1603 H   0  0  0  0  0  0  0  0  0  0  0  0
   -1.8253   -3.5702    1.9989 H   0  0  0  0  0  0  0  0  0  0  0  0
   -1.2737   -5.2477    2.1727 H   0  0  0  0  0  0  0  0  0  0  0  0
   -0.3148   -1.5811    0.4128 N   0  0  0  0  0  0  0  0  0  0  0  0
   -0.2163   -0.1048    0.2787 C   0  0  2  0  0  0  0  0  0  0  0  0
   -0.1362    0.2284   -1.2288 C   0  0  0  0  0  0  0  0  0  0  0  0
    0.9271    0.2253   -1.8346 O   0  0  0  0  0  0  0  0  0  0  0  0
    0.8067    0.6680    1.1681 C   0  0  2  0  0  0  0  0  0  0  0  0
    0.4427    0.5121    2.6695 C   0  0  0  0  0  0  0  0  0  0  0  0
    0.8241    2.1702    0.8081 C   0  0  0  0  0  0  0  0  0  0  0  0
    1.5430    1.0124    3.6109 C   0  0  0  0  0  0  0  0  0  0  0  0
   -1.1176   -2.0129   -0.0356 H   0  0  0  0  0  0  0  0  0  0  0  0
   -1.1863    0.2814    0.6051 H   0  0  0  0  0  0  0  0  0  0  0  0
    1.8093    0.2676    0.9847 H   0  0  0  0  0  0  0  0  0  0  0  0
   -0.4817    1.0597    2.8791 H   0  0  0  0  0  0  0  0  0  0  0  0
    0.2494   -0.5347    2.9108 H   0  0  0  0  0  0  0  0  0  0  0  0
   -0.1678    2.6115    0.9463 H   0  0  0  0  0  0  0  0  0  0  0  0
    1.5363    2.7149    1.4323 H   0  0  0  0  0  0  0  0  0  0  0  0
    1.1332    2.3260   -0.2292 H   0  0  0  0  0  0  0  0  0  0  0  0
    2.4951    0.5277    3.3728 H   0  0  0  0  0  0  0  0  0  0  0  0
    1.2827    0.7723    4.6461 H   0  0  0  0  0  0  0  0  0  0  0  0
    1.6699    2.0955    3.5384 H   0  0  0  0  0  0  0  0  0  0  0  0
   -1.2994    0.4518   -1.9413 N   0  0  0  0  0  0  0  0  0  0  0  0
   -1.3487    0.8335   -3.3580 C   0  0  2  0  0  0  0  0  0  0  0  0
   -2.6161    1.6586   -3.6644 C   0  0  0  0  0  0  0  0  0  0  0  0
   -3.5088    1.7412   -2.8264 O   0  0  0  0  0  0  0  0  0  0  0  0
   -1.3136   -0.4410   -4.2081 C   0  0  0  0  0  0  0  0  0  0  0  0
   -2.1635    0.5716   -1.4136 H   0  0  0  0  0  0  0  0  0  0  0  0
   -0.4821    1.4571   -3.6035 H   0  0  0  0  0  0  0  0  0  0  0  0
   -2.1768   -1.0752   -3.9825 H   0  0  0  0  0  0  0  0  0  0  0  0
   -1.3304   -0.1944   -5.2739 H   0  0  0  0  0  0  0  0  0  0  0  0
   -0.4007   -1.0094   -4.0028 H   0  0  0  0  0  0  0  0  0  0  0  0
   -2.7538    2.3208   -4.8702 N   0  0  0  0  0  0  0  0  0  0  0  0
   -3.9255    3.1167   -5.2164 C   0  0  0  0  0  0  0  0  0  0  0  0
   -1.9956    2.2417   -5.5421 H   0  0  0  0  0  0  0  0  0  0  0  0
   -4.8256    2.4928   -5.2160 H   0  0  0  0  0  0  0  0  0  0  0  0
   -4.0617    3.9321   -4.4980 H   0  0  0  0  0  0  0  0  0  0  0  0
   -3.8068    3.5517   -6.2135 H   0  0  0  0  0  0  0  0  0  0  0  0
  1  2  2  0  0  0  0
  1  3  1  0  0  0  0
  1  7  1  0  0  0  0
  3  4  1  0  0  0  0
  3  5  1  0  0  0  0
  3  6  1  0  0  0  0
  7  8  1  0  0  0  0
  7 12  1  0  0  0  0
  8  9  1  0  0  0  0
  8 11  1  0  0  0  0
  8 13  1  0  0  0  0
  9 10  2  0  0  0  0
  9 17  1  0  0  0  0
 11 14  1  0  0  0  0
 11 15  1  0  0  0  0
 11 16  1  0  0  0  0
 17 18  1  0  0  0  0
 17 25  1  0  0  0  0
 18 19  1  0  0  0  0
 18 21  1  0  0  0  0
 18 26  1  0  0  0  0
 19 20  2  0  0  0  0
 19 36  1  0  0  0  0
 21 22  1  0  0  0  0
 21 23  1  0  0  0  0
 21 27  1  0  0  0  0
 22 24  1  0  0  0  0
 22 28  1  0  0  0  0
 22 29  1  0  0  0  0
 23 30  1  0  0  0  0
 23 31  1  0  0  0  0
 23 32  1  0  0  0  0
 24 33  1  0  0  0  0
 24 34  1  0  0  0  0
 24 35  1  0  0  0  0
 36 37  1  0  0  0  0
 36 41  1  0  0  0  0
 37 38  1  0  0  0  0
 37 40  1  0  0  0  0
 37 42  1  0  0  0  0
 38 39  2  0  0  0  0
 38 46  1  0  0  0  0
 40 43  1  0  0  0  0
 40 44  1  0  0  0  0
 40 45  1  0  0  0  0
 46 47  1  0  0  0  0
 46 48  1  0  0  0  0
 47 49  1  0  0  0  0
 47 50  1  0  0  0  0
 47 51  1  0  0  0  0
M  END
$$$$

  -OEChem-05262216503D

 51 50  0     1  0  0  0  0  0999 V2000
    1.3740   -6.1284    0.8481 C   0  0  0  0  0  0  0  0  0  0  0  0
    0.4569   -6.6543    0.2364 O   0  0  0  0  0  0  0  0  0  0  0  0
    2.6810   -6.8713    1.0521 C   0  0  0  0  0  0  0  0  0  0  0  0
    2.6220   -7.8691    0.6083 H   0  0  0  0  0  0  0  0  0  0  0  0
    3.4995   -6.3229    0.5792 H   0  0  0  0  0  0  0  0  0  0  0  0
    2.8886   -6.9724    2.1200 H   0  0  0  0  0  0  0  0  0  0  0  0
    1.2248   -4.8545    1.3523 N   0  0  0  0  0  0  0  0  0  0  0  0
    0.0810   -3.9803    1.0657 C   0  0  2  0  0  0  0  0  0  0  0  0
    0.4910   -2.4918    1.0503 C   0  0  0  0  0  0  0  0  0  0  0  0
    1.5670   -2.1757    1.5423 O   0  0  0  0  0  0  0  0  0  0  0  0
   -0.9963   -4.2298    2.1251 C   0  0  0  0  0  0  0  0  0  0  0  0
    2.0543   -4.4035    1.7384 H   0  0  0  0  0  0  0  0  0  0  0  0
   -0.3232   -4.2195    0.0761 H   0  0  0  0  0  0  0  0  0  0  0  0
   -0.6127   -3.9922    3.1225 H   0  0  0  0  0  0  0  0  0  0  0  0
   -1.8769   -3.6101    1.9324 H   0  0  0  0  0  0  0  0  0  0  0  0
   -1.3050   -5.2801    2.1114 H   0  0  0  0  0  0  0  0  0  0  0  0
   -0.3464   -1.5803    0.4217 N   0  0  0  0  0  0  0  0  0  0  0  0
   -0.2412   -0.1045    0.2901 C   0  0  2  0  0  0  0  0  0  0  0  0
   -0.1708    0.2464   -1.2132 C   0  0  0  0  0  0  0  0  0  0  0  0
    0.8252   -0.0006   -1.8799 O   0  0  0  0  0  0  0  0  0  0  0  0
    0.7950    0.6620    1.1682 C   0  0  2  0  0  0  0  0  0  0  0  0
    0.4487    0.5074    2.6745 C   0  0  0  0  0  0  0  0  0  0  0  0
    0.8235    2.1621    0.8013 C   0  0  0  0  0  0  0  0  0  0  0  0
    1.5631    1.0015    3.6015 C   0  0  0  0  0  0  0  0  0  0  0  0
   -1.1413   -2.0092   -0.0433 H   0  0  0  0  0  0  0  0  0  0  0  0
   -1.2070    0.2811    0.6294 H   0  0  0  0  0  0  0  0  0  0  0  0
    1.7922    0.2533    0.9741 H   0  0  0  0  0  0  0  0  0  0  0  0
   -0.4691    1.0619    2.8961 H   0  0  0  0  0  0  0  0  0  0  0  0
    0.2509   -0.5376    2.9199 H   0  0  0  0  0  0  0  0  0  0  0  0
   -0.1630    2.6139    0.9455 H   0  0  0  0  0  0  0  0  0  0  0  0
    1.5460    2.7032    1.4170 H   0  0  0  0  0  0  0  0  0  0  0  0
    1.1260    2.3068   -0.2399 H   0  0  0  0  0  0  0  0  0  0  0  0
    2.5091    0.5103    3.3526 H   0  0  0  0  0  0  0  0  0  0  0  0
    1.3133    0.7630    4.6396 H   0  0  0  0  0  0  0  0  0  0  0  0
    1.6956    2.0837    3.5265 H   0  0  0  0  0  0  0  0  0  0  0  0
   -1.2751    0.7839   -1.8474 N   0  0  0  0  0  0  0  0  0  0  0  0
   -1.3002    1.2243   -3.2474 C   0  0  2  0  0  0  0  0  0  0  0  0
   -2.3436    2.3416   -3.4574 C   0  0  0  0  0  0  0  0  0  0  0  0
   -3.1418    2.6088   -2.5646 O   0  0  0  0  0  0  0  0  0  0  0  0
   -1.6190    0.0159   -4.1345 C   0  0  0  0  0  0  0  0  0  0  0  0
   -2.0516    1.0956   -1.2646 H   0  0  0  0  0  0  0  0  0  0  0  0
   -0.3211    1.6305   -3.5239 H   0  0  0  0  0  0  0  0  0  0  0  0
   -2.5973   -0.4008   -3.8751 H   0  0  0  0  0  0  0  0  0  0  0  0
   -1.6313    0.3041   -5.1898 H   0  0  0  0  0  0  0  0  0  0  0  0
   -0.8619   -0.7635   -4.0016 H   0  0  0  0  0  0  0  0  0  0  0  0
   -2.3867    3.0530   -4.6420 N   0  0  0  0  0  0  0  0  0  0  0  0
   -3.3586    4.1068   -4.9074 C   0  0  0  0  0  0  0  0  0  0  0  0
   -1.7096    2.8146   -5.3612 H   0  0  0  0  0  0  0  0  0  0  0  0
   -4.3779    3.7097   -4.8550 H   0  0  0  0  0  0  0  0  0  0  0  0
   -3.2574    4.9156   -4.1760 H   0  0  0  0  0  0  0  0  0  0  0  0
   -3.2015    4.5233   -5.9070 H   0  0  0  0  0  0  0  0  0  0  0  0
  1  2  2  0  0  0  0
  1  3  1  0  0  0  0
  1  7  1  0  0  0  0
  3  4  1  0  0  0  0
  3  5  1  0  0  0  0
  3  6  1  0  0  0  0
  7  8  1  0  0  0  0
  7 12  1  0  0  0  0
  8  9  1  0  0  0  0
  8 11  1  0  0  0  0
  8 13  1  0  0  0  0
  9 10  2  0  0  0  0
  9 17  1  0  0  0  0
 11 14  1  0  0  0  0
 11 15  1  0  0  0  0
 11 16  1  0  0  0  0
 17 18  1  0  0  0  0
 17 25  1  0  0  0  0
 18 19  1  0  0  0  0
 18 21  1  0  0  0  0
 18 26  1  0  0  0  0
 19 20  2  0  0  0  0
 19 36  1  0  0  0  0
 21 22  1  0  0  0  0
 21 23  1  0  0  0  0
 21 27  1  0  0  0  0
 22 24  1  0  0  0  0
 22 28  1  0  0  0  0
 22 29  1  0  0  0  0
 23 30  1  0  0  0  0
 23 31  1  0  0  0  0
 23 32  1  0  0  0  0
 24 33  1  0  0  0  0
 24 34  1  0  0  0  0
 24 35  1  0  0  0  0
 36 37  1  0  0  0  0
 36 41  1  0  0  0  0
 37 38  1  0  0  0  0
 37 40  1  0  0  0  0
 37 42  1  0  0  0  0
 38 39  2  0  0  0  0
 38 46  1  0  0  0  0
 40 43  1  0  0  0  0
 40 44  1  0  0  0  0
 40 45  1  0  0  0  0
 46 47  1  0  0  0  0
 46 48  1  0  0  0  0
 47 49  1  0  0  0  0
 47 50  1  0  0  0  0
 47 51  1  0  0  0  0
M  END
$$$$

  -OEChem-05262216503D

 51 50  0     1  0  0  0  0  0999 V2000
    1.4309   -6.1367    0.8716 C   0  0  0  0  0  0  0  0  0  0  0  0
    0.5326   -6.6833    0.2502 O   0  0  0  0  0  0  0  0  0  0  0  0
    2.7388   -6.8645    1.1190 C   0  0  0  0  0  0  0  0  0  0  0  0
    2.6996   -7.8689    0.6878 H   0  0  0  0  0  0  0  0  0  0  0  0
    3.5637   -6.3152    0.6585 H   0  0  0  0  0  0  0  0  0  0  0  0
    2.9207   -6.9487    2.1931 H   0  0  0  0  0  0  0  0  0  0  0  0
    1.2601   -4.8542    1.3470 N   0  0  0  0  0  0  0  0  0  0  0  0
    0.1095   -3.9997    1.0285 C   0  0  2  0  0  0  0  0  0  0  0  0
    0.4846   -2.5019    1.0374 C   0  0  0  0  0  0  0  0  0  0  0  0
    1.5501   -2.1670    1.5407 O   0  0  0  0  0  0  0  0  0  0  0  0
   -1.0001   -4.2780    2.0478 C   0  0  0  0  0  0  0  0  0  0  0  0
    2.0746   -4.3890    1.7476 H   0  0  0  0  0  0  0  0  0  0  0  0
   -0.2525   -4.2390    0.0228 H   0  0  0  0  0  0  0  0  0  0  0  0
   -0.6596   -4.0337    3.0591 H   0  0  0  0  0  0  0  0  0  0  0  0
   -1.8878   -3.6792    1.8241 H   0  0  0  0  0  0  0  0  0  0  0  0
   -1.2831   -5.3350    2.0213 H   0  0  0  0  0  0  0  0  0  0  0  0
   -0.3756   -1.6023    0.4223 N   0  0  0  0  0  0  0  0  0  0  0  0
   -0.2899   -0.1260    0.2815 C   0  0  2  0  0  0  0  0  0  0  0  0
   -0.2542    0.2347   -1.2215 C   0  0  0  0  0  0  0  0  0  0  0  0
    0.5795   -0.2558   -1.9714 O   0  0  0  0  0  0  0  0  0  0  0  0
    0.7494    0.6589    1.1390 C   0  0  2  0  0  0  0  0  0  0  0  0
    0.4282    0.5107    2.6513 C   0  0  0  0  0  0  0  0  0  0  0  0
    0.7634    2.1563    0.7602 C   0  0  0  0  0  0  0  0  0  0  0  0
    1.5509    1.0251    3.5580 C   0  0  0  0  0  0  0  0  0  0  0  0
   -1.1360   -2.0476   -0.0831 H   0  0  0  0  0  0  0  0  0  0  0  0
   -1.2569    0.2413    0.6377 H   0  0  0  0  0  0  0  0  0  0  0  0
    1.7470    0.2566    0.9342 H   0  0  0  0  0  0  0  0  0  0  0  0
   -0.4919    1.0568    2.8830 H   0  0  0  0  0  0  0  0  0  0  0  0
    0.2437   -0.5343    2.9065 H   0  0  0  0  0  0  0  0  0  0  0  0
   -0.2229    2.6046    0.9166 H   0  0  0  0  0  0  0  0  0  0  0  0
    1.4928    2.7061    1.3599 H   0  0  0  0  0  0  0  0  0  0  0  0
    1.0488    2.2950   -0.2867 H   0  0  0  0  0  0  0  0  0  0  0  0
    2.5001    0.5480    3.2940 H   0  0  0  0  0  0  0  0  0  0  0  0
    1.3230    0.7864    4.6012 H   0  0  0  0  0  0  0  0  0  0  0  0
    1.6656    2.1090    3.4776 H   0  0  0  0  0  0  0  0  0  0  0  0
   -1.2396    1.0375   -1.7650 N   0  0  0  0  0  0  0  0  0  0  0  0
   -1.2235    1.5422   -3.1439 C   0  0  2  0  0  0  0  0  0  0  0  0
   -1.8762    2.9378   -3.2300 C   0  0  0  0  0  0  0  0  0  0  0  0
   -2.4642    3.3993   -2.2569 O   0  0  0  0  0  0  0  0  0  0  0  0
   -1.9588    0.5396   -4.0390 C   0  0  0  0  0  0  0  0  0  0  0  0
   -1.8385    1.5443   -1.1131 H   0  0  0  0  0  0  0  0  0  0  0  0
   -0.1892    1.6445   -3.4902 H   0  0  0  0  0  0  0  0  0  0  0  0
   -2.9997    0.4309   -3.7182 H   0  0  0  0  0  0  0  0  0  0  0  0
   -1.9476    0.8730   -5.0810 H   0  0  0  0  0  0  0  0  0  0  0  0
   -1.4739   -0.4406   -3.9875 H   0  0  0  0  0  0  0  0  0  0  0  0
   -1.7921    3.6849   -4.3903 N   0  0  0  0  0  0  0  0  0  0  0  0
   -2.3810    5.0109   -4.5325 C   0  0  0  0  0  0  0  0  0  0  0  0
   -1.2863    3.2836   -5.1748 H   0  0  0  0  0  0  0  0  0  0  0  0
   -3.4659    4.9654   -4.3902 H   0  0  0  0  0  0  0  0  0  0  0  0
   -1.9562    5.6994   -3.7945 H   0  0  0  0  0  0  0  0  0  0  0  0
   -2.1804    5.4092   -5.5317 H   0  0  0  0  0  0  0  0  0  0  0  0
  1  2  2  0  0  0  0
  1  3  1  0  0  0  0
  1  7  1  0  0  0  0
  3  4  1  0  0  0  0
  3  5  1  0  0  0  0
  3  6  1  0  0  0  0
  7  8  1  0  0  0  0
  7 12  1  0  0  0  0
  8  9  1  0  0  0  0
  8 11  1  0  0  0  0
  8 13  1  0  0  0  0
  9 10  2  0  0  0  0
  9 17  1  0  0  0  0
 11 14  1  0  0  0  0
 11 15  1  0  0  0  0
 11 16  1  0  0  0  0
 17 18  1  0  0  0  0
 17 25  1  0  0  0  0
 18 19  1  0  0  0  0
 18 21  1  0  0  0  0
 18 26  1  0  0  0  0
 19 20  2  0  0  0  0
 19 36  1  0  0  0  0
 21 22  1  0  0  0  0
 21 23  1  0  0  0  0
 21 27  1  0  0  0  0
 22 24  1  0  0  0  0
 22 28  1  0  0  0  0
 22 29  1  0  0  0  0
 23 30  1  0  0  0  0
 23 31  1  0  0  0  0
 23 32  1  0  0  0  0
 24 33  1  0  0  0  0
 24 34  1  0  0  0  0
 24 35  1  0  0  0  0
 36 37  1  0  0  0  0
 36 41  1  0  0  0  0
 37 38  1  0  0  0  0
 37 40  1  0  0  0  0
 37 42  1  0  0  0  0
 38 39  2  0  0  0  0
 38 46  1  0  0  0  0
 40 43  1  0  0  0  0
 40 44  1  0  0  0  0
 40 45  1  0  0  0  0
 46 47  1  0  0  0  0
 46 48  1  0  0  0  0
 47 49  1  0  0  0  0
 47 50  1  0  0  0  0
 47 51  1  0  0  0  0
M  END
$$$$

  -OEChem-05262216503D

 51 50  0     1  0  0  0  0  0999 V2000
    1.4600   -6.1198    0.8587 C   0  0  0  0  0  0  0  0  0  0  0  0
    0.5812   -6.6787    0.2210 O   0  0  0  0  0  0  0  0  0  0  0  0
    2.7696   -6.8326    1.1380 C   0  0  0  0  0  0  0  0  0  0  0  0
    2.7562   -7.8338    0.6984 H   0  0  0  0  0  0  0  0  0  0  0  0
    3.5999   -6.2689    0.7059 H   0  0  0  0  0  0  0  0  0  0  0  0
    2.9218   -6.9230    2.2162 H   0  0  0  0  0  0  0  0  0  0  0  0
    1.2669   -4.8369    1.3242 N   0  0  0  0  0  0  0  0  0  0  0  0
    0.1194   -3.9911    0.9719 C   0  0  2  0  0  0  0  0  0  0  0  0
    0.4769   -2.4892    1.0160 C   0  0  0  0  0  0  0  0  0  0  0  0
    1.5411   -2.1550    1.5228 O   0  0  0  0  0  0  0  0  0  0  0  0
   -1.0258   -4.2936    1.9441 C   0  0  0  0  0  0  0  0  0  0  0  0
    2.0690   -4.3626    1.7387 H   0  0  0  0  0  0  0  0  0  0  0  0
   -0.2008   -4.2214   -0.0501 H   0  0  0  0  0  0  0  0  0  0  0  0
   -0.7251   -4.0624    2.9712 H   0  0  0  0  0  0  0  0  0  0  0  0
   -1.9095   -3.6984    1.6956 H   0  0  0  0  0  0  0  0  0  0  0  0
   -1.2999   -5.3521    1.8918 H   0  0  0  0  0  0  0  0  0  0  0  0
   -0.3941   -1.5846    0.4240 N   0  0  0  0  0  0  0  0  0  0  0  0
   -0.3121   -0.1068    0.2869 C   0  0  2  0  0  0  0  0  0  0  0  0
   -0.3086    0.2688   -1.2145 C   0  0  0  0  0  0  0  0  0  0  0  0
    0.2761   -0.4211   -2.0402 O   0  0  0  0  0  0  0  0  0  0  0  0
    0.7380    0.6693    1.1433 C   0  0  2  0  0  0  0  0  0  0  0  0
    0.4236    0.5081    2.6559 C   0  0  0  0  0  0  0  0  0  0  0  0
    0.7742    2.1698    0.7807 C   0  0  0  0  0  0  0  0  0  0  0  0
    1.5495    1.0087    3.5658 C   0  0  0  0  0  0  0  0  0  0  0  0
   -1.1273   -2.0292   -0.1216 H   0  0  0  0  0  0  0  0  0  0  0  0
   -1.2755    0.2548    0.6575 H   0  0  0  0  0  0  0  0  0  0  0  0
    1.7306    0.2596    0.9304 H   0  0  0  0  0  0  0  0  0  0  0  0
   -0.4935    1.0560    2.8951 H   0  0  0  0  0  0  0  0  0  0  0  0
    0.2356   -0.5381    2.9024 H   0  0  0  0  0  0  0  0  0  0  0  0
   -0.2083    2.6290    0.9284 H   0  0  0  0  0  0  0  0  0  0  0  0
    1.5016    2.7050    1.3956 H   0  0  0  0  0  0  0  0  0  0  0  0
    1.0772    2.3140   -0.2604 H   0  0  0  0  0  0  0  0  0  0  0  0
    2.4976    0.5353    3.2921 H   0  0  0  0  0  0  0  0  0  0  0  0
    1.3242    0.7542    4.6058 H   0  0  0  0  0  0  0  0  0  0  0  0
    1.6646    2.0936    3.5015 H   0  0  0  0  0  0  0  0  0  0  0  0
   -1.1022    1.3051   -1.6700 N   0  0  0  0  0  0  0  0  0  0  0  0
   -1.0643    1.8315   -3.0402 C   0  0  2  0  0  0  0  0  0  0  0  0
   -1.2802    3.3596   -3.0476 C   0  0  0  0  0  0  0  0  0  0  0  0
   -1.6276    3.9325   -2.0196 O   0  0  0  0  0  0  0  0  0  0  0  0
   -2.1448    1.1226   -3.8619 C   0  0  0  0  0  0  0  0  0  0  0  0
   -1.4771    1.9398   -0.9646 H   0  0  0  0  0  0  0  0  0  0  0  0
   -0.0835    1.6379   -3.4883 H   0  0  0  0  0  0  0  0  0  0  0  0
   -3.1354    1.3163   -3.4386 H   0  0  0  0  0  0  0  0  0  0  0  0
   -2.1327    1.4730   -4.8982 H   0  0  0  0  0  0  0  0  0  0  0  0
   -1.9712    0.0418   -3.8627 H   0  0  0  0  0  0  0  0  0  0  0  0
   -1.0701    4.0971   -4.1979 N   0  0  0  0  0  0  0  0  0  0  0  0
   -1.2519    5.5422   -4.2661 C   0  0  0  0  0  0  0  0  0  0  0  0
   -0.7665    3.5985   -5.0295 H   0  0  0  0  0  0  0  0  0  0  0  0
   -2.2889    5.8095   -4.0370 H   0  0  0  0  0  0  0  0  0  0  0  0
   -0.5923    6.0462   -3.5517 H   0  0  0  0  0  0  0  0  0  0  0  0
   -1.0155    5.9061   -5.2706 H   0  0  0  0  0  0  0  0  0  0  0  0
  1  2  2  0  0  0  0
  1  3  1  0  0  0  0
  1  7  1  0  0  0  0
  3  4  1  0  0  0  0
  3  5  1  0  0  0  0
  3  6  1  0  0  0  0
  7  8  1  0  0  0  0
  7 12  1  0  0  0  0
  8  9  1  0  0  0  0
  8 11  1  0  0  0  0
  8 13  1  0  0  0  0
  9 10  2  0  0  0  0
  9 17  1  0  0  0  0
 11 14  1  0  0  0  0
 11 15  1  0  0  0  0
 11 16  1  0  0  0  0
 17 18  1  0  0  0  0
 17 25  1  0  0  0  0
 18 19  1  0  0  0  0
 18 21  1  0  0  0  0
 18 26  1  0  0  0  0
 19 20  2  0  0  0  0
 19 36  1  0  0  0  0
 21 22  1  0  0  0  0
 21 23  1  0  0  0  0
 21 27  1  0  0  0  0
 22 24  1  0  0  0  0
 22 28  1  0  0  0  0
 22 29  1  0  0  0  0
 23 30  1  0  0  0  0
 23 31  1  0  0  0  0
 23 32  1  0  0  0  0
 24 33  1  0  0  0  0
 24 34  1  0  0  0  0
 24 35  1  0  0  0  0
 36 37  1  0  0  0  0
 36 41  1  0  0  0  0
 37 38  1  0  0  0  0
 37 40  1  0  0  0  0
 37 42  1  0  0  0  0
 38 39  2  0  0  0  0
 38 46  1  0  0  0  0
 40 43  1  0  0  0  0
 40 44  1  0  0  0  0
 40 45  1  0  0  0  0
 46 47  1  0  0  0  0
 46 48  1  0  0  0  0
 47 49  1  0  0  0  0
 47 50  1  0  0  0  0
 47 51  1  0  0  0  0
M  END
$$$$

  -OEChem-05262216503D

 51 50  0     1  0  0  0  0  0999 V2000
    1.4373   -6.1003    0.8153 C   0  0  0  0  0  0  0  0  0  0  0  0
    0.5717   -6.6508    0.1529 O   0  0  0  0  0  0  0  0  0  0  0  0
    2.7327   -6.8251    1.1278 C   0  0  0  0  0  0  0  0  0  0  0  0
    2.6615   -7.8731    0.8234 H   0  0  0  0  0  0  0  0  0  0  0  0
    3.5599   -6.3559    0.5894 H   0  0  0  0  0  0  0  0  0  0  0  0
    2.9350   -6.7834    2.2008 H   0  0  0  0  0  0  0  0  0  0  0  0
    1.2458   -4.8151    1.2749 N   0  0  0  0  0  0  0  0  0  0  0  0
    0.1188   -3.9545    0.8932 C   0  0  2  0  0  0  0  0  0  0  0  0
    0.4870   -2.4568    0.9879 C   0  0  0  0  0  0  0  0  0  0  0  0
    1.5538   -2.1479    1.5060 O   0  0  0  0  0  0  0  0  0  0  0  0
   -1.0707   -4.2700    1.8074 C   0  0  0  0  0  0  0  0  0  0  0  0
    2.0418   -4.3502    1.7113 H   0  0  0  0  0  0  0  0  0  0  0  0
   -0.1582   -4.1587   -0.1470 H   0  0  0  0  0  0  0  0  0  0  0  0
   -0.8098   -4.0771    2.8531 H   0  0  0  0  0  0  0  0  0  0  0  0
   -1.9346   -3.6528    1.5431 H   0  0  0  0  0  0  0  0  0  0  0  0
   -1.3582   -5.3217    1.7085 H   0  0  0  0  0  0  0  0  0  0  0  0
   -0.3779   -1.5263    0.4277 N   0  0  0  0  0  0  0  0  0  0  0  0
   -0.2894   -0.0449    0.3243 C   0  0  2  0  0  0  0  0  0  0  0  0
   -0.2977    0.3593   -1.1732 C   0  0  0  0  0  0  0  0  0  0  0  0
    0.0141   -0.4423   -2.0466 O   0  0  0  0  0  0  0  0  0  0  0  0
    0.7719    0.6865    1.2126 C   0  0  2  0  0  0  0  0  0  0  0  0
    0.4420    0.4757    2.7170 C   0  0  0  0  0  0  0  0  0  0  0  0
    0.8613    2.1976    0.9118 C   0  0  0  0  0  0  0  0  0  0  0  0
    1.5659    0.9233    3.6575 C   0  0  0  0  0  0  0  0  0  0  0  0
   -1.0893   -1.9498   -0.1629 H   0  0  0  0  0  0  0  0  0  0  0  0
   -1.2494    0.3190    0.7020 H   0  0  0  0  0  0  0  0  0  0  0  0
    1.7567    0.2622    0.9938 H   0  0  0  0  0  0  0  0  0  0  0  0
   -0.4686    1.0293    2.9671 H   0  0  0  0  0  0  0  0  0  0  0  0
    0.2337   -0.5750    2.9241 H   0  0  0  0  0  0  0  0  0  0  0  0
   -0.1105    2.6811    1.0533 H   0  0  0  0  0  0  0  0  0  0  0  0
    1.5881    2.6871    1.5642 H   0  0  0  0  0  0  0  0  0  0  0  0
    1.2013    2.3711   -0.1132 H   0  0  0  0  0  0  0  0  0  0  0  0
    2.5128    0.4572    3.3672 H   0  0  0  0  0  0  0  0  0  0  0  0
    1.3335    0.6205    4.6830 H   0  0  0  0  0  0  0  0  0  0  0  0
    1.6875    2.0094    3.6480 H   0  0  0  0  0  0  0  0  0  0  0  0
   -0.8293    1.5722   -1.5698 N   0  0  0  0  0  0  0  0  0  0  0  0
   -0.7783    2.0924   -2.9415 C   0  0  2  0  0  0  0  0  0  0  0  0
   -0.6246    3.6272   -2.9443 C   0  0  0  0  0  0  0  0  0  0  0  0
   -0.7390    4.2562   -1.8970 O   0  0  0  0  0  0  0  0  0  0  0  0
   -2.0594    1.6738   -3.6688 C   0  0  0  0  0  0  0  0  0  0  0  0
   -0.9838    2.2662   -0.8382 H   0  0  0  0  0  0  0  0  0  0  0  0
    0.0886    1.6763   -3.4660 H   0  0  0  0  0  0  0  0  0  0  0  0
   -2.9382    2.0935   -3.1688 H   0  0  0  0  0  0  0  0  0  0  0  0
   -2.0465    2.0245   -4.7051 H   0  0  0  0  0  0  0  0  0  0  0  0
   -2.1501    0.5829   -3.6769 H   0  0  0  0  0  0  0  0  0  0  0  0
   -0.3449    4.3033   -4.1171 N   0  0  0  0  0  0  0  0  0  0  0  0
   -0.1837    5.7501   -4.1881 C   0  0  0  0  0  0  0  0  0  0  0  0
   -0.2376    3.7534   -4.9647 H   0  0  0  0  0  0  0  0  0  0  0  0
   -1.0935    6.2546   -3.8457 H   0  0  0  0  0  0  0  0  0  0  0  0
    0.6556    6.0738   -3.5635 H   0  0  0  0  0  0  0  0  0  0  0  0
    0.0142    6.0572   -5.2194 H   0  0  0  0  0  0  0  0  0  0  0  0
  1  2  2  0  0  0  0
  1  3  1  0  0  0  0
  1  7  1  0  0  0  0
  3  4  1  0  0  0  0
  3  5  1  0  0  0  0
  3  6  1  0  0  0  0
  7  8  1  0  0  0  0
  7 12  1  0  0  0  0
  8  9  1  0  0  0  0
  8 11  1  0  0  0  0
  8 13  1  0  0  0  0
  9 10  2  0  0  0  0
  9 17  1  0  0  0  0
 11 14  1  0  0  0  0
 11 15  1  0  0  0  0
 11 16  1  0  0  0  0
 17 18  1  0  0  0  0
 17 25  1  0  0  0  0
 18 19  1  0  0  0  0
 18 21  1  0  0  0  0
 18 26  1  0  0  0  0
 19 20  2  0  0  0  0
 19 36  1  0  0  0  0
 21 22  1  0  0  0  0
 21 23  1  0  0  0  0
 21 27  1  0  0  0  0
 22 24  1  0  0  0  0
 22 28  1  0  0  0  0
 22 29  1  0  0  0  0
 23 30  1  0  0  0  0
 23 31  1  0  0  0  0
 23 32  1  0  0  0  0
 24 33  1  0  0  0  0
 24 34  1  0  0  0  0
 24 35  1  0  0  0  0
 36 37  1  0  0  0  0
 36 41  1  0  0  0  0
 37 38  1  0  0  0  0
 37 40  1  0  0  0  0
 37 42  1  0  0  0  0
 38 39  2  0  0  0  0
 38 46  1  0  0  0  0
 40 43  1  0  0  0  0
 40 44  1  0  0  0  0
 40 45  1  0  0  0  0
 46 47  1  0  0  0  0
 46 48  1  0  0  0  0
 47 49  1  0  0  0  0
 47 50  1  0  0  0  0
 47 51  1  0  0  0  0
M  END
$$$$

  -OEChem-05262216503D

 51 50  0     1  0  0  0  0  0999 V2000
    1.3999   -6.0664    0.7146 C   0  0  0  0  0  0  0  0  0  0  0  0
    0.5450   -6.5735    0.0054 O   0  0  0  0  0  0  0  0  0  0  0  0
    2.6642   -6.8355    1.0501 C   0  0  0  0  0  0  0  0  0  0  0  0
    2.6248   -7.8356    0.6094 H   0  0  0  0  0  0  0  0  0  0  0  0
    3.5371   -6.3102    0.6551 H   0  0  0  0  0  0  0  0  0  0  0  0
    2.7654   -6.9324    2.1338 H   0  0  0  0  0  0  0  0  0  0  0  0
    1.2190   -4.7940    1.2133 N   0  0  0  0  0  0  0  0  0  0  0  0
    0.1123   -3.9031    0.8401 C   0  0  2  0  0  0  0  0  0  0  0  0
    0.4965   -2.4140    0.9957 C   0  0  0  0  0  0  0  0  0  0  0  0
    1.5642   -2.1396    1.5313 O   0  0  0  0  0  0  0  0  0  0  0  0
   -1.0996   -4.2385    1.7172 C   0  0  0  0  0  0  0  0  0  0  0  0
    2.0076   -4.3608    1.6933 H   0  0  0  0  0  0  0  0  0  0  0  0
   -0.1457   -4.0665   -0.2120 H   0  0  0  0  0  0  0  0  0  0  0  0
   -0.8632   -4.0734    2.7732 H   0  0  0  0  0  0  0  0  0  0  0  0
   -1.9557   -3.6125    1.4485 H   0  0  0  0  0  0  0  0  0  0  0  0
   -1.3876   -5.2863    1.5846 H   0  0  0  0  0  0  0  0  0  0  0  0
   -0.3540   -1.4526    0.4648 N   0  0  0  0  0  0  0  0  0  0  0  0
   -0.2503    0.0312    0.3933 C   0  0  2  0  0  0  0  0  0  0  0  0
   -0.2653    0.4511   -1.1055 C   0  0  0  0  0  0  0  0  0  0  0  0
   -0.2312   -0.3992   -1.9896 O   0  0  0  0  0  0  0  0  0  0  0  0
    0.8230    0.7104    1.3148 C   0  0  2  0  0  0  0  0  0  0  0  0
    0.4672    0.4511    2.8070 C   0  0  0  0  0  0  0  0  0  0  0  0
    0.9631    2.2294    1.0831 C   0  0  0  0  0  0  0  0  0  0  0  0
    1.5849    0.8358    3.7827 C   0  0  0  0  0  0  0  0  0  0  0  0
   -1.0493   -1.8475   -0.1647 H   0  0  0  0  0  0  0  0  0  0  0  0
   -1.2047    0.4049    0.7763 H   0  0  0  0  0  0  0  0  0  0  0  0
    1.7997    0.2701    1.0924 H   0  0  0  0  0  0  0  0  0  0  0  0
   -0.4339    1.0170    3.0650 H   0  0  0  0  0  0  0  0  0  0  0  0
    0.2312   -0.6011    2.9727 H   0  0  0  0  0  0  0  0  0  0  0  0
   -0.0052    2.7296    1.1829 H   0  0  0  0  0  0  0  0  0  0  0  0
    1.6560    2.6793    1.7975 H   0  0  0  0  0  0  0  0  0  0  0  0
    1.3764    2.4331    0.0917 H   0  0  0  0  0  0  0  0  0  0  0  0
    2.5297    0.3731    3.4802 H   0  0  0  0  0  0  0  0  0  0  0  0
    1.3352    0.4826    4.7877 H   0  0  0  0  0  0  0  0  0  0  0  0
    1.7202    1.9190    3.8329 H   0  0  0  0  0  0  0  0  0  0  0  0
   -0.4904    1.7580   -1.4964 N   0  0  0  0  0  0  0  0  0  0  0  0
   -0.4134    2.2475   -2.8791 C   0  0  2  0  0  0  0  0  0  0  0  0
    0.0753    3.7114   -2.9157 C   0  0  0  0  0  0  0  0  0  0  0  0
    0.1657    4.3522   -1.8732 O   0  0  0  0  0  0  0  0  0  0  0  0
   -1.7981    2.1222   -3.5230 C   0  0  0  0  0  0  0  0  0  0  0  0
   -0.4291    2.4716   -0.7700 H   0  0  0  0  0  0  0  0  0  0  0  0
    0.3055    1.6466   -3.4466 H   0  0  0  0  0  0  0  0  0  0  0  0
   -2.5306    2.7246   -2.9764 H   0  0  0  0  0  0  0  0  0  0  0  0
   -1.7715    2.4629   -4.5622 H   0  0  0  0  0  0  0  0  0  0  0  0
   -2.1280    1.0785   -3.5128 H   0  0  0  0  0  0  0  0  0  0  0  0
    0.4233    4.3121   -4.1115 N   0  0  0  0  0  0  0  0  0  0  0  0
    0.8813    5.6931   -4.2085 C   0  0  0  0  0  0  0  0  0  0  0  0
    0.3442    3.7585   -4.9597 H   0  0  0  0  0  0  0  0  0  0  0  0
    0.1058    6.3798   -3.8526 H   0  0  0  0  0  0  0  0  0  0  0  0
    1.7853    5.8406   -3.6079 H   0  0  0  0  0  0  0  0  0  0  0  0
    1.1132    5.9433   -5.2483 H   0  0  0  0  0  0  0  0  0  0  0  0
  1  2  2  0  0  0  0
  1  3  1  0  0  0  0
  1  7  1  0  0  0  0
  3  4  1  0  0  0  0
  3  5  1  0  0  0  0
  3  6  1  0  0  0  0
  7  8  1  0  0  0  0
  7 12  1  0  0  0  0
  8  9  1  0  0  0  0
  8 11  1  0  0  0  0
  8 13  1  0  0  0  0
  9 10  2  0  0  0  0
  9 17  1  0  0  0  0
 11 14  1  0  0  0  0
 11 15  1  0  0  0  0
 11 16  1  0  0  0  0
 17 18  1  0  0  0  0
 17 25  1  0  0  0  0
 18 19  1  0  0  0  0
 18 21  1  0  0  0  0
 18 26  1  0  0  0  0
 19 20  2  0  0  0  0
 19 36  1  0  0  0  0
 21 22  1  0  0  0  0
 21 23  1  0  0  0  0
 21 27  1  0  0  0  0
 22 24  1  0  0  0  0
 22 28  1  0  0  0  0
 22 29  1  0  0  0  0
 23 30  1  0  0  0  0
 23 31  1  0  0  0  0
 23 32  1  0  0  0  0
 24 33  1  0  0  0  0
 24 34  1  0  0  0  0
 24 35  1  0  0  0  0
 36 37  1  0  0  0  0
 36 41  1  0  0  0  0
 37 38  1  0  0  0  0
 37 40  1  0  0  0  0
 37 42  1  0  0  0  0
 38 39  2  0  0  0  0
 38 46  1  0  0  0  0
 40 43  1  0  0  0  0
 40 44  1  0  0  0  0
 40 45  1  0  0  0  0
 46 47  1  0  0  0  0
 46 48  1  0  0  0  0
 47 49  1  0  0  0  0
 47 50  1  0  0  0  0
 47 51  1  0  0  0  0
M  END
$$$$

  -OEChem-05262216503D

 51 50  0     1  0  0  0  0  0999 V2000
    1.1936   -6.1391    0.5278 C   0  0  0  0  0  0  0  0  0  0  0  0
    0.2596   -6.5806   -0.1229 O   0  0  0  0  0  0  0  0  0  0  0  0
    2.4212   -6.9956    0.7741 C   0  0  0  0  0  0  0  0  0  0  0  0
    2.2796   -7.9904    0.3426 H   0  0  0  0  0  0  0  0  0  0  0  0
    3.2974   -6.5326    0.3139 H   0  0  0  0  0  0  0  0  0  0  0  0
    2.5938   -7.0990    1.8479 H   0  0  0  0  0  0  0  0  0  0  0  0
    1.1409   -4.8580    1.0339 N   0  0  0  0  0  0  0  0  0  0  0  0
    0.0890   -3.8828    0.7178 C   0  0  2  0  0  0  0  0  0  0  0  0
    0.5996   -2.4295    0.8436 C   0  0  0  0  0  0  0  0  0  0  0  0
    1.7405   -2.2412    1.2504 O   0  0  0  0  0  0  0  0  0  0  0  0
   -1.0973   -4.1186    1.6600 C   0  0  0  0  0  0  0  0  0  0  0  0
    1.9945   -4.4837    1.4478 H   0  0  0  0  0  0  0  0  0  0  0  0
   -0.2393   -4.0248   -0.3176 H   0  0  0  0  0  0  0  0  0  0  0  0
   -0.7920   -3.9764    2.7013 H   0  0  0  0  0  0  0  0  0  0  0  0
   -1.9121   -3.4233    1.4364 H   0  0  0  0  0  0  0  0  0  0  0  0
   -1.4774   -5.1388    1.5449 H   0  0  0  0  0  0  0  0  0  0  0  0
   -0.2032   -1.4013    0.3704 N   0  0  0  0  0  0  0  0  0  0  0  0
   -0.0875    0.0826    0.4147 C   0  0  2  0  0  0  0  0  0  0  0  0
   -0.4297    0.6252   -1.0063 C   0  0  0  0  0  0  0  0  0  0  0  0
   -0.8467   -0.1481   -1.8644 O   0  0  0  0  0  0  0  0  0  0  0  0
    1.1261    0.6849    1.2144 C   0  0  2  0  0  0  0  0  0  0  0  0
    1.0147    0.3121    2.7254 C   0  0  0  0  0  0  0  0  0  0  0  0
    1.2780    2.2136    1.0759 C   0  0  0  0  0  0  0  0  0  0  0  0
    2.2784    0.6183    3.5382 C   0  0  0  0  0  0  0  0  0  0  0  0
   -0.9706   -1.7284   -0.2157 H   0  0  0  0  0  0  0  0  0  0  0  0
   -0.9504    0.4108    1.0013 H   0  0  0  0  0  0  0  0  0  0  0  0
    2.0422    0.2396    0.8127 H   0  0  0  0  0  0  0  0  0  0  0  0
    0.1826    0.8727    3.1633 H   0  0  0  0  0  0  0  0  0  0  0  0
    0.7722   -0.7400    2.8667 H   0  0  0  0  0  0  0  0  0  0  0  0
    0.3332    2.7204    1.2954 H   0  0  0  0  0  0  0  0  0  0  0  0
    2.0396    2.6066    1.7516 H   0  0  0  0  0  0  0  0  0  0  0  0
    1.6100    2.4749    0.0678 H   0  0  0  0  0  0  0  0  0  0  0  0
    3.1576    0.1853    3.0507 H   0  0  0  0  0  0  0  0  0  0  0  0
    2.1889    0.1812    4.5371 H   0  0  0  0  0  0  0  0  0  0  0  0
    2.4317    1.6935    3.6583 H   0  0  0  0  0  0  0  0  0  0  0  0
   -0.4253    1.9679   -1.3314 N   0  0  0  0  0  0  0  0  0  0  0  0
   -0.6622    2.5198   -2.6713 C   0  0  2  0  0  0  0  0  0  0  0  0
    0.0725    3.8660   -2.8483 C   0  0  0  0  0  0  0  0  0  0  0  0
    0.5630    4.4286   -1.8744 O   0  0  0  0  0  0  0  0  0  0  0  0
   -2.1706    2.7019   -2.8724 C   0  0  0  0  0  0  0  0  0  0  0  0
   -0.0286    2.6114   -0.6474 H   0  0  0  0  0  0  0  0  0  0  0  0
   -0.2749    1.8291   -3.4280 H   0  0  0  0  0  0  0  0  0  0  0  0
   -2.5753    3.3895   -2.1229 H   0  0  0  0  0  0  0  0  0  0  0  0
   -2.3806    3.1064   -3.8670 H   0  0  0  0  0  0  0  0  0  0  0  0
   -2.6863    1.7410   -2.7782 H   0  0  0  0  0  0  0  0  0  0  0  0
    0.1935    4.4462   -4.0975 N   0  0  0  0  0  0  0  0  0  0  0  0
    0.8751    5.7145   -4.3279 C   0  0  0  0  0  0  0  0  0  0  0  0
   -0.2160    3.9563   -4.8876 H   0  0  0  0  0  0  0  0  0  0  0  0
    0.3820    6.5206   -3.7744 H   0  0  0  0  0  0  0  0  0  0  0  0
    1.9196    5.6531   -4.0047 H   0  0  0  0  0  0  0  0  0  0  0  0
    0.8575    5.9657   -5.3927 H   0  0  0  0  0  0  0  0  0  0  0  0
  1  2  2  0  0  0  0
  1  3  1  0  0  0  0
  1  7  1  0  0  0  0
  3  4  1  0  0  0  0
  3  5  1  0  0  0  0
  3  6  1  0  0  0  0
  7  8  1  0  0  0  0
  7 12  1  0  0  0  0
  8  9  1  0  0  0  0
  8 11  1  0  0  0  0
  8 13  1  0  0  0  0
  9 10  2  0  0  0  0
  9 17  1  0  0  0  0
 11 14  1  0  0  0  0
 11 15  1  0  0  0  0
 11 16  1  0  0  0  0
 17 18  1  0  0  0  0
 17 25  1  0  0  0  0
 18 19  1  0  0  0  0
 18 21  1  0  0  0  0
 18 26  1  0  0  0  0
 19 20  2  0  0  0  0
 19 36  1  0  0  0  0
 21 22  1  0  0  0  0
 21 23  1  0  0  0  0
 21 27  1  0  0  0  0
 22 24  1  0  0  0  0
 22 28  1  0  0  0  0
 22 29  1  0  0  0  0
 23 30  1  0  0  0  0
 23 31  1  0  0  0  0
 23 32  1  0  0  0  0
 24 33  1  0  0  0  0
 24 34  1  0  0  0  0
 24 35  1  0  0  0  0
 36 37  1  0  0  0  0
 36 41  1  0  0  0  0
 37 38  1  0  0  0  0
 37 40  1  0  0  0  0
 37 42  1  0  0  0  0
 38 39  2  0  0  0  0
 38 46  1  0  0  0  0
 40 43  1  0  0  0  0
 40 44  1  0  0  0  0
 40 45  1  0  0  0  0
 46 47  1  0  0  0  0
 46 48  1  0  0  0  0
 47 49  1  0  0  0  0
 47 50  1  0  0  0  0
 47 51  1  0  0  0  0
M  END
$$$$

  -OEChem-05262216503D

 51 50  0     1  0  0  0  0  0999 V2000
    1.1611   -6.1311    0.5108 C   0  0  0  0  0  0  0  0  0  0  0  0
    0.2262   -6.5587   -0.1478 O   0  0  0  0  0  0  0  0  0  0  0  0
    2.3752   -7.0047    0.7661 C   0  0  0  0  0  0  0  0  0  0  0  0
    2.2190   -8.0010    0.3430 H   0  0  0  0  0  0  0  0  0  0  0  0
    3.2584   -6.5592    0.3021 H   0  0  0  0  0  0  0  0  0  0  0  0
    2.5469   -7.1015    1.8409 H   0  0  0  0  0  0  0  0  0  0  0  0
    1.1235   -4.8491    1.0163 N   0  0  0  0  0  0  0  0  0  0  0  0
    0.0876   -3.8577    0.6966 C   0  0  2  0  0  0  0  0  0  0  0  0
    0.6255   -2.4140    0.8134 C   0  0  0  0  0  0  0  0  0  0  0  0
    1.7667   -2.2431    1.2272 O   0  0  0  0  0  0  0  0  0  0  0  0
   -1.0975   -4.0639    1.6470 C   0  0  0  0  0  0  0  0  0  0  0  0
    1.9803   -4.4869    1.4344 H   0  0  0  0  0  0  0  0  0  0  0  0
   -0.2479   -4.0003   -0.3365 H   0  0  0  0  0  0  0  0  0  0  0  0
   -0.7878   -3.9028    2.6846 H   0  0  0  0  0  0  0  0  0  0  0  0
   -1.9067   -3.3662    1.4115 H   0  0  0  0  0  0  0  0  0  0  0  0
   -1.4869   -5.0828    1.5539 H   0  0  0  0  0  0  0  0  0  0  0  0
   -0.1541   -1.3697    0.3381 N   0  0  0  0  0  0  0  0  0  0  0  0
   -0.0234    0.1105    0.4214 C   0  0  2  0  0  0  0  0  0  0  0  0
   -0.3187    0.6692   -1.0055 C   0  0  0  0  0  0  0  0  0  0  0  0
   -0.9476   -0.0326   -1.7941 O   0  0  0  0  0  0  0  0  0  0  0  0
    1.1654    0.6781    1.2826 C   0  0  2  0  0  0  0  0  0  0  0  0
    0.9806    0.2631    2.7761 C   0  0  0  0  0  0  0  0  0  0  0  0
    1.3109    2.2137    1.2049 C   0  0  0  0  0  0  0  0  0  0  0  0
    2.2077    0.5260    3.6579 C   0  0  0  0  0  0  0  0  0  0  0  0
   -0.9404   -1.6747   -0.2352 H   0  0  0  0  0  0  0  0  0  0  0  0
   -0.9030    0.4396    0.9825 H   0  0  0  0  0  0  0  0  0  0  0  0
    2.0989    0.2451    0.9084 H   0  0  0  0  0  0  0  0  0  0  0  0
    0.1334    0.8175    3.1925 H   0  0  0  0  0  0  0  0  0  0  0  0
    0.7246   -0.7910    2.8719 H   0  0  0  0  0  0  0  0  0  0  0  0
    0.3337    2.7014    1.2805 H   0  0  0  0  0  0  0  0  0  0  0  0
    1.9446    2.6073    2.0008 H   0  0  0  0  0  0  0  0  0  0  0  0
    1.7971    2.5038    0.2700 H   0  0  0  0  0  0  0  0  0  0  0  0
    3.1030    0.0950    3.1989 H   0  0  0  0  0  0  0  0  0  0  0  0
    2.0637    0.0575    4.6361 H   0  0  0  0  0  0  0  0  0  0  0  0
    2.3717    1.5933    3.8225 H   0  0  0  0  0  0  0  0  0  0  0  0
   -0.0205    1.9508   -1.4262 N   0  0  0  0  0  0  0  0  0  0  0  0
   -0.2404    2.4790   -2.7792 C   0  0  2  0  0  0  0  0  0  0  0  0
    0.7397    3.6301   -3.0893 C   0  0  0  0  0  0  0  0  0  0  0  0
    1.3931    4.1400   -2.1847 O   0  0  0  0  0  0  0  0  0  0  0  0
   -1.6885    2.9688   -2.8927 C   0  0  0  0  0  0  0  0  0  0  0  0
    0.5513    2.5250   -0.8098 H   0  0  0  0  0  0  0  0  0  0  0  0
   -0.0641    1.6879   -3.5159 H   0  0  0  0  0  0  0  0  0  0  0  0
   -1.8836    3.7579   -2.1595 H   0  0  0  0  0  0  0  0  0  0  0  0
   -1.8830    3.3662   -3.8933 H   0  0  0  0  0  0  0  0  0  0  0  0
   -2.3850    2.1445   -2.7110 H   0  0  0  0  0  0  0  0  0  0  0  0
    0.8948    4.0936   -4.3827 N   0  0  0  0  0  0  0  0  0  0  0  0
    1.8102    5.1701   -4.7426 C   0  0  0  0  0  0  0  0  0  0  0  0
    0.3562    3.6391   -5.1146 H   0  0  0  0  0  0  0  0  0  0  0  0
    1.5563    6.0875   -4.2012 H   0  0  0  0  0  0  0  0  0  0  0  0
    2.8416    4.8929   -4.5009 H   0  0  0  0  0  0  0  0  0  0  0  0
    1.7499    5.3755   -5.8157 H   0  0  0  0  0  0  0  0  0  0  0  0
  1  2  2  0  0  0  0
  1  3  1  0  0  0  0
  1  7  1  0  0  0  0
  3  4  1  0  0  0  0
  3  5  1  0  0  0  0
  3  6  1  0  0  0  0
  7  8  1  0  0  0  0
  7 12  1  0  0  0  0
  8  9  1  0  0  0  0
  8 11  1  0  0  0  0
  8 13  1  0  0  0  0
  9 10  2  0  0  0  0
  9 17  1  0  0  0  0
 11 14  1  0  0  0  0
 11 15  1  0  0  0  0
 11 16  1  0  0  0  0
 17 18  1  0  0  0  0
 17 25  1  0  0  0  0
 18 19  1  0  0  0  0
 18 21  1  0  0  0  0
 18 26  1  0  0  0  0
 19 20  2  0  0  0  0
 19 36  1  0  0  0  0
 21 22  1  0  0  0  0
 21 23  1  0  0  0  0
 21 27  1  0  0  0  0
 22 24  1  0  0  0  0
 22 28  1  0  0  0  0
 22 29  1  0  0  0  0
 23 30  1  0  0  0  0
 23 31  1  0  0  0  0
 23 32  1  0  0  0  0
 24 33  1  0  0  0  0
 24 34  1  0  0  0  0
 24 35  1  0  0  0  0
 36 37  1  0  0  0  0
 36 41  1  0  0  0  0
 37 38  1  0  0  0  0
 37 40  1  0  0  0  0
 37 42  1  0  0  0  0
 38 39  2  0  0  0  0
 38 46  1  0  0  0  0
 40 43  1  0  0  0  0
 40 44  1  0  0  0  0
 40 45  1  0  0  0  0
 46 47  1  0  0  0  0
 46 48  1  0  0  0  0
 47 49  1  0  0  0  0
 47 50  1  0  0  0  0
 47 51  1  0  0  0  0
M  END
$$$$

  -OEChem-05262216503D

 51 50  0     1  0  0  0  0  0999 V2000
    0.7656   -5.9426    0.4165 C   0  0  0  0  0  0  0  0  0  0  0  0
   -0.3687   -6.3755    0.2906 O   0  0  0  0  0  0  0  0  0  0  0  0
    1.9567   -6.8502    0.1721 C   0  0  0  0  0  0  0  0  0  0  0  0
    1.6205   -7.8806    0.0254 H   0  0  0  0  0  0  0  0  0  0  0  0
    2.4980   -6.5254   -0.7198 H   0  0  0  0  0  0  0  0  0  0  0  0
    2.6315   -6.8202    1.0308 H   0  0  0  0  0  0  0  0  0  0  0  0
    0.9659   -4.6261    0.7738 N   0  0  0  0  0  0  0  0  0  0  0  0
   -0.1047   -3.6302    0.9178 C   0  0  2  0  0  0  0  0  0  0  0  0
    0.4053   -2.1962    0.6568 C   0  0  0  0  0  0  0  0  0  0  0  0
    1.6110   -2.0009    0.5445 O   0  0  0  0  0  0  0  0  0  0  0  0
   -0.6815   -3.7354    2.3339 C   0  0  0  0  0  0  0  0  0  0  0  0
    1.9219   -4.2724    0.7546 H   0  0  0  0  0  0  0  0  0  0  0  0
   -0.8956   -3.8361    0.1883 H   0  0  0  0  0  0  0  0  0  0  0  0
    0.0925   -3.5255    3.0789 H   0  0  0  0  0  0  0  0  0  0  0  0
   -1.4995   -3.0216    2.4701 H   0  0  0  0  0  0  0  0  0  0  0  0
   -1.0718   -4.7424    2.5124 H   0  0  0  0  0  0  0  0  0  0  0  0
   -0.5062   -1.1768    0.4318 N   0  0  0  0  0  0  0  0  0  0  0  0
   -0.3412    0.2993    0.4548 C   0  0  2  0  0  0  0  0  0  0  0  0
   -1.0825    0.7670   -0.8325 C   0  0  0  0  0  0  0  0  0  0  0  0
   -2.2221    0.3591   -1.0121 O   0  0  0  0  0  0  0  0  0  0  0  0
    1.0460    0.9032    0.8739 C   0  0  2  0  0  0  0  0  0  0  0  0
    1.3569    0.5079    2.3514 C   0  0  0  0  0  0  0  0  0  0  0  0
    1.0382    2.4540    0.8636 C   0  0  0  0  0  0  0  0  0  0  0  0
    2.7970    0.8100    2.7840 C   0  0  0  0  0  0  0  0  0  0  0  0
   -1.4731   -1.4861    0.3360 H   0  0  0  0  0  0  0  0  0  0  0  0
   -1.0029    0.6509    1.2530 H   0  0  0  0  0  0  0  0  0  0  0  0
    1.8280    0.5335    0.2037 H   0  0  0  0  0  0  0  0  0  0  0  0
    0.6701    1.0336    3.0231 H   0  0  0  0  0  0  0  0  0  0  0  0
    1.1859   -0.5553    2.5166 H   0  0  0  0  0  0  0  0  0  0  0  0
    0.2424    2.8364    1.5108 H   0  0  0  0  0  0  0  0  0  0  0  0
    0.8909    2.8724   -0.1268 H   0  0  0  0  0  0  0  0  0  0  0  0
    1.9911    2.8550    1.2150 H   0  0  0  0  0  0  0  0  0  0  0  0
    3.5061    0.3873    2.0654 H   0  0  0  0  0  0  0  0  0  0  0  0
    2.9891    0.3596    3.7625 H   0  0  0  0  0  0  0  0  0  0  0  0
    2.9777    1.8841    2.8710 H   0  0  0  0  0  0  0  0  0  0  0  0
   -0.8140    1.8574   -1.6221 N   0  0  0  0  0  0  0  0  0  0  0  0
    0.3972    1.8587   -2.4605 C   0  0  2  0  0  0  0  0  0  0  0  0
    0.7760    3.2678   -2.9650 C   0  0  0  0  0  0  0  0  0  0  0  0
   -0.0865    4.1143   -3.1588 O   0  0  0  0  0  0  0  0  0  0  0  0
    0.1625    0.9330   -3.6599 C   0  0  0  0  0  0  0  0  0  0  0  0
   -1.6523    2.1729   -2.1080 H   0  0  0  0  0  0  0  0  0  0  0  0
    1.2468    1.4735   -1.8902 H   0  0  0  0  0  0  0  0  0  0  0  0
   -0.6895    1.2839   -4.2517 H   0  0  0  0  0  0  0  0  0  0  0  0
    1.0463    0.9108   -4.3047 H   0  0  0  0  0  0  0  0  0  0  0  0
   -0.0432   -0.0886   -3.3253 H   0  0  0  0  0  0  0  0  0  0  0  0
    2.0974    3.5754   -3.2336 N   0  0  0  0  0  0  0  0  0  0  0  0
    2.5267    4.8721   -3.7438 C   0  0  0  0  0  0  0  0  0  0  0  0
    2.7942    2.8526   -3.0797 H   0  0  0  0  0  0  0  0  0  0  0  0
    2.0669    5.0710   -4.7176 H   0  0  0  0  0  0  0  0  0  0  0  0
    2.2429    5.6708   -3.0503 H   0  0  0  0  0  0  0  0  0  0  0  0
    3.6141    4.8908   -3.8646 H   0  0  0  0  0  0  0  0  0  0  0  0
  1  2  2  0  0  0  0
  1  3  1  0  0  0  0
  1  7  1  0  0  0  0
  3  4  1  0  0  0  0
  3  5  1  0  0  0  0
  3  6  1  0  0  0  0
  7  8  1  0  0  0  0
  7 12  1  0  0  0  0
  8  9  1  0  0  0  0
  8 11  1  0  0  0  0
  8 13  1  0  0  0  0
  9 10  2  0  0  0  0
  9 17  1  0  0  0  0
 11 14  1  0  0  0  0
 11 15  1  0  0  0  0
 11 16  1  0  0  0  0
 17 18  1  0  0  0  0
 17 25  1  0  0  0  0
 18 19  1  0  0  0  0
 18 21  1  0  0  0  0
 18 26  1  0  0  0  0
 19 20  2  0  0  0  0
 19 36  1  0  0  0  0
 21 22  1  0  0  0  0
 21 23  1  0  0  0  0
 21 27  1  0  0  0  0
 22 24  1  0  0  0  0
 22 28  1  0  0  0  0
 22 29  1  0  0  0  0
 23 30  1  0  0  0  0
 23 31  1  0  0  0  0
 23 32  1  0  0  0  0
 24 33  1  0  0  0  0
 24 34  1  0  0  0  0
 24 35  1  0  0  0  0
 36 37  1  0  0  0  0
 36 41  1  0  0  0  0
 37 38  1  0  0  0  0
 37 40  1  0  0  0  0
 37 42  1  0  0  0  0
 38 39  2  0  0  0  0
 38 46  1  0  0  0  0
 40 43  1  0  0  0  0
 40 44  1  0  0  0  0
 40 45  1  0  0  0  0
 46 47  1  0  0  0  0
 46 48  1  0  0  0  0
 47 49  1  0  0  0  0
 47 50  1  0  0  0  0
 47 51  1  0  0  0  0
M  END
$$$$

  -OEChem-05262216503D

 51 50  0     1  0  0  0  0  0999 V2000
    1.1416   -6.1139    0.5910 C   0  0  0  0  0  0  0  0  0  0  0  0
    0.1983   -6.5479   -0.0512 O   0  0  0  0  0  0  0  0  0  0  0  0
    2.3602   -6.9837    0.8372 C   0  0  0  0  0  0  0  0  0  0  0  0
    2.1953   -7.9874    0.4352 H   0  0  0  0  0  0  0  0  0  0  0  0
    3.2343   -6.5472    0.3476 H   0  0  0  0  0  0  0  0  0  0  0  0
    2.5529   -7.0617    1.9101 H   0  0  0  0  0  0  0  0  0  0  0  0
    1.1097   -4.8274    1.0845 N   0  0  0  0  0  0  0  0  0  0  0  0
    0.0701   -3.8403    0.7656 C   0  0  2  0  0  0  0  0  0  0  0  0
    0.6192   -2.3981    0.8201 C   0  0  0  0  0  0  0  0  0  0  0  0
    1.7535   -2.2095    1.2448 O   0  0  0  0  0  0  0  0  0  0  0  0
   -1.0844   -4.0085    1.7591 C   0  0  0  0  0  0  0  0  0  0  0  0
    1.9697   -4.4630    1.4940 H   0  0  0  0  0  0  0  0  0  0  0  0
   -0.3000   -4.0124   -0.2510 H   0  0  0  0  0  0  0  0  0  0  0  0
   -0.7379   -3.8294    2.7820 H   0  0  0  0  0  0  0  0  0  0  0  0
   -1.8912   -3.3038    1.5356 H   0  0  0  0  0  0  0  0  0  0  0  0
   -1.4899   -5.0236    1.7014 H   0  0  0  0  0  0  0  0  0  0  0  0
   -0.1343   -1.3684    0.2788 N   0  0  0  0  0  0  0  0  0  0  0  0
   -0.0010    0.1079    0.3696 C   0  0  2  0  0  0  0  0  0  0  0  0
   -0.1945    0.6319   -1.0789 C   0  0  0  0  0  0  0  0  0  0  0  0
   -1.1319    0.1843   -1.7330 O   0  0  0  0  0  0  0  0  0  0  0  0
    1.1265    0.7102    1.2824 C   0  0  2  0  0  0  0  0  0  0  0  0
    0.8667    0.3123    2.7682 C   0  0  0  0  0  0  0  0  0  0  0  0
    1.1758    2.2568    1.2048 C   0  0  0  0  0  0  0  0  0  0  0  0
    2.0405    0.6129    3.7091 C   0  0  0  0  0  0  0  0  0  0  0  0
   -0.9564   -1.6779   -0.2385 H   0  0  0  0  0  0  0  0  0  0  0  0
   -0.9160    0.4419    0.8683 H   0  0  0  0  0  0  0  0  0  0  0  0
    2.0968    0.3153    0.9634 H   0  0  0  0  0  0  0  0  0  0  0  0
   -0.0152    0.8502    3.1311 H   0  0  0  0  0  0  0  0  0  0  0  0
    0.6337   -0.7479    2.8608 H   0  0  0  0  0  0  0  0  0  0  0  0
    0.1644    2.6754    1.1977 H   0  0  0  0  0  0  0  0  0  0  0  0
    1.7071    2.5925    0.3129 H   0  0  0  0  0  0  0  0  0  0  0  0
    1.7125    2.6926    2.0484 H   0  0  0  0  0  0  0  0  0  0  0  0
    2.9659    0.1896    3.3061 H   0  0  0  0  0  0  0  0  0  0  0  0
    1.8526    0.1600    4.6871 H   0  0  0  0  0  0  0  0  0  0  0  0
    2.1795    1.6852    3.8620 H   0  0  0  0  0  0  0  0  0  0  0  0
    0.6057    1.5852   -1.6748 N   0  0  0  0  0  0  0  0  0  0  0  0
    0.4988    2.0336   -3.0682 C   0  0  2  0  0  0  0  0  0  0  0  0
    1.8485    2.5818   -3.5773 C   0  0  0  0  0  0  0  0  0  0  0  0
    2.7614    2.7973   -2.7868 O   0  0  0  0  0  0  0  0  0  0  0  0
   -0.5835    3.1152   -3.1563 C   0  0  0  0  0  0  0  0  0  0  0  0
    1.4707    1.8260   -1.1914 H   0  0  0  0  0  0  0  0  0  0  0  0
    0.2231    1.1878   -3.7070 H   0  0  0  0  0  0  0  0  0  0  0  0
   -0.3243    3.9672   -2.5195 H   0  0  0  0  0  0  0  0  0  0  0  0
   -0.6913    3.4691   -4.1859 H   0  0  0  0  0  0  0  0  0  0  0  0
   -1.5485    2.7163   -2.8286 H   0  0  0  0  0  0  0  0  0  0  0  0
    2.0447    2.8293   -4.9233 N   0  0  0  0  0  0  0  0  0  0  0  0
    3.2937    3.3493   -5.4664 C   0  0  0  0  0  0  0  0  0  0  0  0
    1.2750    2.6328   -5.5566 H   0  0  0  0  0  0  0  0  0  0  0  0
    3.5171    4.3325   -5.0389 H   0  0  0  0  0  0  0  0  0  0  0  0
    4.1229    2.6705   -5.2402 H   0  0  0  0  0  0  0  0  0  0  0  0
    3.2193    3.4538   -6.5530 H   0  0  0  0  0  0  0  0  0  0  0  0
  1  2  2  0  0  0  0
  1  3  1  0  0  0  0
  1  7  1  0  0  0  0
  3  4  1  0  0  0  0
  3  5  1  0  0  0  0
  3  6  1  0  0  0  0
  7  8  1  0  0  0  0
  7 12  1  0  0  0  0
  8  9  1  0  0  0  0
  8 11  1  0  0  0  0
  8 13  1  0  0  0  0
  9 10  2  0  0  0  0
  9 17  1  0  0  0  0
 11 14  1  0  0  0  0
 11 15  1  0  0  0  0
 11 16  1  0  0  0  0
 17 18  1  0  0  0  0
 17 25  1  0  0  0  0
 18 19  1  0  0  0  0
 18 21  1  0  0  0  0
 18 26  1  0  0  0  0
 19 20  2  0  0  0  0
 19 36  1  0  0  0  0
 21 22  1  0  0  0  0
 21 23  1  0  0  0  0
 21 27  1  0  0  0  0
 22 24  1  0  0  0  0
 22 28  1  0  0  0  0
 22 29  1  0  0  0  0
 23 30  1  0  0  0  0
 23 31  1  0  0  0  0
 23 32  1  0  0  0  0
 24 33  1  0  0  0  0
 24 34  1  0  0  0  0
 24 35  1  0  0  0  0
 36 37  1  0  0  0  0
 36 41  1  0  0  0  0
 37 38  1  0  0  0  0
 37 40  1  0  0  0  0
 37 42  1  0  0  0  0
 38 39  2  0  0  0  0
 38 46  1  0  0  0  0
 40 43  1  0  0  0  0
 40 44  1  0  0  0  0
 40 45  1  0  0  0  0
 46 47  1  0  0  0  0
 46 48  1  0  0  0  0
 47 49  1  0  0  0  0
 47 50  1  0  0  0  0
 47 51  1  0  0  0  0
M  END
$$$$

  -OEChem-05262216503D

 51 50  0     1  0  0  0  0  0999 V2000
    1.1236   -6.1197    0.6028 C   0  0  0  0  0  0  0  0  0  0  0  0
    0.1677   -6.5583   -0.0172 O   0  0  0  0  0  0  0  0  0  0  0  0
    2.3481   -6.9856    0.8313 C   0  0  0  0  0  0  0  0  0  0  0  0
    2.1826   -7.9878    0.4262 H   0  0  0  0  0  0  0  0  0  0  0  0
    3.2149   -6.5432    0.3345 H   0  0  0  0  0  0  0  0  0  0  0  0
    2.5527   -7.0674    1.9016 H   0  0  0  0  0  0  0  0  0  0  0  0
    1.0982   -4.8305    1.0893 N   0  0  0  0  0  0  0  0  0  0  0  0
    0.0519   -3.8471    0.7808 C   0  0  2  0  0  0  0  0  0  0  0  0
    0.6075   -2.4064    0.7930 C   0  0  0  0  0  0  0  0  0  0  0  0
    1.7496   -2.2133    1.1939 O   0  0  0  0  0  0  0  0  0  0  0  0
   -1.0739   -3.9960    1.8094 C   0  0  0  0  0  0  0  0  0  0  0  0
    1.9653   -4.4618    1.4796 H   0  0  0  0  0  0  0  0  0  0  0  0
   -0.3467   -4.0372   -0.2218 H   0  0  0  0  0  0  0  0  0  0  0  0
   -0.6983   -3.7999    2.8189 H   0  0  0  0  0  0  0  0  0  0  0  0
   -1.8860   -3.2944    1.5964 H   0  0  0  0  0  0  0  0  0  0  0  0
   -1.4814   -5.0117    1.7807 H   0  0  0  0  0  0  0  0  0  0  0  0
   -0.1415   -1.3833    0.2336 N   0  0  0  0  0  0  0  0  0  0  0  0
   -0.0086    0.0914    0.3339 C   0  0  2  0  0  0  0  0  0  0  0  0
   -0.1694    0.6177   -1.1131 C   0  0  0  0  0  0  0  0  0  0  0  0
   -1.2022    0.3452   -1.7160 O   0  0  0  0  0  0  0  0  0  0  0  0
    1.1113    0.7020    1.2452 C   0  0  2  0  0  0  0  0  0  0  0  0
    0.8618    0.3058    2.7321 C   0  0  0  0  0  0  0  0  0  0  0  0
    1.1272    2.2490    1.1738 C   0  0  0  0  0  0  0  0  0  0  0  0
    2.0397    0.6233    3.6606 C   0  0  0  0  0  0  0  0  0  0  0  0
   -0.9904   -1.6938   -0.2366 H   0  0  0  0  0  0  0  0  0  0  0  0
   -0.9289    0.4256    0.8234 H   0  0  0  0  0  0  0  0  0  0  0  0
    2.0863    0.3237    0.9198 H   0  0  0  0  0  0  0  0  0  0  0  0
   -0.0236    0.8345    3.0999 H   0  0  0  0  0  0  0  0  0  0  0  0
    0.6424   -0.7568    2.8293 H   0  0  0  0  0  0  0  0  0  0  0  0
    0.1256    2.6504    1.3578 H   0  0  0  0  0  0  0  0  0  0  0  0
    1.8082    2.6750    1.9130 H   0  0  0  0  0  0  0  0  0  0  0  0
    1.4750    2.6113    0.2062 H   0  0  0  0  0  0  0  0  0  0  0  0
    2.9643    0.1980    3.2580 H   0  0  0  0  0  0  0  0  0  0  0  0
    1.8597    0.1841    4.6464 H   0  0  0  0  0  0  0  0  0  0  0  0
    2.1739    1.6992    3.7943 H   0  0  0  0  0  0  0  0  0  0  0  0
    0.8054    1.3348   -1.7778 N   0  0  0  0  0  0  0  0  0  0  0  0
    0.7353    1.7569   -3.1820 C   0  0  2  0  0  0  0  0  0  0  0  0
    2.1436    1.9608   -3.7780 C   0  0  0  0  0  0  0  0  0  0  0  0
    3.1189    2.0400   -3.0388 O   0  0  0  0  0  0  0  0  0  0  0  0
   -0.0703    3.0582   -3.2638 C   0  0  0  0  0  0  0  0  0  0  0  0
    1.7146    1.4151   -1.3209 H   0  0  0  0  0  0  0  0  0  0  0  0
    0.2363    0.9818   -3.7732 H   0  0  0  0  0  0  0  0  0  0  0  0
    0.4109    3.8437   -2.6723 H   0  0  0  0  0  0  0  0  0  0  0  0
   -0.1460    3.3996   -4.3004 H   0  0  0  0  0  0  0  0  0  0  0  0
   -1.0831    2.9032   -2.8791 H   0  0  0  0  0  0  0  0  0  0  0  0
    2.3202    2.0518   -5.1465 N   0  0  0  0  0  0  0  0  0  0  0  0
    3.6229    2.2411   -5.7735 C   0  0  0  0  0  0  0  0  0  0  0  0
    1.4963    1.9719   -5.7355 H   0  0  0  0  0  0  0  0  0  0  0  0
    4.0582    3.1986   -5.4687 H   0  0  0  0  0  0  0  0  0  0  0  0
    4.3074    1.4354   -5.4873 H   0  0  0  0  0  0  0  0  0  0  0  0
    3.5228    2.2372   -6.8632 H   0  0  0  0  0  0  0  0  0  0  0  0
  1  2  2  0  0  0  0
  1  3  1  0  0  0  0
  1  7  1  0  0  0  0
  3  4  1  0  0  0  0
  3  5  1  0  0  0  0
  3  6  1  0  0  0  0
  7  8  1  0  0  0  0
  7 12  1  0  0  0  0
  8  9  1  0  0  0  0
  8 11  1  0  0  0  0
  8 13  1  0  0  0  0
  9 10  2  0  0  0  0
  9 17  1  0  0  0  0
 11 14  1  0  0  0  0
 11 15  1  0  0  0  0
 11 16  1  0  0  0  0
 17 18  1  0  0  0  0
 17 25  1  0  0  0  0
 18 19  1  0  0  0  0
 18 21  1  0  0  0  0
 18 26  1  0  0  0  0
 19 20  2  0  0  0  0
 19 36  1  0  0  0  0
 21 22  1  0  0  0  0
 21 23  1  0  0  0  0
 21 27  1  0  0  0  0
 22 24  1  0  0  0  0
 22 28  1  0  0  0  0
 22 29  1  0  0  0  0
 23 30  1  0  0  0  0
 23 31  1  0  0  0  0
 23 32  1  0  0  0  0
 24 33  1  0  0  0  0
 24 34  1  0  0  0  0
 24 35  1  0  0  0  0
 36 37  1  0  0  0  0
 36 41  1  0  0  0  0
 37 38  1  0  0  0  0
 37 40  1  0  0  0  0
 37 42  1  0  0  0  0
 38 39  2  0  0  0  0
 38 46  1  0  0  0  0
 40 43  1  0  0  0  0
 40 44  1  0  0  0  0
 40 45  1  0  0  0  0
 46 47  1  0  0  0  0
 46 48  1  0  0  0  0
 47 49  1  0  0  0  0
 47 50  1  0  0  0  0
 47 51  1  0  0  0  0
M  END
$$$$

  -OEChem-05262216503D

 51 50  0     1  0  0  0  0  0999 V2000
    1.1056   -6.1291    0.6644 C   0  0  0  0  0  0  0  0  0  0  0  0
    0.1325   -6.5795    0.0803 O   0  0  0  0  0  0  0  0  0  0  0  0
    2.3394   -6.9886    0.8660 C   0  0  0  0  0  0  0  0  0  0  0  0
    2.1558   -8.0036    0.5026 H   0  0  0  0  0  0  0  0  0  0  0  0
    3.1824   -6.5640    0.3154 H   0  0  0  0  0  0  0  0  0  0  0  0
    2.5936   -7.0354    1.9278 H   0  0  0  0  0  0  0  0  0  0  0  0
    1.0930   -4.8309    1.1280 N   0  0  0  0  0  0  0  0  0  0  0  0
    0.0369   -3.8545    0.8305 C   0  0  2  0  0  0  0  0  0  0  0  0
    0.5896   -2.4136    0.7908 C   0  0  0  0  0  0  0  0  0  0  0  0
    1.7334   -2.2038    1.1771 O   0  0  0  0  0  0  0  0  0  0  0  0
   -1.0559   -3.9770    1.8971 C   0  0  0  0  0  0  0  0  0  0  0  0
    1.9713   -4.4541    1.4847 H   0  0  0  0  0  0  0  0  0  0  0  0
   -0.3936   -4.0681   -0.1538 H   0  0  0  0  0  0  0  0  0  0  0  0
   -0.6480   -3.7577    2.8891 H   0  0  0  0  0  0  0  0  0  0  0  0
   -1.8733   -3.2788    1.6932 H   0  0  0  0  0  0  0  0  0  0  0  0
   -1.4656   -4.9921    1.9055 H   0  0  0  0  0  0  0  0  0  0  0  0
   -0.1604   -1.4112    0.1969 N   0  0  0  0  0  0  0  0  0  0  0  0
   -0.0411    0.0651    0.2823 C   0  0  2  0  0  0  0  0  0  0  0  0
   -0.1701    0.5864   -1.1649 C   0  0  0  0  0  0  0  0  0  0  0  0
   -1.2598    0.5143   -1.7208 O   0  0  0  0  0  0  0  0  0  0  0  0
    1.0658    0.7090    1.1814 C   0  0  2  0  0  0  0  0  0  0  0  0
    0.8340    0.3422    2.6764 C   0  0  0  0  0  0  0  0  0  0  0  0
    1.0602    2.2518    1.0658 C   0  0  0  0  0  0  0  0  0  0  0  0
    2.0146    0.7046    3.5832 C   0  0  0  0  0  0  0  0  0  0  0  0
   -1.0233   -1.7373   -0.2345 H   0  0  0  0  0  0  0  0  0  0  0  0
   -0.9692    0.3966    0.7591 H   0  0  0  0  0  0  0  0  0  0  0  0
    2.0441    0.3373    0.8582 H   0  0  0  0  0  0  0  0  0  0  0  0
   -0.0592    0.8611    3.0392 H   0  0  0  0  0  0  0  0  0  0  0  0
    0.6377   -0.7223    2.7981 H   0  0  0  0  0  0  0  0  0  0  0  0
    0.0866    2.6546    1.3622 H   0  0  0  0  0  0  0  0  0  0  0  0
    1.8271    2.6950    1.7051 H   0  0  0  0  0  0  0  0  0  0  0  0
    1.2755    2.5879    0.0505 H   0  0  0  0  0  0  0  0  0  0  0  0
    2.9408    0.2726    3.1916 H   0  0  0  0  0  0  0  0  0  0  0  0
    1.8450    0.3042    4.5871 H   0  0  0  0  0  0  0  0  0  0  0  0
    2.1376    1.7868    3.6706 H   0  0  0  0  0  0  0  0  0  0  0  0
    0.9195    1.0341   -1.8866 N   0  0  0  0  0  0  0  0  0  0  0  0
    0.8919    1.4003   -3.3077 C   0  0  2  0  0  0  0  0  0  0  0  0
    2.2787    1.2339   -3.9630 C   0  0  0  0  0  0  0  0  0  0  0  0
    3.2790    1.1103   -3.2652 O   0  0  0  0  0  0  0  0  0  0  0  0
    0.4166    2.8522   -3.4283 C   0  0  0  0  0  0  0  0  0  0  0  0
    1.8392    0.9189   -1.4583 H   0  0  0  0  0  0  0  0  0  0  0  0
    0.1957    0.7444   -3.8407 H   0  0  0  0  0  0  0  0  0  0  0  0
    1.1016    3.5231   -2.8999 H   0  0  0  0  0  0  0  0  0  0  0  0
    0.3714    3.1564   -4.4783 H   0  0  0  0  0  0  0  0  0  0  0  0
   -0.5828    2.9634   -2.9956 H   0  0  0  0  0  0  0  0  0  0  0  0
    2.4065    1.2195   -5.3398 N   0  0  0  0  0  0  0  0  0  0  0  0
    3.6856    1.0685   -6.0229 C   0  0  0  0  0  0  0  0  0  0  0  0
    1.5598    1.3102   -5.8936 H   0  0  0  0  0  0  0  0  0  0  0  0
    4.3541    1.8984   -5.7710 H   0  0  0  0  0  0  0  0  0  0  0  0
    4.1668    0.1280   -5.7339 H   0  0  0  0  0  0  0  0  0  0  0  0
    3.5375    1.0612   -7.1070 H   0  0  0  0  0  0  0  0  0  0  0  0
  1  2  2  0  0  0  0
  1  3  1  0  0  0  0
  1  7  1  0  0  0  0
  3  4  1  0  0  0  0
  3  5  1  0  0  0  0
  3  6  1  0  0  0  0
  7  8  1  0  0  0  0
  7 12  1  0  0  0  0
  8  9  1  0  0  0  0
  8 11  1  0  0  0  0
  8 13  1  0  0  0  0
  9 10  2  0  0  0  0
  9 17  1  0  0  0  0
 11 14  1  0  0  0  0
 11 15  1  0  0  0  0
 11 16  1  0  0  0  0
 17 18  1  0  0  0  0
 17 25  1  0  0  0  0
 18 19  1  0  0  0  0
 18 21  1  0  0  0  0
 18 26  1  0  0  0  0
 19 20  2  0  0  0  0
 19 36  1  0  0  0  0
 21 22  1  0  0  0  0
 21 23  1  0  0  0  0
 21 27  1  0  0  0  0
 22 24  1  0  0  0  0
 22 28  1  0  0  0  0
 22 29  1  0  0  0  0
 23 30  1  0  0  0  0
 23 31  1  0  0  0  0
 23 32  1  0  0  0  0
 24 33  1  0  0  0  0
 24 34  1  0  0  0  0
 24 35  1  0  0  0  0
 36 37  1  0  0  0  0
 36 41  1  0  0  0  0
 37 38  1  0  0  0  0
 37 40  1  0  0  0  0
 37 42  1  0  0  0  0
 38 39  2  0  0  0  0
 38 46  1  0  0  0  0
 40 43  1  0  0  0  0
 40 44  1  0  0  0  0
 40 45  1  0  0  0  0
 46 47  1  0  0  0  0
 46 48  1  0  0  0  0
 47 49  1  0  0  0  0
 47 50  1  0  0  0  0
 47 51  1  0  0  0  0
M  END
$$$$

  -OEChem-05262216503D

 51 50  0     1  0  0  0  0  0999 V2000
    1.0505   -6.1475    0.7049 C   0  0  0  0  0  0  0  0  0  0  0  0
    0.0408   -6.5866    0.1771 O   0  0  0  0  0  0  0  0  0  0  0  0
    2.2855   -7.0195    0.8299 C   0  0  0  0  0  0  0  0  0  0  0  0
    2.0843   -8.0175    0.4302 H   0  0  0  0  0  0  0  0  0  0  0  0
    3.1130   -6.5760    0.2707 H   0  0  0  0  0  0  0  0  0  0  0  0
    2.5725   -7.1116    1.8801 H   0  0  0  0  0  0  0  0  0  0  0  0
    1.0745   -4.8524    1.1763 N   0  0  0  0  0  0  0  0  0  0  0  0
    0.0054   -3.8714    0.9505 C   0  0  2  0  0  0  0  0  0  0  0  0
    0.5633   -2.4382    0.8224 C   0  0  0  0  0  0  0  0  0  0  0  0
    1.7121   -2.2109    1.1823 O   0  0  0  0  0  0  0  0  0  0  0  0
   -0.9823   -3.9560    2.1177 C   0  0  0  0  0  0  0  0  0  0  0  0
    1.9743   -4.4829    1.4829 H   0  0  0  0  0  0  0  0  0  0  0  0
   -0.5175   -4.1051    0.0169 H   0  0  0  0  0  0  0  0  0  0  0  0
   -0.4793   -3.7221    3.0616 H   0  0  0  0  0  0  0  0  0  0  0  0
   -1.8065   -3.2501    1.9766 H   0  0  0  0  0  0  0  0  0  0  0  0
   -1.4009   -4.9652    2.1870 H   0  0  0  0  0  0  0  0  0  0  0  0
   -0.1880   -1.4675    0.1794 N   0  0  0  0  0  0  0  0  0  0  0  0
   -0.0825    0.0118    0.2225 C   0  0  2  0  0  0  0  0  0  0  0  0
   -0.1830    0.5169   -1.2300 C   0  0  0  0  0  0  0  0  0  0  0  0
   -1.2849    0.7052   -1.7302 O   0  0  0  0  0  0  0  0  0  0  0  0
    1.0190    0.6944    1.0959 C   0  0  2  0  0  0  0  0  0  0  0  0
    0.8111    0.3813    2.6053 C   0  0  0  0  0  0  0  0  0  0  0  0
    1.0040    2.2280    0.9013 C   0  0  0  0  0  0  0  0  0  0  0  0
    2.0021    0.7941    3.4761 C   0  0  0  0  0  0  0  0  0  0  0  0
   -1.0629   -1.8151   -0.2075 H   0  0  0  0  0  0  0  0  0  0  0  0
   -1.0162    0.3472    0.6861 H   0  0  0  0  0  0  0  0  0  0  0  0
    1.9976    0.3179    0.7801 H   0  0  0  0  0  0  0  0  0  0  0  0
   -0.0825    0.9045    2.9608 H   0  0  0  0  0  0  0  0  0  0  0  0
    0.6300   -0.6801    2.7718 H   0  0  0  0  0  0  0  0  0  0  0  0
    0.0315    2.6408    1.1874 H   0  0  0  0  0  0  0  0  0  0  0  0
    1.7761    2.7083    1.5067 H   0  0  0  0  0  0  0  0  0  0  0  0
    1.2043    2.5049   -0.1364 H   0  0  0  0  0  0  0  0  0  0  0  0
    2.9250    0.3480    3.0922 H   0  0  0  0  0  0  0  0  0  0  0  0
    1.8497    0.4421    4.5007 H   0  0  0  0  0  0  0  0  0  0  0  0
    2.1198    1.8801    3.5080 H   0  0  0  0  0  0  0  0  0  0  0  0
    0.9498    0.6667   -2.0061 N   0  0  0  0  0  0  0  0  0  0  0  0
    0.9515    1.0271   -3.4285 C   0  0  2  0  0  0  0  0  0  0  0  0
    2.2161    0.5105   -4.1461 C   0  0  0  0  0  0  0  0  0  0  0  0
    3.1790    0.1191   -3.4962 O   0  0  0  0  0  0  0  0  0  0  0  0
    0.8590    2.5523   -3.5420 C   0  0  0  0  0  0  0  0  0  0  0  0
    1.8320    0.3394   -1.6087 H   0  0  0  0  0  0  0  0  0  0  0  0
    0.0854    0.5733   -3.9212 H   0  0  0  0  0  0  0  0  0  0  0  0
    1.7160    3.0242   -3.0504 H   0  0  0  0  0  0  0  0  0  0  0  0
    0.8457    2.8597   -4.5918 H   0  0  0  0  0  0  0  0  0  0  0  0
   -0.0580    2.9148   -3.0668 H   0  0  0  0  0  0  0  0  0  0  0  0
    2.2746    0.4795   -5.5274 N   0  0  0  0  0  0  0  0  0  0  0  0
    3.4344   -0.0014   -6.2686 C   0  0  0  0  0  0  0  0  0  0  0  0
    1.4575    0.7951   -6.0417 H   0  0  0  0  0  0  0  0  0  0  0  0
    4.3139    0.6109   -6.0434 H   0  0  0  0  0  0  0  0  0  0  0  0
    3.6524   -1.0421   -6.0061 H   0  0  0  0  0  0  0  0  0  0  0  0
    3.2442    0.0506   -7.3450 H   0  0  0  0  0  0  0  0  0  0  0  0
  1  2  2  0  0  0  0
  1  3  1  0  0  0  0
  1  7  1  0  0  0  0
  3  4  1  0  0  0  0
  3  5  1  0  0  0  0
  3  6  1  0  0  0  0
  7  8  1  0  0  0  0
  7 12  1  0  0  0  0
  8  9  1  0  0  0  0
  8 11  1  0  0  0  0
  8 13  1  0  0  0  0
  9 10  2  0  0  0  0
  9 17  1  0  0  0  0
 11 14  1  0  0  0  0
 11 15  1  0  0  0  0
 11 16  1  0  0  0  0
 17 18  1  0  0  0  0
 17 25  1  0  0  0  0
 18 19  1  0  0  0  0
 18 21  1  0  0  0  0
 18 26  1  0  0  0  0
 19 20  2  0  0  0  0
 19 36  1  0  0  0  0
 21 22  1  0  0  0  0
 21 23  1  0  0  0  0
 21 27  1  0  0  0  0
 22 24  1  0  0  0  0
 22 28  1  0  0  0  0
 22 29  1  0  0  0  0
 23 30  1  0  0  0  0
 23 31  1  0  0  0  0
 23 32  1  0  0  0  0
 24 33  1  0  0  0  0
 24 34  1  0  0  0  0
 24 35  1  0  0  0  0
 36 37  1  0  0  0  0
 36 41  1  0  0  0  0
 37 38  1  0  0  0  0
 37 40  1  0  0  0  0
 37 42  1  0  0  0  0
 38 39  2  0  0  0  0
 38 46  1  0  0  0  0
 40 43  1  0  0  0  0
 40 44  1  0  0  0  0
 40 45  1  0  0  0  0
 46 47  1  0  0  0  0
 46 48  1  0  0  0  0
 47 49  1  0  0  0  0
 47 50  1  0  0  0  0
 47 51  1  0  0  0  0
M  END
$$$$

  -OEChem-05262216503D

 51 50  0     1  0  0  0  0  0999 V2000
    1.0270   -6.1546    0.7532 C   0  0  0  0  0  0  0  0  0  0  0  0
    0.0026   -6.5963    0.2568 O   0  0  0  0  0  0  0  0  0  0  0  0
    2.2653   -7.0257    0.8486 C   0  0  0  0  0  0  0  0  0  0  0  0
    2.0490   -8.0308    0.4756 H   0  0  0  0  0  0  0  0  0  0  0  0
    3.0717   -6.5940    0.2505 H   0  0  0  0  0  0  0  0  0  0  0  0
    2.5914   -7.0992    1.8890 H   0  0  0  0  0  0  0  0  0  0  0  0
    1.0640   -4.8567    1.2161 N   0  0  0  0  0  0  0  0  0  0  0  0
   -0.0051   -3.8740    1.0000 C   0  0  2  0  0  0  0  0  0  0  0  0
    0.5578   -2.4469    0.8370 C   0  0  0  0  0  0  0  0  0  0  0  0
    1.7116   -2.2165    1.1781 O   0  0  0  0  0  0  0  0  0  0  0  0
   -0.9679   -3.9327    2.1892 C   0  0  0  0  0  0  0  0  0  0  0  0
    1.9724   -4.4868    1.4957 H   0  0  0  0  0  0  0  0  0  0  0  0
   -0.5501   -4.1191    0.0819 H   0  0  0  0  0  0  0  0  0  0  0  0
   -0.4435   -3.6879    3.1185 H   0  0  0  0  0  0  0  0  0  0  0  0
   -1.7892   -3.2224    2.0544 H   0  0  0  0  0  0  0  0  0  0  0  0
   -1.3926   -4.9373    2.2831 H   0  0  0  0  0  0  0  0  0  0  0  0
   -0.1938   -1.4896    0.1754 N   0  0  0  0  0  0  0  0  0  0  0  0
   -0.0932   -0.0091    0.2005 C   0  0  2  0  0  0  0  0  0  0  0  0
   -0.1831    0.4938   -1.2517 C   0  0  0  0  0  0  0  0  0  0  0  0
   -1.2343    0.9525   -1.6800 O   0  0  0  0  0  0  0  0  0  0  0  0
    1.0093    0.6858    1.0611 C   0  0  2  0  0  0  0  0  0  0  0  0
    0.8124    0.3938    2.5752 C   0  0  0  0  0  0  0  0  0  0  0  0
    1.0058    2.2125    0.8284 C   0  0  0  0  0  0  0  0  0  0  0  0
    2.0081    0.8221    3.4318 C   0  0  0  0  0  0  0  0  0  0  0  0
   -1.0761   -1.8454   -0.1853 H   0  0  0  0  0  0  0  0  0  0  0  0
   -1.0270    0.3281    0.6625 H   0  0  0  0  0  0  0  0  0  0  0  0
    1.9852    0.3002    0.7477 H   0  0  0  0  0  0  0  0  0  0  0  0
   -0.0799    0.9215    2.9276 H   0  0  0  0  0  0  0  0  0  0  0  0
    0.6348   -0.6656    2.7574 H   0  0  0  0  0  0  0  0  0  0  0  0
    0.0344    2.6392    1.0970 H   0  0  0  0  0  0  0  0  0  0  0  0
    1.7778    2.7032    1.4254 H   0  0  0  0  0  0  0  0  0  0  0  0
    1.2150    2.4550   -0.2172 H   0  0  0  0  0  0  0  0  0  0  0  0
    2.9301    0.3734    3.0488 H   0  0  0  0  0  0  0  0  0  0  0  0
    1.8637    0.4860    4.4629 H   0  0  0  0  0  0  0  0  0  0  0  0
    2.1225    1.9089    3.4456 H   0  0  0  0  0  0  0  0  0  0  0  0
    0.8970    0.3506   -2.0994 N   0  0  0  0  0  0  0  0  0  0  0  0
    0.8856    0.6672   -3.5323 C   0  0  2  0  0  0  0  0  0  0  0  0
    1.9040   -0.1882   -4.3156 C   0  0  0  0  0  0  0  0  0  0  0  0
    2.7449   -0.8502   -3.7178 O   0  0  0  0  0  0  0  0  0  0  0  0
    1.1958    2.1584   -3.6983 C   0  0  0  0  0  0  0  0  0  0  0  0
    1.6931   -0.1841   -1.7473 H   0  0  0  0  0  0  0  0  0  0  0  0
   -0.1057    0.4553   -3.9466 H   0  0  0  0  0  0  0  0  0  0  0  0
    2.1841    2.3903   -3.2884 H   0  0  0  0  0  0  0  0  0  0  0  0
    1.1812    2.4395   -4.7554 H   0  0  0  0  0  0  0  0  0  0  0  0
    0.4499    2.7626   -3.1721 H   0  0  0  0  0  0  0  0  0  0  0  0
    1.8739   -0.2245   -5.6979 N   0  0  0  0  0  0  0  0  0  0  0  0
    2.8127   -1.0019   -6.4980 C   0  0  0  0  0  0  0  0  0  0  0  0
    1.1642    0.3287   -6.1693 H   0  0  0  0  0  0  0  0  0  0  0  0
    3.8374   -0.6539   -6.3309 H   0  0  0  0  0  0  0  0  0  0  0  0
    2.7535   -2.0634   -6.2354 H   0  0  0  0  0  0  0  0  0  0  0  0
    2.5812   -0.8963   -7.5621 H   0  0  0  0  0  0  0  0  0  0  0  0
  1  2  2  0  0  0  0
  1  3  1  0  0  0  0
  1  7  1  0  0  0  0
  3  4  1  0  0  0  0
  3  5  1  0  0  0  0
  3  6  1  0  0  0  0
  7  8  1  0  0  0  0
  7 12  1  0  0  0  0
  8  9  1  0  0  0  0
  8 11  1  0  0  0  0
  8 13  1  0  0  0  0
  9 10  2  0  0  0  0
  9 17  1  0  0  0  0
 11 14  1  0  0  0  0
 11 15  1  0  0  0  0
 11 16  1  0  0  0  0
 17 18  1  0  0  0  0
 17 25  1  0  0  0  0
 18 19  1  0  0  0  0
 18 21  1  0  0  0  0
 18 26  1  0  0  0  0
 19 20  2  0  0  0  0
 19 36  1  0  0  0  0
 21 22  1  0  0  0  0
 21 23  1  0  0  0  0
 21 27  1  0  0  0  0
 22 24  1  0  0  0  0
 22 28  1  0  0  0  0
 22 29  1  0  0  0  0
 23 30  1  0  0  0  0
 23 31  1  0  0  0  0
 23 32  1  0  0  0  0
 24 33  1  0  0  0  0
 24 34  1  0  0  0  0
 24 35  1  0  0  0  0
 36 37  1  0  0  0  0
 36 41  1  0  0  0  0
 37 38  1  0  0  0  0
 37 40  1  0  0  0  0
 37 42  1  0  0  0  0
 38 39  2  0  0  0  0
 38 46  1  0  0  0  0
 40 43  1  0  0  0  0
 40 44  1  0  0  0  0
 40 45  1  0  0  0  0
 46 47  1  0  0  0  0
 46 48  1  0  0  0  0
 47 49  1  0  0  0  0
 47 50  1  0  0  0  0
 47 51  1  0  0  0  0
M  END
$$$$

  -OEChem-05262216503D

 51 50  0     1  0  0  0  0  0999 V2000
    1.0891   -6.1576    0.8038 C   0  0  0  0  0  0  0  0  0  0  0  0
    0.0653   -6.6241    0.3291 O   0  0  0  0  0  0  0  0  0  0  0  0
    2.3208   -7.0292    0.9614 C   0  0  0  0  0  0  0  0  0  0  0  0
    2.0959   -8.0563    0.6604 H   0  0  0  0  0  0  0  0  0  0  0  0
    3.1308   -6.6475    0.3349 H   0  0  0  0  0  0  0  0  0  0  0  0
    2.6458   -7.0315    2.0047 H   0  0  0  0  0  0  0  0  0  0  0  0
    1.1281   -4.8349    1.1912 N   0  0  0  0  0  0  0  0  0  0  0  0
    0.0557   -3.8658    0.9324 C   0  0  2  0  0  0  0  0  0  0  0  0
    0.6033   -2.4299    0.7910 C   0  0  0  0  0  0  0  0  0  0  0  0
    1.7509   -2.1880    1.1445 O   0  0  0  0  0  0  0  0  0  0  0  0
   -0.9550   -3.9358    2.0815 C   0  0  0  0  0  0  0  0  0  0  0  0
    2.0324   -4.4530    1.4681 H   0  0  0  0  0  0  0  0  0  0  0  0
   -0.4459   -4.1204   -0.0075 H   0  0  0  0  0  0  0  0  0  0  0  0
   -0.4719   -3.6848    3.0314 H   0  0  0  0  0  0  0  0  0  0  0  0
   -1.7788   -3.2358    1.9127 H   0  0  0  0  0  0  0  0  0  0  0  0
   -1.3723   -4.9449    2.1593 H   0  0  0  0  0  0  0  0  0  0  0  0
   -0.1507   -1.4748    0.1284 N   0  0  0  0  0  0  0  0  0  0  0  0
   -0.0788    0.0087    0.1807 C   0  0  2  0  0  0  0  0  0  0  0  0
   -0.1443    0.5362   -1.2646 C   0  0  0  0  0  0  0  0  0  0  0  0
   -1.0858    1.2258   -1.6342 O   0  0  0  0  0  0  0  0  0  0  0  0
    0.9988    0.7053    1.0706 C   0  0  2  0  0  0  0  0  0  0  0  0
    0.7875    0.3833    2.5769 C   0  0  0  0  0  0  0  0  0  0  0  0
    0.9804    2.2351    0.8607 C   0  0  0  0  0  0  0  0  0  0  0  0
    1.9643    0.8164    3.4574 C   0  0  0  0  0  0  0  0  0  0  0  0
   -1.0239   -1.8417   -0.2429 H   0  0  0  0  0  0  0  0  0  0  0  0
   -1.0273    0.3223    0.6298 H   0  0  0  0  0  0  0  0  0  0  0  0
    1.9841    0.3390    0.7640 H   0  0  0  0  0  0  0  0  0  0  0  0
   -0.1182    0.8888    2.9274 H   0  0  0  0  0  0  0  0  0  0  0  0
    0.6259   -0.6818    2.7376 H   0  0  0  0  0  0  0  0  0  0  0  0
   -0.0019    2.6463    1.1147 H   0  0  0  0  0  0  0  0  0  0  0  0
    1.7337    2.7275    1.4801 H   0  0  0  0  0  0  0  0  0  0  0  0
    1.2080    2.4938   -0.1776 H   0  0  0  0  0  0  0  0  0  0  0  0
    2.8997    0.3941    3.0769 H   0  0  0  0  0  0  0  0  0  0  0  0
    1.8147    0.4561    4.4796 H   0  0  0  0  0  0  0  0  0  0  0  0
    2.0565    1.9048    3.4949 H   0  0  0  0  0  0  0  0  0  0  0  0
    0.8265    0.1555   -2.1686 N   0  0  0  0  0  0  0  0  0  0  0  0
    0.7626    0.3963   -3.6151 C   0  0  2  0  0  0  0  0  0  0  0  0
    1.3483   -0.7859   -4.4167 C   0  0  0  0  0  0  0  0  0  0  0  0
    1.9327   -1.6960   -3.8393 O   0  0  0  0  0  0  0  0  0  0  0  0
    1.5236    1.6909   -3.9145 C   0  0  0  0  0  0  0  0  0  0  0  0
    1.4832   -0.5586   -1.8484 H   0  0  0  0  0  0  0  0  0  0  0  0
   -0.2805    0.5115   -3.9277 H   0  0  0  0  0  0  0  0  0  0  0  0
    2.5710    1.5980   -3.6096 H   0  0  0  0  0  0  0  0  0  0  0  0
    1.4901    1.9205   -4.9836 H   0  0  0  0  0  0  0  0  0  0  0  0
    1.0743    2.5271   -3.3692 H   0  0  0  0  0  0  0  0  0  0  0  0
    1.2015   -0.8431   -5.7907 N   0  0  0  0  0  0  0  0  0  0  0  0
    1.7215   -1.9339   -6.6071 C   0  0  0  0  0  0  0  0  0  0  0  0
    0.7091   -0.0794   -6.2447 H   0  0  0  0  0  0  0  0  0  0  0  0
    2.8090   -2.0070   -6.5017 H   0  0  0  0  0  0  0  0  0  0  0  0
    1.2736   -2.8865   -6.3049 H   0  0  0  0  0  0  0  0  0  0  0  0
    1.4883   -1.7620   -7.6625 H   0  0  0  0  0  0  0  0  0  0  0  0
  1  2  2  0  0  0  0
  1  3  1  0  0  0  0
  1  7  1  0  0  0  0
  3  4  1  0  0  0  0
  3  5  1  0  0  0  0
  3  6  1  0  0  0  0
  7  8  1  0  0  0  0
  7 12  1  0  0  0  0
  8  9  1  0  0  0  0
  8 11  1  0  0  0  0
  8 13  1  0  0  0  0
  9 10  2  0  0  0  0
  9 17  1  0  0  0  0
 11 14  1  0  0  0  0
 11 15  1  0  0  0  0
 11 16  1  0  0  0  0
 17 18  1  0  0  0  0
 17 25  1  0  0  0  0
 18 19  1  0  0  0  0
 18 21  1  0  0  0  0
 18 26  1  0  0  0  0
 19 20  2  0  0  0  0
 19 36  1  0  0  0  0
 21 22  1  0  0  0  0
 21 23  1  0  0  0  0
 21 27  1  0  0  0  0
 22 24  1  0  0  0  0
 22 28  1  0  0  0  0
 22 29  1  0  0  0  0
 23 30  1  0  0  0  0
 23 31  1  0  0  0  0
 23 32  1  0  0  0  0
 24 33  1  0  0  0  0
 24 34  1  0  0  0  0
 24 35  1  0  0  0  0
 36 37  1  0  0  0  0
 36 41  1  0  0  0  0
 37 38  1  0  0  0  0
 37 40  1  0  0  0  0
 37 42  1  0  0  0  0
 38 39  2  0  0  0  0
 38 46  1  0  0  0  0
 40 43  1  0  0  0  0
 40 44  1  0  0  0  0
 40 45  1  0  0  0  0
 46 47  1  0  0  0  0
 46 48  1  0  0  0  0
 47 49  1  0  0  0  0
 47 50  1  0  0  0  0
 47 51  1  0  0  0  0
M  END
$$$$

  -OEChem-05262216503D

 51 50  0     1  0  0  0  0  0999 V2000
    1.8741   -5.9259    0.4454 C   0  0  0  0  0  0  0  0  0  0  0  0
    1.3591   -6.4010   -0.5541 O   0  0  0  0  0  0  0  0  0  0  0  0
    2.9765   -6.6807    1.1641 C   0  0  0  0  0  0  0  0  0  0  0  0
    3.1723   -7.6318    0.6610 H   0  0  0  0  0  0  0  0  0  0  0  0
    3.8943   -6.0876    1.1665 H   0  0  0  0  0  0  0  0  0  0  0  0
    2.6783   -6.8827    2.1957 H   0  0  0  0  0  0  0  0  0  0  0  0
    1.4709   -4.6964    0.9201 N   0  0  0  0  0  0  0  0  0  0  0  0
    0.5614   -3.7892    0.2073 C   0  0  2  0  0  0  0  0  0  0  0  0
    0.8521   -2.3118    0.5521 C   0  0  0  0  0  0  0  0  0  0  0  0
    1.7632   -2.0461    1.3279 O   0  0  0  0  0  0  0  0  0  0  0  0
   -0.8821   -4.1545    0.5690 C   0  0  0  0  0  0  0  0  0  0  0  0
    2.0337   -4.2794    1.6609 H   0  0  0  0  0  0  0  0  0  0  0  0
    0.6990   -3.9036   -0.8743 H   0  0  0  0  0  0  0  0  0  0  0  0
   -1.0516   -4.0304    1.6432 H   0  0  0  0  0  0  0  0  0  0  0  0
   -1.5870   -3.5171    0.0266 H   0  0  0  0  0  0  0  0  0  0  0  0
   -1.0878   -5.1956    0.3014 H   0  0  0  0  0  0  0  0  0  0  0  0
    0.2274   -1.3172   -0.1789 N   0  0  0  0  0  0  0  0  0  0  0  0
    0.1548    0.1567    0.0023 C   0  0  2  0  0  0  0  0  0  0  0  0
    0.4141    0.7860   -1.3787 C   0  0  0  0  0  0  0  0  0  0  0  0
   -0.4230    1.5089   -1.9050 O   0  0  0  0  0  0  0  0  0  0  0  0
    0.8916    0.8387    1.1948 C   0  0  2  0  0  0  0  0  0  0  0  0
    0.3189    0.3676    2.5608 C   0  0  0  0  0  0  0  0  0  0  0  0
    0.7959    2.3756    1.0901 C   0  0  0  0  0  0  0  0  0  0  0  0
    1.1783    0.7963    3.7542 C   0  0  0  0  0  0  0  0  0  0  0  0
   -0.2762   -1.6758   -0.9973 H   0  0  0  0  0  0  0  0  0  0  0  0
   -0.9023    0.3624    0.2011 H   0  0  0  0  0  0  0  0  0  0  0  0
    1.9498    0.5616    1.1419 H   0  0  0  0  0  0  0  0  0  0  0  0
   -0.6857    0.7840    2.6860 H   0  0  0  0  0  0  0  0  0  0  0  0
    0.2041   -0.7145    2.5979 H   0  0  0  0  0  0  0  0  0  0  0  0
   -0.2504    2.6972    1.1068 H   0  0  0  0  0  0  0  0  0  0  0  0
    1.3219    2.8609    1.9156 H   0  0  0  0  0  0  0  0  0  0  0  0
    1.2556    2.7364    0.1653 H   0  0  0  0  0  0  0  0  0  0  0  0
    2.2112    0.4604    3.6194 H   0  0  0  0  0  0  0  0  0  0  0  0
    0.7866    0.3474    4.6720 H   0  0  0  0  0  0  0  0  0  0  0  0
    1.1725    1.8819    3.8816 H   0  0  0  0  0  0  0  0  0  0  0  0
    1.4570    0.2828   -2.1334 N   0  0  0  0  0  0  0  0  0  0  0  0
    1.2652    0.0691   -3.5732 C   0  0  2  0  0  0  0  0  0  0  0  0
    0.2694   -1.0829   -3.8607 C   0  0  0  0  0  0  0  0  0  0  0  0
    0.0240   -1.9293   -3.0019 O   0  0  0  0  0  0  0  0  0  0  0  0
    2.6330   -0.2418   -4.1840 C   0  0  0  0  0  0  0  0  0  0  0  0
    1.9700   -0.4470   -1.6427 H   0  0  0  0  0  0  0  0  0  0  0  0
    0.8759    0.9839   -4.0330 H   0  0  0  0  0  0  0  0  0  0  0  0
    3.0470   -1.1591   -3.7526 H   0  0  0  0  0  0  0  0  0  0  0  0
    2.5476   -0.3751   -5.2669 H   0  0  0  0  0  0  0  0  0  0  0  0
    3.3295    0.5802   -3.9908 H   0  0  0  0  0  0  0  0  0  0  0  0
   -0.3619   -1.1690   -5.0873 N   0  0  0  0  0  0  0  0  0  0  0  0
   -1.3668   -2.1787   -5.3980 C   0  0  0  0  0  0  0  0  0  0  0  0
   -0.2145   -0.4075   -5.7436 H   0  0  0  0  0  0  0  0  0  0  0  0
   -0.9538   -3.1843   -5.2658 H   0  0  0  0  0  0  0  0  0  0  0  0
   -2.2379   -2.0656   -4.7442 H   0  0  0  0  0  0  0  0  0  0  0  0
   -1.6973   -2.0767   -6.4360 H   0  0  0  0  0  0  0  0  0  0  0  0
  1  2  2  0  0  0  0
  1  3  1  0  0  0  0
  1  7  1  0  0  0  0
  3  4  1  0  0  0  0
  3  5  1  0  0  0  0
  3  6  1  0  0  0  0
  7  8  1  0  0  0  0
  7 12  1  0  0  0  0
  8  9  1  0  0  0  0
  8 11  1  0  0  0  0
  8 13  1  0  0  0  0
  9 10  2  0  0  0  0
  9 17  1  0  0  0  0
 11 14  1  0  0  0  0
 11 15  1  0  0  0  0
 11 16  1  0  0  0  0
 17 18  1  0  0  0  0
 17 25  1  0  0  0  0
 18 19  1  0  0  0  0
 18 21  1  0  0  0  0
 18 26  1  0  0  0  0
 19 20  2  0  0  0  0
 19 36  1  0  0  0  0
 21 22  1  0  0  0  0
 21 23  1  0  0  0  0
 21 27  1  0  0  0  0
 22 24  1  0  0  0  0
 22 28  1  0  0  0  0
 22 29  1  0  0  0  0
 23 30  1  0  0  0  0
 23 31  1  0  0  0  0
 23 32  1  0  0  0  0
 24 33  1  0  0  0  0
 24 34  1  0  0  0  0
 24 35  1  0  0  0  0
 36 37  1  0  0  0  0
 36 41  1  0  0  0  0
 37 38  1  0  0  0  0
 37 40  1  0  0  0  0
 37 42  1  0  0  0  0
 38 39  2  0  0  0  0
 38 46  1  0  0  0  0
 40 43  1  0  0  0  0
 40 44  1  0  0  0  0
 40 45  1  0  0  0  0
 46 47  1  0  0  0  0
 46 48  1  0  0  0  0
 47 49  1  0  0  0  0
 47 50  1  0  0  0  0
 47 51  1  0  0  0  0
M  END
$$$$

  -OEChem-05262216503D

 51 50  0     1  0  0  0  0  0999 V2000
    1.7551   -6.0286    0.6010 C   0  0  0  0  0  0  0  0  0  0  0  0
    1.2165   -6.5289   -0.3736 O   0  0  0  0  0  0  0  0  0  0  0  0
    2.8094   -6.8034    1.3687 C   0  0  0  0  0  0  0  0  0  0  0  0
    2.9815   -7.7755    0.8982 H   0  0  0  0  0  0  0  0  0  0  0  0
    3.7490   -6.2457    1.3788 H   0  0  0  0  0  0  0  0  0  0  0  0
    2.4770   -6.9633    2.3972 H   0  0  0  0  0  0  0  0  0  0  0  0
    1.4164   -4.7558    1.0074 N   0  0  0  0  0  0  0  0  0  0  0  0
    0.5362   -3.8493    0.2576 C   0  0  2  0  0  0  0  0  0  0  0  0
    0.8798   -2.3685    0.5327 C   0  0  0  0  0  0  0  0  0  0  0  0
    1.8113   -2.0979    1.2817 O   0  0  0  0  0  0  0  0  0  0  0  0
   -0.9176   -4.1461    0.6400 C   0  0  0  0  0  0  0  0  0  0  0  0
    1.9974   -4.3289    1.7283 H   0  0  0  0  0  0  0  0  0  0  0  0
    0.6638   -4.0183   -0.8178 H   0  0  0  0  0  0  0  0  0  0  0  0
   -1.0793   -3.9587    1.7061 H   0  0  0  0  0  0  0  0  0  0  0  0
   -1.6030   -3.5157    0.0652 H   0  0  0  0  0  0  0  0  0  0  0  0
   -1.1589   -5.1927    0.4289 H   0  0  0  0  0  0  0  0  0  0  0  0
    0.2625   -1.3857   -0.2210 N   0  0  0  0  0  0  0  0  0  0  0  0
    0.1883    0.0935   -0.0689 C   0  0  2  0  0  0  0  0  0  0  0  0
    0.4575    0.7189   -1.4548 C   0  0  0  0  0  0  0  0  0  0  0  0
   -0.2838    1.5904   -1.8925 O   0  0  0  0  0  0  0  0  0  0  0  0
    0.9263    0.7785    1.1236 C   0  0  2  0  0  0  0  0  0  0  0  0
    0.3427    0.3203    2.4900 C   0  0  0  0  0  0  0  0  0  0  0  0
    0.8475    2.3158    1.0145 C   0  0  0  0  0  0  0  0  0  0  0  0
    1.1985    0.7484    3.6866 C   0  0  0  0  0  0  0  0  0  0  0  0
   -0.3110   -1.7645   -0.9833 H   0  0  0  0  0  0  0  0  0  0  0  0
   -0.8691    0.3046    0.1214 H   0  0  0  0  0  0  0  0  0  0  0  0
    1.9824    0.4926    1.0771 H   0  0  0  0  0  0  0  0  0  0  0  0
   -0.6592    0.7457    2.6073 H   0  0  0  0  0  0  0  0  0  0  0  0
    0.2202   -0.7610    2.5333 H   0  0  0  0  0  0  0  0  0  0  0  0
   -0.1957    2.6475    1.0087 H   0  0  0  0  0  0  0  0  0  0  0  0
    1.3608    2.7990    1.8487 H   0  0  0  0  0  0  0  0  0  0  0  0
    1.3300    2.6687    0.0986 H   0  0  0  0  0  0  0  0  0  0  0  0
    2.2321    0.4132    3.5545 H   0  0  0  0  0  0  0  0  0  0  0  0
    0.8048    0.2980    4.6027 H   0  0  0  0  0  0  0  0  0  0  0  0
    1.1918    1.8335    3.8156 H   0  0  0  0  0  0  0  0  0  0  0  0
    1.2833    0.0365   -2.3297 N   0  0  0  0  0  0  0  0  0  0  0  0
    0.8724   -0.1546   -3.7263 C   0  0  2  0  0  0  0  0  0  0  0  0
   -0.2283   -1.2362   -3.8512 C   0  0  0  0  0  0  0  0  0  0  0  0
   -0.4176   -2.0440   -2.9423 O   0  0  0  0  0  0  0  0  0  0  0  0
    2.1123   -0.5531   -4.5289 C   0  0  0  0  0  0  0  0  0  0  0  0
    1.7198   -0.7708   -1.8891 H   0  0  0  0  0  0  0  0  0  0  0  0
    0.4823    0.7841   -4.1345 H   0  0  0  0  0  0  0  0  0  0  0  0
    2.5204   -1.5001   -4.1608 H   0  0  0  0  0  0  0  0  0  0  0  0
    1.8618   -0.6709   -5.5877 H   0  0  0  0  0  0  0  0  0  0  0  0
    2.8846    0.2177   -4.4405 H   0  0  0  0  0  0  0  0  0  0  0  0
   -1.0159   -1.3036   -4.9846 N   0  0  0  0  0  0  0  0  0  0  0  0
   -2.1066   -2.2575   -5.1461 C   0  0  0  0  0  0  0  0  0  0  0  0
   -0.8891   -0.5808   -5.6872 H   0  0  0  0  0  0  0  0  0  0  0  0
   -1.7315   -3.2843   -5.0800 H   0  0  0  0  0  0  0  0  0  0  0  0
   -2.8653   -2.1083   -4.3706 H   0  0  0  0  0  0  0  0  0  0  0  0
   -2.5810   -2.1265   -6.1235 H   0  0  0  0  0  0  0  0  0  0  0  0
  1  2  2  0  0  0  0
  1  3  1  0  0  0  0
  1  7  1  0  0  0  0
  3  4  1  0  0  0  0
  3  5  1  0  0  0  0
  3  6  1  0  0  0  0
  7  8  1  0  0  0  0
  7 12  1  0  0  0  0
  8  9  1  0  0  0  0
  8 11  1  0  0  0  0
  8 13  1  0  0  0  0
  9 10  2  0  0  0  0
  9 17  1  0  0  0  0
 11 14  1  0  0  0  0
 11 15  1  0  0  0  0
 11 16  1  0  0  0  0
 17 18  1  0  0  0  0
 17 25  1  0  0  0  0
 18 19  1  0  0  0  0
 18 21  1  0  0  0  0
 18 26  1  0  0  0  0
 19 20  2  0  0  0  0
 19 36  1  0  0  0  0
 21 22  1  0  0  0  0
 21 23  1  0  0  0  0
 21 27  1  0  0  0  0
 22 24  1  0  0  0  0
 22 28  1  0  0  0  0
 22 29  1  0  0  0  0
 23 30  1  0  0  0  0
 23 31  1  0  0  0  0
 23 32  1  0  0  0  0
 24 33  1  0  0  0  0
 24 34  1  0  0  0  0
 24 35  1  0  0  0  0
 36 37  1  0  0  0  0
 36 41  1  0  0  0  0
 37 38  1  0  0  0  0
 37 40  1  0  0  0  0
 37 42  1  0  0  0  0
 38 39  2  0  0  0  0
 38 46  1  0  0  0  0
 40 43  1  0  0  0  0
 40 44  1  0  0  0  0
 40 45  1  0  0  0  0
 46 47  1  0  0  0  0
 46 48  1  0  0  0  0
 47 49  1  0  0  0  0
 47 50  1  0  0  0  0
 47 51  1  0  0  0  0
M  END
$$$$

  -OEChem-05262216503D

 51 50  0     1  0  0  0  0  0999 V2000
    1.6322   -6.0898    0.6819 C   0  0  0  0  0  0  0  0  0  0  0  0
    1.0211   -6.6037   -0.2415 O   0  0  0  0  0  0  0  0  0  0  0  0
    2.7060   -6.8726    1.4134 C   0  0  0  0  0  0  0  0  0  0  0  0
    2.7722   -7.8880    1.0127 H   0  0  0  0  0  0  0  0  0  0  0  0
    3.6745   -6.3814    1.2911 H   0  0  0  0  0  0  0  0  0  0  0  0
    2.4654   -6.9292    2.4778 H   0  0  0  0  0  0  0  0  0  0  0  0
    1.3589   -4.7929    1.0594 N   0  0  0  0  0  0  0  0  0  0  0  0
    0.4668   -3.8844    0.3269 C   0  0  2  0  0  0  0  0  0  0  0  0
    0.8854   -2.4091    0.5116 C   0  0  0  0  0  0  0  0  0  0  0  0
    1.8511   -2.1433    1.2177 O   0  0  0  0  0  0  0  0  0  0  0  0
   -0.9677   -4.1034    0.8191 C   0  0  0  0  0  0  0  0  0  0  0  0
    1.9935   -4.3602    1.7301 H   0  0  0  0  0  0  0  0  0  0  0  0
    0.5143   -4.1053   -0.7456 H   0  0  0  0  0  0  0  0  0  0  0  0
   -1.0476   -3.8648    1.8844 H   0  0  0  0  0  0  0  0  0  0  0  0
   -1.6659   -3.4692    0.2641 H   0  0  0  0  0  0  0  0  0  0  0  0
   -1.2644   -5.1468    0.6725 H   0  0  0  0  0  0  0  0  0  0  0  0
    0.2749   -1.4357   -0.2605 N   0  0  0  0  0  0  0  0  0  0  0  0
    0.2180    0.0486   -0.1354 C   0  0  2  0  0  0  0  0  0  0  0  0
    0.4877    0.6670   -1.5297 C   0  0  0  0  0  0  0  0  0  0  0  0
   -0.1250    1.6677   -1.8819 O   0  0  0  0  0  0  0  0  0  0  0  0
    0.9706    0.7238    1.0574 C   0  0  2  0  0  0  0  0  0  0  0  0
    0.3723    0.2806    2.4235 C   0  0  0  0  0  0  0  0  0  0  0  0
    0.9368    2.2628    0.9525 C   0  0  0  0  0  0  0  0  0  0  0  0
    1.2310    0.6916    3.6242 C   0  0  0  0  0  0  0  0  0  0  0  0
   -0.3834   -1.8234   -0.9463 H   0  0  0  0  0  0  0  0  0  0  0  0
   -0.8357    0.2763    0.0554 H   0  0  0  0  0  0  0  0  0  0  0  0
    2.0200    0.4138    1.0141 H   0  0  0  0  0  0  0  0  0  0  0  0
   -0.6216    0.7257    2.5362 H   0  0  0  0  0  0  0  0  0  0  0  0
    0.2297   -0.7982    2.4680 H   0  0  0  0  0  0  0  0  0  0  0  0
   -0.0961    2.6243    0.9257 H   0  0  0  0  0  0  0  0  0  0  0  0
    1.4465    2.7307    1.7976 H   0  0  0  0  0  0  0  0  0  0  0  0
    1.4498    2.6030    0.0484 H   0  0  0  0  0  0  0  0  0  0  0  0
    2.2602    0.3430    3.4920 H   0  0  0  0  0  0  0  0  0  0  0  0
    0.8298    0.2421    4.5376 H   0  0  0  0  0  0  0  0  0  0  0  0
    1.2388    1.7761    3.7591 H   0  0  0  0  0  0  0  0  0  0  0  0
    1.0307   -0.1451   -2.5097 N   0  0  0  0  0  0  0  0  0  0  0  0
    0.3841   -0.2742   -3.8218 C   0  0  2  0  0  0  0  0  0  0  0  0
   -0.7860   -1.2857   -3.7694 C   0  0  0  0  0  0  0  0  0  0  0  0
   -0.8917   -2.0659   -2.8233 O   0  0  0  0  0  0  0  0  0  0  0  0
    1.4495   -0.7295   -4.8208 C   0  0  0  0  0  0  0  0  0  0  0  0
    1.3834   -1.0166   -2.1196 H   0  0  0  0  0  0  0  0  0  0  0  0
   -0.0095    0.6929   -4.1527 H   0  0  0  0  0  0  0  0  0  0  0  0
    1.8506   -1.7079   -4.5365 H   0  0  0  0  0  0  0  0  0  0  0  0
    1.0245   -0.8068   -5.8261 H   0  0  0  0  0  0  0  0  0  0  0  0
    2.2739   -0.0096   -4.8484 H   0  0  0  0  0  0  0  0  0  0  0  0
   -1.7263   -1.3252   -4.7812 N   0  0  0  0  0  0  0  0  0  0  0  0
   -2.8621   -2.2397   -4.7843 C   0  0  0  0  0  0  0  0  0  0  0  0
   -1.6457   -0.6393   -5.5267 H   0  0  0  0  0  0  0  0  0  0  0  0
   -2.5178   -3.2795   -4.7849 H   0  0  0  0  0  0  0  0  0  0  0  0
   -3.4890   -2.0763   -3.9013 H   0  0  0  0  0  0  0  0  0  0  0  0
   -3.4743   -2.0787   -5.6769 H   0  0  0  0  0  0  0  0  0  0  0  0
  1  2  2  0  0  0  0
  1  3  1  0  0  0  0
  1  7  1  0  0  0  0
  3  4  1  0  0  0  0
  3  5  1  0  0  0  0
  3  6  1  0  0  0  0
  7  8  1  0  0  0  0
  7 12  1  0  0  0  0
  8  9  1  0  0  0  0
  8 11  1  0  0  0  0
  8 13  1  0  0  0  0
  9 10  2  0  0  0  0
  9 17  1  0  0  0  0
 11 14  1  0  0  0  0
 11 15  1  0  0  0  0
 11 16  1  0  0  0  0
 17 18  1  0  0  0  0
 17 25  1  0  0  0  0
 18 19  1  0  0  0  0
 18 21  1  0  0  0  0
 18 26  1  0  0  0  0
 19 20  2  0  0  0  0
 19 36  1  0  0  0  0
 21 22  1  0  0  0  0
 21 23  1  0  0  0  0
 21 27  1  0  0  0  0
 22 24  1  0  0  0  0
 22 28  1  0  0  0  0
 22 29  1  0  0  0  0
 23 30  1  0  0  0  0
 23 31  1  0  0  0  0
 23 32  1  0  0  0  0
 24 33  1  0  0  0  0
 24 34  1  0  0  0  0
 24 35  1  0  0  0  0
 36 37  1  0  0  0  0
 36 41  1  0  0  0  0
 37 38  1  0  0  0  0
 37 40  1  0  0  0  0
 37 42  1  0  0  0  0
 38 39  2  0  0  0  0
 38 46  1  0  0  0  0
 40 43  1  0  0  0  0
 40 44  1  0  0  0  0
 40 45  1  0  0  0  0
 46 47  1  0  0  0  0
 46 48  1  0  0  0  0
 47 49  1  0  0  0  0
 47 50  1  0  0  0  0
 47 51  1  0  0  0  0
M  END
$$$$

  -OEChem-05262216503D

 51 50  0     1  0  0  0  0  0999 V2000
    1.6031   -6.1349    0.6986 C   0  0  0  0  0  0  0  0  0  0  0  0
    1.0070   -6.6449   -0.2370 O   0  0  0  0  0  0  0  0  0  0  0  0
    2.6885   -6.9101    1.4220 C   0  0  0  0  0  0  0  0  0  0  0  0
    2.4283   -7.0195    2.4775 H   0  0  0  0  0  0  0  0  0  0  0  0
    2.7995   -7.9046    0.9809 H   0  0  0  0  0  0  0  0  0  0  0  0
    3.6413   -6.3813    1.3415 H   0  0  0  0  0  0  0  0  0  0  0  0
    1.3070   -4.8466    1.0905 N   0  0  0  0  0  0  0  0  0  0  0  0
    0.4283   -3.9356    0.3441 C   0  0  2  0  0  0  0  0  0  0  0  0
    0.8755   -2.4644    0.4910 C   0  0  0  0  0  0  0  0  0  0  0  0
    1.8338   -2.1970    1.2062 O   0  0  0  0  0  0  0  0  0  0  0  0
   -1.0064   -4.1184    0.8485 C   0  0  0  0  0  0  0  0  0  0  0  0
    1.9345   -4.4141    1.7680 H   0  0  0  0  0  0  0  0  0  0  0  0
    0.4642   -4.1805   -0.7233 H   0  0  0  0  0  0  0  0  0  0  0  0
   -1.0749   -3.8642    1.9109 H   0  0  0  0  0  0  0  0  0  0  0  0
   -1.6956   -3.4778    0.2896 H   0  0  0  0  0  0  0  0  0  0  0  0
   -1.3237   -5.1579    0.7171 H   0  0  0  0  0  0  0  0  0  0  0  0
    0.2912   -1.5029   -0.3164 N   0  0  0  0  0  0  0  0  0  0  0  0
    0.2388   -0.0151   -0.2160 C   0  0  2  0  0  0  0  0  0  0  0  0
    0.5516    0.5930   -1.6105 C   0  0  0  0  0  0  0  0  0  0  0  0
    0.0950    1.6899   -1.9087 O   0  0  0  0  0  0  0  0  0  0  0  0
    0.9480    0.6596    1.0082 C   0  0  2  0  0  0  0  0  0  0  0  0
    0.2787    0.2271    2.3451 C   0  0  0  0  0  0  0  0  0  0  0  0
    0.9539    2.1995    0.9109 C   0  0  0  0  0  0  0  0  0  0  0  0
    1.0788    0.6284    3.5889 C   0  0  0  0  0  0  0  0  0  0  0  0
   -0.4157   -1.8944   -0.9495 H   0  0  0  0  0  0  0  0  0  0  0  0
   -0.8199    0.2203   -0.0668 H   0  0  0  0  0  0  0  0  0  0  0  0
    1.9928    0.3333    1.0139 H   0  0  0  0  0  0  0  0  0  0  0  0
   -0.7148    0.6828    2.4069 H   0  0  0  0  0  0  0  0  0  0  0  0
    0.1240   -0.8503    2.3844 H   0  0  0  0  0  0  0  0  0  0  0  0
   -0.0670    2.5846    0.8235 H   0  0  0  0  0  0  0  0  0  0  0  0
    1.4223    2.6534    1.7867 H   0  0  0  0  0  0  0  0  0  0  0  0
    1.5308    2.5309    0.0429 H   0  0  0  0  0  0  0  0  0  0  0  0
    2.1086    0.2661    3.5116 H   0  0  0  0  0  0  0  0  0  0  0  0
    0.6234    0.1853    4.4797 H   0  0  0  0  0  0  0  0  0  0  0  0
    1.0932    1.7127    3.7246 H   0  0  0  0  0  0  0  0  0  0  0  0
    0.8186   -0.2770   -2.6542 N   0  0  0  0  0  0  0  0  0  0  0  0
   -0.0317   -0.3032   -3.8516 C   0  0  2  0  0  0  0  0  0  0  0  0
   -1.2798   -1.1863   -3.6169 C   0  0  0  0  0  0  0  0  0  0  0  0
   -1.3029   -1.9899   -2.6845 O   0  0  0  0  0  0  0  0  0  0  0  0
    0.8076   -0.8462   -5.0096 C   0  0  0  0  0  0  0  0  0  0  0  0
    1.0895   -1.1961   -2.3120 H   0  0  0  0  0  0  0  0  0  0  0  0
   -0.3664    0.7066   -4.1123 H   0  0  0  0  0  0  0  0  0  0  0  0
    1.1534   -1.8617   -4.7911 H   0  0  0  0  0  0  0  0  0  0  0  0
    0.2195   -0.8698   -5.9321 H   0  0  0  0  0  0  0  0  0  0  0  0
    1.6816   -0.2079   -5.1738 H   0  0  0  0  0  0  0  0  0  0  0  0
   -2.3855   -1.0741   -4.4381 N   0  0  0  0  0  0  0  0  0  0  0  0
   -3.6130   -1.8355   -4.2382 C   0  0  0  0  0  0  0  0  0  0  0  0
   -2.3632   -0.3611   -5.1621 H   0  0  0  0  0  0  0  0  0  0  0  0
   -3.4058   -2.9107   -4.2613 H   0  0  0  0  0  0  0  0  0  0  0  0
   -4.0680   -1.5842   -3.2742 H   0  0  0  0  0  0  0  0  0  0  0  0
   -4.3329   -1.6068   -5.0301 H   0  0  0  0  0  0  0  0  0  0  0  0
  1  2  2  0  0  0  0
  1  3  1  0  0  0  0
  1  7  1  0  0  0  0
  3  4  1  0  0  0  0
  3  5  1  0  0  0  0
  3  6  1  0  0  0  0
  7  8  1  0  0  0  0
  7 12  1  0  0  0  0
  8  9  1  0  0  0  0
  8 11  1  0  0  0  0
  8 13  1  0  0  0  0
  9 10  2  0  0  0  0
  9 17  1  0  0  0  0
 11 14  1  0  0  0  0
 11 15  1  0  0  0  0
 11 16  1  0  0  0  0
 17 18  1  0  0  0  0
 17 25  1  0  0  0  0
 18 19  1  0  0  0  0
 18 21  1  0  0  0  0
 18 26  1  0  0  0  0
 19 20  2  0  0  0  0
 19 36  1  0  0  0  0
 21 22  1  0  0  0  0
 21 23  1  0  0  0  0
 21 27  1  0  0  0  0
 22 24  1  0  0  0  0
 22 28  1  0  0  0  0
 22 29  1  0  0  0  0
 23 30  1  0  0  0  0
 23 31  1  0  0  0  0
 23 32  1  0  0  0  0
 24 33  1  0  0  0  0
 24 34  1  0  0  0  0
 24 35  1  0  0  0  0
 36 37  1  0  0  0  0
 36 41  1  0  0  0  0
 37 38  1  0  0  0  0
 37 40  1  0  0  0  0
 37 42  1  0  0  0  0
 38 39  2  0  0  0  0
 38 46  1  0  0  0  0
 40 43  1  0  0  0  0
 40 44  1  0  0  0  0
 40 45  1  0  0  0  0
 46 47  1  0  0  0  0
 46 48  1  0  0  0  0
 47 49  1  0  0  0  0
 47 50  1  0  0  0  0
 47 51  1  0  0  0  0
M  END
$$$$

  -OEChem-05262216503D

 51 50  0     1  0  0  0  0  0999 V2000
    1.2288   -6.2146    1.0343 C   0  0  0  0  0  0  0  0  0  0  0  0
    0.2250   -6.7181    0.5558 O   0  0  0  0  0  0  0  0  0  0  0  0
    2.4591   -7.0635    1.2922 C   0  0  0  0  0  0  0  0  0  0  0  0
    2.2449   -8.1139    1.0764 H   0  0  0  0  0  0  0  0  0  0  0  0
    3.2806   -6.7322    0.6523 H   0  0  0  0  0  0  0  0  0  0  0  0
    2.7622   -6.9743    2.3381 H   0  0  0  0  0  0  0  0  0  0  0  0
    1.2534   -4.8675    1.3258 N   0  0  0  0  0  0  0  0  0  0  0  0
    0.1947   -3.9198    0.9554 C   0  0  2  0  0  0  0  0  0  0  0  0
    0.7589   -2.5024    0.7160 C   0  0  0  0  0  0  0  0  0  0  0  0
    1.9182   -2.2627    1.0299 O   0  0  0  0  0  0  0  0  0  0  0  0
   -0.8523   -3.8968    2.0737 C   0  0  0  0  0  0  0  0  0  0  0  0
    2.1496   -4.4642    1.5989 H   0  0  0  0  0  0  0  0  0  0  0  0
   -0.2796   -4.2470    0.0235 H   0  0  0  0  0  0  0  0  0  0  0  0
   -0.3990   -3.5716    3.0158 H   0  0  0  0  0  0  0  0  0  0  0  0
   -1.6687   -3.2125    1.8243 H   0  0  0  0  0  0  0  0  0  0  0  0
   -1.2743   -4.8967    2.2177 H   0  0  0  0  0  0  0  0  0  0  0  0
   -0.0106   -1.5733    0.0304 N   0  0  0  0  0  0  0  0  0  0  0  0
    0.0440   -0.0785    0.0275 C   0  0  2  0  0  0  0  0  0  0  0  0
   -0.0439    0.4148   -1.4483 C   0  0  0  0  0  0  0  0  0  0  0  0
   -0.1003    1.6001   -1.7458 O   0  0  0  0  0  0  0  0  0  0  0  0
    1.1076    0.5977    0.9707 C   0  0  2  0  0  0  0  0  0  0  0  0
    0.7941    0.2713    2.4622 C   0  0  0  0  0  0  0  0  0  0  0  0
    1.1873    2.1303    0.8045 C   0  0  0  0  0  0  0  0  0  0  0  0
    1.9171    0.6571    3.4319 C   0  0  0  0  0  0  0  0  0  0  0  0
   -0.9221   -1.9511   -0.2209 H   0  0  0  0  0  0  0  0  0  0  0  0
   -0.9125    0.2451    0.4498 H   0  0  0  0  0  0  0  0  0  0  0  0
    2.0950    0.2012    0.7155 H   0  0  0  0  0  0  0  0  0  0  0  0
   -0.1188    0.7984    2.7572 H   0  0  0  0  0  0  0  0  0  0  0  0
    0.5951   -0.7899    2.6033 H   0  0  0  0  0  0  0  0  0  0  0  0
    0.1933    2.5807    0.8906 H   0  0  0  0  0  0  0  0  0  0  0  0
    1.8383    2.5860    1.5528 H   0  0  0  0  0  0  0  0  0  0  0  0
    1.6138    2.3904   -0.1680 H   0  0  0  0  0  0  0  0  0  0  0  0
    2.8725    0.2463    3.0906 H   0  0  0  0  0  0  0  0  0  0  0  0
    1.7023    0.2506    4.4249 H   0  0  0  0  0  0  0  0  0  0  0  0
    2.0114    1.7415    3.5295 H   0  0  0  0  0  0  0  0  0  0  0  0
   -0.4556   -0.4765   -2.4221 N   0  0  0  0  0  0  0  0  0  0  0  0
   -1.0764   -0.1343   -3.7066 C   0  0  2  0  0  0  0  0  0  0  0  0
   -2.1823   -1.1528   -4.0586 C   0  0  0  0  0  0  0  0  0  0  0  0
   -2.3630   -2.1329   -3.3406 O   0  0  0  0  0  0  0  0  0  0  0  0
    0.0202   -0.1129   -4.7752 C   0  0  0  0  0  0  0  0  0  0  0  0
   -0.5195   -1.4513   -2.1385 H   0  0  0  0  0  0  0  0  0  0  0  0
   -1.5465    0.8534   -3.6505 H   0  0  0  0  0  0  0  0  0  0  0  0
    0.4862   -1.0995   -4.8655 H   0  0  0  0  0  0  0  0  0  0  0  0
   -0.3935    0.1689   -5.7479 H   0  0  0  0  0  0  0  0  0  0  0  0
    0.7933    0.6142   -4.5064 H   0  0  0  0  0  0  0  0  0  0  0  0
   -2.9873   -0.9670   -5.1672 N   0  0  0  0  0  0  0  0  0  0  0  0
   -4.0415   -1.8956   -5.5579 C   0  0  0  0  0  0  0  0  0  0  0  0
   -2.8176   -0.1456   -5.7405 H   0  0  0  0  0  0  0  0  0  0  0  0
   -3.6250   -2.8900   -5.7507 H   0  0  0  0  0  0  0  0  0  0  0  0
   -4.7949   -1.9766   -4.7673 H   0  0  0  0  0  0  0  0  0  0  0  0
   -4.5349   -1.5456   -6.4698 H   0  0  0  0  0  0  0  0  0  0  0  0
  1  2  2  0  0  0  0
  1  3  1  0  0  0  0
  1  7  1  0  0  0  0
  3  4  1  0  0  0  0
  3  5  1  0  0  0  0
  3  6  1  0  0  0  0
  7  8  1  0  0  0  0
  7 12  1  0  0  0  0
  8  9  1  0  0  0  0
  8 11  1  0  0  0  0
  8 13  1  0  0  0  0
  9 10  2  0  0  0  0
  9 17  1  0  0  0  0
 11 14  1  0  0  0  0
 11 15  1  0  0  0  0
 11 16  1  0  0  0  0
 17 18  1  0  0  0  0
 17 25  1  0  0  0  0
 18 19  1  0  0  0  0
 18 21  1  0  0  0  0
 18 26  1  0  0  0  0
 19 20  2  0  0  0  0
 19 36  1  0  0  0  0
 21 22  1  0  0  0  0
 21 23  1  0  0  0  0
 21 27  1  0  0  0  0
 22 24  1  0  0  0  0
 22 28  1  0  0  0  0
 22 29  1  0  0  0  0
 23 30  1  0  0  0  0
 23 31  1  0  0  0  0
 23 32  1  0  0  0  0
 24 33  1  0  0  0  0
 24 34  1  0  0  0  0
 24 35  1  0  0  0  0
 36 37  1  0  0  0  0
 36 41  1  0  0  0  0
 37 38  1  0  0  0  0
 37 40  1  0  0  0  0
 37 42  1  0  0  0  0
 38 39  2  0  0  0  0
 38 46  1  0  0  0  0
 40 43  1  0  0  0  0
 40 44  1  0  0  0  0
 40 45  1  0  0  0  0
 46 47  1  0  0  0  0
 46 48  1  0  0  0  0
 47 49  1  0  0  0  0
 47 50  1  0  0  0  0
 47 51  1  0  0  0  0
M  END
$$$$

  -OEChem-05262216503D

 51 50  0     1  0  0  0  0  0999 V2000
    1.1697   -6.1858    0.9156 C   0  0  0  0  0  0  0  0  0  0  0  0
    0.1313   -6.6558    0.4782 O   0  0  0  0  0  0  0  0  0  0  0  0
    2.4096   -7.0527    1.0286 C   0  0  0  0  0  0  0  0  0  0  0  0
    2.1925   -8.0667    0.6811 H   0  0  0  0  0  0  0  0  0  0  0  0
    3.2146   -6.6356    0.4184 H   0  0  0  0  0  0  0  0  0  0  0  0
    2.7380   -7.0998    2.0697 H   0  0  0  0  0  0  0  0  0  0  0  0
    1.2190   -4.8628    1.3000 N   0  0  0  0  0  0  0  0  0  0  0  0
    0.1414   -3.8937    1.0627 C   0  0  2  0  0  0  0  0  0  0  0  0
    0.6963   -2.4829    0.7723 C   0  0  0  0  0  0  0  0  0  0  0  0
    1.8769   -2.2514    0.9997 O   0  0  0  0  0  0  0  0  0  0  0  0
   -0.7655   -3.8695    2.2964 C   0  0  0  0  0  0  0  0  0  0  0  0
    2.1359   -4.4765    1.5249 H   0  0  0  0  0  0  0  0  0  0  0  0
   -0.4455   -4.2006    0.1899 H   0  0  0  0  0  0  0  0  0  0  0  0
   -0.2006   -3.5570    3.1806 H   0  0  0  0  0  0  0  0  0  0  0  0
   -1.5979   -3.1744    2.1506 H   0  0  0  0  0  0  0  0  0  0  0  0
   -1.1776   -4.8669    2.4809 H   0  0  0  0  0  0  0  0  0  0  0  0
   -0.1232   -1.5520    0.1498 N   0  0  0  0  0  0  0  0  0  0  0  0
   -0.0374   -0.0603    0.1115 C   0  0  2  0  0  0  0  0  0  0  0  0
   -0.2703    0.3881   -1.3657 C   0  0  0  0  0  0  0  0  0  0  0  0
    0.1008    1.4558   -1.8305 O   0  0  0  0  0  0  0  0  0  0  0  0
    1.1098    0.6173    0.9527 C   0  0  2  0  0  0  0  0  0  0  0  0
    0.9007    0.3220    2.4700 C   0  0  0  0  0  0  0  0  0  0  0  0
    1.1718    2.1510    0.7688 C   0  0  0  0  0  0  0  0  0  0  0  0
    2.0973    0.7022    3.3506 C   0  0  0  0  0  0  0  0  0  0  0  0
   -1.0559   -1.9225   -0.0090 H   0  0  0  0  0  0  0  0  0  0  0  0
   -0.9457    0.2896    0.6110 H   0  0  0  0  0  0  0  0  0  0  0  0
    2.0729    0.2107    0.6290 H   0  0  0  0  0  0  0  0  0  0  0  0
    0.0201    0.8685    2.8227 H   0  0  0  0  0  0  0  0  0  0  0  0
    0.6963   -0.7339    2.6425 H   0  0  0  0  0  0  0  0  0  0  0  0
    0.1712    2.5888    0.8365 H   0  0  0  0  0  0  0  0  0  0  0  0
    1.8046    2.6293    1.5172 H   0  0  0  0  0  0  0  0  0  0  0  0
    1.6093    2.4066   -0.1991 H   0  0  0  0  0  0  0  0  0  0  0  0
    3.0187    0.2747    2.9428 H   0  0  0  0  0  0  0  0  0  0  0  0
    1.9519    0.3070    4.3604 H   0  0  0  0  0  0  0  0  0  0  0  0
    2.2141    1.7853    3.4325 H   0  0  0  0  0  0  0  0  0  0  0  0
   -1.0756   -0.3824   -2.1866 N   0  0  0  0  0  0  0  0  0  0  0  0
   -1.5221   -0.0299   -3.5395 C   0  0  2  0  0  0  0  0  0  0  0  0
   -2.8173   -0.7896   -3.8955 C   0  0  0  0  0  0  0  0  0  0  0  0
   -3.2245   -1.6833   -3.1582 O   0  0  0  0  0  0  0  0  0  0  0  0
   -0.4062   -0.3728   -4.5329 C   0  0  0  0  0  0  0  0  0  0  0  0
   -1.4458   -1.2488   -1.8060 H   0  0  0  0  0  0  0  0  0  0  0  0
   -1.7390    1.0425   -3.5898 H   0  0  0  0  0  0  0  0  0  0  0  0
   -0.1891   -1.4454   -4.5082 H   0  0  0  0  0  0  0  0  0  0  0  0
   -0.6987   -0.0988   -5.5507 H   0  0  0  0  0  0  0  0  0  0  0  0
    0.5089    0.1725   -4.2813 H   0  0  0  0  0  0  0  0  0  0  0  0
   -3.5337   -0.4688   -5.0334 N   0  0  0  0  0  0  0  0  0  0  0  0
   -4.7596   -1.1531   -5.4264 C   0  0  0  0  0  0  0  0  0  0  0  0
   -3.1767    0.2796   -5.6207 H   0  0  0  0  0  0  0  0  0  0  0  0
   -4.5707   -2.2209   -5.5805 H   0  0  0  0  0  0  0  0  0  0  0  0
   -5.5264   -1.0384   -4.6530 H   0  0  0  0  0  0  0  0  0  0  0  0
   -5.1457   -0.7330   -6.3601 H   0  0  0  0  0  0  0  0  0  0  0  0
  1  2  2  0  0  0  0
  1  3  1  0  0  0  0
  1  7  1  0  0  0  0
  3  4  1  0  0  0  0
  3  5  1  0  0  0  0
  3  6  1  0  0  0  0
  7  8  1  0  0  0  0
  7 12  1  0  0  0  0
  8  9  1  0  0  0  0
  8 11  1  0  0  0  0
  8 13  1  0  0  0  0
  9 10  2  0  0  0  0
  9 17  1  0  0  0  0
 11 14  1  0  0  0  0
 11 15  1  0  0  0  0
 11 16  1  0  0  0  0
 17 18  1  0  0  0  0
 17 25  1  0  0  0  0
 18 19  1  0  0  0  0
 18 21  1  0  0  0  0
 18 26  1  0  0  0  0
 19 20  2  0  0  0  0
 19 36  1  0  0  0  0
 21 22  1  0  0  0  0
 21 23  1  0  0  0  0
 21 27  1  0  0  0  0
 22 24  1  0  0  0  0
 22 28  1  0  0  0  0
 22 29  1  0  0  0  0
 23 30  1  0  0  0  0
 23 31  1  0  0  0  0
 23 32  1  0  0  0  0
 24 33  1  0  0  0  0
 24 34  1  0  0  0  0
 24 35  1  0  0  0  0
 36 37  1  0  0  0  0
 36 41  1  0  0  0  0
 37 38  1  0  0  0  0
 37 40  1  0  0  0  0
 37 42  1  0  0  0  0
 38 39  2  0  0  0  0
 38 46  1  0  0  0  0
 40 43  1  0  0  0  0
 40 44  1  0  0  0  0
 40 45  1  0  0  0  0
 46 47  1  0  0  0  0
 46 48  1  0  0  0  0
 47 49  1  0  0  0  0
 47 50  1  0  0  0  0
 47 51  1  0  0  0  0
M  END
$$$$

  -OEChem-05262216503D

 51 50  0     1  0  0  0  0  0999 V2000
    1.2041   -6.1669    0.7281 C   0  0  0  0  0  0  0  0  0  0  0  0
    0.1889   -6.6270    0.2293 O   0  0  0  0  0  0  0  0  0  0  0  0
    2.4536   -7.0204    0.8356 C   0  0  0  0  0  0  0  0  0  0  0  0
    2.2600   -8.0229    0.4439 H   0  0  0  0  0  0  0  0  0  0  0  0
    3.2649   -6.5678    0.2603 H   0  0  0  0  0  0  0  0  0  0  0  0
    2.7600   -7.1044    1.8810 H   0  0  0  0  0  0  0  0  0  0  0  0
    1.2189   -4.8654    1.1831 N   0  0  0  0  0  0  0  0  0  0  0  0
    0.1293   -3.9043    0.9704 C   0  0  2  0  0  0  0  0  0  0  0  0
    0.6546   -2.4590    0.8340 C   0  0  0  0  0  0  0  0  0  0  0  0
    1.8149   -2.2202    1.1436 O   0  0  0  0  0  0  0  0  0  0  0  0
   -0.8481   -4.0115    2.1452 C   0  0  0  0  0  0  0  0  0  0  0  0
    2.1191   -4.4777    1.4657 H   0  0  0  0  0  0  0  0  0  0  0  0
   -0.3960   -4.1486    0.0408 H   0  0  0  0  0  0  0  0  0  0  0  0
   -0.3440   -3.7686    3.0862 H   0  0  0  0  0  0  0  0  0  0  0  0
   -1.6889   -3.3242    2.0122 H   0  0  0  0  0  0  0  0  0  0  0  0
   -1.2444   -5.0296    2.2155 H   0  0  0  0  0  0  0  0  0  0  0  0
   -0.1623   -1.5069    0.2403 N   0  0  0  0  0  0  0  0  0  0  0  0
   -0.0542   -0.0202    0.1891 C   0  0  2  0  0  0  0  0  0  0  0  0
   -0.3358    0.4033   -1.2808 C   0  0  0  0  0  0  0  0  0  0  0  0
    0.4144    1.1031   -1.9459 O   0  0  0  0  0  0  0  0  0  0  0  0
    1.1158    0.6767    0.9703 C   0  0  2  0  0  0  0  0  0  0  0  0
    0.9673    0.4161    2.5004 C   0  0  0  0  0  0  0  0  0  0  0  0
    1.1264    2.2092    0.7531 C   0  0  0  0  0  0  0  0  0  0  0  0
    2.1981    0.8224    3.3201 C   0  0  0  0  0  0  0  0  0  0  0  0
   -1.0446   -1.8919   -0.0823 H   0  0  0  0  0  0  0  0  0  0  0  0
   -0.9400    0.3432    0.7183 H   0  0  0  0  0  0  0  0  0  0  0  0
    2.0701    0.2729    0.6151 H   0  0  0  0  0  0  0  0  0  0  0  0
    0.1014    0.9712    2.8752 H   0  0  0  0  0  0  0  0  0  0  0  0
    0.7672   -0.6345    2.7064 H   0  0  0  0  0  0  0  0  0  0  0  0
    0.1288    2.6283    0.9155 H   0  0  0  0  0  0  0  0  0  0  0  0
    1.8218    2.7074    1.4304 H   0  0  0  0  0  0  0  0  0  0  0  0
    1.4563    2.4668   -0.2549 H   0  0  0  0  0  0  0  0  0  0  0  0
    3.1028    0.3811    2.8899 H   0  0  0  0  0  0  0  0  0  0  0  0
    2.0929    0.4592    4.3469 H   0  0  0  0  0  0  0  0  0  0  0  0
    2.3193    1.9076    3.3619 H   0  0  0  0  0  0  0  0  0  0  0  0
   -1.4078   -0.1711   -1.9433 N   0  0  0  0  0  0  0  0  0  0  0  0
   -1.7806    0.0873   -3.3396 C   0  0  2  0  0  0  0  0  0  0  0  0
   -3.2892   -0.1600   -3.5527 C   0  0  0  0  0  0  0  0  0  0  0  0
   -3.9535   -0.6775   -2.6592 O   0  0  0  0  0  0  0  0  0  0  0  0
   -0.9487   -0.8259   -4.2476 C   0  0  0  0  0  0  0  0  0  0  0  0
   -2.1156   -0.6349   -1.3777 H   0  0  0  0  0  0  0  0  0  0  0  0
   -1.5760    1.1336   -3.5907 H   0  0  0  0  0  0  0  0  0  0  0  0
   -1.1419   -1.8778   -4.0144 H   0  0  0  0  0  0  0  0  0  0  0  0
   -1.1937   -0.6509   -5.2993 H   0  0  0  0  0  0  0  0  0  0  0  0
    0.1192   -0.6298   -4.1078 H   0  0  0  0  0  0  0  0  0  0  0  0
   -3.9084    0.2084   -4.7326 N   0  0  0  0  0  0  0  0  0  0  0  0
   -5.3271   -0.0069   -4.9923 C   0  0  0  0  0  0  0  0  0  0  0  0
   -3.3344    0.6372   -5.4533 H   0  0  0  0  0  0  0  0  0  0  0  0
   -5.5702   -1.0731   -4.9338 H   0  0  0  0  0  0  0  0  0  0  0  0
   -5.9377    0.5338   -4.2614 H   0  0  0  0  0  0  0  0  0  0  0  0
   -5.5876    0.3518   -5.9927 H   0  0  0  0  0  0  0  0  0  0  0  0
  1  2  2  0  0  0  0
  1  3  1  0  0  0  0
  1  7  1  0  0  0  0
  3  4  1  0  0  0  0
  3  5  1  0  0  0  0
  3  6  1  0  0  0  0
  7  8  1  0  0  0  0
  7 12  1  0  0  0  0
  8  9  1  0  0  0  0
  8 11  1  0  0  0  0
  8 13  1  0  0  0  0
  9 10  2  0  0  0  0
  9 17  1  0  0  0  0
 11 14  1  0  0  0  0
 11 15  1  0  0  0  0
 11 16  1  0  0  0  0
 17 18  1  0  0  0  0
 17 25  1  0  0  0  0
 18 19  1  0  0  0  0
 18 21  1  0  0  0  0
 18 26  1  0  0  0  0
 19 20  2  0  0  0  0
 19 36  1  0  0  0  0
 21 22  1  0  0  0  0
 21 23  1  0  0  0  0
 21 27  1  0  0  0  0
 22 24  1  0  0  0  0
 22 28  1  0  0  0  0
 22 29  1  0  0  0  0
 23 30  1  0  0  0  0
 23 31  1  0  0  0  0
 23 32  1  0  0  0  0
 24 33  1  0  0  0  0
 24 34  1  0  0  0  0
 24 35  1  0  0  0  0
 36 37  1  0  0  0  0
 36 41  1  0  0  0  0
 37 38  1  0  0  0  0
 37 40  1  0  0  0  0
 37 42  1  0  0  0  0
 38 39  2  0  0  0  0
 38 46  1  0  0  0  0
 40 43  1  0  0  0  0
 40 44  1  0  0  0  0
 40 45  1  0  0  0  0
 46 47  1  0  0  0  0
 46 48  1  0  0  0  0
 47 49  1  0  0  0  0
 47 50  1  0  0  0  0
 47 51  1  0  0  0  0
M  END
$$$$

  -OEChem-05262216503D

 51 50  0     1  0  0  0  0  0999 V2000
    1.1812   -6.1672    0.6880 C   0  0  0  0  0  0  0  0  0  0  0  0
    0.1691   -6.6223    0.1782 O   0  0  0  0  0  0  0  0  0  0  0  0
    2.4327   -7.0188    0.7880 C   0  0  0  0  0  0  0  0  0  0  0  0
    2.2230   -8.0373    0.4490 H   0  0  0  0  0  0  0  0  0  0  0  0
    3.2239   -6.5950    0.1643 H   0  0  0  0  0  0  0  0  0  0  0  0
    2.7762   -7.0569    1.8246 H   0  0  0  0  0  0  0  0  0  0  0  0
    1.1897   -4.8746    1.1670 N   0  0  0  0  0  0  0  0  0  0  0  0
    0.0962   -3.9144    0.9721 C   0  0  2  0  0  0  0  0  0  0  0  0
    0.6176   -2.4657    0.8570 C   0  0  0  0  0  0  0  0  0  0  0  0
    1.7758   -2.2294    1.1764 O   0  0  0  0  0  0  0  0  0  0  0  0
   -0.8762   -4.0434    2.1485 C   0  0  0  0  0  0  0  0  0  0  0  0
    2.0879   -4.4888    1.4584 H   0  0  0  0  0  0  0  0  0  0  0  0
   -0.4319   -4.1454    0.0407 H   0  0  0  0  0  0  0  0  0  0  0  0
   -0.3694   -3.8109    3.0907 H   0  0  0  0  0  0  0  0  0  0  0  0
   -1.7207   -3.3584    2.0276 H   0  0  0  0  0  0  0  0  0  0  0  0
   -1.2670   -5.0644    2.2062 H   0  0  0  0  0  0  0  0  0  0  0  0
   -0.1971   -1.5080    0.2702 N   0  0  0  0  0  0  0  0  0  0  0  0
   -0.0853   -0.0241    0.2265 C   0  0  2  0  0  0  0  0  0  0  0  0
   -0.3686    0.3992   -1.2371 C   0  0  0  0  0  0  0  0  0  0  0  0
    0.4966    0.8349   -1.9843 O   0  0  0  0  0  0  0  0  0  0  0  0
    1.0971    0.6811    0.9723 C   0  0  2  0  0  0  0  0  0  0  0  0
    1.0055    0.4308    2.5072 C   0  0  0  0  0  0  0  0  0  0  0  0
    1.0856    2.2104    0.7387 C   0  0  0  0  0  0  0  0  0  0  0  0
    2.2642    0.8567    3.2707 C   0  0  0  0  0  0  0  0  0  0  0  0
   -1.0661   -1.8905   -0.0911 H   0  0  0  0  0  0  0  0  0  0  0  0
   -0.9609    0.3403    0.7717 H   0  0  0  0  0  0  0  0  0  0  0  0
    2.0407    0.2799    0.5868 H   0  0  0  0  0  0  0  0  0  0  0  0
    0.1505    0.9835    2.9095 H   0  0  0  0  0  0  0  0  0  0  0  0
    0.8201   -0.6189    2.7306 H   0  0  0  0  0  0  0  0  0  0  0  0
    0.1323    2.6416    1.0591 H   0  0  0  0  0  0  0  0  0  0  0  0
    1.8900    2.7001    1.2915 H   0  0  0  0  0  0  0  0  0  0  0  0
    1.2433    2.4604   -0.3120 H   0  0  0  0  0  0  0  0  0  0  0  0
    3.1512    0.3954    2.8257 H   0  0  0  0  0  0  0  0  0  0  0  0
    2.1925    0.5303    4.3124 H   0  0  0  0  0  0  0  0  0  0  0  0
    2.3903    1.9421    3.2678 H   0  0  0  0  0  0  0  0  0  0  0  0
   -1.5966    0.0833   -1.7920 N   0  0  0  0  0  0  0  0  0  0  0  0
   -1.9891    0.3624   -3.1795 C   0  0  2  0  0  0  0  0  0  0  0  0
   -3.5212    0.5001   -3.3012 C   0  0  0  0  0  0  0  0  0  0  0  0
   -4.2381    0.1937   -2.3533 O   0  0  0  0  0  0  0  0  0  0  0  0
   -1.4790   -0.7732   -4.0744 C   0  0  0  0  0  0  0  0  0  0  0  0
   -2.3536   -0.1629   -1.1556 H   0  0  0  0  0  0  0  0  0  0  0  0
   -1.5447    1.3093   -3.5046 H   0  0  0  0  0  0  0  0  0  0  0  0
   -1.9201   -1.7279   -3.7711 H   0  0  0  0  0  0  0  0  0  0  0  0
   -1.7385   -0.5857   -5.1204 H   0  0  0  0  0  0  0  0  0  0  0  0
   -0.3898   -0.8549   -4.0020 H   0  0  0  0  0  0  0  0  0  0  0  0
   -4.0972    0.9764   -4.4642 N   0  0  0  0  0  0  0  0  0  0  0  0
   -5.5370    1.1177   -4.6447 C   0  0  0  0  0  0  0  0  0  0  0  0
   -3.4775    1.2268   -5.2296 H   0  0  0  0  0  0  0  0  0  0  0  0
   -6.0346    0.1491   -4.5284 H   0  0  0  0  0  0  0  0  0  0  0  0
   -5.9492    1.8162   -3.9089 H   0  0  0  0  0  0  0  0  0  0  0  0
   -5.7573    1.5005   -5.6458 H   0  0  0  0  0  0  0  0  0  0  0  0
  1  2  2  0  0  0  0
  1  3  1  0  0  0  0
  1  7  1  0  0  0  0
  3  4  1  0  0  0  0
  3  5  1  0  0  0  0
  3  6  1  0  0  0  0
  7  8  1  0  0  0  0
  7 12  1  0  0  0  0
  8  9  1  0  0  0  0
  8 11  1  0  0  0  0
  8 13  1  0  0  0  0
  9 10  2  0  0  0  0
  9 17  1  0  0  0  0
 11 14  1  0  0  0  0
 11 15  1  0  0  0  0
 11 16  1  0  0  0  0
 17 18  1  0  0  0  0
 17 25  1  0  0  0  0
 18 19  1  0  0  0  0
 18 21  1  0  0  0  0
 18 26  1  0  0  0  0
 19 20  2  0  0  0  0
 19 36  1  0  0  0  0
 21 22  1  0  0  0  0
 21 23  1  0  0  0  0
 21 27  1  0  0  0  0
 22 24  1  0  0  0  0
 22 28  1  0  0  0  0
 22 29  1  0  0  0  0
 23 30  1  0  0  0  0
 23 31  1  0  0  0  0
 23 32  1  0  0  0  0
 24 33  1  0  0  0  0
 24 34  1  0  0  0  0
 24 35  1  0  0  0  0
 36 37  1  0  0  0  0
 36 41  1  0  0  0  0
 37 38  1  0  0  0  0
 37 40  1  0  0  0  0
 37 42  1  0  0  0  0
 38 39  2  0  0  0  0
 38 46  1  0  0  0  0
 40 43  1  0  0  0  0
 40 44  1  0  0  0  0
 40 45  1  0  0  0  0
 46 47  1  0  0  0  0
 46 48  1  0  0  0  0
 47 49  1  0  0  0  0
 47 50  1  0  0  0  0
 47 51  1  0  0  0  0
M  END
$$$$

  -OEChem-05262216503D

 51 50  0     1  0  0  0  0  0999 V2000
    1.1772   -6.1973    0.7264 C   0  0  0  0  0  0  0  0  0  0  0  0
    0.1569   -6.6664    0.2465 O   0  0  0  0  0  0  0  0  0  0  0  0
    2.4338   -7.0421    0.8196 C   0  0  0  0  0  0  0  0  0  0  0  0
    2.2480   -8.0411    0.4153 H   0  0  0  0  0  0  0  0  0  0  0  0
    3.2401   -6.5757    0.2484 H   0  0  0  0  0  0  0  0  0  0  0  0
    2.7427   -7.1362    1.8634 H   0  0  0  0  0  0  0  0  0  0  0  0
    1.1915   -4.8934    1.1735 N   0  0  0  0  0  0  0  0  0  0  0  0
    0.0930   -3.9396    0.9750 C   0  0  2  0  0  0  0  0  0  0  0  0
    0.6076   -2.4882    0.8627 C   0  0  0  0  0  0  0  0  0  0  0  0
    1.7641   -2.2452    1.1835 O   0  0  0  0  0  0  0  0  0  0  0  0
   -0.8849   -4.0715    2.1468 C   0  0  0  0  0  0  0  0  0  0  0  0
    2.0933   -4.4993    1.4422 H   0  0  0  0  0  0  0  0  0  0  0  0
   -0.4291   -4.1746    0.0412 H   0  0  0  0  0  0  0  0  0  0  0  0
   -0.3832   -3.8359    3.0908 H   0  0  0  0  0  0  0  0  0  0  0  0
   -1.7315   -3.3900    2.0214 H   0  0  0  0  0  0  0  0  0  0  0  0
   -1.2723   -5.0938    2.2039 H   0  0  0  0  0  0  0  0  0  0  0  0
   -0.2128   -1.5353    0.2771 N   0  0  0  0  0  0  0  0  0  0  0  0
   -0.1146   -0.0522    0.2399 C   0  0  2  0  0  0  0  0  0  0  0  0
   -0.3944    0.3833   -1.2173 C   0  0  0  0  0  0  0  0  0  0  0  0
    0.5042    0.6256   -2.0119 O   0  0  0  0  0  0  0  0  0  0  0  0
    1.0662    0.6690    0.9668 C   0  0  2  0  0  0  0  0  0  0  0  0
    1.0123    0.4244    2.5033 C   0  0  0  0  0  0  0  0  0  0  0  0
    1.0280    2.1937    0.7121 C   0  0  0  0  0  0  0  0  0  0  0  0
    2.2827    0.8750    3.2323 C   0  0  0  0  0  0  0  0  0  0  0  0
   -1.0789   -1.9216   -0.0878 H   0  0  0  0  0  0  0  0  0  0  0  0
   -0.9886    0.3007    0.7949 H   0  0  0  0  0  0  0  0  0  0  0  0
    2.0073    0.2768    0.5659 H   0  0  0  0  0  0  0  0  0  0  0  0
    0.1584    0.9667    2.9222 H   0  0  0  0  0  0  0  0  0  0  0  0
    0.8480   -0.6266    2.7367 H   0  0  0  0  0  0  0  0  0  0  0  0
    0.0840    2.6199    1.0656 H   0  0  0  0  0  0  0  0  0  0  0  0
    1.8495    2.6994    1.2245 H   0  0  0  0  0  0  0  0  0  0  0  0
    1.1369    2.4252   -0.3501 H   0  0  0  0  0  0  0  0  0  0  0  0
    3.1652    0.4168    2.7747 H   0  0  0  0  0  0  0  0  0  0  0  0
    2.2381    0.5631    4.2801 H   0  0  0  0  0  0  0  0  0  0  0  0
    2.3961    1.9619    3.2096 H   0  0  0  0  0  0  0  0  0  0  0  0
   -1.6942    0.3549   -1.6879 N   0  0  0  0  0  0  0  0  0  0  0  0
   -2.1022    0.7353   -3.0459 C   0  0  2  0  0  0  0  0  0  0  0  0
   -3.5702    1.2098   -3.0656 C   0  0  0  0  0  0  0  0  0  0  0  0
   -4.2737    1.0603   -2.0711 O   0  0  0  0  0  0  0  0  0  0  0  0
   -1.9148   -0.4707   -3.9737 C   0  0  0  0  0  0  0  0  0  0  0  0
   -2.4445    0.2624   -1.0038 H   0  0  0  0  0  0  0  0  0  0  0  0
   -1.4801    1.5649   -3.3993 H   0  0  0  0  0  0  0  0  0  0  0  0
   -2.5393   -1.3076   -3.6451 H   0  0  0  0  0  0  0  0  0  0  0  0
   -2.1896   -0.2128   -5.0008 H   0  0  0  0  0  0  0  0  0  0  0  0
   -0.8690   -0.7948   -3.9708 H   0  0  0  0  0  0  0  0  0  0  0  0
   -4.1025    1.8121   -4.1901 N   0  0  0  0  0  0  0  0  0  0  0  0
   -5.4834    2.2717   -4.2733 C   0  0  0  0  0  0  0  0  0  0  0  0
   -3.4955    1.9261   -4.9969 H   0  0  0  0  0  0  0  0  0  0  0  0
   -6.1747    1.4351   -4.1263 H   0  0  0  0  0  0  0  0  0  0  0  0
   -5.6814    3.0314   -3.5098 H   0  0  0  0  0  0  0  0  0  0  0  0
   -5.6773    2.7116   -5.2563 H   0  0  0  0  0  0  0  0  0  0  0  0
  1  2  2  0  0  0  0
  1  3  1  0  0  0  0
  1  7  1  0  0  0  0
  3  4  1  0  0  0  0
  3  5  1  0  0  0  0
  3  6  1  0  0  0  0
  7  8  1  0  0  0  0
  7 12  1  0  0  0  0
  8  9  1  0  0  0  0
  8 11  1  0  0  0  0
  8 13  1  0  0  0  0
  9 10  2  0  0  0  0
  9 17  1  0  0  0  0
 11 14  1  0  0  0  0
 11 15  1  0  0  0  0
 11 16  1  0  0  0  0
 17 18  1  0  0  0  0
 17 25  1  0  0  0  0
 18 19  1  0  0  0  0
 18 21  1  0  0  0  0
 18 26  1  0  0  0  0
 19 20  2  0  0  0  0
 19 36  1  0  0  0  0
 21 22  1  0  0  0  0
 21 23  1  0  0  0  0
 21 27  1  0  0  0  0
 22 24  1  0  0  0  0
 22 28  1  0  0  0  0
 22 29  1  0  0  0  0
 23 30  1  0  0  0  0
 23 31  1  0  0  0  0
 23 32  1  0  0  0  0
 24 33  1  0  0  0  0
 24 34  1  0  0  0  0
 24 35  1  0  0  0  0
 36 37  1  0  0  0  0
 36 41  1  0  0  0  0
 37 38  1  0  0  0  0
 37 40  1  0  0  0  0
 37 42  1  0  0  0  0
 38 39  2  0  0  0  0
 38 46  1  0  0  0  0
 40 43  1  0  0  0  0
 40 44  1  0  0  0  0
 40 45  1  0  0  0  0
 46 47  1  0  0  0  0
 46 48  1  0  0  0  0
 47 49  1  0  0  0  0
 47 50  1  0  0  0  0
 47 51  1  0  0  0  0
M  END
$$$$

  -OEChem-05262216503D

 51 50  0     1  0  0  0  0  0999 V2000
    1.2435   -6.2317    0.7858 C   0  0  0  0  0  0  0  0  0  0  0  0
    0.2327   -6.7303    0.3156 O   0  0  0  0  0  0  0  0  0  0  0  0
    2.5181   -7.0477    0.8925 C   0  0  0  0  0  0  0  0  0  0  0  0
    2.3451   -8.0665    0.5345 H   0  0  0  0  0  0  0  0  0  0  0  0
    3.3044   -6.5900    0.2871 H   0  0  0  0  0  0  0  0  0  0  0  0
    2.8479   -7.0920    1.9334 H   0  0  0  0  0  0  0  0  0  0  0  0
    1.2319   -4.9199    1.2090 N   0  0  0  0  0  0  0  0  0  0  0  0
    0.1166   -3.9898    0.9923 C   0  0  2  0  0  0  0  0  0  0  0  0
    0.6062   -2.5323    0.8518 C   0  0  0  0  0  0  0  0  0  0  0  0
    1.7583   -2.2646    1.1696 O   0  0  0  0  0  0  0  0  0  0  0  0
   -0.8555   -4.1130    2.1698 C   0  0  0  0  0  0  0  0  0  0  0  0
    2.1263   -4.5034    1.4680 H   0  0  0  0  0  0  0  0  0  0  0  0
   -0.4035   -4.2525    0.0648 H   0  0  0  0  0  0  0  0  0  0  0  0
   -0.3547   -3.8497    3.1071 H   0  0  0  0  0  0  0  0  0  0  0  0
   -1.7131   -3.4473    2.0334 H   0  0  0  0  0  0  0  0  0  0  0  0
   -1.2264   -5.1400    2.2497 H   0  0  0  0  0  0  0  0  0  0  0  0
   -0.2349   -1.5989    0.2636 N   0  0  0  0  0  0  0  0  0  0  0  0
   -0.1617   -0.1151    0.2183 C   0  0  2  0  0  0  0  0  0  0  0  0
   -0.4513    0.3407   -1.2299 C   0  0  0  0  0  0  0  0  0  0  0  0
    0.4317    0.3948   -2.0753 O   0  0  0  0  0  0  0  0  0  0  0  0
    1.0058    0.6315    0.9382 C   0  0  2  0  0  0  0  0  0  0  0  0
    0.9591    0.3980    2.4759 C   0  0  0  0  0  0  0  0  0  0  0  0
    0.9506    2.1493    0.6552 C   0  0  0  0  0  0  0  0  0  0  0  0
    2.2217    0.8768    3.1990 C   0  0  0  0  0  0  0  0  0  0  0  0
   -1.0932   -2.0028   -0.1004 H   0  0  0  0  0  0  0  0  0  0  0  0
   -1.0383    0.2160    0.7822 H   0  0  0  0  0  0  0  0  0  0  0  0
    1.9519    0.2468    0.5417 H   0  0  0  0  0  0  0  0  0  0  0  0
    0.0967    0.9297    2.8904 H   0  0  0  0  0  0  0  0  0  0  0  0
    0.8119   -0.6536    2.7182 H   0  0  0  0  0  0  0  0  0  0  0  0
    0.0047    2.5725    1.0072 H   0  0  0  0  0  0  0  0  0  0  0  0
    1.7710    2.6717    1.1524 H   0  0  0  0  0  0  0  0  0  0  0  0
    1.0499    2.3575   -0.4136 H   0  0  0  0  0  0  0  0  0  0  0  0
    3.1102    0.4196    2.7524 H   0  0  0  0  0  0  0  0  0  0  0  0
    2.1769    0.5857    4.2527 H   0  0  0  0  0  0  0  0  0  0  0  0
    2.3225    1.9641    3.1544 H   0  0  0  0  0  0  0  0  0  0  0  0
   -1.7518    0.6088   -1.6148 N   0  0  0  0  0  0  0  0  0  0  0  0
   -2.1406    1.1133   -2.9375 C   0  0  2  0  0  0  0  0  0  0  0  0
   -3.4293    1.9579   -2.8529 C   0  0  0  0  0  0  0  0  0  0  0  0
   -4.0829    1.9739   -1.8145 O   0  0  0  0  0  0  0  0  0  0  0  0
   -2.3382   -0.0819   -3.8758 C   0  0  0  0  0  0  0  0  0  0  0  0
   -2.4563    0.6836   -0.8816 H   0  0  0  0  0  0  0  0  0  0  0  0
   -1.3495    1.7587   -3.3345 H   0  0  0  0  0  0  0  0  0  0  0  0
   -3.1353   -0.7332   -3.5031 H   0  0  0  0  0  0  0  0  0  0  0  0
   -2.6059    0.2574   -4.8810 H   0  0  0  0  0  0  0  0  0  0  0  0
   -1.4150   -0.6662   -3.9461 H   0  0  0  0  0  0  0  0  0  0  0  0
   -3.8526    2.7086   -3.9338 N   0  0  0  0  0  0  0  0  0  0  0  0
   -5.0608    3.5247   -3.9181 C   0  0  0  0  0  0  0  0  0  0  0  0
   -3.2815    2.6897   -4.7740 H   0  0  0  0  0  0  0  0  0  0  0  0
   -5.9421    2.9011   -3.7339 H   0  0  0  0  0  0  0  0  0  0  0  0
   -4.9985    4.2873   -3.1347 H   0  0  0  0  0  0  0  0  0  0  0  0
   -5.1893    4.0283   -4.8810 H   0  0  0  0  0  0  0  0  0  0  0  0
  1  2  2  0  0  0  0
  1  3  1  0  0  0  0
  1  7  1  0  0  0  0
  3  4  1  0  0  0  0
  3  5  1  0  0  0  0
  3  6  1  0  0  0  0
  7  8  1  0  0  0  0
  7 12  1  0  0  0  0
  8  9  1  0  0  0  0
  8 11  1  0  0  0  0
  8 13  1  0  0  0  0
  9 10  2  0  0  0  0
  9 17  1  0  0  0  0
 11 14  1  0  0  0  0
 11 15  1  0  0  0  0
 11 16  1  0  0  0  0
 17 18  1  0  0  0  0
 17 25  1  0  0  0  0
 18 19  1  0  0  0  0
 18 21  1  0  0  0  0
 18 26  1  0  0  0  0
 19 20  2  0  0  0  0
 19 36  1  0  0  0  0
 21 22  1  0  0  0  0
 21 23  1  0  0  0  0
 21 27  1  0  0  0  0
 22 24  1  0  0  0  0
 22 28  1  0  0  0  0
 22 29  1  0  0  0  0
 23 30  1  0  0  0  0
 23 31  1  0  0  0  0
 23 32  1  0  0  0  0
 24 33  1  0  0  0  0
 24 34  1  0  0  0  0
 24 35  1  0  0  0  0
 36 37  1  0  0  0  0
 36 41  1  0  0  0  0
 37 38  1  0  0  0  0
 37 40  1  0  0  0  0
 37 42  1  0  0  0  0
 38 39  2  0  0  0  0
 38 46  1  0  0  0  0
 40 43  1  0  0  0  0
 40 44  1  0  0  0  0
 40 45  1  0  0  0  0
 46 47  1  0  0  0  0
 46 48  1  0  0  0  0
 47 49  1  0  0  0  0
 47 50  1  0  0  0  0
 47 51  1  0  0  0  0
M  END
$$$$

  -OEChem-05262216503D

 51 50  0     1  0  0  0  0  0999 V2000
    1.2699   -6.2336    0.7688 C   0  0  0  0  0  0  0  0  0  0  0  0
    0.2698   -6.7413    0.2854 O   0  0  0  0  0  0  0  0  0  0  0  0
    2.5498   -7.0383    0.8922 C   0  0  0  0  0  0  0  0  0  0  0  0
    2.3900   -8.0589    0.5333 H   0  0  0  0  0  0  0  0  0  0  0  0
    3.3406   -6.5751    0.2970 H   0  0  0  0  0  0  0  0  0  0  0  0
    2.8654   -7.0780    1.9375 H   0  0  0  0  0  0  0  0  0  0  0  0
    1.2398   -4.9243    1.1987 N   0  0  0  0  0  0  0  0  0  0  0  0
    0.1161   -4.0067    0.9747 C   0  0  2  0  0  0  0  0  0  0  0  0
    0.5880   -2.5416    0.8597 C   0  0  0  0  0  0  0  0  0  0  0  0
    1.7344   -2.2655    1.1910 O   0  0  0  0  0  0  0  0  0  0  0  0
   -0.8725   -4.1573    2.1350 C   0  0  0  0  0  0  0  0  0  0  0  0
    2.1265   -4.4987    1.4695 H   0  0  0  0  0  0  0  0  0  0  0  0
   -0.3838   -4.2653    0.0349 H   0  0  0  0  0  0  0  0  0  0  0  0
   -0.3925   -3.8892    3.0817 H   0  0  0  0  0  0  0  0  0  0  0  0
   -1.7412   -3.5089    1.9877 H   0  0  0  0  0  0  0  0  0  0  0  0
   -1.2233   -5.1921    2.2034 H   0  0  0  0  0  0  0  0  0  0  0  0
   -0.2602   -1.6116    0.2767 N   0  0  0  0  0  0  0  0  0  0  0  0
   -0.1945   -0.1278    0.2271 C   0  0  2  0  0  0  0  0  0  0  0  0
   -0.4952    0.3422   -1.2138 C   0  0  0  0  0  0  0  0  0  0  0  0
    0.3082    0.1677   -2.1199 O   0  0  0  0  0  0  0  0  0  0  0  0
    0.9723    0.6267    0.9373 C   0  0  2  0  0  0  0  0  0  0  0  0
    0.9373    0.4005    2.4763 C   0  0  0  0  0  0  0  0  0  0  0  0
    0.9222    2.1402    0.6353 C   0  0  0  0  0  0  0  0  0  0  0  0
    2.2016    0.8885    3.1905 C   0  0  0  0  0  0  0  0  0  0  0  0
   -1.1086   -2.0216   -0.1029 H   0  0  0  0  0  0  0  0  0  0  0  0
   -1.0693    0.1935    0.7996 H   0  0  0  0  0  0  0  0  0  0  0  0
    1.9157    0.2369    0.5396 H   0  0  0  0  0  0  0  0  0  0  0  0
    0.0754    0.9317    2.8929 H   0  0  0  0  0  0  0  0  0  0  0  0
    0.7950   -0.6505    2.7247 H   0  0  0  0  0  0  0  0  0  0  0  0
   -0.0211    2.5724    0.9835 H   0  0  0  0  0  0  0  0  0  0  0  0
    1.7461    2.6652    1.1243 H   0  0  0  0  0  0  0  0  0  0  0  0
    1.0206    2.3313   -0.4373 H   0  0  0  0  0  0  0  0  0  0  0  0
    3.0896    0.4308    2.7435 H   0  0  0  0  0  0  0  0  0  0  0  0
    2.1621    0.6049    4.2465 H   0  0  0  0  0  0  0  0  0  0  0  0
    2.2986    1.9756    3.1381 H   0  0  0  0  0  0  0  0  0  0  0  0
   -1.7208    0.9064   -1.5150 N   0  0  0  0  0  0  0  0  0  0  0  0
   -2.0739    1.4778   -2.8207 C   0  0  2  0  0  0  0  0  0  0  0  0
   -3.0891    2.6294   -2.6645 C   0  0  0  0  0  0  0  0  0  0  0  0
   -3.6277    2.8274   -1.5798 O   0  0  0  0  0  0  0  0  0  0  0  0
   -2.6510    0.3641   -3.7008 C   0  0  0  0  0  0  0  0  0  0  0  0
   -2.3222    1.1704   -0.7349 H   0  0  0  0  0  0  0  0  0  0  0  0
   -1.1793    1.8916   -3.2988 H   0  0  0  0  0  0  0  0  0  0  0  0
   -3.5533   -0.0550   -3.2441 H   0  0  0  0  0  0  0  0  0  0  0  0
   -2.9080    0.7504   -4.6916 H   0  0  0  0  0  0  0  0  0  0  0  0
   -1.9181   -0.4393   -3.8261 H   0  0  0  0  0  0  0  0  0  0  0  0
   -3.3950    3.4489   -3.7349 N   0  0  0  0  0  0  0  0  0  0  0  0
   -4.3575    4.5411   -3.6578 C   0  0  0  0  0  0  0  0  0  0  0  0
   -2.9305    3.2626   -4.6192 H   0  0  0  0  0  0  0  0  0  0  0  0
   -5.3520    4.1579   -3.4063 H   0  0  0  0  0  0  0  0  0  0  0  0
   -4.0558    5.2658   -2.8944 H   0  0  0  0  0  0  0  0  0  0  0  0
   -4.4195    5.0585   -4.6199 H   0  0  0  0  0  0  0  0  0  0  0  0
  1  2  2  0  0  0  0
  1  3  1  0  0  0  0
  1  7  1  0  0  0  0
  3  4  1  0  0  0  0
  3  5  1  0  0  0  0
  3  6  1  0  0  0  0
  7  8  1  0  0  0  0
  7 12  1  0  0  0  0
  8  9  1  0  0  0  0
  8 11  1  0  0  0  0
  8 13  1  0  0  0  0
  9 10  2  0  0  0  0
  9 17  1  0  0  0  0
 11 14  1  0  0  0  0
 11 15  1  0  0  0  0
 11 16  1  0  0  0  0
 17 18  1  0  0  0  0
 17 25  1  0  0  0  0
 18 19  1  0  0  0  0
 18 21  1  0  0  0  0
 18 26  1  0  0  0  0
 19 20  2  0  0  0  0
 19 36  1  0  0  0  0
 21 22  1  0  0  0  0
 21 23  1  0  0  0  0
 21 27  1  0  0  0  0
 22 24  1  0  0  0  0
 22 28  1  0  0  0  0
 22 29  1  0  0  0  0
 23 30  1  0  0  0  0
 23 31  1  0  0  0  0
 23 32  1  0  0  0  0
 24 33  1  0  0  0  0
 24 34  1  0  0  0  0
 24 35  1  0  0  0  0
 36 37  1  0  0  0  0
 36 41  1  0  0  0  0
 37 38  1  0  0  0  0
 37 40  1  0  0  0  0
 37 42  1  0  0  0  0
 38 39  2  0  0  0  0
 38 46  1  0  0  0  0
 40 43  1  0  0  0  0
 40 44  1  0  0  0  0
 40 45  1  0  0  0  0
 46 47  1  0  0  0  0
 46 48  1  0  0  0  0
 47 49  1  0  0  0  0
 47 50  1  0  0  0  0
 47 51  1  0  0  0  0
M  END
$$$$

  -OEChem-05262216503D

 51 50  0     1  0  0  0  0  0999 V2000
    1.2826   -6.2280    0.7372 C   0  0  0  0  0  0  0  0  0  0  0  0
    0.3052   -6.7359    0.2096 O   0  0  0  0  0  0  0  0  0  0  0  0
    2.5590   -7.0303    0.9082 C   0  0  0  0  0  0  0  0  0  0  0  0
    2.4217   -8.0437    0.5208 H   0  0  0  0  0  0  0  0  0  0  0  0
    3.3764   -6.5528    0.3624 H   0  0  0  0  0  0  0  0  0  0  0  0
    2.8230   -7.0908    1.9669 H   0  0  0  0  0  0  0  0  0  0  0  0
    1.2279   -4.9233    1.1790 N   0  0  0  0  0  0  0  0  0  0  0  0
    0.1088   -4.0084    0.9209 C   0  0  2  0  0  0  0  0  0  0  0  0
    0.5731   -2.5371    0.8553 C   0  0  0  0  0  0  0  0  0  0  0  0
    1.7140   -2.2636    1.2078 O   0  0  0  0  0  0  0  0  0  0  0  0
   -0.9337   -4.1901    2.0295 C   0  0  0  0  0  0  0  0  0  0  0  0
    2.1007   -4.4963    1.4895 H   0  0  0  0  0  0  0  0  0  0  0  0
   -0.3445   -4.2516   -0.0463 H   0  0  0  0  0  0  0  0  0  0  0  0
   -0.5002   -3.9496    3.0058 H   0  0  0  0  0  0  0  0  0  0  0  0
   -1.7950   -3.5371    1.8601 H   0  0  0  0  0  0  0  0  0  0  0  0
   -1.2874   -5.2259    2.0510 H   0  0  0  0  0  0  0  0  0  0  0  0
   -0.2745   -1.5964    0.2892 N   0  0  0  0  0  0  0  0  0  0  0  0
   -0.2058   -0.1123    0.2496 C   0  0  2  0  0  0  0  0  0  0  0  0
   -0.5183    0.3776   -1.1830 C   0  0  0  0  0  0  0  0  0  0  0  0
    0.1045   -0.0480   -2.1466 O   0  0  0  0  0  0  0  0  0  0  0  0
    0.9667    0.6383    0.9558 C   0  0  2  0  0  0  0  0  0  0  0  0
    0.9462    0.4060    2.4939 C   0  0  0  0  0  0  0  0  0  0  0  0
    0.9197    2.1535    0.6600 C   0  0  0  0  0  0  0  0  0  0  0  0
    2.2184    0.8920    3.1960 C   0  0  0  0  0  0  0  0  0  0  0  0
   -1.0977   -2.0037   -0.1454 H   0  0  0  0  0  0  0  0  0  0  0  0
   -1.0778    0.1994    0.8317 H   0  0  0  0  0  0  0  0  0  0  0  0
    1.9064    0.2480    0.5500 H   0  0  0  0  0  0  0  0  0  0  0  0
    0.0903    0.9379    2.9215 H   0  0  0  0  0  0  0  0  0  0  0  0
    0.8033   -0.6451    2.7407 H   0  0  0  0  0  0  0  0  0  0  0  0
   -0.0184    2.5884    1.0191 H   0  0  0  0  0  0  0  0  0  0  0  0
    1.7500    2.6748    1.1422 H   0  0  0  0  0  0  0  0  0  0  0  0
    1.0091    2.3479   -0.4128 H   0  0  0  0  0  0  0  0  0  0  0  0
    3.1019    0.4352    2.7390 H   0  0  0  0  0  0  0  0  0  0  0  0
    2.1902    0.6072    4.2520 H   0  0  0  0  0  0  0  0  0  0  0  0
    2.3152    1.9793    3.1441 H   0  0  0  0  0  0  0  0  0  0  0  0
   -1.5923    1.2180   -1.4100 N   0  0  0  0  0  0  0  0  0  0  0  0
   -1.9165    1.8151   -2.7119 C   0  0  2  0  0  0  0  0  0  0  0  0
   -2.5861    3.1949   -2.5375 C   0  0  0  0  0  0  0  0  0  0  0  0
   -2.9169    3.5767   -1.4192 O   0  0  0  0  0  0  0  0  0  0  0  0
   -2.8381    0.8546   -3.4704 C   0  0  0  0  0  0  0  0  0  0  0  0
   -2.0162    1.6650   -0.5969 H   0  0  0  0  0  0  0  0  0  0  0  0
   -0.9977    1.9680   -3.2888 H   0  0  0  0  0  0  0  0  0  0  0  0
   -3.7643    0.6911   -2.9106 H   0  0  0  0  0  0  0  0  0  0  0  0
   -3.0914    1.2594   -4.4545 H   0  0  0  0  0  0  0  0  0  0  0  0
   -2.3426   -0.1108   -3.6142 H   0  0  0  0  0  0  0  0  0  0  0  0
   -2.8088    4.0151   -3.6283 N   0  0  0  0  0  0  0  0  0  0  0  0
   -3.4432    5.3244   -3.5296 C   0  0  0  0  0  0  0  0  0  0  0  0
   -2.5247    3.6729   -4.5419 H   0  0  0  0  0  0  0  0  0  0  0  0
   -4.4641    5.2271   -3.1455 H   0  0  0  0  0  0  0  0  0  0  0  0
   -2.8749    5.9774   -2.8587 H   0  0  0  0  0  0  0  0  0  0  0  0
   -3.4887    5.7985   -4.5148 H   0  0  0  0  0  0  0  0  0  0  0  0
  1  2  2  0  0  0  0
  1  3  1  0  0  0  0
  1  7  1  0  0  0  0
  3  4  1  0  0  0  0
  3  5  1  0  0  0  0
  3  6  1  0  0  0  0
  7  8  1  0  0  0  0
  7 12  1  0  0  0  0
  8  9  1  0  0  0  0
  8 11  1  0  0  0  0
  8 13  1  0  0  0  0
  9 10  2  0  0  0  0
  9 17  1  0  0  0  0
 11 14  1  0  0  0  0
 11 15  1  0  0  0  0
 11 16  1  0  0  0  0
 17 18  1  0  0  0  0
 17 25  1  0  0  0  0
 18 19  1  0  0  0  0
 18 21  1  0  0  0  0
 18 26  1  0  0  0  0
 19 20  2  0  0  0  0
 19 36  1  0  0  0  0
 21 22  1  0  0  0  0
 21 23  1  0  0  0  0
 21 27  1  0  0  0  0
 22 24  1  0  0  0  0
 22 28  1  0  0  0  0
 22 29  1  0  0  0  0
 23 30  1  0  0  0  0
 23 31  1  0  0  0  0
 23 32  1  0  0  0  0
 24 33  1  0  0  0  0
 24 34  1  0  0  0  0
 24 35  1  0  0  0  0
 36 37  1  0  0  0  0
 36 41  1  0  0  0  0
 37 38  1  0  0  0  0
 37 40  1  0  0  0  0
 37 42  1  0  0  0  0
 38 39  2  0  0  0  0
 38 46  1  0  0  0  0
 40 43  1  0  0  0  0
 40 44  1  0  0  0  0
 40 45  1  0  0  0  0
 46 47  1  0  0  0  0
 46 48  1  0  0  0  0
 47 49  1  0  0  0  0
 47 50  1  0  0  0  0
 47 51  1  0  0  0  0
M  END
$$$$

  -OEChem-05262216503D

 51 50  0     1  0  0  0  0  0999 V2000
    1.3266   -6.2172    0.7196 C   0  0  0  0  0  0  0  0  0  0  0  0
    0.3632   -6.7429    0.1842 O   0  0  0  0  0  0  0  0  0  0  0  0
    2.6110   -7.0004    0.9146 C   0  0  0  0  0  0  0  0  0  0  0  0
    2.4816   -8.0294    0.5673 H   0  0  0  0  0  0  0  0  0  0  0  0
    3.4205   -6.5353    0.3465 H   0  0  0  0  0  0  0  0  0  0  0  0
    2.8808   -7.0168    1.9734 H   0  0  0  0  0  0  0  0  0  0  0  0
    1.2530   -4.9074    1.1425 N   0  0  0  0  0  0  0  0  0  0  0  0
    0.1288   -4.0055    0.8606 C   0  0  2  0  0  0  0  0  0  0  0  0
    0.5723   -2.5255    0.8374 C   0  0  0  0  0  0  0  0  0  0  0  0
    1.7070   -2.2457    1.2059 O   0  0  0  0  0  0  0  0  0  0  0  0
   -0.9500   -4.2197    1.9283 C   0  0  0  0  0  0  0  0  0  0  0  0
    2.1154   -4.4695    1.4661 H   0  0  0  0  0  0  0  0  0  0  0  0
   -0.2853   -4.2393   -0.1264 H   0  0  0  0  0  0  0  0  0  0  0  0
   -0.5558   -3.9829    2.9217 H   0  0  0  0  0  0  0  0  0  0  0  0
   -1.8164   -3.5802    1.7348 H   0  0  0  0  0  0  0  0  0  0  0  0
   -1.2857   -5.2615    1.9270 H   0  0  0  0  0  0  0  0  0  0  0  0
   -0.2874   -1.5819    0.2939 N   0  0  0  0  0  0  0  0  0  0  0  0
   -0.2308   -0.0966    0.2612 C   0  0  2  0  0  0  0  0  0  0  0  0
   -0.5717    0.4049   -1.1627 C   0  0  0  0  0  0  0  0  0  0  0  0
   -0.2158   -0.2188   -2.1546 O   0  0  0  0  0  0  0  0  0  0  0  0
    0.9424    0.6505    0.9736 C   0  0  2  0  0  0  0  0  0  0  0  0
    0.9186    0.4018    2.5096 C   0  0  0  0  0  0  0  0  0  0  0  0
    0.9158    2.1683    0.6925 C   0  0  0  0  0  0  0  0  0  0  0  0
    2.1872    0.8807    3.2228 C   0  0  0  0  0  0  0  0  0  0  0  0
   -1.0801   -1.9906   -0.1940 H   0  0  0  0  0  0  0  0  0  0  0  0
   -1.1027    0.2035    0.8499 H   0  0  0  0  0  0  0  0  0  0  0  0
    1.8807    0.2580    0.5673 H   0  0  0  0  0  0  0  0  0  0  0  0
    0.0598    0.9271    2.9394 H   0  0  0  0  0  0  0  0  0  0  0  0
    0.7758   -0.6517    2.7456 H   0  0  0  0  0  0  0  0  0  0  0  0
   -0.0167    2.6136    1.0532 H   0  0  0  0  0  0  0  0  0  0  0  0
    1.7519    2.6732    1.1822 H   0  0  0  0  0  0  0  0  0  0  0  0
    1.0128    2.3708   -0.3781 H   0  0  0  0  0  0  0  0  0  0  0  0
    3.0740    0.4427    2.7541 H   0  0  0  0  0  0  0  0  0  0  0  0
    2.1622    0.5689    4.2713 H   0  0  0  0  0  0  0  0  0  0  0  0
    2.2745    1.9700    3.1982 H   0  0  0  0  0  0  0  0  0  0  0  0
   -1.4415    1.4656   -1.3346 N   0  0  0  0  0  0  0  0  0  0  0  0
   -1.7459    2.0818   -2.6321 C   0  0  2  0  0  0  0  0  0  0  0  0
   -1.9453    3.6052   -2.4868 C   0  0  0  0  0  0  0  0  0  0  0  0
   -2.0169    4.1084   -1.3701 O   0  0  0  0  0  0  0  0  0  0  0  0
   -3.0054    1.4192   -3.1983 C   0  0  0  0  0  0  0  0  0  0  0  0
   -1.6285    2.0437   -0.5151 H   0  0  0  0  0  0  0  0  0  0  0  0
   -0.9117    1.9270   -3.3251 H   0  0  0  0  0  0  0  0  0  0  0  0
   -3.8562    1.5807   -2.5288 H   0  0  0  0  0  0  0  0  0  0  0  0
   -3.2505    1.8337   -4.1805 H   0  0  0  0  0  0  0  0  0  0  0  0
   -2.8496    0.3415   -3.3099 H   0  0  0  0  0  0  0  0  0  0  0  0
   -2.0345    4.4152   -3.6037 N   0  0  0  0  0  0  0  0  0  0  0  0
   -2.2315    5.8581   -3.5323 C   0  0  0  0  0  0  0  0  0  0  0  0
   -1.9606    3.9724   -4.5151 H   0  0  0  0  0  0  0  0  0  0  0  0
   -3.1700    6.0919   -3.0187 H   0  0  0  0  0  0  0  0  0  0  0  0
   -1.4058    6.3314   -2.9909 H   0  0  0  0  0  0  0  0  0  0  0  0
   -2.2740    6.2848   -4.5390 H   0  0  0  0  0  0  0  0  0  0  0  0
  1  2  2  0  0  0  0
  1  3  1  0  0  0  0
  1  7  1  0  0  0  0
  3  4  1  0  0  0  0
  3  5  1  0  0  0  0
  3  6  1  0  0  0  0
  7  8  1  0  0  0  0
  7 12  1  0  0  0  0
  8  9  1  0  0  0  0
  8 11  1  0  0  0  0
  8 13  1  0  0  0  0
  9 10  2  0  0  0  0
  9 17  1  0  0  0  0
 11 14  1  0  0  0  0
 11 15  1  0  0  0  0
 11 16  1  0  0  0  0
 17 18  1  0  0  0  0
 17 25  1  0  0  0  0
 18 19  1  0  0  0  0
 18 21  1  0  0  0  0
 18 26  1  0  0  0  0
 19 20  2  0  0  0  0
 19 36  1  0  0  0  0
 21 22  1  0  0  0  0
 21 23  1  0  0  0  0
 21 27  1  0  0  0  0
 22 24  1  0  0  0  0
 22 28  1  0  0  0  0
 22 29  1  0  0  0  0
 23 30  1  0  0  0  0
 23 31  1  0  0  0  0
 23 32  1  0  0  0  0
 24 33  1  0  0  0  0
 24 34  1  0  0  0  0
 24 35  1  0  0  0  0
 36 37  1  0  0  0  0
 36 41  1  0  0  0  0
 37 38  1  0  0  0  0
 37 40  1  0  0  0  0
 37 42  1  0  0  0  0
 38 39  2  0  0  0  0
 38 46  1  0  0  0  0
 40 43  1  0  0  0  0
 40 44  1  0  0  0  0
 40 45  1  0  0  0  0
 46 47  1  0  0  0  0
 46 48  1  0  0  0  0
 47 49  1  0  0  0  0
 47 50  1  0  0  0  0
 47 51  1  0  0  0  0
M  END
$$$$

  -OEChem-05262216503D

 51 50  0     1  0  0  0  0  0999 V2000
    1.3047   -6.1901    0.6645 C   0  0  0  0  0  0  0  0  0  0  0  0
    0.3497   -6.7029    0.1022 O   0  0  0  0  0  0  0  0  0  0  0  0
    2.5811   -6.9829    0.8741 C   0  0  0  0  0  0  0  0  0  0  0  0
    2.4540   -8.0051    0.5073 H   0  0  0  0  0  0  0  0  0  0  0  0
    3.4046   -6.5130    0.3311 H   0  0  0  0  0  0  0  0  0  0  0  0
    2.8288   -7.0188    1.9377 H   0  0  0  0  0  0  0  0  0  0  0  0
    1.2288   -4.8858    1.1038 N   0  0  0  0  0  0  0  0  0  0  0  0
    0.1160   -3.9733    0.8101 C   0  0  2  0  0  0  0  0  0  0  0  0
    0.5676   -2.4960    0.8293 C   0  0  0  0  0  0  0  0  0  0  0  0
    1.7071   -2.2355    1.1974 O   0  0  0  0  0  0  0  0  0  0  0  0
   -0.9921   -4.2026    1.8440 C   0  0  0  0  0  0  0  0  0  0  0  0
    2.0872   -4.4559    1.4483 H   0  0  0  0  0  0  0  0  0  0  0  0
   -0.2726   -4.1848   -0.1922 H   0  0  0  0  0  0  0  0  0  0  0  0
   -0.6226   -3.9917    2.8526 H   0  0  0  0  0  0  0  0  0  0  0  0
   -1.8477   -3.5516    1.6424 H   0  0  0  0  0  0  0  0  0  0  0  0
   -1.3363   -5.2410    1.8092 H   0  0  0  0  0  0  0  0  0  0  0  0
   -0.2904   -1.5324    0.3195 N   0  0  0  0  0  0  0  0  0  0  0  0
   -0.2273   -0.0463    0.3035 C   0  0  2  0  0  0  0  0  0  0  0  0
   -0.5979    0.4654   -1.1130 C   0  0  0  0  0  0  0  0  0  0  0  0
   -0.5224   -0.2742   -2.0876 O   0  0  0  0  0  0  0  0  0  0  0  0
    0.9700    0.6652    1.0208 C   0  0  2  0  0  0  0  0  0  0  0  0
    0.9498    0.3816    2.5518 C   0  0  0  0  0  0  0  0  0  0  0  0
    0.9996    2.1882    0.7748 C   0  0  0  0  0  0  0  0  0  0  0  0
    2.2302    0.8167    3.2719 C   0  0  0  0  0  0  0  0  0  0  0  0
   -1.0598   -1.9244   -0.2189 H   0  0  0  0  0  0  0  0  0  0  0  0
   -1.0883    0.2583    0.9058 H   0  0  0  0  0  0  0  0  0  0  0  0
    1.8950    0.2551    0.6013 H   0  0  0  0  0  0  0  0  0  0  0  0
    0.1056    0.9175    2.9972 H   0  0  0  0  0  0  0  0  0  0  0  0
    0.7823   -0.6727    2.7662 H   0  0  0  0  0  0  0  0  0  0  0  0
    0.0811    2.6594    1.1384 H   0  0  0  0  0  0  0  0  0  0  0  0
    1.8484    2.6530    1.2815 H   0  0  0  0  0  0  0  0  0  0  0  0
    1.1177    2.4085   -0.2900 H   0  0  0  0  0  0  0  0  0  0  0  0
    3.1068    0.3777    2.7853 H   0  0  0  0  0  0  0  0  0  0  0  0
    2.2049    0.4737    4.3106 H   0  0  0  0  0  0  0  0  0  0  0  0
    2.3361    1.9044    3.2805 H   0  0  0  0  0  0  0  0  0  0  0  0
   -1.2068    1.6951   -1.2815 N   0  0  0  0  0  0  0  0  0  0  0  0
   -1.4810    2.3137   -2.5843 C   0  0  2  0  0  0  0  0  0  0  0  0
   -1.2746    3.8418   -2.5197 C   0  0  0  0  0  0  0  0  0  0  0  0
   -1.1151    4.3924   -1.4347 O   0  0  0  0  0  0  0  0  0  0  0  0
   -2.9180    1.9751   -2.9903 C   0  0  0  0  0  0  0  0  0  0  0  0
   -1.1657    2.3359   -0.4886 H   0  0  0  0  0  0  0  0  0  0  0  0
   -0.7893    1.9214   -3.3378 H   0  0  0  0  0  0  0  0  0  0  0  0
   -3.6263    2.3731   -2.2569 H   0  0  0  0  0  0  0  0  0  0  0  0
   -3.1519    2.4030   -3.9694 H   0  0  0  0  0  0  0  0  0  0  0  0
   -3.0490    0.8900   -3.0489 H   0  0  0  0  0  0  0  0  0  0  0  0
   -1.2534    4.6010   -3.6748 N   0  0  0  0  0  0  0  0  0  0  0  0
   -1.0639    6.0469   -3.6771 C   0  0  0  0  0  0  0  0  0  0  0  0
   -1.3762    4.1176   -4.5601 H   0  0  0  0  0  0  0  0  0  0  0  0
   -1.8621    6.5379   -3.1107 H   0  0  0  0  0  0  0  0  0  0  0  0
   -0.1007    6.3091   -3.2270 H   0  0  0  0  0  0  0  0  0  0  0  0
   -1.0818    6.4299   -4.7018 H   0  0  0  0  0  0  0  0  0  0  0  0
  1  2  2  0  0  0  0
  1  3  1  0  0  0  0
  1  7  1  0  0  0  0
  3  4  1  0  0  0  0
  3  5  1  0  0  0  0
  3  6  1  0  0  0  0
  7  8  1  0  0  0  0
  7 12  1  0  0  0  0
  8  9  1  0  0  0  0
  8 11  1  0  0  0  0
  8 13  1  0  0  0  0
  9 10  2  0  0  0  0
  9 17  1  0  0  0  0
 11 14  1  0  0  0  0
 11 15  1  0  0  0  0
 11 16  1  0  0  0  0
 17 18  1  0  0  0  0
 17 25  1  0  0  0  0
 18 19  1  0  0  0  0
 18 21  1  0  0  0  0
 18 26  1  0  0  0  0
 19 20  2  0  0  0  0
 19 36  1  0  0  0  0
 21 22  1  0  0  0  0
 21 23  1  0  0  0  0
 21 27  1  0  0  0  0
 22 24  1  0  0  0  0
 22 28  1  0  0  0  0
 22 29  1  0  0  0  0
 23 30  1  0  0  0  0
 23 31  1  0  0  0  0
 23 32  1  0  0  0  0
 24 33  1  0  0  0  0
 24 34  1  0  0  0  0
 24 35  1  0  0  0  0
 36 37  1  0  0  0  0
 36 41  1  0  0  0  0
 37 38  1  0  0  0  0
 37 40  1  0  0  0  0
 37 42  1  0  0  0  0
 38 39  2  0  0  0  0
 38 46  1  0  0  0  0
 40 43  1  0  0  0  0
 40 44  1  0  0  0  0
 40 45  1  0  0  0  0
 46 47  1  0  0  0  0
 46 48  1  0  0  0  0
 47 49  1  0  0  0  0
 47 50  1  0  0  0  0
 47 51  1  0  0  0  0
M  END
$$$$

  -OEChem-05262216503D

 51 50  0     1  0  0  0  0  0999 V2000
    1.2342   -6.1628    0.5943 C   0  0  0  0  0  0  0  0  0  0  0  0
    0.2987   -6.6392   -0.0291 O   0  0  0  0  0  0  0  0  0  0  0  0
    2.4868   -6.9841    0.8348 C   0  0  0  0  0  0  0  0  0  0  0  0
    2.3491   -8.0011    0.4575 H   0  0  0  0  0  0  0  0  0  0  0  0
    3.3356   -6.5280    0.3195 H   0  0  0  0  0  0  0  0  0  0  0  0
    2.7022   -7.0320    1.9050 H   0  0  0  0  0  0  0  0  0  0  0  0
    1.1606   -4.8737    1.0769 N   0  0  0  0  0  0  0  0  0  0  0  0
    0.0837   -3.9265    0.7590 C   0  0  2  0  0  0  0  0  0  0  0  0
    0.5716   -2.4619    0.8382 C   0  0  0  0  0  0  0  0  0  0  0  0
    1.7165   -2.2464    1.2191 O   0  0  0  0  0  0  0  0  0  0  0  0
   -1.0771   -4.1595    1.7329 C   0  0  0  0  0  0  0  0  0  0  0  0
    2.0140   -4.4716    1.4647 H   0  0  0  0  0  0  0  0  0  0  0  0
   -0.2637   -4.1013   -0.2652 H   0  0  0  0  0  0  0  0  0  0  0  0
   -0.7521   -3.9864    2.7638 H   0  0  0  0  0  0  0  0  0  0  0  0
   -1.9087   -3.4845    1.5105 H   0  0  0  0  0  0  0  0  0  0  0  0
   -1.4411   -5.1887    1.6511 H   0  0  0  0  0  0  0  0  0  0  0  0
   -0.2546   -1.4576    0.3536 N   0  0  0  0  0  0  0  0  0  0  0  0
   -0.1527    0.0280    0.3656 C   0  0  2  0  0  0  0  0  0  0  0  0
   -0.5179    0.5586   -1.0507 C   0  0  0  0  0  0  0  0  0  0  0  0
   -0.7135   -0.2270   -1.9729 O   0  0  0  0  0  0  0  0  0  0  0  0
    1.0680    0.6725    1.1147 C   0  0  2  0  0  0  0  0  0  0  0  0
    1.0126    0.3432    2.6371 C   0  0  0  0  0  0  0  0  0  0  0  0
    1.1837    2.1989    0.9244 C   0  0  0  0  0  0  0  0  0  0  0  0
    2.2965    0.7001    3.3944 C   0  0  0  0  0  0  0  0  0  0  0  0
   -1.0282   -1.8109   -0.2070 H   0  0  0  0  0  0  0  0  0  0  0  0
   -1.0065    0.3523    0.9679 H   0  0  0  0  0  0  0  0  0  0  0  0
    1.9790    0.2329    0.6950 H   0  0  0  0  0  0  0  0  0  0  0  0
    0.1848    0.9018    3.0853 H   0  0  0  0  0  0  0  0  0  0  0  0
    0.7953   -0.7082    2.8179 H   0  0  0  0  0  0  0  0  0  0  0  0
    0.2684    2.7031    1.2500 H   0  0  0  0  0  0  0  0  0  0  0  0
    2.0209    2.6080    1.4940 H   0  0  0  0  0  0  0  0  0  0  0  0
    1.3815    2.4444   -0.1225 H   0  0  0  0  0  0  0  0  0  0  0  0
    3.1657    0.2540    2.9006 H   0  0  0  0  0  0  0  0  0  0  0  0
    2.2430    0.3100    4.4153 H   0  0  0  0  0  0  0  0  0  0  0  0
    2.4395    1.7818    3.4572 H   0  0  0  0  0  0  0  0  0  0  0  0
   -0.8128    1.8888   -1.2831 N   0  0  0  0  0  0  0  0  0  0  0  0
   -1.0702    2.4748   -2.6048 C   0  0  2  0  0  0  0  0  0  0  0  0
   -0.6145    3.9489   -2.6499 C   0  0  0  0  0  0  0  0  0  0  0  0
   -0.2849    4.5200   -1.6150 O   0  0  0  0  0  0  0  0  0  0  0  0
   -2.5673    2.3626   -2.9109 C   0  0  0  0  0  0  0  0  0  0  0  0
   -0.5742    2.5495   -0.5435 H   0  0  0  0  0  0  0  0  0  0  0  0
   -0.5023    1.9313   -3.3677 H   0  0  0  0  0  0  0  0  0  0  0  0
   -3.1526    2.9036   -2.1606 H   0  0  0  0  0  0  0  0  0  0  0  0
   -2.7914    2.7807   -3.8967 H   0  0  0  0  0  0  0  0  0  0  0  0
   -2.8783    1.3131   -2.9052 H   0  0  0  0  0  0  0  0  0  0  0  0
   -0.5587    4.6341   -3.8495 N   0  0  0  0  0  0  0  0  0  0  0  0
   -0.1314    6.0240   -3.9582 C   0  0  0  0  0  0  0  0  0  0  0  0
   -0.8249    4.1332   -4.6925 H   0  0  0  0  0  0  0  0  0  0  0  0
   -0.7877    6.6740   -3.3697 H   0  0  0  0  0  0  0  0  0  0  0  0
    0.8959    6.1393   -3.5963 H   0  0  0  0  0  0  0  0  0  0  0  0
   -0.1682    6.3507   -5.0021 H   0  0  0  0  0  0  0  0  0  0  0  0
  1  2  2  0  0  0  0
  1  3  1  0  0  0  0
  1  7  1  0  0  0  0
  3  4  1  0  0  0  0
  3  5  1  0  0  0  0
  3  6  1  0  0  0  0
  7  8  1  0  0  0  0
  7 12  1  0  0  0  0
  8  9  1  0  0  0  0
  8 11  1  0  0  0  0
  8 13  1  0  0  0  0
  9 10  2  0  0  0  0
  9 17  1  0  0  0  0
 11 14  1  0  0  0  0
 11 15  1  0  0  0  0
 11 16  1  0  0  0  0
 17 18  1  0  0  0  0
 17 25  1  0  0  0  0
 18 19  1  0  0  0  0
 18 21  1  0  0  0  0
 18 26  1  0  0  0  0
 19 20  2  0  0  0  0
 19 36  1  0  0  0  0
 21 22  1  0  0  0  0
 21 23  1  0  0  0  0
 21 27  1  0  0  0  0
 22 24  1  0  0  0  0
 22 28  1  0  0  0  0
 22 29  1  0  0  0  0
 23 30  1  0  0  0  0
 23 31  1  0  0  0  0
 23 32  1  0  0  0  0
 24 33  1  0  0  0  0
 24 34  1  0  0  0  0
 24 35  1  0  0  0  0
 36 37  1  0  0  0  0
 36 41  1  0  0  0  0
 37 38  1  0  0  0  0
 37 40  1  0  0  0  0
 37 42  1  0  0  0  0
 38 39  2  0  0  0  0
 38 46  1  0  0  0  0
 40 43  1  0  0  0  0
 40 44  1  0  0  0  0
 40 45  1  0  0  0  0
 46 47  1  0  0  0  0
 46 48  1  0  0  0  0
 47 49  1  0  0  0  0
 47 50  1  0  0  0  0
 47 51  1  0  0  0  0
M  END
$$$$

  -OEChem-05262216503D

 51 50  0     1  0  0  0  0  0999 V2000
    1.7598   -4.7577    2.0935 C   0  0  0  0  0  0  0  0  0  0  0  0
    1.7867   -3.8614    2.9199 O   0  0  0  0  0  0  0  0  0  0  0  0
    2.8946   -5.7649    2.0637 C   0  0  0  0  0  0  0  0  0  0  0  0
    3.4246   -5.7002    1.1100 H   0  0  0  0  0  0  0  0  0  0  0  0
    3.6020   -5.5629    2.8732 H   0  0  0  0  0  0  0  0  0  0  0  0
    2.4999   -6.7764    2.1863 H   0  0  0  0  0  0  0  0  0  0  0  0
    0.7311   -4.8928    1.1794 N   0  0  0  0  0  0  0  0  0  0  0  0
   -0.2999   -3.8869    0.8485 C   0  0  2  0  0  0  0  0  0  0  0  0
    0.2037   -2.8318   -0.1688 C   0  0  0  0  0  0  0  0  0  0  0  0
    0.9495   -3.1916   -1.0679 O   0  0  0  0  0  0  0  0  0  0  0  0
   -0.9907   -3.2789    2.0822 C   0  0  0  0  0  0  0  0  0  0  0  0
    0.9193   -5.5756    0.4503 H   0  0  0  0  0  0  0  0  0  0  0  0
   -1.0893   -4.4299    0.3209 H   0  0  0  0  0  0  0  0  0  0  0  0
   -0.3469   -2.5615    2.5956 H   0  0  0  0  0  0  0  0  0  0  0  0
   -1.9052   -2.7579    1.7832 H   0  0  0  0  0  0  0  0  0  0  0  0
   -1.2606   -4.0688    2.7896 H   0  0  0  0  0  0  0  0  0  0  0  0
   -0.5594   -1.7357   -0.4864 N   0  0  0  0  0  0  0  0  0  0  0  0
   -0.3962   -0.3248   -0.0436 C   0  0  2  0  0  0  0  0  0  0  0  0
   -0.9641    0.5305   -1.2278 C   0  0  0  0  0  0  0  0  0  0  0  0
   -1.3919   -0.0237   -2.2379 O   0  0  0  0  0  0  0  0  0  0  0  0
    1.0713    0.0984    0.3879 C   0  0  2  0  0  0  0  0  0  0  0  0
    1.6211   -0.6655    1.6285 C   0  0  0  0  0  0  0  0  0  0  0  0
    1.1913    1.6135    0.6821 C   0  0  0  0  0  0  0  0  0  0  0  0
    3.1197   -0.4643    1.8953 C   0  0  0  0  0  0  0  0  0  0  0  0
   -0.7091   -1.7437   -1.4994 H   0  0  0  0  0  0  0  0  0  0  0  0
   -1.0508   -0.1595    0.8170 H   0  0  0  0  0  0  0  0  0  0  0  0
    1.7321   -0.1335   -0.4550 H   0  0  0  0  0  0  0  0  0  0  0  0
    1.5042   -1.7330    1.5121 H   0  0  0  0  0  0  0  0  0  0  0  0
    1.0522   -0.3745    2.5176 H   0  0  0  0  0  0  0  0  0  0  0  0
    0.3365    1.9622    1.2702 H   0  0  0  0  0  0  0  0  0  0  0  0
    2.0969    1.8638    1.2348 H   0  0  0  0  0  0  0  0  0  0  0  0
    1.2538    2.1812   -0.2493 H   0  0  0  0  0  0  0  0  0  0  0  0
    3.6942   -0.6043    0.9746 H   0  0  0  0  0  0  0  0  0  0  0  0
    3.4615   -1.2021    2.6283 H   0  0  0  0  0  0  0  0  0  0  0  0
    3.3352    0.5260    2.3025 H   0  0  0  0  0  0  0  0  0  0  0  0
   -1.0097    1.9122   -1.2292 N   0  0  0  0  0  0  0  0  0  0  0  0
   -1.3890    2.7486   -2.3759 C   0  0  2  0  0  0  0  0  0  0  0  0
   -0.6730    4.1146   -2.3336 C   0  0  0  0  0  0  0  0  0  0  0  0
   -0.0962    4.4745   -1.3125 O   0  0  0  0  0  0  0  0  0  0  0  0
   -2.9091    2.9376   -2.3593 C   0  0  0  0  0  0  0  0  0  0  0  0
   -0.5659    2.3949   -0.4488 H   0  0  0  0  0  0  0  0  0  0  0  0
   -1.0941    2.2553   -3.3082 H   0  0  0  0  0  0  0  0  0  0  0  0
   -3.2226    3.4326   -1.4345 H   0  0  0  0  0  0  0  0  0  0  0  0
   -3.2304    3.5479   -3.2085 H   0  0  0  0  0  0  0  0  0  0  0  0
   -3.4129    1.9679   -2.4233 H   0  0  0  0  0  0  0  0  0  0  0  0
   -0.6624    4.9358   -3.4458 N   0  0  0  0  0  0  0  0  0  0  0  0
    0.0191    6.2242   -3.4837 C   0  0  0  0  0  0  0  0  0  0  0  0
   -1.1212    4.5964   -4.2864 H   0  0  0  0  0  0  0  0  0  0  0  0
   -0.3603    6.8831   -2.6954 H   0  0  0  0  0  0  0  0  0  0  0  0
    1.0971    6.0919   -3.3437 H   0  0  0  0  0  0  0  0  0  0  0  0
   -0.1476    6.7115   -4.4491 H   0  0  0  0  0  0  0  0  0  0  0  0
  1  2  2  0  0  0  0
  1  3  1  0  0  0  0
  1  7  1  0  0  0  0
  3  4  1  0  0  0  0
  3  5  1  0  0  0  0
  3  6  1  0  0  0  0
  7  8  1  0  0  0  0
  7 12  1  0  0  0  0
  8  9  1  0  0  0  0
  8 11  1  0  0  0  0
  8 13  1  0  0  0  0
  9 10  2  0  0  0  0
  9 17  1  0  0  0  0
 11 14  1  0  0  0  0
 11 15  1  0  0  0  0
 11 16  1  0  0  0  0
 17 18  1  0  0  0  0
 17 25  1  0  0  0  0
 18 19  1  0  0  0  0
 18 21  1  0  0  0  0
 18 26  1  0  0  0  0
 19 20  2  0  0  0  0
 19 36  1  0  0  0  0
 21 22  1  0  0  0  0
 21 23  1  0  0  0  0
 21 27  1  0  0  0  0
 22 24  1  0  0  0  0
 22 28  1  0  0  0  0
 22 29  1  0  0  0  0
 23 30  1  0  0  0  0
 23 31  1  0  0  0  0
 23 32  1  0  0  0  0
 24 33  1  0  0  0  0
 24 34  1  0  0  0  0
 24 35  1  0  0  0  0
 36 37  1  0  0  0  0
 36 41  1  0  0  0  0
 37 38  1  0  0  0  0
 37 40  1  0  0  0  0
 37 42  1  0  0  0  0
 38 39  2  0  0  0  0
 38 46  1  0  0  0  0
 40 43  1  0  0  0  0
 40 44  1  0  0  0  0
 40 45  1  0  0  0  0
 46 47  1  0  0  0  0
 46 48  1  0  0  0  0
 47 49  1  0  0  0  0
 47 50  1  0  0  0  0
 47 51  1  0  0  0  0
M  END
$$$$

  -OEChem-05262216503D

 51 50  0     1  0  0  0  0  0999 V2000
    1.7096   -4.8052    2.0771 C   0  0  0  0  0  0  0  0  0  0  0  0
    1.7699   -3.9087    2.9015 O   0  0  0  0  0  0  0  0  0  0  0  0
    2.8169   -5.8421    2.0362 C   0  0  0  0  0  0  0  0  0  0  0  0
    3.3354   -5.7944    1.0753 H   0  0  0  0  0  0  0  0  0  0  0  0
    3.5403   -5.6543    2.8348 H   0  0  0  0  0  0  0  0  0  0  0  0
    2.3985   -6.8428    2.1687 H   0  0  0  0  0  0  0  0  0  0  0  0
    0.6695   -4.9091    1.1716 N   0  0  0  0  0  0  0  0  0  0  0  0
   -0.3294   -3.8683    0.8489 C   0  0  2  0  0  0  0  0  0  0  0  0
    0.2133   -2.8037   -0.1379 C   0  0  0  0  0  0  0  0  0  0  0  0
    0.9701   -3.1573   -1.0308 O   0  0  0  0  0  0  0  0  0  0  0  0
   -1.0115   -3.2642    2.0896 C   0  0  0  0  0  0  0  0  0  0  0  0
    0.8285   -5.6002    0.4436 H   0  0  0  0  0  0  0  0  0  0  0  0
   -1.1285   -4.3775    0.3020 H   0  0  0  0  0  0  0  0  0  0  0  0
   -0.3492   -2.5789    2.6234 H   0  0  0  0  0  0  0  0  0  0  0  0
   -1.9051   -2.7066    1.7939 H   0  0  0  0  0  0  0  0  0  0  0  0
   -1.3143   -4.0592    2.7775 H   0  0  0  0  0  0  0  0  0  0  0  0
   -0.5249   -1.6873   -0.4449 N   0  0  0  0  0  0  0  0  0  0  0  0
   -0.3183   -0.2809   -0.0048 C   0  0  2  0  0  0  0  0  0  0  0  0
   -0.8838    0.5778   -1.1924 C   0  0  0  0  0  0  0  0  0  0  0  0
   -1.5597    0.0352   -2.0639 O   0  0  0  0  0  0  0  0  0  0  0  0
    1.1587    0.1001    0.4319 C   0  0  2  0  0  0  0  0  0  0  0  0
    1.6753   -0.6810    1.6765 C   0  0  0  0  0  0  0  0  0  0  0  0
    1.3000    1.6093    0.7558 C   0  0  0  0  0  0  0  0  0  0  0  0
    3.1786   -0.5258    1.9506 C   0  0  0  0  0  0  0  0  0  0  0  0
   -0.7265   -1.6987   -1.4477 H   0  0  0  0  0  0  0  0  0  0  0  0
   -0.9669   -0.0954    0.8565 H   0  0  0  0  0  0  0  0  0  0  0  0
    1.8220   -0.1375   -0.4075 H   0  0  0  0  0  0  0  0  0  0  0  0
    1.5243   -1.7440    1.5593 H   0  0  0  0  0  0  0  0  0  0  0  0
    1.1107   -0.3735    2.5627 H   0  0  0  0  0  0  0  0  0  0  0  0
    0.3750    1.9999    1.1917 H   0  0  0  0  0  0  0  0  0  0  0  0
    2.1004    1.8214    1.4644 H   0  0  0  0  0  0  0  0  0  0  0  0
    1.5475    2.1703   -0.1495 H   0  0  0  0  0  0  0  0  0  0  0  0
    3.7516   -0.6840    1.0320 H   0  0  0  0  0  0  0  0  0  0  0  0
    3.4928   -1.2759    2.6831 H   0  0  0  0  0  0  0  0  0  0  0  0
    3.4270    0.4561    2.3592 H   0  0  0  0  0  0  0  0  0  0  0  0
   -0.6535    1.9285   -1.3772 N   0  0  0  0  0  0  0  0  0  0  0  0
   -1.0267    2.7029   -2.5690 C   0  0  2  0  0  0  0  0  0  0  0  0
   -0.0939    3.9172   -2.7589 C   0  0  0  0  0  0  0  0  0  0  0  0
    0.6547    4.2651   -1.8515 O   0  0  0  0  0  0  0  0  0  0  0  0
   -2.4803    3.1651   -2.4234 C   0  0  0  0  0  0  0  0  0  0  0  0
   -0.0265    2.3917   -0.7219 H   0  0  0  0  0  0  0  0  0  0  0  0
   -0.9328    2.0749   -3.4614 H   0  0  0  0  0  0  0  0  0  0  0  0
   -2.5943    3.7928   -1.5340 H   0  0  0  0  0  0  0  0  0  0  0  0
   -2.7896    3.7419   -3.3000 H   0  0  0  0  0  0  0  0  0  0  0  0
   -3.1470    2.3023   -2.3283 H   0  0  0  0  0  0  0  0  0  0  0  0
   -0.0877    4.6182   -3.9506 N   0  0  0  0  0  0  0  0  0  0  0  0
    0.7771    5.7650   -4.2019 C   0  0  0  0  0  0  0  0  0  0  0  0
   -0.7022    4.2934   -4.6916 H   0  0  0  0  0  0  0  0  0  0  0  0
    0.5806    6.5610   -3.4756 H   0  0  0  0  0  0  0  0  0  0  0  0
    1.8305    5.4743   -4.1299 H   0  0  0  0  0  0  0  0  0  0  0  0
    0.5962    6.1618   -5.2057 H   0  0  0  0  0  0  0  0  0  0  0  0
  1  2  2  0  0  0  0
  1  3  1  0  0  0  0
  1  7  1  0  0  0  0
  3  4  1  0  0  0  0
  3  5  1  0  0  0  0
  3  6  1  0  0  0  0
  7  8  1  0  0  0  0
  7 12  1  0  0  0  0
  8  9  1  0  0  0  0
  8 11  1  0  0  0  0
  8 13  1  0  0  0  0
  9 10  2  0  0  0  0
  9 17  1  0  0  0  0
 11 14  1  0  0  0  0
 11 15  1  0  0  0  0
 11 16  1  0  0  0  0
 17 18  1  0  0  0  0
 17 25  1  0  0  0  0
 18 19  1  0  0  0  0
 18 21  1  0  0  0  0
 18 26  1  0  0  0  0
 19 20  2  0  0  0  0
 19 36  1  0  0  0  0
 21 22  1  0  0  0  0
 21 23  1  0  0  0  0
 21 27  1  0  0  0  0
 22 24  1  0  0  0  0
 22 28  1  0  0  0  0
 22 29  1  0  0  0  0
 23 30  1  0  0  0  0
 23 31  1  0  0  0  0
 23 32  1  0  0  0  0
 24 33  1  0  0  0  0
 24 34  1  0  0  0  0
 24 35  1  0  0  0  0
 36 37  1  0  0  0  0
 36 41  1  0  0  0  0
 37 38  1  0  0  0  0
 37 40  1  0  0  0  0
 37 42  1  0  0  0  0
 38 39  2  0  0  0  0
 38 46  1  0  0  0  0
 40 43  1  0  0  0  0
 40 44  1  0  0  0  0
 40 45  1  0  0  0  0
 46 47  1  0  0  0  0
 46 48  1  0  0  0  0
 47 49  1  0  0  0  0
 47 50  1  0  0  0  0
 47 51  1  0  0  0  0
M  END
$$$$

  -OEChem-05262216503D

 51 50  0     1  0  0  0  0  0999 V2000
    0.6109   -5.9960    0.4670 C   0  0  0  0  0  0  0  0  0  0  0  0
   -0.5407   -6.3998    0.4365 O   0  0  0  0  0  0  0  0  0  0  0  0
    1.7586   -6.9407    0.1648 C   0  0  0  0  0  0  0  0  0  0  0  0
    1.3827   -7.9583    0.0262 H   0  0  0  0  0  0  0  0  0  0  0  0
    2.2702   -6.6257   -0.7480 H   0  0  0  0  0  0  0  0  0  0  0  0
    2.4711   -6.9383    0.9933 H   0  0  0  0  0  0  0  0  0  0  0  0
    0.8729   -4.6760    0.7648 N   0  0  0  0  0  0  0  0  0  0  0  0
   -0.1552   -3.6381    0.9139 C   0  0  2  0  0  0  0  0  0  0  0  0
    0.3929   -2.2419    0.5473 C   0  0  0  0  0  0  0  0  0  0  0  0
    1.5814   -2.1145    0.2717 O   0  0  0  0  0  0  0  0  0  0  0  0
   -0.6575   -3.6507    2.3615 C   0  0  0  0  0  0  0  0  0  0  0  0
    1.8318   -4.3512    0.6441 H   0  0  0  0  0  0  0  0  0  0  0  0
   -0.9916   -3.8512    0.2392 H   0  0  0  0  0  0  0  0  0  0  0  0
    0.1632   -3.4345    3.0528 H   0  0  0  0  0  0  0  0  0  0  0  0
   -1.4414   -2.9008    2.5040 H   0  0  0  0  0  0  0  0  0  0  0  0
   -1.0730   -4.6323    2.6110 H   0  0  0  0  0  0  0  0  0  0  0  0
   -0.4840   -1.1925    0.3391 N   0  0  0  0  0  0  0  0  0  0  0  0
   -0.2946    0.2779    0.4286 C   0  0  2  0  0  0  0  0  0  0  0  0
   -1.2998    0.8342   -0.6234 C   0  0  0  0  0  0  0  0  0  0  0  0
   -2.4516    0.4224   -0.5813 O   0  0  0  0  0  0  0  0  0  0  0  0
    1.1450    0.8807    0.6198 C   0  0  2  0  0  0  0  0  0  0  0  0
    1.7549    0.4216    1.9842 C   0  0  0  0  0  0  0  0  0  0  0  0
    1.1246    2.4300    0.6841 C   0  0  0  0  0  0  0  0  0  0  0  0
    3.2488    0.7352    2.1355 C   0  0  0  0  0  0  0  0  0  0  0  0
   -1.4660   -1.4690    0.3505 H   0  0  0  0  0  0  0  0  0  0  0  0
   -0.7750    0.5580    1.3717 H   0  0  0  0  0  0  0  0  0  0  0  0
    1.7833    0.5499   -0.2058 H   0  0  0  0  0  0  0  0  0  0  0  0
    1.2150    0.9131    2.8002 H   0  0  0  0  0  0  0  0  0  0  0  0
    1.6278   -0.6444    2.1516 H   0  0  0  0  0  0  0  0  0  0  0  0
    0.4378    2.7698    1.4661 H   0  0  0  0  0  0  0  0  0  0  0  0
    0.8220    2.8878   -0.2518 H   0  0  0  0  0  0  0  0  0  0  0  0
    2.1156    2.8336    0.8989 H   0  0  0  0  0  0  0  0  0  0  0  0
    3.8046    0.3592    1.2710 H   0  0  0  0  0  0  0  0  0  0  0  0
    3.6376    0.2452    3.0333 H   0  0  0  0  0  0  0  0  0  0  0  0
    3.4329    1.8073    2.2371 H   0  0  0  0  0  0  0  0  0  0  0  0
   -1.2041    1.9770   -1.3779 N   0  0  0  0  0  0  0  0  0  0  0  0
   -0.2107    2.0403   -2.4639 C   0  0  2  0  0  0  0  0  0  0  0  0
    0.0936    3.4849   -2.9180 C   0  0  0  0  0  0  0  0  0  0  0  0
   -0.7572    4.3599   -2.8273 O   0  0  0  0  0  0  0  0  0  0  0  0
   -0.7405    1.2312   -3.6537 C   0  0  0  0  0  0  0  0  0  0  0  0
   -2.1268    2.3175   -1.6437 H   0  0  0  0  0  0  0  0  0  0  0  0
    0.7307    1.5920   -2.1334 H   0  0  0  0  0  0  0  0  0  0  0  0
   -1.6885    1.6498   -4.0080 H   0  0  0  0  0  0  0  0  0  0  0  0
   -0.0232    1.2511   -4.4799 H   0  0  0  0  0  0  0  0  0  0  0  0
   -0.9064    0.1873   -3.3690 H   0  0  0  0  0  0  0  0  0  0  0  0
    1.3296    3.7990   -3.4539 N   0  0  0  0  0  0  0  0  0  0  0  0
    1.6871    5.1394   -3.9033 C   0  0  0  0  0  0  0  0  0  0  0  0
    2.0187    3.0565   -3.5278 H   0  0  0  0  0  0  0  0  0  0  0  0
    1.0217    5.4636   -4.7104 H   0  0  0  0  0  0  0  0  0  0  0  0
    1.6119    5.8535   -3.0763 H   0  0  0  0  0  0  0  0  0  0  0  0
    2.7154    5.1523   -4.2775 H   0  0  0  0  0  0  0  0  0  0  0  0
  1  2  2  0  0  0  0
  1  3  1  0  0  0  0
  1  7  1  0  0  0  0
  3  4  1  0  0  0  0
  3  5  1  0  0  0  0
  3  6  1  0  0  0  0
  7  8  1  0  0  0  0
  7 12  1  0  0  0  0
  8  9  1  0  0  0  0
  8 11  1  0  0  0  0
  8 13  1  0  0  0  0
  9 10  2  0  0  0  0
  9 17  1  0  0  0  0
 11 14  1  0  0  0  0
 11 15  1  0  0  0  0
 11 16  1  0  0  0  0
 17 18  1  0  0  0  0
 17 25  1  0  0  0  0
 18 19  1  0  0  0  0
 18 21  1  0  0  0  0
 18 26  1  0  0  0  0
 19 20  2  0  0  0  0
 19 36  1  0  0  0  0
 21 22  1  0  0  0  0
 21 23  1  0  0  0  0
 21 27  1  0  0  0  0
 22 24  1  0  0  0  0
 22 28  1  0  0  0  0
 22 29  1  0  0  0  0
 23 30  1  0  0  0  0
 23 31  1  0  0  0  0
 23 32  1  0  0  0  0
 24 33  1  0  0  0  0
 24 34  1  0  0  0  0
 24 35  1  0  0  0  0
 36 37  1  0  0  0  0
 36 41  1  0  0  0  0
 37 38  1  0  0  0  0
 37 40  1  0  0  0  0
 37 42  1  0  0  0  0
 38 39  2  0  0  0  0
 38 46  1  0  0  0  0
 40 43  1  0  0  0  0
 40 44  1  0  0  0  0
 40 45  1  0  0  0  0
 46 47  1  0  0  0  0
 46 48  1  0  0  0  0
 47 49  1  0  0  0  0
 47 50  1  0  0  0  0
 47 51  1  0  0  0  0
M  END
$$$$

  -OEChem-05262216503D

 51 50  0     1  0  0  0  0  0999 V2000
    0.4959   -4.4233    2.4318 C   0  0  0  0  0  0  0  0  0  0  0  0
   -0.1792   -3.4195    2.5973 O   0  0  0  0  0  0  0  0  0  0  0  0
    1.1363   -5.1039    3.6270 C   0  0  0  0  0  0  0  0  0  0  0  0
    2.2248   -5.0447    3.5496 H   0  0  0  0  0  0  0  0  0  0  0  0
    0.8218   -4.6146    4.5530 H   0  0  0  0  0  0  0  0  0  0  0  0
    0.8363   -6.1540    3.6652 H   0  0  0  0  0  0  0  0  0  0  0  0
    0.7115   -4.9346    1.1655 N   0  0  0  0  0  0  0  0  0  0  0  0
    0.3160   -4.2612   -0.0843 C   0  0  2  0  0  0  0  0  0  0  0  0
    0.9673   -2.8643   -0.2193 C   0  0  0  0  0  0  0  0  0  0  0  0
    2.1770   -2.8172   -0.4014 O   0  0  0  0  0  0  0  0  0  0  0  0
   -1.2157   -4.2520   -0.2299 C   0  0  0  0  0  0  0  0  0  0  0  0
    1.4142   -5.6652    1.0999 H   0  0  0  0  0  0  0  0  0  0  0  0
    0.7074   -4.8520   -0.9184 H   0  0  0  0  0  0  0  0  0  0  0  0
   -1.6872   -3.6233    0.5312 H   0  0  0  0  0  0  0  0  0  0  0  0
   -1.4997   -3.8726   -1.2165 H   0  0  0  0  0  0  0  0  0  0  0  0
   -1.6086   -5.2679   -0.1271 H   0  0  0  0  0  0  0  0  0  0  0  0
    0.1966   -1.7183   -0.3116 N   0  0  0  0  0  0  0  0  0  0  0  0
    0.4951   -0.3087    0.0437 C   0  0  2  0  0  0  0  0  0  0  0  0
   -0.3373    0.5586   -0.9397 C   0  0  0  0  0  0  0  0  0  0  0  0
   -1.5150    0.2622   -1.1230 O   0  0  0  0  0  0  0  0  0  0  0  0
    1.9618    0.1027    0.4343 C   0  0  2  0  0  0  0  0  0  0  0  0
    2.4109   -0.6327    1.7374 C   0  0  0  0  0  0  0  0  0  0  0  0
    2.0944    1.6270    0.6753 C   0  0  0  0  0  0  0  0  0  0  0  0
    3.9086   -0.5063    2.0451 C   0  0  0  0  0  0  0  0  0  0  0  0
   -0.8020   -1.9168   -0.3101 H   0  0  0  0  0  0  0  0  0  0  0  0
   -0.0371   -0.1566    0.9883 H   0  0  0  0  0  0  0  0  0  0  0  0
    2.6329   -0.1832   -0.3828 H   0  0  0  0  0  0  0  0  0  0  0  0
    2.1706   -1.6922    1.7150 H   0  0  0  0  0  0  0  0  0  0  0  0
    1.8487   -0.2216    2.5822 H   0  0  0  0  0  0  0  0  0  0  0  0
    1.2264    2.0070    1.2234 H   0  0  0  0  0  0  0  0  0  0  0  0
    2.9869    1.8772    1.2496 H   0  0  0  0  0  0  0  0  0  0  0  0
    2.1880    2.1685   -0.2675 H   0  0  0  0  0  0  0  0  0  0  0  0
    4.4995   -0.7987    1.1715 H   0  0  0  0  0  0  0  0  0  0  0  0
    4.1691   -1.1710    2.8740 H   0  0  0  0  0  0  0  0  0  0  0  0
    4.1849    0.5092    2.3363 H   0  0  0  0  0  0  0  0  0  0  0  0
    0.1508    1.6622   -1.6117 N   0  0  0  0  0  0  0  0  0  0  0  0
   -0.5889    2.4297   -2.6217 C   0  0  2  0  0  0  0  0  0  0  0  0
    0.3609    3.0401   -3.6729 C   0  0  0  0  0  0  0  0  0  0  0  0
    1.5656    3.1022   -3.4524 O   0  0  0  0  0  0  0  0  0  0  0  0
   -1.3798    3.5313   -1.9093 C   0  0  0  0  0  0  0  0  0  0  0  0
    1.1606    1.8006   -1.5899 H   0  0  0  0  0  0  0  0  0  0  0  0
   -1.2825    1.7700   -3.1538 H   0  0  0  0  0  0  0  0  0  0  0  0
   -0.7013    4.2067   -1.3783 H   0  0  0  0  0  0  0  0  0  0  0  0
   -1.9604    4.1152   -2.6296 H   0  0  0  0  0  0  0  0  0  0  0  0
   -2.0724    3.0926   -1.1841 H   0  0  0  0  0  0  0  0  0  0  0  0
   -0.1347    3.5110   -4.8750 N   0  0  0  0  0  0  0  0  0  0  0  0
    0.7092    4.0682   -5.9251 C   0  0  0  0  0  0  0  0  0  0  0  0
   -1.1332    3.4219   -5.0400 H   0  0  0  0  0  0  0  0  0  0  0  0
    1.2400    4.9545   -5.5613 H   0  0  0  0  0  0  0  0  0  0  0  0
    1.4452    3.3285   -6.2575 H   0  0  0  0  0  0  0  0  0  0  0  0
    0.0992    4.3599   -6.7855 H   0  0  0  0  0  0  0  0  0  0  0  0
  1  2  2  0  0  0  0
  1  3  1  0  0  0  0
  1  7  1  0  0  0  0
  3  4  1  0  0  0  0
  3  5  1  0  0  0  0
  3  6  1  0  0  0  0
  7  8  1  0  0  0  0
  7 12  1  0  0  0  0
  8  9  1  0  0  0  0
  8 11  1  0  0  0  0
  8 13  1  0  0  0  0
  9 10  2  0  0  0  0
  9 17  1  0  0  0  0
 11 14  1  0  0  0  0
 11 15  1  0  0  0  0
 11 16  1  0  0  0  0
 17 18  1  0  0  0  0
 17 25  1  0  0  0  0
 18 19  1  0  0  0  0
 18 21  1  0  0  0  0
 18 26  1  0  0  0  0
 19 20  2  0  0  0  0
 19 36  1  0  0  0  0
 21 22  1  0  0  0  0
 21 23  1  0  0  0  0
 21 27  1  0  0  0  0
 22 24  1  0  0  0  0
 22 28  1  0  0  0  0
 22 29  1  0  0  0  0
 23 30  1  0  0  0  0
 23 31  1  0  0  0  0
 23 32  1  0  0  0  0
 24 33  1  0  0  0  0
 24 34  1  0  0  0  0
 24 35  1  0  0  0  0
 36 37  1  0  0  0  0
 36 41  1  0  0  0  0
 37 38  1  0  0  0  0
 37 40  1  0  0  0  0
 37 42  1  0  0  0  0
 38 39  2  0  0  0  0
 38 46  1  0  0  0  0
 40 43  1  0  0  0  0
 40 44  1  0  0  0  0
 40 45  1  0  0  0  0
 46 47  1  0  0  0  0
 46 48  1  0  0  0  0
 47 49  1  0  0  0  0
 47 50  1  0  0  0  0
 47 51  1  0  0  0  0
M  END
$$$$

  -OEChem-05262216503D

 51 50  0     1  0  0  0  0  0999 V2000
    0.4077   -4.3019    2.4970 C   0  0  0  0  0  0  0  0  0  0  0  0
   -0.2903   -3.3006    2.5273 O   0  0  0  0  0  0  0  0  0  0  0  0
    0.9655   -4.8688    3.7886 C   0  0  0  0  0  0  0  0  0  0  0  0
    2.0542   -4.7739    3.7968 H   0  0  0  0  0  0  0  0  0  0  0  0
    0.5579   -4.3255    4.6458 H   0  0  0  0  0  0  0  0  0  0  0  0
    0.6971   -5.9239    3.8815 H   0  0  0  0  0  0  0  0  0  0  0  0
    0.7303   -4.9070    1.2965 N   0  0  0  0  0  0  0  0  0  0  0  0
    0.4280   -4.3429   -0.0306 C   0  0  2  0  0  0  0  0  0  0  0  0
    1.0538   -2.9406   -0.2170 C   0  0  0  0  0  0  0  0  0  0  0  0
    2.2628   -2.8725   -0.3955 O   0  0  0  0  0  0  0  0  0  0  0  0
   -1.0858   -4.3875   -0.3029 C   0  0  0  0  0  0  0  0  0  0  0  0
    1.4383   -5.6338    1.3450 H   0  0  0  0  0  0  0  0  0  0  0  0
    0.9027   -4.9829   -0.7814 H   0  0  0  0  0  0  0  0  0  0  0  0
   -1.6377   -3.7385    0.3835 H   0  0  0  0  0  0  0  0  0  0  0  0
   -1.2957   -4.0641   -1.3274 H   0  0  0  0  0  0  0  0  0  0  0  0
   -1.4587   -5.4089   -0.1816 H   0  0  0  0  0  0  0  0  0  0  0  0
    0.2619   -1.8132   -0.3410 N   0  0  0  0  0  0  0  0  0  0  0  0
    0.5331   -0.4016    0.0222 C   0  0  2  0  0  0  0  0  0  0  0  0
   -0.2765    0.4483   -0.9871 C   0  0  0  0  0  0  0  0  0  0  0  0
   -1.4899    0.2795   -1.0575 O   0  0  0  0  0  0  0  0  0  0  0  0
    1.9775    0.0528    0.4372 C   0  0  2  0  0  0  0  0  0  0  0  0
    2.4311   -0.6655    1.7465 C   0  0  0  0  0  0  0  0  0  0  0  0
    2.0488    1.5790    0.6910 C   0  0  0  0  0  0  0  0  0  0  0  0
    3.9188   -0.4873    2.0722 C   0  0  0  0  0  0  0  0  0  0  0  0
   -0.7306   -2.0368   -0.3009 H   0  0  0  0  0  0  0  0  0  0  0  0
   -0.0240   -0.2578    0.9542 H   0  0  0  0  0  0  0  0  0  0  0  0
    2.6686   -0.2055   -0.3723 H   0  0  0  0  0  0  0  0  0  0  0  0
    2.2266   -1.7325    1.7192 H   0  0  0  0  0  0  0  0  0  0  0  0
    1.8448   -0.2726    2.5835 H   0  0  0  0  0  0  0  0  0  0  0  0
    1.2505    1.8913    1.3718 H   0  0  0  0  0  0  0  0  0  0  0  0
    3.0048    1.8687    1.1303 H   0  0  0  0  0  0  0  0  0  0  0  0
    1.9635    2.1497   -0.2339 H   0  0  0  0  0  0  0  0  0  0  0  0
    4.5325   -0.7613    1.2087 H   0  0  0  0  0  0  0  0  0  0  0  0
    4.1912   -1.1382    2.9084 H   0  0  0  0  0  0  0  0  0  0  0  0
    4.1515    0.5402    2.3608 H   0  0  0  0  0  0  0  0  0  0  0  0
    0.3038    1.3539   -1.8531 N   0  0  0  0  0  0  0  0  0  0  0  0
   -0.4064    2.0854   -2.9083 C   0  0  2  0  0  0  0  0  0  0  0  0
    0.5414    2.4701   -4.0629 C   0  0  0  0  0  0  0  0  0  0  0  0
    1.7566    2.4165   -3.9078 O   0  0  0  0  0  0  0  0  0  0  0  0
   -1.0353    3.3394   -2.2916 C   0  0  0  0  0  0  0  0  0  0  0  0
    1.3232    1.3612   -1.8972 H   0  0  0  0  0  0  0  0  0  0  0  0
   -1.1944    1.4508   -3.3274 H   0  0  0  0  0  0  0  0  0  0  0  0
   -0.2604    3.9850   -1.8657 H   0  0  0  0  0  0  0  0  0  0  0  0
   -1.5855    3.9067   -3.0482 H   0  0  0  0  0  0  0  0  0  0  0  0
   -1.7334    3.0622   -1.4953 H   0  0  0  0  0  0  0  0  0  0  0  0
    0.0317    2.8706   -5.2844 N   0  0  0  0  0  0  0  0  0  0  0  0
    0.8708    3.2290   -6.4216 C   0  0  0  0  0  0  0  0  0  0  0  0
   -0.9782    2.8837   -5.3930 H   0  0  0  0  0  0  0  0  0  0  0  0
    1.5263    4.0679   -6.1648 H   0  0  0  0  0  0  0  0  0  0  0  0
    1.4901    2.3781   -6.7245 H   0  0  0  0  0  0  0  0  0  0  0  0
    0.2496    3.5247   -7.2726 H   0  0  0  0  0  0  0  0  0  0  0  0
  1  2  2  0  0  0  0
  1  3  1  0  0  0  0
  1  7  1  0  0  0  0
  3  4  1  0  0  0  0
  3  5  1  0  0  0  0
  3  6  1  0  0  0  0
  7  8  1  0  0  0  0
  7 12  1  0  0  0  0
  8  9  1  0  0  0  0
  8 11  1  0  0  0  0
  8 13  1  0  0  0  0
  9 10  2  0  0  0  0
  9 17  1  0  0  0  0
 11 14  1  0  0  0  0
 11 15  1  0  0  0  0
 11 16  1  0  0  0  0
 17 18  1  0  0  0  0
 17 25  1  0  0  0  0
 18 19  1  0  0  0  0
 18 21  1  0  0  0  0
 18 26  1  0  0  0  0
 19 20  2  0  0  0  0
 19 36  1  0  0  0  0
 21 22  1  0  0  0  0
 21 23  1  0  0  0  0
 21 27  1  0  0  0  0
 22 24  1  0  0  0  0
 22 28  1  0  0  0  0
 22 29  1  0  0  0  0
 23 30  1  0  0  0  0
 23 31  1  0  0  0  0
 23 32  1  0  0  0  0
 24 33  1  0  0  0  0
 24 34  1  0  0  0  0
 24 35  1  0  0  0  0
 36 37  1  0  0  0  0
 36 41  1  0  0  0  0
 37 38  1  0  0  0  0
 37 40  1  0  0  0  0
 37 42  1  0  0  0  0
 38 39  2  0  0  0  0
 38 46  1  0  0  0  0
 40 43  1  0  0  0  0
 40 44  1  0  0  0  0
 40 45  1  0  0  0  0
 46 47  1  0  0  0  0
 46 48  1  0  0  0  0
 47 49  1  0  0  0  0
 47 50  1  0  0  0  0
 47 51  1  0  0  0  0
M  END
$$$$

  -OEChem-05262216503D

 51 50  0     1  0  0  0  0  0999 V2000
   -0.9813   -3.9348    1.9399 C   0  0  0  0  0  0  0  0  0  0  0  0
   -1.5233   -3.1980    1.1338 O   0  0  0  0  0  0  0  0  0  0  0  0
   -1.6312   -4.1847    3.2879 C   0  0  0  0  0  0  0  0  0  0  0  0
   -0.9411   -3.9204    4.0927 H   0  0  0  0  0  0  0  0  0  0  0  0
   -2.5353   -3.5774    3.3882 H   0  0  0  0  0  0  0  0  0  0  0  0
   -1.9040   -5.2386    3.3812 H   0  0  0  0  0  0  0  0  0  0  0  0
    0.2369   -4.5195    1.6495 N   0  0  0  0  0  0  0  0  0  0  0  0
    0.9844   -4.4236    0.3775 C   0  0  2  0  0  0  0  0  0  0  0  0
    1.5596   -3.0239    0.0592 C   0  0  0  0  0  0  0  0  0  0  0  0
    2.7108   -2.9588   -0.3482 O   0  0  0  0  0  0  0  0  0  0  0  0
    0.1545   -4.9535   -0.8006 C   0  0  0  0  0  0  0  0  0  0  0  0
    0.6348   -5.1000    2.3824 H   0  0  0  0  0  0  0  0  0  0  0  0
    1.8513   -5.0858    0.4733 H   0  0  0  0  0  0  0  0  0  0  0  0
   -0.6771   -4.2829   -1.0367 H   0  0  0  0  0  0  0  0  0  0  0  0
    0.7845   -5.0381   -1.6917 H   0  0  0  0  0  0  0  0  0  0  0  0
   -0.2502   -5.9429   -0.5679 H   0  0  0  0  0  0  0  0  0  0  0  0
    0.7502   -1.9024    0.0322 N   0  0  0  0  0  0  0  0  0  0  0  0
    1.0751   -0.4731    0.2634 C   0  0  2  0  0  0  0  0  0  0  0  0
    0.0946    0.3505   -0.6025 C   0  0  0  0  0  0  0  0  0  0  0  0
   -1.0708    0.4729   -0.2460 O   0  0  0  0  0  0  0  0  0  0  0  0
    2.5629    0.0160    0.3371 C   0  0  2  0  0  0  0  0  0  0  0  0
    3.3212   -0.6190    1.5425 C   0  0  0  0  0  0  0  0  0  0  0  0
    2.6402    1.5544    0.4931 C   0  0  0  0  0  0  0  0  0  0  0  0
    4.8365   -0.3891    1.5036 C   0  0  0  0  0  0  0  0  0  0  0  0
   -0.2284   -2.1383    0.2351 H   0  0  0  0  0  0  0  0  0  0  0  0
    0.7184   -0.2846    1.2811 H   0  0  0  0  0  0  0  0  0  0  0  0
    3.0639   -0.2724   -0.5935 H   0  0  0  0  0  0  0  0  0  0  0  0
    3.1518   -1.6895    1.6174 H   0  0  0  0  0  0  0  0  0  0  0  0
    2.9293   -0.1905    2.4704 H   0  0  0  0  0  0  0  0  0  0  0  0
    2.0950    1.8748    1.3865 H   0  0  0  0  0  0  0  0  0  0  0  0
    3.6747    1.8922    0.5801 H   0  0  0  0  0  0  0  0  0  0  0  0
    2.2232    2.0755   -0.3695 H   0  0  0  0  0  0  0  0  0  0  0  0
    5.2446   -0.7097    0.5400 H   0  0  0  0  0  0  0  0  0  0  0  0
    5.3184   -0.9742    2.2926 H   0  0  0  0  0  0  0  0  0  0  0  0
    5.0907    0.6615    1.6641 H   0  0  0  0  0  0  0  0  0  0  0  0
    0.4953    0.9650   -1.7742 N   0  0  0  0  0  0  0  0  0  0  0  0
   -0.3973    1.6782   -2.6956 C   0  0  2  0  0  0  0  0  0  0  0  0
    0.1537    1.6749   -4.1365 C   0  0  0  0  0  0  0  0  0  0  0  0
    1.3243    1.3798   -4.3504 O   0  0  0  0  0  0  0  0  0  0  0  0
   -0.5696    3.1173   -2.1980 C   0  0  0  0  0  0  0  0  0  0  0  0
    1.4262    0.7323   -2.1217 H   0  0  0  0  0  0  0  0  0  0  0  0
   -1.3730    1.1810   -2.7148 H   0  0  0  0  0  0  0  0  0  0  0  0
    0.3978    3.6287   -2.1658 H   0  0  0  0  0  0  0  0  0  0  0  0
   -1.2375    3.6756   -2.8606 H   0  0  0  0  0  0  0  0  0  0  0  0
   -1.0008    3.1230   -1.1921 H   0  0  0  0  0  0  0  0  0  0  0  0
   -0.6663    2.0049   -5.2000 N   0  0  0  0  0  0  0  0  0  0  0  0
   -0.2173    2.0013   -6.5871 C   0  0  0  0  0  0  0  0  0  0  0  0
   -1.6397    2.2127   -4.9973 H   0  0  0  0  0  0  0  0  0  0  0  0
    0.6413    2.6693   -6.7155 H   0  0  0  0  0  0  0  0  0  0  0  0
    0.0745    0.9907   -6.8916 H   0  0  0  0  0  0  0  0  0  0  0  0
   -1.0208    2.3442   -7.2461 H   0  0  0  0  0  0  0  0  0  0  0  0
  1  2  2  0  0  0  0
  1  3  1  0  0  0  0
  1  7  1  0  0  0  0
  3  4  1  0  0  0  0
  3  5  1  0  0  0  0
  3  6  1  0  0  0  0
  7  8  1  0  0  0  0
  7 12  1  0  0  0  0
  8  9  1  0  0  0  0
  8 11  1  0  0  0  0
  8 13  1  0  0  0  0
  9 10  2  0  0  0  0
  9 17  1  0  0  0  0
 11 14  1  0  0  0  0
 11 15  1  0  0  0  0
 11 16  1  0  0  0  0
 17 18  1  0  0  0  0
 17 25  1  0  0  0  0
 18 19  1  0  0  0  0
 18 21  1  0  0  0  0
 18 26  1  0  0  0  0
 19 20  2  0  0  0  0
 19 36  1  0  0  0  0
 21 22  1  0  0  0  0
 21 23  1  0  0  0  0
 21 27  1  0  0  0  0
 22 24  1  0  0  0  0
 22 28  1  0  0  0  0
 22 29  1  0  0  0  0
 23 30  1  0  0  0  0
 23 31  1  0  0  0  0
 23 32  1  0  0  0  0
 24 33  1  0  0  0  0
 24 34  1  0  0  0  0
 24 35  1  0  0  0  0
 36 37  1  0  0  0  0
 36 41  1  0  0  0  0
 37 38  1  0  0  0  0
 37 40  1  0  0  0  0
 37 42  1  0  0  0  0
 38 39  2  0  0  0  0
 38 46  1  0  0  0  0
 40 43  1  0  0  0  0
 40 44  1  0  0  0  0
 40 45  1  0  0  0  0
 46 47  1  0  0  0  0
 46 48  1  0  0  0  0
 47 49  1  0  0  0  0
 47 50  1  0  0  0  0
 47 51  1  0  0  0  0
M  END
$$$$

  -OEChem-05262216503D

 51 50  0     1  0  0  0  0  0999 V2000
   -0.9992   -3.9967    1.8029 C   0  0  0  0  0  0  0  0  0  0  0  0
   -1.4921   -3.3150    0.9200 O   0  0  0  0  0  0  0  0  0  0  0  0
   -1.7687   -4.2336    3.0885 C   0  0  0  0  0  0  0  0  0  0  0  0
   -1.1980   -3.8585    3.9417 H   0  0  0  0  0  0  0  0  0  0  0  0
   -2.7302   -3.7129    3.0536 H   0  0  0  0  0  0  0  0  0  0  0  0
   -1.9529   -5.3024    3.2223 H   0  0  0  0  0  0  0  0  0  0  0  0
    0.2710   -4.5228    1.6601 N   0  0  0  0  0  0  0  0  0  0  0  0
    1.1380   -4.4378    0.4649 C   0  0  2  0  0  0  0  0  0  0  0  0
    1.6761   -3.0247    0.1402 C   0  0  0  0  0  0  0  0  0  0  0  0
    2.8364   -2.9252   -0.2317 O   0  0  0  0  0  0  0  0  0  0  0  0
    0.4564   -5.0563   -0.7641 C   0  0  0  0  0  0  0  0  0  0  0  0
    0.6155   -5.0638    2.4484 H   0  0  0  0  0  0  0  0  0  0  0  0
    2.0217   -5.0492    0.6757 H   0  0  0  0  0  0  0  0  0  0  0  0
   -0.3766   -4.4379   -1.1109 H   0  0  0  0  0  0  0  0  0  0  0  0
    1.1757   -5.1456   -1.5843 H   0  0  0  0  0  0  0  0  0  0  0  0
    0.0758   -6.0542   -0.5277 H   0  0  0  0  0  0  0  0  0  0  0  0
    0.8277   -1.9347    0.0700 N   0  0  0  0  0  0  0  0  0  0  0  0
    1.0880   -0.4901    0.2829 C   0  0  2  0  0  0  0  0  0  0  0  0
    0.1141    0.3007   -0.6140 C   0  0  0  0  0  0  0  0  0  0  0  0
   -0.9777    0.6466   -0.1793 O   0  0  0  0  0  0  0  0  0  0  0  0
    2.5484    0.0648    0.3735 C   0  0  2  0  0  0  0  0  0  0  0  0
    3.3191   -0.5087    1.5995 C   0  0  0  0  0  0  0  0  0  0  0  0
    2.5494    1.6085    0.4621 C   0  0  0  0  0  0  0  0  0  0  0  0
    4.8208   -0.2048    1.5713 C   0  0  0  0  0  0  0  0  0  0  0  0
   -0.1488   -2.2075    0.2270 H   0  0  0  0  0  0  0  0  0  0  0  0
    0.7040   -0.3036    1.2911 H   0  0  0  0  0  0  0  0  0  0  0  0
    3.0757   -0.2301   -0.5399 H   0  0  0  0  0  0  0  0  0  0  0  0
    3.1989   -1.5843    1.6960 H   0  0  0  0  0  0  0  0  0  0  0  0
    2.8954   -0.0784    2.5125 H   0  0  0  0  0  0  0  0  0  0  0  0
    1.9883    1.9418    1.3410 H   0  0  0  0  0  0  0  0  0  0  0  0
    3.5666    1.9999    0.5312 H   0  0  0  0  0  0  0  0  0  0  0  0
    2.1027    2.0619   -0.4259 H   0  0  0  0  0  0  0  0  0  0  0  0
    5.2581   -0.5419    0.6263 H   0  0  0  0  0  0  0  0  0  0  0  0
    5.3194   -0.7336    2.3891 H   0  0  0  0  0  0  0  0  0  0  0  0
    5.0189    0.8630    1.6926 H   0  0  0  0  0  0  0  0  0  0  0  0
    0.4650    0.6464   -1.9050 N   0  0  0  0  0  0  0  0  0  0  0  0
   -0.4326    1.3033   -2.8622 C   0  0  2  0  0  0  0  0  0  0  0  0
   -0.0769    0.9444   -4.3197 C   0  0  0  0  0  0  0  0  0  0  0  0
    0.9944    0.4099   -4.5828 O   0  0  0  0  0  0  0  0  0  0  0  0
   -0.3465    2.8174   -2.6461 C   0  0  0  0  0  0  0  0  0  0  0  0
    1.3129    0.2204   -2.2816 H   0  0  0  0  0  0  0  0  0  0  0  0
   -1.4607    0.9696   -2.6862 H   0  0  0  0  0  0  0  0  0  0  0  0
    0.6737    3.1711   -2.8266 H   0  0  0  0  0  0  0  0  0  0  0  0
   -1.0242    3.3427   -3.3255 H   0  0  0  0  0  0  0  0  0  0  0  0
   -0.6264    3.0704   -1.6186 H   0  0  0  0  0  0  0  0  0  0  0  0
   -0.9660    1.2152   -5.3436 N   0  0  0  0  0  0  0  0  0  0  0  0
   -0.7113    0.8682   -6.7365 C   0  0  0  0  0  0  0  0  0  0  0  0
   -1.8591    1.6293   -5.0935 H   0  0  0  0  0  0  0  0  0  0  0  0
    0.2293    1.3133   -7.0779 H   0  0  0  0  0  0  0  0  0  0  0  0
   -0.6494   -0.2186   -6.8551 H   0  0  0  0  0  0  0  0  0  0  0  0
   -1.5192    1.2416   -7.3729 H   0  0  0  0  0  0  0  0  0  0  0  0
  1  2  2  0  0  0  0
  1  3  1  0  0  0  0
  1  7  1  0  0  0  0
  3  4  1  0  0  0  0
  3  5  1  0  0  0  0
  3  6  1  0  0  0  0
  7  8  1  0  0  0  0
  7 12  1  0  0  0  0
  8  9  1  0  0  0  0
  8 11  1  0  0  0  0
  8 13  1  0  0  0  0
  9 10  2  0  0  0  0
  9 17  1  0  0  0  0
 11 14  1  0  0  0  0
 11 15  1  0  0  0  0
 11 16  1  0  0  0  0
 17 18  1  0  0  0  0
 17 25  1  0  0  0  0
 18 19  1  0  0  0  0
 18 21  1  0  0  0  0
 18 26  1  0  0  0  0
 19 20  2  0  0  0  0
 19 36  1  0  0  0  0
 21 22  1  0  0  0  0
 21 23  1  0  0  0  0
 21 27  1  0  0  0  0
 22 24  1  0  0  0  0
 22 28  1  0  0  0  0
 22 29  1  0  0  0  0
 23 30  1  0  0  0  0
 23 31  1  0  0  0  0
 23 32  1  0  0  0  0
 24 33  1  0  0  0  0
 24 34  1  0  0  0  0
 24 35  1  0  0  0  0
 36 37  1  0  0  0  0
 36 41  1  0  0  0  0
 37 38  1  0  0  0  0
 37 40  1  0  0  0  0
 37 42  1  0  0  0  0
 38 39  2  0  0  0  0
 38 46  1  0  0  0  0
 40 43  1  0  0  0  0
 40 44  1  0  0  0  0
 40 45  1  0  0  0  0
 46 47  1  0  0  0  0
 46 48  1  0  0  0  0
 47 49  1  0  0  0  0
 47 50  1  0  0  0  0
 47 51  1  0  0  0  0
M  END
$$$$

  -OEChem-05262216503D

 51 50  0     1  0  0  0  0  0999 V2000
   -0.9146   -4.0881    1.8283 C   0  0  0  0  0  0  0  0  0  0  0  0
   -1.4250   -3.4022    0.9580 O   0  0  0  0  0  0  0  0  0  0  0  0
   -1.6807   -4.3795    3.1052 C   0  0  0  0  0  0  0  0  0  0  0  0
   -1.1275   -4.0026    3.9690 H   0  0  0  0  0  0  0  0  0  0  0  0
   -2.6603   -3.8936    3.0766 H   0  0  0  0  0  0  0  0  0  0  0  0
   -1.8272   -5.4567    3.2163 H   0  0  0  0  0  0  0  0  0  0  0  0
    0.3709   -4.5741    1.6791 N   0  0  0  0  0  0  0  0  0  0  0  0
    1.2350   -4.4520    0.4852 C   0  0  2  0  0  0  0  0  0  0  0  0
    1.7292   -3.0201    0.1727 C   0  0  0  0  0  0  0  0  0  0  0  0
    2.8921   -2.8781   -0.1761 O   0  0  0  0  0  0  0  0  0  0  0  0
    0.5713   -5.0810   -0.7488 C   0  0  0  0  0  0  0  0  0  0  0  0
    0.7296   -5.1181    2.4590 H   0  0  0  0  0  0  0  0  0  0  0  0
    2.1375   -5.0375    0.6902 H   0  0  0  0  0  0  0  0  0  0  0  0
   -0.2888   -4.4932   -1.0825 H   0  0  0  0  0  0  0  0  0  0  0  0
    1.2886   -5.1300   -1.5744 H   0  0  0  0  0  0  0  0  0  0  0  0
    0.2336   -6.0968   -0.5238 H   0  0  0  0  0  0  0  0  0  0  0  0
    0.8390   -1.9676    0.0621 N   0  0  0  0  0  0  0  0  0  0  0  0
    1.0312   -0.5100    0.2633 C   0  0  2  0  0  0  0  0  0  0  0  0
    0.0593    0.2382   -0.6681 C   0  0  0  0  0  0  0  0  0  0  0  0
   -0.9310    0.7998   -0.2161 O   0  0  0  0  0  0  0  0  0  0  0  0
    2.4627    0.1110    0.3679 C   0  0  2  0  0  0  0  0  0  0  0  0
    3.2486   -0.4068    1.6079 C   0  0  0  0  0  0  0  0  0  0  0  0
    2.3941    1.6543    0.4096 C   0  0  0  0  0  0  0  0  0  0  0  0
    4.7335   -0.0287    1.5863 C   0  0  0  0  0  0  0  0  0  0  0  0
   -0.1255   -2.2821    0.2144 H   0  0  0  0  0  0  0  0  0  0  0  0
    0.6187   -0.3289    1.2613 H   0  0  0  0  0  0  0  0  0  0  0  0
    3.0126   -0.1798   -0.5336 H   0  0  0  0  0  0  0  0  0  0  0  0
    3.1789   -1.4851    1.7227 H   0  0  0  0  0  0  0  0  0  0  0  0
    2.7969    0.0192    2.5093 H   0  0  0  0  0  0  0  0  0  0  0  0
    1.8181    1.9894    1.2781 H   0  0  0  0  0  0  0  0  0  0  0  0
    3.3926    2.0936    0.4644 H   0  0  0  0  0  0  0  0  0  0  0  0
    1.9260    2.0550   -0.4938 H   0  0  0  0  0  0  0  0  0  0  0  0
    5.1964   -0.3630    0.6525 H   0  0  0  0  0  0  0  0  0  0  0  0
    5.2508   -0.5132    2.4200 H   0  0  0  0  0  0  0  0  0  0  0  0
    4.8748    1.0505    1.6857 H   0  0  0  0  0  0  0  0  0  0  0  0
    0.3231    0.3078   -2.0216 N   0  0  0  0  0  0  0  0  0  0  0  0
   -0.5699    0.9148   -3.0151 C   0  0  2  0  0  0  0  0  0  0  0  0
   -0.4102    0.2636   -4.4052 C   0  0  0  0  0  0  0  0  0  0  0  0
    0.5323   -0.4859   -4.6350 O   0  0  0  0  0  0  0  0  0  0  0  0
   -0.2641    2.4147   -3.0864 C   0  0  0  0  0  0  0  0  0  0  0  0
    1.0756   -0.2866   -2.3726 H   0  0  0  0  0  0  0  0  0  0  0  0
   -1.6106    0.7712   -2.7057 H   0  0  0  0  0  0  0  0  0  0  0  0
    0.7731    2.5782   -3.3962 H   0  0  0  0  0  0  0  0  0  0  0  0
   -0.9254    2.9091   -3.8040 H   0  0  0  0  0  0  0  0  0  0  0  0
   -0.4121    2.8796   -2.1065 H   0  0  0  0  0  0  0  0  0  0  0  0
   -1.3307    0.5147   -5.4066 N   0  0  0  0  0  0  0  0  0  0  0  0
   -1.2436   -0.0736   -6.7376 C   0  0  0  0  0  0  0  0  0  0  0  0
   -2.1129    1.1240   -5.1863 H   0  0  0  0  0  0  0  0  0  0  0  0
   -0.2990    0.2035   -7.2178 H   0  0  0  0  0  0  0  0  0  0  0  0
   -1.3015   -1.1655   -6.6776 H   0  0  0  0  0  0  0  0  0  0  0  0
   -2.0665    0.2827   -7.3646 H   0  0  0  0  0  0  0  0  0  0  0  0
  1  2  2  0  0  0  0
  1  3  1  0  0  0  0
  1  7  1  0  0  0  0
  3  4  1  0  0  0  0
  3  5  1  0  0  0  0
  3  6  1  0  0  0  0
  7  8  1  0  0  0  0
  7 12  1  0  0  0  0
  8  9  1  0  0  0  0
  8 11  1  0  0  0  0
  8 13  1  0  0  0  0
  9 10  2  0  0  0  0
  9 17  1  0  0  0  0
 11 14  1  0  0  0  0
 11 15  1  0  0  0  0
 11 16  1  0  0  0  0
 17 18  1  0  0  0  0
 17 25  1  0  0  0  0
 18 19  1  0  0  0  0
 18 21  1  0  0  0  0
 18 26  1  0  0  0  0
 19 20  2  0  0  0  0
 19 36  1  0  0  0  0
 21 22  1  0  0  0  0
 21 23  1  0  0  0  0
 21 27  1  0  0  0  0
 22 24  1  0  0  0  0
 22 28  1  0  0  0  0
 22 29  1  0  0  0  0
 23 30  1  0  0  0  0
 23 31  1  0  0  0  0
 23 32  1  0  0  0  0
 24 33  1  0  0  0  0
 24 34  1  0  0  0  0
 24 35  1  0  0  0  0
 36 37  1  0  0  0  0
 36 41  1  0  0  0  0
 37 38  1  0  0  0  0
 37 40  1  0  0  0  0
 37 42  1  0  0  0  0
 38 39  2  0  0  0  0
 38 46  1  0  0  0  0
 40 43  1  0  0  0  0
 40 44  1  0  0  0  0
 40 45  1  0  0  0  0
 46 47  1  0  0  0  0
 46 48  1  0  0  0  0
 47 49  1  0  0  0  0
 47 50  1  0  0  0  0
 47 51  1  0  0  0  0
M  END
$$$$

  -OEChem-05262216503D

 51 50  0     1  0  0  0  0  0999 V2000
   -0.9903   -4.0886    0.5315 C   0  0  0  0  0  0  0  0  0  0  0  0
   -1.3162   -3.2730   -0.3163 O   0  0  0  0  0  0  0  0  0  0  0  0
   -2.0306   -4.6258    1.4958 C   0  0  0  0  0  0  0  0  0  0  0  0
   -1.7227   -4.4329    2.5265 H   0  0  0  0  0  0  0  0  0  0  0  0
   -2.9944   -4.1390    1.3211 H   0  0  0  0  0  0  0  0  0  0  0  0
   -2.1500   -5.7026    1.3534 H   0  0  0  0  0  0  0  0  0  0  0  0
    0.3241   -4.5021    0.6498 N   0  0  0  0  0  0  0  0  0  0  0  0
    1.4543   -4.1500   -0.2369 C   0  0  2  0  0  0  0  0  0  0  0  0
    1.8947   -2.6691   -0.1834 C   0  0  0  0  0  0  0  0  0  0  0  0
    3.0900   -2.4147   -0.1782 O   0  0  0  0  0  0  0  0  0  0  0  0
    1.1751   -4.5816   -1.6845 C   0  0  0  0  0  0  0  0  0  0  0  0
    0.5080   -5.1734    1.3906 H   0  0  0  0  0  0  0  0  0  0  0  0
    2.3182   -4.7288    0.1061 H   0  0  0  0  0  0  0  0  0  0  0  0
    0.3835   -3.9763   -2.1365 H   0  0  0  0  0  0  0  0  0  0  0  0
    2.0790   -4.4640   -2.2907 H   0  0  0  0  0  0  0  0  0  0  0  0
    0.8716   -5.6321   -1.7178 H   0  0  0  0  0  0  0  0  0  0  0  0
    0.9830   -1.6597   -0.4207 N   0  0  0  0  0  0  0  0  0  0  0  0
    0.9581   -0.2425    0.0154 C   0  0  2  0  0  0  0  0  0  0  0  0
    0.2319    0.5471   -1.0864 C   0  0  0  0  0  0  0  0  0  0  0  0
   -0.8934    0.9939   -0.8974 O   0  0  0  0  0  0  0  0  0  0  0  0
    2.2296    0.4427    0.6071 C   0  0  2  0  0  0  0  0  0  0  0  0
    2.6910   -0.2113    1.9416 C   0  0  0  0  0  0  0  0  0  0  0  0
    1.9847    1.9515    0.8239 C   0  0  0  0  0  0  0  0  0  0  0  0
    4.0756    0.2585    2.3987 C   0  0  0  0  0  0  0  0  0  0  0  0
    0.0487   -2.0502   -0.5860 H   0  0  0  0  0  0  0  0  0  0  0  0
    0.2577   -0.2304    0.8573 H   0  0  0  0  0  0  0  0  0  0  0  0
    3.0353    0.3308   -0.1265 H   0  0  0  0  0  0  0  0  0  0  0  0
    2.7083   -1.2963    1.8863 H   0  0  0  0  0  0  0  0  0  0  0  0
    1.9648    0.0373    2.7223 H   0  0  0  0  0  0  0  0  0  0  0  0
    1.1600    2.1090    1.5265 H   0  0  0  0  0  0  0  0  0  0  0  0
    2.8763    2.4438    1.2192 H   0  0  0  0  0  0  0  0  0  0  0  0
    1.7397    2.4511   -0.1181 H   0  0  0  0  0  0  0  0  0  0  0  0
    4.8104    0.1079    1.6018 H   0  0  0  0  0  0  0  0  0  0  0  0
    4.3918   -0.3195    3.2724 H   0  0  0  0  0  0  0  0  0  0  0  0
    4.0679    1.3147    2.6792 H   0  0  0  0  0  0  0  0  0  0  0  0
    0.7580    0.5422   -2.3642 N   0  0  0  0  0  0  0  0  0  0  0  0
   -0.0407    0.8390   -3.5626 C   0  0  2  0  0  0  0  0  0  0  0  0
   -0.9653   -0.3473   -3.9313 C   0  0  0  0  0  0  0  0  0  0  0  0
   -0.8122   -0.9881   -4.9645 O   0  0  0  0  0  0  0  0  0  0  0  0
    0.9336    1.2086   -4.6877 C   0  0  0  0  0  0  0  0  0  0  0  0
    1.5840   -0.0416   -2.4807 H   0  0  0  0  0  0  0  0  0  0  0  0
   -0.6813    1.7074   -3.3756 H   0  0  0  0  0  0  0  0  0  0  0  0
    1.6023    0.3705   -4.9097 H   0  0  0  0  0  0  0  0  0  0  0  0
    0.3824    1.4616   -5.5990 H   0  0  0  0  0  0  0  0  0  0  0  0
    1.5392    2.0729   -4.3987 H   0  0  0  0  0  0  0  0  0  0  0  0
   -1.9387   -0.7406   -3.0342 N   0  0  0  0  0  0  0  0  0  0  0  0
   -2.7139   -1.9661   -3.1679 C   0  0  0  0  0  0  0  0  0  0  0  0
   -1.9585   -0.2361   -2.1447 H   0  0  0  0  0  0  0  0  0  0  0  0
   -3.3082   -1.9459   -4.0874 H   0  0  0  0  0  0  0  0  0  0  0  0
   -2.0512   -2.8373   -3.1939 H   0  0  0  0  0  0  0  0  0  0  0  0
   -3.3941   -2.0754   -2.3177 H   0  0  0  0  0  0  0  0  0  0  0  0
  1  2  2  0  0  0  0
  1  3  1  0  0  0  0
  1  7  1  0  0  0  0
  3  4  1  0  0  0  0
  3  5  1  0  0  0  0
  3  6  1  0  0  0  0
  7  8  1  0  0  0  0
  7 12  1  0  0  0  0
  8  9  1  0  0  0  0
  8 11  1  0  0  0  0
  8 13  1  0  0  0  0
  9 10  2  0  0  0  0
  9 17  1  0  0  0  0
 11 14  1  0  0  0  0
 11 15  1  0  0  0  0
 11 16  1  0  0  0  0
 17 18  1  0  0  0  0
 17 25  1  0  0  0  0
 18 19  1  0  0  0  0
 18 21  1  0  0  0  0
 18 26  1  0  0  0  0
 19 20  2  0  0  0  0
 19 36  1  0  0  0  0
 21 22  1  0  0  0  0
 21 23  1  0  0  0  0
 21 27  1  0  0  0  0
 22 24  1  0  0  0  0
 22 28  1  0  0  0  0
 22 29  1  0  0  0  0
 23 30  1  0  0  0  0
 23 31  1  0  0  0  0
 23 32  1  0  0  0  0
 24 33  1  0  0  0  0
 24 34  1  0  0  0  0
 24 35  1  0  0  0  0
 36 37  1  0  0  0  0
 36 41  1  0  0  0  0
 37 38  1  0  0  0  0
 37 40  1  0  0  0  0
 37 42  1  0  0  0  0
 38 39  2  0  0  0  0
 38 46  1  0  0  0  0
 40 43  1  0  0  0  0
 40 44  1  0  0  0  0
 40 45  1  0  0  0  0
 46 47  1  0  0  0  0
 46 48  1  0  0  0  0
 47 49  1  0  0  0  0
 47 50  1  0  0  0  0
 47 51  1  0  0  0  0
M  END
$$$$

  -OEChem-05262216503D

 51 50  0     1  0  0  0  0  0999 V2000
   -0.8034   -4.2986    0.5689 C   0  0  0  0  0  0  0  0  0  0  0  0
   -1.1501   -3.5678   -0.3452 O   0  0  0  0  0  0  0  0  0  0  0  0
   -1.8485   -4.8713    1.5073 C   0  0  0  0  0  0  0  0  0  0  0  0
   -1.6675   -4.5228    2.5272 H   0  0  0  0  0  0  0  0  0  0  0  0
   -2.8480   -4.5511    1.1990 H   0  0  0  0  0  0  0  0  0  0  0  0
   -1.8095   -5.9633    1.4894 H   0  0  0  0  0  0  0  0  0  0  0  0
    0.5340   -4.5763    0.7872 N   0  0  0  0  0  0  0  0  0  0  0  0
    1.6781   -4.1877   -0.0666 C   0  0  2  0  0  0  0  0  0  0  0  0
    1.9835   -2.6723   -0.1157 C   0  0  0  0  0  0  0  0  0  0  0  0
    3.1501   -2.3097   -0.0934 O   0  0  0  0  0  0  0  0  0  0  0  0
    1.5213   -4.7559   -1.4846 C   0  0  0  0  0  0  0  0  0  0  0  0
    0.7310   -5.1876    1.5752 H   0  0  0  0  0  0  0  0  0  0  0  0
    2.5687   -4.6553    0.3665 H   0  0  0  0  0  0  0  0  0  0  0  0
    0.7034   -4.2666   -2.0222 H   0  0  0  0  0  0  0  0  0  0  0  0
    2.4433   -4.6004   -2.0540 H   0  0  0  0  0  0  0  0  0  0  0  0
    1.3178   -5.8302   -1.4446 H   0  0  0  0  0  0  0  0  0  0  0  0
    0.9944   -1.7679   -0.4492 N   0  0  0  0  0  0  0  0  0  0  0  0
    0.8125   -0.3396   -0.0856 C   0  0  2  0  0  0  0  0  0  0  0  0
    0.0749    0.3455   -1.2518 C   0  0  0  0  0  0  0  0  0  0  0  0
   -0.9776    0.9441   -1.0598 O   0  0  0  0  0  0  0  0  0  0  0  0
    1.9936    0.4829    0.5237 C   0  0  2  0  0  0  0  0  0  0  0  0
    2.4548   -0.0660    1.9055 C   0  0  0  0  0  0  0  0  0  0  0  0
    1.6156    1.9745    0.6568 C   0  0  0  0  0  0  0  0  0  0  0  0
    3.7720    0.5470    2.3924 C   0  0  0  0  0  0  0  0  0  0  0  0
    0.1089   -2.2560   -0.6232 H   0  0  0  0  0  0  0  0  0  0  0  0
    0.0749   -0.3566    0.7234 H   0  0  0  0  0  0  0  0  0  0  0  0
    2.8361    0.4093   -0.1727 H   0  0  0  0  0  0  0  0  0  0  0  0
    2.5710   -1.1463    1.9045 H   0  0  0  0  0  0  0  0  0  0  0  0
    1.6771    0.1515    2.6445 H   0  0  0  0  0  0  0  0  0  0  0  0
    0.7503    2.0944    1.3163 H   0  0  0  0  0  0  0  0  0  0  0  0
    2.4446    2.5588    1.0620 H   0  0  0  0  0  0  0  0  0  0  0  0
    1.3730    2.4079   -0.3178 H   0  0  0  0  0  0  0  0  0  0  0  0
    4.5530    0.4205    1.6360 H   0  0  0  0  0  0  0  0  0  0  0  0
    4.0960    0.0454    3.3093 H   0  0  0  0  0  0  0  0  0  0  0  0
    3.6618    1.6115    2.6134 H   0  0  0  0  0  0  0  0  0  0  0  0
    0.4811    0.0943   -2.5488 N   0  0  0  0  0  0  0  0  0  0  0  0
   -0.3479    0.3644   -3.7323 C   0  0  2  0  0  0  0  0  0  0  0  0
   -1.4526   -0.7062   -3.9020 C   0  0  0  0  0  0  0  0  0  0  0  0
   -1.4572   -1.4849   -4.8482 O   0  0  0  0  0  0  0  0  0  0  0  0
    0.5889    0.4576   -4.9428 C   0  0  0  0  0  0  0  0  0  0  0  0
    1.2466   -0.5708   -2.6404 H   0  0  0  0  0  0  0  0  0  0  0  0
   -0.8462    1.3333   -3.6209 H   0  0  0  0  0  0  0  0  0  0  0  0
    1.1102   -0.4919   -5.1014 H   0  0  0  0  0  0  0  0  0  0  0  0
    0.0179    0.6937   -5.8464 H   0  0  0  0  0  0  0  0  0  0  0  0
    1.3338    1.2444   -4.7890 H   0  0  0  0  0  0  0  0  0  0  0  0
   -2.4127   -0.8320   -2.9175 N   0  0  0  0  0  0  0  0  0  0  0  0
   -3.3364   -1.9545   -2.8334 C   0  0  0  0  0  0  0  0  0  0  0  0
   -2.2903   -0.2295   -2.1001 H   0  0  0  0  0  0  0  0  0  0  0  0
   -3.9294   -2.0356   -3.7504 H   0  0  0  0  0  0  0  0  0  0  0  0
   -2.7863   -2.8895   -2.6841 H   0  0  0  0  0  0  0  0  0  0  0  0
   -4.0213   -1.8159   -1.9913 H   0  0  0  0  0  0  0  0  0  0  0  0
  1  2  2  0  0  0  0
  1  3  1  0  0  0  0
  1  7  1  0  0  0  0
  3  4  1  0  0  0  0
  3  5  1  0  0  0  0
  3  6  1  0  0  0  0
  7  8  1  0  0  0  0
  7 12  1  0  0  0  0
  8  9  1  0  0  0  0
  8 11  1  0  0  0  0
  8 13  1  0  0  0  0
  9 10  2  0  0  0  0
  9 17  1  0  0  0  0
 11 14  1  0  0  0  0
 11 15  1  0  0  0  0
 11 16  1  0  0  0  0
 17 18  1  0  0  0  0
 17 25  1  0  0  0  0
 18 19  1  0  0  0  0
 18 21  1  0  0  0  0
 18 26  1  0  0  0  0
 19 20  2  0  0  0  0
 19 36  1  0  0  0  0
 21 22  1  0  0  0  0
 21 23  1  0  0  0  0
 21 27  1  0  0  0  0
 22 24  1  0  0  0  0
 22 28  1  0  0  0  0
 22 29  1  0  0  0  0
 23 30  1  0  0  0  0
 23 31  1  0  0  0  0
 23 32  1  0  0  0  0
 24 33  1  0  0  0  0
 24 34  1  0  0  0  0
 24 35  1  0  0  0  0
 36 37  1  0  0  0  0
 36 41  1  0  0  0  0
 37 38  1  0  0  0  0
 37 40  1  0  0  0  0
 37 42  1  0  0  0  0
 38 39  2  0  0  0  0
 38 46  1  0  0  0  0
 40 43  1  0  0  0  0
 40 44  1  0  0  0  0
 40 45  1  0  0  0  0
 46 47  1  0  0  0  0
 46 48  1  0  0  0  0
 47 49  1  0  0  0  0
 47 50  1  0  0  0  0
 47 51  1  0  0  0  0
M  END
$$$$

  -OEChem-05262216503D

 51 50  0     1  0  0  0  0  0999 V2000
    0.0126   -4.1353    1.7646 C   0  0  0  0  0  0  0  0  0  0  0  0
   -0.7493   -3.2773    1.3488 O   0  0  0  0  0  0  0  0  0  0  0  0
   -0.0828   -4.5866    3.2098 C   0  0  0  0  0  0  0  0  0  0  0  0
    0.8511   -4.3646    3.7321 H   0  0  0  0  0  0  0  0  0  0  0  0
   -0.9004   -4.0642    3.7145 H   0  0  0  0  0  0  0  0  0  0  0  0
   -0.2721   -5.6618    3.2547 H   0  0  0  0  0  0  0  0  0  0  0  0
    0.9866   -4.6796    0.9481 N   0  0  0  0  0  0  0  0  0  0  0  0
    1.2878   -4.2408   -0.4266 C   0  0  2  0  0  0  0  0  0  0  0  0
    1.6982   -2.7514   -0.4904 C   0  0  0  0  0  0  0  0  0  0  0  0
    2.8839   -2.4674   -0.3852 O   0  0  0  0  0  0  0  0  0  0  0  0
    0.1281   -4.5926   -1.3730 C   0  0  0  0  0  0  0  0  0  0  0  0
    1.6494   -5.3036    1.3988 H   0  0  0  0  0  0  0  0  0  0  0  0
    2.1590   -4.8064   -0.7725 H   0  0  0  0  0  0  0  0  0  0  0  0
   -0.7884   -4.0583   -1.1064 H   0  0  0  0  0  0  0  0  0  0  0  0
    0.3888   -4.3305   -2.4033 H   0  0  0  0  0  0  0  0  0  0  0  0
   -0.0779   -5.6662   -1.3323 H   0  0  0  0  0  0  0  0  0  0  0  0
    0.7814   -1.7672   -0.8062 N   0  0  0  0  0  0  0  0  0  0  0  0
    0.6512   -0.3784   -0.2865 C   0  0  2  0  0  0  0  0  0  0  0  0
    0.0544    0.4942   -1.4110 C   0  0  0  0  0  0  0  0  0  0  0  0
   -0.8540    1.2840   -1.1798 O   0  0  0  0  0  0  0  0  0  0  0  0
    1.8251    0.2680    0.5197 C   0  0  2  0  0  0  0  0  0  0  0  0
    2.1109   -0.4825    1.8540 C   0  0  0  0  0  0  0  0  0  0  0  0
    1.5492    1.7588    0.8099 C   0  0  0  0  0  0  0  0  0  0  0  0
    3.4146   -0.0470    2.5305 C   0  0  0  0  0  0  0  0  0  0  0  0
   -0.1236   -2.1794   -1.0445 H   0  0  0  0  0  0  0  0  0  0  0  0
   -0.1560   -0.4430    0.4518 H   0  0  0  0  0  0  0  0  0  0  0  0
    2.7219    0.2093   -0.1063 H   0  0  0  0  0  0  0  0  0  0  0  0
    2.1502   -1.5603    1.7220 H   0  0  0  0  0  0  0  0  0  0  0  0
    1.2813   -0.2956    2.5435 H   0  0  0  0  0  0  0  0  0  0  0  0
    0.6267    1.8731    1.3882 H   0  0  0  0  0  0  0  0  0  0  0  0
    2.3691    2.2137    1.3701 H   0  0  0  0  0  0  0  0  0  0  0  0
    1.4504    2.3267   -0.1198 H   0  0  0  0  0  0  0  0  0  0  0  0
    4.2527   -0.1366    1.8324 H   0  0  0  0  0  0  0  0  0  0  0  0
    3.6148   -0.6889    3.3934 H   0  0  0  0  0  0  0  0  0  0  0  0
    3.3575    0.9847    2.8858 H   0  0  0  0  0  0  0  0  0  0  0  0
    0.3310    0.1489   -2.7205 N   0  0  0  0  0  0  0  0  0  0  0  0
   -0.7200    0.2084   -3.7419 C   0  0  2  0  0  0  0  0  0  0  0  0
   -1.6576   -1.0161   -3.6386 C   0  0  0  0  0  0  0  0  0  0  0  0
   -1.2447   -2.0750   -3.1710 O   0  0  0  0  0  0  0  0  0  0  0  0
   -0.0453    0.2571   -5.1137 C   0  0  0  0  0  0  0  0  0  0  0  0
    0.9459   -0.6620   -2.7718 H   0  0  0  0  0  0  0  0  0  0  0  0
   -1.3181    1.1176   -3.6181 H   0  0  0  0  0  0  0  0  0  0  0  0
    0.5533   -0.6446   -5.2795 H   0  0  0  0  0  0  0  0  0  0  0  0
   -0.7968    0.3269   -5.9061 H   0  0  0  0  0  0  0  0  0  0  0  0
    0.6117    1.1299   -5.1819 H   0  0  0  0  0  0  0  0  0  0  0  0
   -2.9678   -0.9329   -4.0708 N   0  0  0  0  0  0  0  0  0  0  0  0
   -3.9309   -2.0135   -3.8973 C   0  0  0  0  0  0  0  0  0  0  0  0
   -3.3088   -0.0146   -4.3407 H   0  0  0  0  0  0  0  0  0  0  0  0
   -3.5670   -2.9323   -4.3692 H   0  0  0  0  0  0  0  0  0  0  0  0
   -4.1011   -2.2070   -2.8328 H   0  0  0  0  0  0  0  0  0  0  0  0
   -4.8864   -1.7461   -4.3586 H   0  0  0  0  0  0  0  0  0  0  0  0
  1  2  2  0  0  0  0
  1  3  1  0  0  0  0
  1  7  1  0  0  0  0
  3  4  1  0  0  0  0
  3  5  1  0  0  0  0
  3  6  1  0  0  0  0
  7  8  1  0  0  0  0
  7 12  1  0  0  0  0
  8  9  1  0  0  0  0
  8 11  1  0  0  0  0
  8 13  1  0  0  0  0
  9 10  2  0  0  0  0
  9 17  1  0  0  0  0
 11 14  1  0  0  0  0
 11 15  1  0  0  0  0
 11 16  1  0  0  0  0
 17 18  1  0  0  0  0
 17 25  1  0  0  0  0
 18 19  1  0  0  0  0
 18 21  1  0  0  0  0
 18 26  1  0  0  0  0
 19 20  2  0  0  0  0
 19 36  1  0  0  0  0
 21 22  1  0  0  0  0
 21 23  1  0  0  0  0
 21 27  1  0  0  0  0
 22 24  1  0  0  0  0
 22 28  1  0  0  0  0
 22 29  1  0  0  0  0
 23 30  1  0  0  0  0
 23 31  1  0  0  0  0
 23 32  1  0  0  0  0
 24 33  1  0  0  0  0
 24 34  1  0  0  0  0
 24 35  1  0  0  0  0
 36 37  1  0  0  0  0
 36 41  1  0  0  0  0
 37 38  1  0  0  0  0
 37 40  1  0  0  0  0
 37 42  1  0  0  0  0
 38 39  2  0  0  0  0
 38 46  1  0  0  0  0
 40 43  1  0  0  0  0
 40 44  1  0  0  0  0
 40 45  1  0  0  0  0
 46 47  1  0  0  0  0
 46 48  1  0  0  0  0
 47 49  1  0  0  0  0
 47 50  1  0  0  0  0
 47 51  1  0  0  0  0
M  END
$$$$

  -OEChem-05262216503D

 51 50  0     1  0  0  0  0  0999 V2000
    0.0852   -4.0743    1.8406 C   0  0  0  0  0  0  0  0  0  0  0  0
   -0.6848   -3.2032    1.4694 O   0  0  0  0  0  0  0  0  0  0  0  0
    0.0984   -4.4895    3.2997 C   0  0  0  0  0  0  0  0  0  0  0  0
    1.0530   -4.2176    3.7568 H   0  0  0  0  0  0  0  0  0  0  0  0
   -0.7072   -3.9866    3.8421 H   0  0  0  0  0  0  0  0  0  0  0  0
   -0.0440   -5.5696    3.3826 H   0  0  0  0  0  0  0  0  0  0  0  0
    0.9689   -4.6679    0.9582 N   0  0  0  0  0  0  0  0  0  0  0  0
    1.1583   -4.2713   -0.4490 C   0  0  2  0  0  0  0  0  0  0  0  0
    1.5953   -2.7941   -0.5856 C   0  0  0  0  0  0  0  0  0  0  0  0
    2.7880   -2.5305   -0.5087 O   0  0  0  0  0  0  0  0  0  0  0  0
   -0.0880   -4.6223   -1.2780 C   0  0  0  0  0  0  0  0  0  0  0  0
    1.6546   -5.2957    1.3676 H   0  0  0  0  0  0  0  0  0  0  0  0
    1.9840   -4.8649   -0.8543 H   0  0  0  0  0  0  0  0  0  0  0  0
   -0.9669   -4.0650   -0.9414 H   0  0  0  0  0  0  0  0  0  0  0  0
    0.0820   -4.3897   -2.3339 H   0  0  0  0  0  0  0  0  0  0  0  0
   -0.3078   -5.6905   -1.1918 H   0  0  0  0  0  0  0  0  0  0  0  0
    0.6949   -1.7997   -0.9189 N   0  0  0  0  0  0  0  0  0  0  0  0
    0.5870   -0.4054   -0.4002 C   0  0  2  0  0  0  0  0  0  0  0  0
    0.0169    0.4941   -1.5242 C   0  0  0  0  0  0  0  0  0  0  0  0
   -0.7396    1.4212   -1.2578 O   0  0  0  0  0  0  0  0  0  0  0  0
    1.7760    0.2023    0.4220 C   0  0  2  0  0  0  0  0  0  0  0  0
    2.0272   -0.5620    1.7565 C   0  0  0  0  0  0  0  0  0  0  0  0
    1.5606    1.7005    0.7222 C   0  0  0  0  0  0  0  0  0  0  0  0
    3.3376   -0.1702    2.4482 C   0  0  0  0  0  0  0  0  0  0  0  0
   -0.2234   -2.2022   -1.1265 H   0  0  0  0  0  0  0  0  0  0  0  0
   -0.2280   -0.4521    0.3304 H   0  0  0  0  0  0  0  0  0  0  0  0
    2.6755    0.1151   -0.1964 H   0  0  0  0  0  0  0  0  0  0  0  0
    2.0390   -1.6395    1.6192 H   0  0  0  0  0  0  0  0  0  0  0  0
    1.1963   -0.3555    2.4387 H   0  0  0  0  0  0  0  0  0  0  0  0
    0.6347    1.8489    1.2871 H   0  0  0  0  0  0  0  0  0  0  0  0
    2.3898    2.1157    1.2986 H   0  0  0  0  0  0  0  0  0  0  0  0
    1.5037    2.2797   -0.2037 H   0  0  0  0  0  0  0  0  0  0  0  0
    4.1776   -0.2652    1.7529 H   0  0  0  0  0  0  0  0  0  0  0  0
    3.5183   -0.8330    3.2998 H   0  0  0  0  0  0  0  0  0  0  0  0
    3.3024    0.8554    2.8242 H   0  0  0  0  0  0  0  0  0  0  0  0
    0.0188    0.0026   -2.8168 N   0  0  0  0  0  0  0  0  0  0  0  0
   -1.1802    0.0802   -3.6587 C   0  0  2  0  0  0  0  0  0  0  0  0
   -2.1283   -1.1028   -3.3606 C   0  0  0  0  0  0  0  0  0  0  0  0
   -1.6852   -2.1392   -2.8695 O   0  0  0  0  0  0  0  0  0  0  0  0
   -0.7307    0.0623   -5.1203 C   0  0  0  0  0  0  0  0  0  0  0  0
    0.5331   -0.8748   -2.8792 H   0  0  0  0  0  0  0  0  0  0  0  0
   -1.7211    1.0146   -3.4756 H   0  0  0  0  0  0  0  0  0  0  0  0
   -0.2010   -0.8684   -5.3480 H   0  0  0  0  0  0  0  0  0  0  0  0
   -1.5943    0.1442   -5.7873 H   0  0  0  0  0  0  0  0  0  0  0  0
   -0.0591    0.9036   -5.3187 H   0  0  0  0  0  0  0  0  0  0  0  0
   -3.4788   -1.0095   -3.6397 N   0  0  0  0  0  0  0  0  0  0  0  0
   -4.4365   -2.0510   -3.2871 C   0  0  0  0  0  0  0  0  0  0  0  0
   -3.8297   -0.1058   -3.9443 H   0  0  0  0  0  0  0  0  0  0  0  0
   -4.1524   -3.0050   -3.7437 H   0  0  0  0  0  0  0  0  0  0  0  0
   -4.4792   -2.1791   -2.2002 H   0  0  0  0  0  0  0  0  0  0  0  0
   -5.4357   -1.7836   -3.6445 H   0  0  0  0  0  0  0  0  0  0  0  0
  1  2  2  0  0  0  0
  1  3  1  0  0  0  0
  1  7  1  0  0  0  0
  3  4  1  0  0  0  0
  3  5  1  0  0  0  0
  3  6  1  0  0  0  0
  7  8  1  0  0  0  0
  7 12  1  0  0  0  0
  8  9  1  0  0  0  0
  8 11  1  0  0  0  0
  8 13  1  0  0  0  0
  9 10  2  0  0  0  0
  9 17  1  0  0  0  0
 11 14  1  0  0  0  0
 11 15  1  0  0  0  0
 11 16  1  0  0  0  0
 17 18  1  0  0  0  0
 17 25  1  0  0  0  0
 18 19  1  0  0  0  0
 18 21  1  0  0  0  0
 18 26  1  0  0  0  0
 19 20  2  0  0  0  0
 19 36  1  0  0  0  0
 21 22  1  0  0  0  0
 21 23  1  0  0  0  0
 21 27  1  0  0  0  0
 22 24  1  0  0  0  0
 22 28  1  0  0  0  0
 22 29  1  0  0  0  0
 23 30  1  0  0  0  0
 23 31  1  0  0  0  0
 23 32  1  0  0  0  0
 24 33  1  0  0  0  0
 24 34  1  0  0  0  0
 24 35  1  0  0  0  0
 36 37  1  0  0  0  0
 36 41  1  0  0  0  0
 37 38  1  0  0  0  0
 37 40  1  0  0  0  0
 37 42  1  0  0  0  0
 38 39  2  0  0  0  0
 38 46  1  0  0  0  0
 40 43  1  0  0  0  0
 40 44  1  0  0  0  0
 40 45  1  0  0  0  0
 46 47  1  0  0  0  0
 46 48  1  0  0  0  0
 47 49  1  0  0  0  0
 47 50  1  0  0  0  0
 47 51  1  0  0  0  0
M  END
$$$$

  -OEChem-05262216503D

 51 50  0     1  0  0  0  0  0999 V2000
   -0.6886   -4.0475    1.7849 C   0  0  0  0  0  0  0  0  0  0  0  0
   -1.3125   -3.3140    1.0350 O   0  0  0  0  0  0  0  0  0  0  0  0
   -1.2605   -4.3859    3.1486 C   0  0  0  0  0  0  0  0  0  0  0  0
   -0.6088   -3.9978    3.9351 H   0  0  0  0  0  0  0  0  0  0  0  0
   -2.2527   -3.9396    3.2619 H   0  0  0  0  0  0  0  0  0  0  0  0
   -1.3494   -5.4693    3.2591 H   0  0  0  0  0  0  0  0  0  0  0  0
    0.5506   -4.5433    1.4225 N   0  0  0  0  0  0  0  0  0  0  0  0
    1.2299   -4.3753    0.1199 C   0  0  2  0  0  0  0  0  0  0  0  0
    1.6538   -2.9251   -0.2096 C   0  0  0  0  0  0  0  0  0  0  0  0
    2.8075   -2.7205   -0.5582 O   0  0  0  0  0  0  0  0  0  0  0  0
    0.3909   -4.9758   -1.0190 C   0  0  0  0  0  0  0  0  0  0  0  0
    1.0131   -5.1248    2.1160 H   0  0  0  0  0  0  0  0  0  0  0  0
    2.1586   -4.9538    0.1686 H   0  0  0  0  0  0  0  0  0  0  0  0
   -0.5289   -4.4065   -1.1844 H   0  0  0  0  0  0  0  0  0  0  0  0
    0.9654   -4.9691   -1.9508 H   0  0  0  0  0  0  0  0  0  0  0  0
    0.1210   -6.0106   -0.7878 H   0  0  0  0  0  0  0  0  0  0  0  0
    0.6969   -1.9342   -0.3297 N   0  0  0  0  0  0  0  0  0  0  0  0
    0.7581   -0.4647   -0.0865 C   0  0  2  0  0  0  0  0  0  0  0  0
   -0.2407    0.2366   -1.0498 C   0  0  0  0  0  0  0  0  0  0  0  0
   -0.6171    1.3882   -0.8666 O   0  0  0  0  0  0  0  0  0  0  0  0
    2.1705    0.1963    0.1098 C   0  0  2  0  0  0  0  0  0  0  0  0
    2.8938   -0.3405    1.3827 C   0  0  0  0  0  0  0  0  0  0  0  0
    2.1105    1.7370    0.1653 C   0  0  0  0  0  0  0  0  0  0  0  0
    4.3693    0.0642    1.4722 C   0  0  0  0  0  0  0  0  0  0  0  0
   -0.2231   -2.3259   -0.0992 H   0  0  0  0  0  0  0  0  0  0  0  0
    0.2830   -0.3293    0.8897 H   0  0  0  0  0  0  0  0  0  0  0  0
    2.7747   -0.0725   -0.7632 H   0  0  0  0  0  0  0  0  0  0  0  0
    2.8430   -1.4225    1.4639 H   0  0  0  0  0  0  0  0  0  0  0  0
    2.3760    0.0495    2.2648 H   0  0  0  0  0  0  0  0  0  0  0  0
    1.4256    2.0675    0.9524 H   0  0  0  0  0  0  0  0  0  0  0  0
    3.0929    2.1728    0.3556 H   0  0  0  0  0  0  0  0  0  0  0  0
    1.7739    2.1440   -0.7921 H   0  0  0  0  0  0  0  0  0  0  0  0
    4.8929   -0.2042    0.5494 H   0  0  0  0  0  0  0  0  0  0  0  0
    4.8459   -0.4624    2.3043 H   0  0  0  0  0  0  0  0  0  0  0  0
    4.4839    1.1367    1.6469 H   0  0  0  0  0  0  0  0  0  0  0  0
   -0.9830   -0.5287   -1.9306 N   0  0  0  0  0  0  0  0  0  0  0  0
   -2.1686   -0.0942   -2.6757 C   0  0  2  0  0  0  0  0  0  0  0  0
   -3.0058   -1.3078   -3.1325 C   0  0  0  0  0  0  0  0  0  0  0  0
   -2.5263   -2.4373   -3.1086 O   0  0  0  0  0  0  0  0  0  0  0  0
   -1.7248    0.7319   -3.8885 C   0  0  0  0  0  0  0  0  0  0  0  0
   -0.7238   -1.5122   -2.0084 H   0  0  0  0  0  0  0  0  0  0  0  0
   -2.7996    0.5216   -2.0262 H   0  0  0  0  0  0  0  0  0  0  0  0
   -1.0930    0.1297   -4.5493 H   0  0  0  0  0  0  0  0  0  0  0  0
   -2.5935    1.0787   -4.4560 H   0  0  0  0  0  0  0  0  0  0  0  0
   -1.1544    1.6086   -3.5661 H   0  0  0  0  0  0  0  0  0  0  0  0
   -4.3046   -1.1353   -3.5742 N   0  0  0  0  0  0  0  0  0  0  0  0
   -5.1499   -2.2355   -4.0212 C   0  0  0  0  0  0  0  0  0  0  0  0
   -4.6815   -0.1921   -3.5719 H   0  0  0  0  0  0  0  0  0  0  0  0
   -4.7084   -2.7261   -4.8952 H   0  0  0  0  0  0  0  0  0  0  0  0
   -5.2688   -2.9763   -3.2232 H   0  0  0  0  0  0  0  0  0  0  0  0
   -6.1412   -1.8632   -4.2972 H   0  0  0  0  0  0  0  0  0  0  0  0
  1  2  2  0  0  0  0
  1  3  1  0  0  0  0
  1  7  1  0  0  0  0
  3  4  1  0  0  0  0
  3  5  1  0  0  0  0
  3  6  1  0  0  0  0
  7  8  1  0  0  0  0
  7 12  1  0  0  0  0
  8  9  1  0  0  0  0
  8 11  1  0  0  0  0
  8 13  1  0  0  0  0
  9 10  2  0  0  0  0
  9 17  1  0  0  0  0
 11 14  1  0  0  0  0
 11 15  1  0  0  0  0
 11 16  1  0  0  0  0
 17 18  1  0  0  0  0
 17 25  1  0  0  0  0
 18 19  1  0  0  0  0
 18 21  1  0  0  0  0
 18 26  1  0  0  0  0
 19 20  2  0  0  0  0
 19 36  1  0  0  0  0
 21 22  1  0  0  0  0
 21 23  1  0  0  0  0
 21 27  1  0  0  0  0
 22 24  1  0  0  0  0
 22 28  1  0  0  0  0
 22 29  1  0  0  0  0
 23 30  1  0  0  0  0
 23 31  1  0  0  0  0
 23 32  1  0  0  0  0
 24 33  1  0  0  0  0
 24 34  1  0  0  0  0
 24 35  1  0  0  0  0
 36 37  1  0  0  0  0
 36 41  1  0  0  0  0
 37 38  1  0  0  0  0
 37 40  1  0  0  0  0
 37 42  1  0  0  0  0
 38 39  2  0  0  0  0
 38 46  1  0  0  0  0
 40 43  1  0  0  0  0
 40 44  1  0  0  0  0
 40 45  1  0  0  0  0
 46 47  1  0  0  0  0
 46 48  1  0  0  0  0
 47 49  1  0  0  0  0
 47 50  1  0  0  0  0
 47 51  1  0  0  0  0
M  END
$$$$

  -OEChem-05262216503D

 51 50  0     1  0  0  0  0  0999 V2000
   -0.6894   -4.0499    1.7868 C   0  0  0  0  0  0  0  0  0  0  0  0
   -1.3393   -3.2968    1.0794 O   0  0  0  0  0  0  0  0  0  0  0  0
   -1.1918   -4.3941    3.1759 C   0  0  0  0  0  0  0  0  0  0  0  0
   -0.5285   -3.9637    3.9299 H   0  0  0  0  0  0  0  0  0  0  0  0
   -2.1989   -3.9932    3.3226 H   0  0  0  0  0  0  0  0  0  0  0  0
   -1.2249   -5.4787    3.3050 H   0  0  0  0  0  0  0  0  0  0  0  0
    0.5237   -4.5547    1.3555 N   0  0  0  0  0  0  0  0  0  0  0  0
    1.1394   -4.3736    0.0234 C   0  0  2  0  0  0  0  0  0  0  0  0
    1.5607   -2.9226   -0.3057 C   0  0  0  0  0  0  0  0  0  0  0  0
    2.7043   -2.7230   -0.6890 O   0  0  0  0  0  0  0  0  0  0  0  0
    0.2385   -4.9479   -1.0808 C   0  0  0  0  0  0  0  0  0  0  0  0
    1.0160   -5.1474    2.0183 H   0  0  0  0  0  0  0  0  0  0  0  0
    2.0633   -4.9617    0.0166 H   0  0  0  0  0  0  0  0  0  0  0  0
   -0.6899   -4.3774   -1.1798 H   0  0  0  0  0  0  0  0  0  0  0  0
    0.7595   -4.9164   -2.0430 H   0  0  0  0  0  0  0  0  0  0  0  0
   -0.0165   -5.9886   -0.8602 H   0  0  0  0  0  0  0  0  0  0  0  0
    0.6046   -1.9253   -0.3779 N   0  0  0  0  0  0  0  0  0  0  0  0
    0.6881   -0.4567   -0.1346 C   0  0  2  0  0  0  0  0  0  0  0  0
   -0.3573    0.2435   -1.0556 C   0  0  0  0  0  0  0  0  0  0  0  0
   -0.5132    1.4574   -1.0882 O   0  0  0  0  0  0  0  0  0  0  0  0
    2.1213    0.1774    0.0323 C   0  0  2  0  0  0  0  0  0  0  0  0
    2.8535   -0.3838    1.2918 C   0  0  0  0  0  0  0  0  0  0  0  0
    2.1087    1.7191    0.1078 C   0  0  0  0  0  0  0  0  0  0  0  0
    4.3409   -0.0174    1.3628 C   0  0  0  0  0  0  0  0  0  0  0  0
   -0.2994   -2.3139   -0.0901 H   0  0  0  0  0  0  0  0  0  0  0  0
    0.2475   -0.3187    0.8573 H   0  0  0  0  0  0  0  0  0  0  0  0
    2.7028   -0.0975   -0.8541 H   0  0  0  0  0  0  0  0  0  0  0  0
    2.7785   -1.4647    1.3681 H   0  0  0  0  0  0  0  0  0  0  0  0
    2.3595    0.0134    2.1842 H   0  0  0  0  0  0  0  0  0  0  0  0
    1.4058    2.0622    0.8734 H   0  0  0  0  0  0  0  0  0  0  0  0
    3.0949    2.1242    0.3395 H   0  0  0  0  0  0  0  0  0  0  0  0
    1.8251    2.1481   -0.8567 H   0  0  0  0  0  0  0  0  0  0  0  0
    4.8397   -0.2728    0.4225 H   0  0  0  0  0  0  0  0  0  0  0  0
    4.8206   -0.5783    2.1704 H   0  0  0  0  0  0  0  0  0  0  0  0
    4.4874    1.0461    1.5657 H   0  0  0  0  0  0  0  0  0  0  0  0
   -1.3482   -0.5114   -1.6605 N   0  0  0  0  0  0  0  0  0  0  0  0
   -2.4733    0.0064   -2.4480 C   0  0  2  0  0  0  0  0  0  0  0  0
   -3.5623   -1.0700   -2.6366 C   0  0  0  0  0  0  0  0  0  0  0  0
   -3.2871   -2.2584   -2.5067 O   0  0  0  0  0  0  0  0  0  0  0  0
   -1.9613    0.4667   -3.8184 C   0  0  0  0  0  0  0  0  0  0  0  0
   -1.2532   -1.5246   -1.6086 H   0  0  0  0  0  0  0  0  0  0  0  0
   -2.9232    0.8545   -1.9215 H   0  0  0  0  0  0  0  0  0  0  0  0
   -1.4933   -0.3682   -4.3499 H   0  0  0  0  0  0  0  0  0  0  0  0
   -2.7856    0.8498   -4.4272 H   0  0  0  0  0  0  0  0  0  0  0  0
   -1.2212    1.2648   -3.7044 H   0  0  0  0  0  0  0  0  0  0  0  0
   -4.8533   -0.7081   -2.9755 N   0  0  0  0  0  0  0  0  0  0  0  0
   -5.9258   -1.6735   -3.1820 C   0  0  0  0  0  0  0  0  0  0  0  0
   -5.0549    0.2827   -3.0724 H   0  0  0  0  0  0  0  0  0  0  0  0
   -5.6761   -2.3523   -4.0044 H   0  0  0  0  0  0  0  0  0  0  0  0
   -6.0895   -2.2644   -2.2745 H   0  0  0  0  0  0  0  0  0  0  0  0
   -6.8580   -1.1571   -3.4306 H   0  0  0  0  0  0  0  0  0  0  0  0
  1  2  2  0  0  0  0
  1  3  1  0  0  0  0
  1  7  1  0  0  0  0
  3  4  1  0  0  0  0
  3  5  1  0  0  0  0
  3  6  1  0  0  0  0
  7  8  1  0  0  0  0
  7 12  1  0  0  0  0
  8  9  1  0  0  0  0
  8 11  1  0  0  0  0
  8 13  1  0  0  0  0
  9 10  2  0  0  0  0
  9 17  1  0  0  0  0
 11 14  1  0  0  0  0
 11 15  1  0  0  0  0
 11 16  1  0  0  0  0
 17 18  1  0  0  0  0
 17 25  1  0  0  0  0
 18 19  1  0  0  0  0
 18 21  1  0  0  0  0
 18 26  1  0  0  0  0
 19 20  2  0  0  0  0
 19 36  1  0  0  0  0
 21 22  1  0  0  0  0
 21 23  1  0  0  0  0
 21 27  1  0  0  0  0
 22 24  1  0  0  0  0
 22 28  1  0  0  0  0
 22 29  1  0  0  0  0
 23 30  1  0  0  0  0
 23 31  1  0  0  0  0
 23 32  1  0  0  0  0
 24 33  1  0  0  0  0
 24 34  1  0  0  0  0
 24 35  1  0  0  0  0
 36 37  1  0  0  0  0
 36 41  1  0  0  0  0
 37 38  1  0  0  0  0
 37 40  1  0  0  0  0
 37 42  1  0  0  0  0
 38 39  2  0  0  0  0
 38 46  1  0  0  0  0
 40 43  1  0  0  0  0
 40 44  1  0  0  0  0
 40 45  1  0  0  0  0
 46 47  1  0  0  0  0
 46 48  1  0  0  0  0
 47 49  1  0  0  0  0
 47 50  1  0  0  0  0
 47 51  1  0  0  0  0
M  END
$$$$

  -OEChem-05262216503D

 51 50  0     1  0  0  0  0  0999 V2000
   -0.9138   -3.9748    1.6701 C   0  0  0  0  0  0  0  0  0  0  0  0
   -1.4880   -3.2078    0.9129 O   0  0  0  0  0  0  0  0  0  0  0  0
   -1.5455   -4.3263    3.0037 C   0  0  0  0  0  0  0  0  0  0  0  0
   -0.8590   -4.0860    3.8193 H   0  0  0  0  0  0  0  0  0  0  0  0
   -2.4703   -3.7592    3.1446 H   0  0  0  0  0  0  0  0  0  0  0  0
   -1.7800   -5.3931    3.0351 H   0  0  0  0  0  0  0  0  0  0  0  0
    0.3264   -4.4958    1.3462 N   0  0  0  0  0  0  0  0  0  0  0  0
    1.0522   -4.3482    0.0650 C   0  0  2  0  0  0  0  0  0  0  0  0
    1.5225   -2.9123   -0.2658 C   0  0  0  0  0  0  0  0  0  0  0  0
    2.6770   -2.7474   -0.6314 O   0  0  0  0  0  0  0  0  0  0  0  0
    0.2298   -4.9327   -1.0932 C   0  0  0  0  0  0  0  0  0  0  0  0
    0.7397   -5.1085    2.0440 H   0  0  0  0  0  0  0  0  0  0  0  0
    1.9643   -4.9488    0.1446 H   0  0  0  0  0  0  0  0  0  0  0  0
   -0.6732   -4.3436   -1.2795 H   0  0  0  0  0  0  0  0  0  0  0  0
    0.8267   -4.9385   -2.0108 H   0  0  0  0  0  0  0  0  0  0  0  0
   -0.0673   -5.9612   -0.8677 H   0  0  0  0  0  0  0  0  0  0  0  0
    0.5904   -1.8944   -0.3444 N   0  0  0  0  0  0  0  0  0  0  0  0
    0.7008   -0.4196   -0.1859 C   0  0  2  0  0  0  0  0  0  0  0  0
   -0.3865    0.2247   -1.1009 C   0  0  0  0  0  0  0  0  0  0  0  0
   -0.2740    1.3248   -1.6245 O   0  0  0  0  0  0  0  0  0  0  0  0
    2.1404    0.2108   -0.0768 C   0  0  2  0  0  0  0  0  0  0  0  0
    2.8763   -0.2955    1.2046 C   0  0  0  0  0  0  0  0  0  0  0  0
    2.1223    1.7564   -0.0489 C   0  0  0  0  0  0  0  0  0  0  0  0
    4.3698    0.0516    1.2485 C   0  0  0  0  0  0  0  0  0  0  0  0
   -0.3311   -2.2607   -0.0972 H   0  0  0  0  0  0  0  0  0  0  0  0
    0.2928   -0.2262    0.8101 H   0  0  0  0  0  0  0  0  0  0  0  0
    2.7123   -0.1024   -0.9570 H   0  0  0  0  0  0  0  0  0  0  0  0
    2.7859   -1.3705    1.3338 H   0  0  0  0  0  0  0  0  0  0  0  0
    2.3948    0.1512    2.0803 H   0  0  0  0  0  0  0  0  0  0  0  0
    1.3577    2.1197    0.6446 H   0  0  0  0  0  0  0  0  0  0  0  0
    3.0831    2.1746    0.2529 H   0  0  0  0  0  0  0  0  0  0  0  0
    1.9214    2.1581   -1.0450 H   0  0  0  0  0  0  0  0  0  0  0  0
    4.8576   -0.2571    0.3187 H   0  0  0  0  0  0  0  0  0  0  0  0
    4.8457   -0.4786    2.0787 H   0  0  0  0  0  0  0  0  0  0  0  0
    4.5368    1.1207    1.3990 H   0  0  0  0  0  0  0  0  0  0  0  0
   -1.5687   -0.4558   -1.3582 N   0  0  0  0  0  0  0  0  0  0  0  0
   -2.6306    0.0101   -2.2615 C   0  0  2  0  0  0  0  0  0  0  0  0
   -3.9891   -0.6532   -1.9560 C   0  0  0  0  0  0  0  0  0  0  0  0
   -4.0441   -1.6911   -1.3074 O   0  0  0  0  0  0  0  0  0  0  0  0
   -2.2143   -0.2961   -3.7051 C   0  0  0  0  0  0  0  0  0  0  0  0
   -1.7328   -1.3373   -0.8706 H   0  0  0  0  0  0  0  0  0  0  0  0
   -2.7605    1.0907   -2.1423 H   0  0  0  0  0  0  0  0  0  0  0  0
   -2.0658   -1.3724   -3.8392 H   0  0  0  0  0  0  0  0  0  0  0  0
   -2.9834    0.0400   -4.4065 H   0  0  0  0  0  0  0  0  0  0  0  0
   -1.2789    0.2166   -3.9506 H   0  0  0  0  0  0  0  0  0  0  0  0
   -5.1615   -0.0874   -2.4231 N   0  0  0  0  0  0  0  0  0  0  0  0
   -6.4793   -0.6608   -2.1792 C   0  0  0  0  0  0  0  0  0  0  0  0
   -5.0887    0.7747   -2.9554 H   0  0  0  0  0  0  0  0  0  0  0  0
   -6.5541   -1.6549   -2.6324 H   0  0  0  0  0  0  0  0  0  0  0  0
   -6.6660   -0.7489   -1.1036 H   0  0  0  0  0  0  0  0  0  0  0  0
   -7.2556   -0.0233   -2.6131 H   0  0  0  0  0  0  0  0  0  0  0  0
  1  2  2  0  0  0  0
  1  3  1  0  0  0  0
  1  7  1  0  0  0  0
  3  4  1  0  0  0  0
  3  5  1  0  0  0  0
  3  6  1  0  0  0  0
  7  8  1  0  0  0  0
  7 12  1  0  0  0  0
  8  9  1  0  0  0  0
  8 11  1  0  0  0  0
  8 13  1  0  0  0  0
  9 10  2  0  0  0  0
  9 17  1  0  0  0  0
 11 14  1  0  0  0  0
 11 15  1  0  0  0  0
 11 16  1  0  0  0  0
 17 18  1  0  0  0  0
 17 25  1  0  0  0  0
 18 19  1  0  0  0  0
 18 21  1  0  0  0  0
 18 26  1  0  0  0  0
 19 20  2  0  0  0  0
 19 36  1  0  0  0  0
 21 22  1  0  0  0  0
 21 23  1  0  0  0  0
 21 27  1  0  0  0  0
 22 24  1  0  0  0  0
 22 28  1  0  0  0  0
 22 29  1  0  0  0  0
 23 30  1  0  0  0  0
 23 31  1  0  0  0  0
 23 32  1  0  0  0  0
 24 33  1  0  0  0  0
 24 34  1  0  0  0  0
 24 35  1  0  0  0  0
 36 37  1  0  0  0  0
 36 41  1  0  0  0  0
 37 38  1  0  0  0  0
 37 40  1  0  0  0  0
 37 42  1  0  0  0  0
 38 39  2  0  0  0  0
 38 46  1  0  0  0  0
 40 43  1  0  0  0  0
 40 44  1  0  0  0  0
 40 45  1  0  0  0  0
 46 47  1  0  0  0  0
 46 48  1  0  0  0  0
 47 49  1  0  0  0  0
 47 50  1  0  0  0  0
 47 51  1  0  0  0  0
M  END
$$$$

  -OEChem-05262216503D

 51 50  0     1  0  0  0  0  0999 V2000
    2.0265   -4.7342    2.1409 C   0  0  0  0  0  0  0  0  0  0  0  0
    2.1642   -3.7720    2.8767 O   0  0  0  0  0  0  0  0  0  0  0  0
    3.1316   -5.7714    2.0689 C   0  0  0  0  0  0  0  0  0  0  0  0
    3.5107   -5.8407    1.0462 H   0  0  0  0  0  0  0  0  0  0  0  0
    3.9562   -5.4918    2.7308 H   0  0  0  0  0  0  0  0  0  0  0  0
    2.7493   -6.7478    2.3764 H   0  0  0  0  0  0  0  0  0  0  0  0
    0.8970   -4.9124    1.3637 N   0  0  0  0  0  0  0  0  0  0  0  0
   -0.1474   -3.9073    1.0774 C   0  0  2  0  0  0  0  0  0  0  0  0
    0.2658   -2.9137   -0.0392 C   0  0  0  0  0  0  0  0  0  0  0  0
    0.8802   -3.3439   -1.0035 O   0  0  0  0  0  0  0  0  0  0  0  0
   -0.7136   -3.2347    2.3404 C   0  0  0  0  0  0  0  0  0  0  0  0
    0.9794   -5.6635    0.6840 H   0  0  0  0  0  0  0  0  0  0  0  0
   -0.9888   -4.4645    0.6545 H   0  0  0  0  0  0  0  0  0  0  0  0
   -0.0103   -2.5202    2.7713 H   0  0  0  0  0  0  0  0  0  0  0  0
   -1.6366   -2.6986    2.1006 H   0  0  0  0  0  0  0  0  0  0  0  0
   -0.9422   -3.9905    3.0978 H   0  0  0  0  0  0  0  0  0  0  0  0
   -0.5421   -1.8568   -0.3750 N   0  0  0  0  0  0  0  0  0  0  0  0
   -0.3971   -0.4443    0.0672 C   0  0  2  0  0  0  0  0  0  0  0  0
   -1.0059    0.3287   -1.1464 C   0  0  0  0  0  0  0  0  0  0  0  0
   -0.3823    1.1292   -1.8309 O   0  0  0  0  0  0  0  0  0  0  0  0
    1.0409    0.1005    0.4257 C   0  0  2  0  0  0  0  0  0  0  0  0
    1.7216   -0.6081    1.6271 C   0  0  0  0  0  0  0  0  0  0  0  0
    0.9715    1.5983    0.8386 C   0  0  0  0  0  0  0  0  0  0  0  0
    3.2043   -0.2544    1.7929 C   0  0  0  0  0  0  0  0  0  0  0  0
   -0.6174   -1.8926   -1.3919 H   0  0  0  0  0  0  0  0  0  0  0  0
   -1.0392   -0.2800    0.9375 H   0  0  0  0  0  0  0  0  0  0  0  0
    1.6757   -0.0082   -0.4609 H   0  0  0  0  0  0  0  0  0  0  0  0
    1.7065   -1.6811    1.4852 H   0  0  0  0  0  0  0  0  0  0  0  0
    1.1821   -0.3917    2.5548 H   0  0  0  0  0  0  0  0  0  0  0  0
    0.4351    1.7089    1.7862 H   0  0  0  0  0  0  0  0  0  0  0  0
    1.9748    2.0141    0.9564 H   0  0  0  0  0  0  0  0  0  0  0  0
    0.4694    2.2266    0.1034 H   0  0  0  0  0  0  0  0  0  0  0  0
    3.7363   -0.3747    0.8441 H   0  0  0  0  0  0  0  0  0  0  0  0
    3.6606   -0.9224    2.5302 H   0  0  0  0  0  0  0  0  0  0  0  0
    3.3351    0.7719    2.1452 H   0  0  0  0  0  0  0  0  0  0  0  0
   -2.1977   -0.1287   -1.6839 N   0  0  0  0  0  0  0  0  0  0  0  0
   -2.8297    0.3693   -2.9125 C   0  0  2  0  0  0  0  0  0  0  0  0
   -4.3582    0.1604   -2.8845 C   0  0  0  0  0  0  0  0  0  0  0  0
   -4.8607   -0.5933   -2.0574 O   0  0  0  0  0  0  0  0  0  0  0  0
   -2.2158   -0.3663   -4.1090 C   0  0  0  0  0  0  0  0  0  0  0  0
   -2.7378   -0.7910   -1.1265 H   0  0  0  0  0  0  0  0  0  0  0  0
   -2.6445    1.4443   -3.0116 H   0  0  0  0  0  0  0  0  0  0  0  0
   -2.3971   -1.4432   -4.0306 H   0  0  0  0  0  0  0  0  0  0  0  0
   -2.6512   -0.0069   -5.0461 H   0  0  0  0  0  0  0  0  0  0  0  0
   -1.1350   -0.1978   -4.1469 H   0  0  0  0  0  0  0  0  0  0  0  0
   -5.1726    0.8193   -3.7870 N   0  0  0  0  0  0  0  0  0  0  0  0
   -6.6228    0.6720   -3.8148 C   0  0  0  0  0  0  0  0  0  0  0  0
   -4.7290    1.4497   -4.4488 H   0  0  0  0  0  0  0  0  0  0  0  0
   -6.8997   -0.3792   -3.9477 H   0  0  0  0  0  0  0  0  0  0  0  0
   -7.0631    1.0371   -2.8811 H   0  0  0  0  0  0  0  0  0  0  0  0
   -7.0452    1.2466   -4.6447 H   0  0  0  0  0  0  0  0  0  0  0  0
  1  2  2  0  0  0  0
  1  3  1  0  0  0  0
  1  7  1  0  0  0  0
  3  4  1  0  0  0  0
  3  5  1  0  0  0  0
  3  6  1  0  0  0  0
  7  8  1  0  0  0  0
  7 12  1  0  0  0  0
  8  9  1  0  0  0  0
  8 11  1  0  0  0  0
  8 13  1  0  0  0  0
  9 10  2  0  0  0  0
  9 17  1  0  0  0  0
 11 14  1  0  0  0  0
 11 15  1  0  0  0  0
 11 16  1  0  0  0  0
 17 18  1  0  0  0  0
 17 25  1  0  0  0  0
 18 19  1  0  0  0  0
 18 21  1  0  0  0  0
 18 26  1  0  0  0  0
 19 20  2  0  0  0  0
 19 36  1  0  0  0  0
 21 22  1  0  0  0  0
 21 23  1  0  0  0  0
 21 27  1  0  0  0  0
 22 24  1  0  0  0  0
 22 28  1  0  0  0  0
 22 29  1  0  0  0  0
 23 30  1  0  0  0  0
 23 31  1  0  0  0  0
 23 32  1  0  0  0  0
 24 33  1  0  0  0  0
 24 34  1  0  0  0  0
 24 35  1  0  0  0  0
 36 37  1  0  0  0  0
 36 41  1  0  0  0  0
 37 38  1  0  0  0  0
 37 40  1  0  0  0  0
 37 42  1  0  0  0  0
 38 39  2  0  0  0  0
 38 46  1  0  0  0  0
 40 43  1  0  0  0  0
 40 44  1  0  0  0  0
 40 45  1  0  0  0  0
 46 47  1  0  0  0  0
 46 48  1  0  0  0  0
 47 49  1  0  0  0  0
 47 50  1  0  0  0  0
 47 51  1  0  0  0  0
M  END
$$$$

  -OEChem-05262216503D

 51 50  0     1  0  0  0  0  0999 V2000
   -1.3953   -3.9068    1.2529 C   0  0  0  0  0  0  0  0  0  0  0  0
   -1.7917   -3.1933    0.3440 O   0  0  0  0  0  0  0  0  0  0  0  0
   -2.3114   -4.1923    2.4278 C   0  0  0  0  0  0  0  0  0  0  0  0
   -1.8340   -3.8811    3.3603 H   0  0  0  0  0  0  0  0  0  0  0  0
   -3.2512   -3.6433    2.3158 H   0  0  0  0  0  0  0  0  0  0  0  0
   -2.5333   -5.2612    2.4775 H   0  0  0  0  0  0  0  0  0  0  0  0
   -0.1067   -4.4133    1.2543 N   0  0  0  0  0  0  0  0  0  0  0  0
    0.9044   -4.3139    0.1755 C   0  0  2  0  0  0  0  0  0  0  0  0
    1.4590   -2.8942   -0.0944 C   0  0  0  0  0  0  0  0  0  0  0  0
    2.6479   -2.7759   -0.3473 O   0  0  0  0  0  0  0  0  0  0  0  0
    0.3794   -4.9439   -1.1223 C   0  0  0  0  0  0  0  0  0  0  0  0
    0.1375   -4.9799    2.0622 H   0  0  0  0  0  0  0  0  0  0  0  0
    1.7654   -4.9108    0.4941 H   0  0  0  0  0  0  0  0  0  0  0  0
   -0.4304   -4.3482   -1.5538 H   0  0  0  0  0  0  0  0  0  0  0  0
    1.1858   -5.0064   -1.8602 H   0  0  0  0  0  0  0  0  0  0  0  0
    0.0066   -5.9546   -0.9322 H   0  0  0  0  0  0  0  0  0  0  0  0
    0.5696   -1.8480   -0.2441 N   0  0  0  0  0  0  0  0  0  0  0  0
    0.6937   -0.3708   -0.1991 C   0  0  2  0  0  0  0  0  0  0  0  0
   -0.3944    0.1685   -1.1606 C   0  0  0  0  0  0  0  0  0  0  0  0
   -0.1434    0.7397   -2.2140 O   0  0  0  0  0  0  0  0  0  0  0  0
    2.1042    0.3100   -0.2012 C   0  0  2  0  0  0  0  0  0  0  0  0
    2.9274   -0.0616    1.0694 C   0  0  0  0  0  0  0  0  0  0  0  0
    1.9863    1.8516   -0.2627 C   0  0  0  0  0  0  0  0  0  0  0  0
    4.4012    0.3525    0.9906 C   0  0  0  0  0  0  0  0  0  0  0  0
   -0.3950   -2.1873   -0.2183 H   0  0  0  0  0  0  0  0  0  0  0  0
    0.3092   -0.0956    0.7873 H   0  0  0  0  0  0  0  0  0  0  0  0
    2.6428   -0.0376   -1.0899 H   0  0  0  0  0  0  0  0  0  0  0  0
    2.8885   -1.1229    1.2932 H   0  0  0  0  0  0  0  0  0  0  0  0
    2.4777    0.4368    1.9339 H   0  0  0  0  0  0  0  0  0  0  0  0
    1.3758    2.2233    0.5660 H   0  0  0  0  0  0  0  0  0  0  0  0
    2.9669    2.3283   -0.2109 H   0  0  0  0  0  0  0  0  0  0  0  0
    1.5378    2.1838   -1.2007 H   0  0  0  0  0  0  0  0  0  0  0  0
    4.8566   -0.0435    0.0776 H   0  0  0  0  0  0  0  0  0  0  0  0
    4.9442   -0.0522    1.8500 H   0  0  0  0  0  0  0  0  0  0  0  0
    4.5182    1.4387    1.0029 H   0  0  0  0  0  0  0  0  0  0  0  0
   -1.7151   -0.1431   -0.8880 N   0  0  0  0  0  0  0  0  0  0  0  0
   -2.8658    0.2272   -1.7182 C   0  0  2  0  0  0  0  0  0  0  0  0
   -4.1255    0.4926   -0.8658 C   0  0  0  0  0  0  0  0  0  0  0  0
   -4.1581    0.1741    0.3186 O   0  0  0  0  0  0  0  0  0  0  0  0
   -3.1132   -0.9115   -2.7117 C   0  0  0  0  0  0  0  0  0  0  0  0
   -1.9166   -0.6549   -0.0289 H   0  0  0  0  0  0  0  0  0  0  0  0
   -2.6453    1.1474   -2.2692 H   0  0  0  0  0  0  0  0  0  0  0  0
   -3.3336   -1.8421   -2.1783 H   0  0  0  0  0  0  0  0  0  0  0  0
   -3.9567   -0.6756   -3.3671 H   0  0  0  0  0  0  0  0  0  0  0  0
   -2.2265   -1.0688   -3.3342 H   0  0  0  0  0  0  0  0  0  0  0  0
   -5.2282    1.1117   -1.4264 N   0  0  0  0  0  0  0  0  0  0  0  0
   -6.4351    1.4338   -0.6744 C   0  0  0  0  0  0  0  0  0  0  0  0
   -5.1663    1.3883   -2.4019 H   0  0  0  0  0  0  0  0  0  0  0  0
   -6.8761    0.5265   -0.2482 H   0  0  0  0  0  0  0  0  0  0  0  0
   -6.2046    2.1294    0.1393 H   0  0  0  0  0  0  0  0  0  0  0  0
   -7.1758    1.9014   -1.3301 H   0  0  0  0  0  0  0  0  0  0  0  0
  1  2  2  0  0  0  0
  1  3  1  0  0  0  0
  1  7  1  0  0  0  0
  3  4  1  0  0  0  0
  3  5  1  0  0  0  0
  3  6  1  0  0  0  0
  7  8  1  0  0  0  0
  7 12  1  0  0  0  0
  8  9  1  0  0  0  0
  8 11  1  0  0  0  0
  8 13  1  0  0  0  0
  9 10  2  0  0  0  0
  9 17  1  0  0  0  0
 11 14  1  0  0  0  0
 11 15  1  0  0  0  0
 11 16  1  0  0  0  0
 17 18  1  0  0  0  0
 17 25  1  0  0  0  0
 18 19  1  0  0  0  0
 18 21  1  0  0  0  0
 18 26  1  0  0  0  0
 19 20  2  0  0  0  0
 19 36  1  0  0  0  0
 21 22  1  0  0  0  0
 21 23  1  0  0  0  0
 21 27  1  0  0  0  0
 22 24  1  0  0  0  0
 22 28  1  0  0  0  0
 22 29  1  0  0  0  0
 23 30  1  0  0  0  0
 23 31  1  0  0  0  0
 23 32  1  0  0  0  0
 24 33  1  0  0  0  0
 24 34  1  0  0  0  0
 24 35  1  0  0  0  0
 36 37  1  0  0  0  0
 36 41  1  0  0  0  0
 37 38  1  0  0  0  0
 37 40  1  0  0  0  0
 37 42  1  0  0  0  0
 38 39  2  0  0  0  0
 38 46  1  0  0  0  0
 40 43  1  0  0  0  0
 40 44  1  0  0  0  0
 40 45  1  0  0  0  0
 46 47  1  0  0  0  0
 46 48  1  0  0  0  0
 47 49  1  0  0  0  0
 47 50  1  0  0  0  0
 47 51  1  0  0  0  0
M  END
$$$$

  -OEChem-05262216503D

 51 50  0     1  0  0  0  0  0999 V2000
   -1.1490   -4.0051    1.5567 C   0  0  0  0  0  0  0  0  0  0  0  0
   -1.6981   -3.3269    0.7018 O   0  0  0  0  0  0  0  0  0  0  0  0
   -1.8780   -4.3090    2.8521 C   0  0  0  0  0  0  0  0  0  0  0  0
   -1.2914   -3.9579    3.7048 H   0  0  0  0  0  0  0  0  0  0  0  0
   -2.8505   -3.8082    2.8656 H   0  0  0  0  0  0  0  0  0  0  0  0
   -2.0371   -5.3860    2.9464 H   0  0  0  0  0  0  0  0  0  0  0  0
    0.1439   -4.4659    1.3826 N   0  0  0  0  0  0  0  0  0  0  0  0
    0.9891   -4.3383    0.1741 C   0  0  2  0  0  0  0  0  0  0  0  0
    1.4335   -2.8983   -0.1735 C   0  0  0  0  0  0  0  0  0  0  0  0
    2.5998   -2.7173   -0.4883 O   0  0  0  0  0  0  0  0  0  0  0  0
    0.3218   -5.0071   -1.0361 C   0  0  0  0  0  0  0  0  0  0  0  0
    0.5269   -4.9987    2.1588 H   0  0  0  0  0  0  0  0  0  0  0  0
    1.9121   -4.8926    0.3740 H   0  0  0  0  0  0  0  0  0  0  0  0
   -0.5696   -4.4577   -1.3532 H   0  0  0  0  0  0  0  0  0  0  0  0
    1.0208   -5.0356   -1.8784 H   0  0  0  0  0  0  0  0  0  0  0  0
    0.0313   -6.0335   -0.7928 H   0  0  0  0  0  0  0  0  0  0  0  0
    0.4789   -1.9094   -0.3183 N   0  0  0  0  0  0  0  0  0  0  0  0
    0.5420   -0.4290   -0.2592 C   0  0  2  0  0  0  0  0  0  0  0  0
   -0.5595    0.0939   -1.2097 C   0  0  0  0  0  0  0  0  0  0  0  0
   -0.3190    0.4751   -2.3487 O   0  0  0  0  0  0  0  0  0  0  0  0
    1.9156    0.3195   -0.2808 C   0  0  2  0  0  0  0  0  0  0  0  0
    2.7898   -0.0165    0.9644 C   0  0  0  0  0  0  0  0  0  0  0  0
    1.7140    1.8520   -0.3348 C   0  0  0  0  0  0  0  0  0  0  0  0
    4.2351    0.4793    0.8443 C   0  0  0  0  0  0  0  0  0  0  0  0
   -0.4625   -2.2911   -0.1887 H   0  0  0  0  0  0  0  0  0  0  0  0
    0.1617   -0.1831    0.7364 H   0  0  0  0  0  0  0  0  0  0  0  0
    2.4485    0.0059   -1.1854 H   0  0  0  0  0  0  0  0  0  0  0  0
    2.8161   -1.0806    1.1782 H   0  0  0  0  0  0  0  0  0  0  0  0
    2.3377    0.4502    1.8452 H   0  0  0  0  0  0  0  0  0  0  0  0
    1.1547    2.1970    0.5404 H   0  0  0  0  0  0  0  0  0  0  0  0
    2.6725    2.3748   -0.3625 H   0  0  0  0  0  0  0  0  0  0  0  0
    1.1723    2.1550   -1.2336 H   0  0  0  0  0  0  0  0  0  0  0  0
    4.6848    0.1165   -0.0852 H   0  0  0  0  0  0  0  0  0  0  0  0
    4.8263    0.1007    1.6834 H   0  0  0  0  0  0  0  0  0  0  0  0
    4.2890    1.5706    0.8616 H   0  0  0  0  0  0  0  0  0  0  0  0
   -1.8789    0.0213   -0.8026 N   0  0  0  0  0  0  0  0  0  0  0  0
   -3.0303    0.4808   -1.5873 C   0  0  2  0  0  0  0  0  0  0  0  0
   -4.0755    1.1948   -0.7055 C   0  0  0  0  0  0  0  0  0  0  0  0
   -4.0710    1.0409    0.5115 O   0  0  0  0  0  0  0  0  0  0  0  0
   -3.6440   -0.7423   -2.2732 C   0  0  0  0  0  0  0  0  0  0  0  0
   -2.0626   -0.2749    0.1549 H   0  0  0  0  0  0  0  0  0  0  0  0
   -2.7055    1.1965   -2.3498 H   0  0  0  0  0  0  0  0  0  0  0  0
   -3.9685   -1.4761   -1.5279 H   0  0  0  0  0  0  0  0  0  0  0  0
   -4.5087   -0.4524   -2.8774 H   0  0  0  0  0  0  0  0  0  0  0  0
   -2.9065   -1.2156   -2.9295 H   0  0  0  0  0  0  0  0  0  0  0  0
   -5.0234    2.0218   -1.2800 N   0  0  0  0  0  0  0  0  0  0  0  0
   -6.0135    2.7620   -0.5077 C   0  0  0  0  0  0  0  0  0  0  0  0
   -4.9783    2.1607   -2.2854 H   0  0  0  0  0  0  0  0  0  0  0  0
   -6.6229    2.0768    0.0910 H   0  0  0  0  0  0  0  0  0  0  0  0
   -5.5214    3.4744    0.1629 H   0  0  0  0  0  0  0  0  0  0  0  0
   -6.6774    3.3175   -1.1770 H   0  0  0  0  0  0  0  0  0  0  0  0
  1  2  2  0  0  0  0
  1  3  1  0  0  0  0
  1  7  1  0  0  0  0
  3  4  1  0  0  0  0
  3  5  1  0  0  0  0
  3  6  1  0  0  0  0
  7  8  1  0  0  0  0
  7 12  1  0  0  0  0
  8  9  1  0  0  0  0
  8 11  1  0  0  0  0
  8 13  1  0  0  0  0
  9 10  2  0  0  0  0
  9 17  1  0  0  0  0
 11 14  1  0  0  0  0
 11 15  1  0  0  0  0
 11 16  1  0  0  0  0
 17 18  1  0  0  0  0
 17 25  1  0  0  0  0
 18 19  1  0  0  0  0
 18 21  1  0  0  0  0
 18 26  1  0  0  0  0
 19 20  2  0  0  0  0
 19 36  1  0  0  0  0
 21 22  1  0  0  0  0
 21 23  1  0  0  0  0
 21 27  1  0  0  0  0
 22 24  1  0  0  0  0
 22 28  1  0  0  0  0
 22 29  1  0  0  0  0
 23 30  1  0  0  0  0
 23 31  1  0  0  0  0
 23 32  1  0  0  0  0
 24 33  1  0  0  0  0
 24 34  1  0  0  0  0
 24 35  1  0  0  0  0
 36 37  1  0  0  0  0
 36 41  1  0  0  0  0
 37 38  1  0  0  0  0
 37 40  1  0  0  0  0
 37 42  1  0  0  0  0
 38 39  2  0  0  0  0
 38 46  1  0  0  0  0
 40 43  1  0  0  0  0
 40 44  1  0  0  0  0
 40 45  1  0  0  0  0
 46 47  1  0  0  0  0
 46 48  1  0  0  0  0
 47 49  1  0  0  0  0
 47 50  1  0  0  0  0
 47 51  1  0  0  0  0
M  END
$$$$

  -OEChem-05262216503D

 51 50  0     1  0  0  0  0  0999 V2000
   -1.2429   -3.8669    1.7899 C   0  0  0  0  0  0  0  0  0  0  0  0
   -1.7913   -3.1909    0.9336 O   0  0  0  0  0  0  0  0  0  0  0  0
   -1.9465   -4.1161    3.1109 C   0  0  0  0  0  0  0  0  0  0  0  0
   -1.3481   -3.7202    3.9352 H   0  0  0  0  0  0  0  0  0  0  0  0
   -2.9231   -3.6233    3.1179 H   0  0  0  0  0  0  0  0  0  0  0  0
   -2.0946   -5.1888    3.2590 H   0  0  0  0  0  0  0  0  0  0  0  0
    0.0246   -4.3828    1.5884 N   0  0  0  0  0  0  0  0  0  0  0  0
    0.8215   -4.3424    0.3420 C   0  0  2  0  0  0  0  0  0  0  0  0
    1.3179   -2.9424   -0.0885 C   0  0  0  0  0  0  0  0  0  0  0  0
    2.4727   -2.8422   -0.4737 O   0  0  0  0  0  0  0  0  0  0  0  0
    0.0728   -5.0262   -0.8109 C   0  0  0  0  0  0  0  0  0  0  0  0
    0.4083   -4.9161    2.3640 H   0  0  0  0  0  0  0  0  0  0  0  0
    1.7253   -4.9322    0.5274 H   0  0  0  0  0  0  0  0  0  0  0  0
   -0.8059   -4.4490   -1.1134 H   0  0  0  0  0  0  0  0  0  0  0  0
    0.7314   -5.1196   -1.6803 H   0  0  0  0  0  0  0  0  0  0  0  0
   -0.2523   -6.0277   -0.5140 H   0  0  0  0  0  0  0  0  0  0  0  0
    0.4089   -1.9118   -0.2397 N   0  0  0  0  0  0  0  0  0  0  0  0
    0.5560   -0.4369   -0.2918 C   0  0  2  0  0  0  0  0  0  0  0  0
   -0.5704    0.1117   -1.1971 C   0  0  0  0  0  0  0  0  0  0  0  0
   -0.4336    0.2126   -2.4103 O   0  0  0  0  0  0  0  0  0  0  0  0
    1.9607    0.2290   -0.4582 C   0  0  2  0  0  0  0  0  0  0  0  0
    2.9072   -0.0636    0.7437 C   0  0  0  0  0  0  0  0  0  0  0  0
    1.8314    1.7586   -0.6383 C   0  0  0  0  0  0  0  0  0  0  0  0
    4.3619    0.3433    0.4850 C   0  0  0  0  0  0  0  0  0  0  0  0
   -0.5435   -2.2310   -0.0393 H   0  0  0  0  0  0  0  0  0  0  0  0
    0.2663   -0.1097    0.7107 H   0  0  0  0  0  0  0  0  0  0  0  0
    2.4114   -0.1864   -1.3663 H   0  0  0  0  0  0  0  0  0  0  0  0
    2.8963   -1.1084    1.0388 H   0  0  0  0  0  0  0  0  0  0  0  0
    2.5454    0.4923    1.6145 H   0  0  0  0  0  0  0  0  0  0  0  0
    1.3536    2.2101    0.2365 H   0  0  0  0  0  0  0  0  0  0  0  0
    2.8098    2.2234   -0.7780 H   0  0  0  0  0  0  0  0  0  0  0  0
    1.2414    2.0060   -1.5246 H   0  0  0  0  0  0  0  0  0  0  0  0
    4.7282   -0.1230   -0.4350 H   0  0  0  0  0  0  0  0  0  0  0  0
    4.9917    0.0089    1.3147 H   0  0  0  0  0  0  0  0  0  0  0  0
    4.4680    1.4275    0.3988 H   0  0  0  0  0  0  0  0  0  0  0  0
   -1.7861    0.4592   -0.6381 N   0  0  0  0  0  0  0  0  0  0  0  0
   -2.9327    0.9963   -1.3798 C   0  0  2  0  0  0  0  0  0  0  0  0
   -3.8228    1.8817   -0.4824 C   0  0  0  0  0  0  0  0  0  0  0  0
   -3.6564    1.8954    0.7331 O   0  0  0  0  0  0  0  0  0  0  0  0
   -3.7360   -0.1814   -1.9418 C   0  0  0  0  0  0  0  0  0  0  0  0
   -1.8777    0.4081    0.3756 H   0  0  0  0  0  0  0  0  0  0  0  0
   -2.5760    1.6199   -2.2064 H   0  0  0  0  0  0  0  0  0  0  0  0
   -4.1007   -0.8175   -1.1288 H   0  0  0  0  0  0  0  0  0  0  0  0
   -4.5945    0.1765   -2.5175 H   0  0  0  0  0  0  0  0  0  0  0  0
   -3.1085   -0.7880   -2.6027 H   0  0  0  0  0  0  0  0  0  0  0  0
   -4.8092    2.6758   -1.0382 N   0  0  0  0  0  0  0  0  0  0  0  0
   -5.6762    3.5437   -0.2506 C   0  0  0  0  0  0  0  0  0  0  0  0
   -4.9197    2.6525   -2.0478 H   0  0  0  0  0  0  0  0  0  0  0  0
   -6.2335    2.9591    0.4890 H   0  0  0  0  0  0  0  0  0  0  0  0
   -5.0850    4.3024    0.2729 H   0  0  0  0  0  0  0  0  0  0  0  0
   -6.3947    4.0527   -0.9004 H   0  0  0  0  0  0  0  0  0  0  0  0
  1  2  2  0  0  0  0
  1  3  1  0  0  0  0
  1  7  1  0  0  0  0
  3  4  1  0  0  0  0
  3  5  1  0  0  0  0
  3  6  1  0  0  0  0
  7  8  1  0  0  0  0
  7 12  1  0  0  0  0
  8  9  1  0  0  0  0
  8 11  1  0  0  0  0
  8 13  1  0  0  0  0
  9 10  2  0  0  0  0
  9 17  1  0  0  0  0
 11 14  1  0  0  0  0
 11 15  1  0  0  0  0
 11 16  1  0  0  0  0
 17 18  1  0  0  0  0
 17 25  1  0  0  0  0
 18 19  1  0  0  0  0
 18 21  1  0  0  0  0
 18 26  1  0  0  0  0
 19 20  2  0  0  0  0
 19 36  1  0  0  0  0
 21 22  1  0  0  0  0
 21 23  1  0  0  0  0
 21 27  1  0  0  0  0
 22 24  1  0  0  0  0
 22 28  1  0  0  0  0
 22 29  1  0  0  0  0
 23 30  1  0  0  0  0
 23 31  1  0  0  0  0
 23 32  1  0  0  0  0
 24 33  1  0  0  0  0
 24 34  1  0  0  0  0
 24 35  1  0  0  0  0
 36 37  1  0  0  0  0
 36 41  1  0  0  0  0
 37 38  1  0  0  0  0
 37 40  1  0  0  0  0
 37 42  1  0  0  0  0
 38 39  2  0  0  0  0
 38 46  1  0  0  0  0
 40 43  1  0  0  0  0
 40 44  1  0  0  0  0
 40 45  1  0  0  0  0
 46 47  1  0  0  0  0
 46 48  1  0  0  0  0
 47 49  1  0  0  0  0
 47 50  1  0  0  0  0
 47 51  1  0  0  0  0
M  END
$$$$

  -OEChem-05262216503D

 51 50  0     1  0  0  0  0  0999 V2000
   -0.9312   -4.1432    1.9507 C   0  0  0  0  0  0  0  0  0  0  0  0
   -1.6141   -3.4784    1.1878 O   0  0  0  0  0  0  0  0  0  0  0  0
   -1.4689   -4.4863    3.3271 C   0  0  0  0  0  0  0  0  0  0  0  0
   -0.7582   -4.1751    4.0965 H   0  0  0  0  0  0  0  0  0  0  0  0
   -2.4195   -3.9735    3.5003 H   0  0  0  0  0  0  0  0  0  0  0  0
   -1.6322   -5.5640    3.4056 H   0  0  0  0  0  0  0  0  0  0  0  0
    0.3355   -4.5659    1.5915 N   0  0  0  0  0  0  0  0  0  0  0  0
    0.9911   -4.4078    0.2751 C   0  0  2  0  0  0  0  0  0  0  0  0
    1.3327   -2.9528   -0.1252 C   0  0  0  0  0  0  0  0  0  0  0  0
    2.4596   -2.7269   -0.5389 O   0  0  0  0  0  0  0  0  0  0  0  0
    0.1768   -5.0987   -0.8284 C   0  0  0  0  0  0  0  0  0  0  0  0
    0.8371   -5.0988    2.2964 H   0  0  0  0  0  0  0  0  0  0  0  0
    1.9507   -4.9324    0.3352 H   0  0  0  0  0  0  0  0  0  0  0  0
   -0.7722   -4.5844   -1.0063 H   0  0  0  0  0  0  0  0  0  0  0  0
    0.7426   -5.0991   -1.7655 H   0  0  0  0  0  0  0  0  0  0  0  0
   -0.0358   -6.1356   -0.5528 H   0  0  0  0  0  0  0  0  0  0  0  0
    0.3213   -2.0141   -0.2146 N   0  0  0  0  0  0  0  0  0  0  0  0
    0.3236   -0.5312   -0.2452 C   0  0  2  0  0  0  0  0  0  0  0  0
   -0.8842   -0.0535   -1.0825 C   0  0  0  0  0  0  0  0  0  0  0  0
   -0.8798   -0.1348   -2.3044 O   0  0  0  0  0  0  0  0  0  0  0  0
    1.6432    0.2802   -0.4533 C   0  0  2  0  0  0  0  0  0  0  0  0
    2.6644    0.0726    0.7027 C   0  0  0  0  0  0  0  0  0  0  0  0
    1.3467    1.7882   -0.6151 C   0  0  0  0  0  0  0  0  0  0  0  0
    4.0563    0.6347    0.3938 C   0  0  0  0  0  0  0  0  0  0  0  0
   -0.5823   -2.4248    0.0387 H   0  0  0  0  0  0  0  0  0  0  0  0
    0.0518   -0.2625    0.7793 H   0  0  0  0  0  0  0  0  0  0  0  0
    2.0985   -0.0781   -1.3832 H   0  0  0  0  0  0  0  0  0  0  0  0
    2.7749   -0.9721    0.9770 H   0  0  0  0  0  0  0  0  0  0  0  0
    2.2824    0.5748    1.5968 H   0  0  0  0  0  0  0  0  0  0  0  0
    0.8428    2.1798    0.2742 H   0  0  0  0  0  0  0  0  0  0  0  0
    2.2654    2.3574   -0.7723 H   0  0  0  0  0  0  0  0  0  0  0  0
    0.7127    1.9737   -1.4868 H   0  0  0  0  0  0  0  0  0  0  0  0
    4.4317    0.2247   -0.5490 H   0  0  0  0  0  0  0  0  0  0  0  0
    4.7520    0.3573    1.1913 H   0  0  0  0  0  0  0  0  0  0  0  0
    4.0429    1.7253    0.3252 H   0  0  0  0  0  0  0  0  0  0  0  0
   -1.9942    0.4757   -0.4493 N   0  0  0  0  0  0  0  0  0  0  0  0
   -3.0900    1.1688   -1.1392 C   0  0  2  0  0  0  0  0  0  0  0  0
   -3.3104    2.5816   -0.5611 C   0  0  0  0  0  0  0  0  0  0  0  0
   -2.9039    2.8570    0.5632 O   0  0  0  0  0  0  0  0  0  0  0  0
   -4.3522    0.3178   -0.9845 C   0  0  0  0  0  0  0  0  0  0  0  0
   -1.8948    0.6768    0.5439 H   0  0  0  0  0  0  0  0  0  0  0  0
   -2.8671    1.2815   -2.2052 H   0  0  0  0  0  0  0  0  0  0  0  0
   -4.6162    0.2112    0.0725 H   0  0  0  0  0  0  0  0  0  0  0  0
   -5.1937    0.7800   -1.5091 H   0  0  0  0  0  0  0  0  0  0  0  0
   -4.1885   -0.6796   -1.4048 H   0  0  0  0  0  0  0  0  0  0  0  0
   -3.9729    3.5449   -1.2993 N   0  0  0  0  0  0  0  0  0  0  0  0
   -4.1909    4.9063   -0.8256 C   0  0  0  0  0  0  0  0  0  0  0  0
   -4.2631    3.2982   -2.2413 H   0  0  0  0  0  0  0  0  0  0  0  0
   -4.7836    4.9017    0.0952 H   0  0  0  0  0  0  0  0  0  0  0  0
   -3.2345    5.4011   -0.6266 H   0  0  0  0  0  0  0  0  0  0  0  0
   -4.7301    5.4876   -1.5796 H   0  0  0  0  0  0  0  0  0  0  0  0
  1  2  2  0  0  0  0
  1  3  1  0  0  0  0
  1  7  1  0  0  0  0
  3  4  1  0  0  0  0
  3  5  1  0  0  0  0
  3  6  1  0  0  0  0
  7  8  1  0  0  0  0
  7 12  1  0  0  0  0
  8  9  1  0  0  0  0
  8 11  1  0  0  0  0
  8 13  1  0  0  0  0
  9 10  2  0  0  0  0
  9 17  1  0  0  0  0
 11 14  1  0  0  0  0
 11 15  1  0  0  0  0
 11 16  1  0  0  0  0
 17 18  1  0  0  0  0
 17 25  1  0  0  0  0
 18 19  1  0  0  0  0
 18 21  1  0  0  0  0
 18 26  1  0  0  0  0
 19 20  2  0  0  0  0
 19 36  1  0  0  0  0
 21 22  1  0  0  0  0
 21 23  1  0  0  0  0
 21 27  1  0  0  0  0
 22 24  1  0  0  0  0
 22 28  1  0  0  0  0
 22 29  1  0  0  0  0
 23 30  1  0  0  0  0
 23 31  1  0  0  0  0
 23 32  1  0  0  0  0
 24 33  1  0  0  0  0
 24 34  1  0  0  0  0
 24 35  1  0  0  0  0
 36 37  1  0  0  0  0
 36 41  1  0  0  0  0
 37 38  1  0  0  0  0
 37 40  1  0  0  0  0
 37 42  1  0  0  0  0
 38 39  2  0  0  0  0
 38 46  1  0  0  0  0
 40 43  1  0  0  0  0
 40 44  1  0  0  0  0
 40 45  1  0  0  0  0
 46 47  1  0  0  0  0
 46 48  1  0  0  0  0
 47 49  1  0  0  0  0
 47 50  1  0  0  0  0
 47 51  1  0  0  0  0
M  END
$$$$

  -OEChem-05262216503D

 51 50  0     1  0  0  0  0  0999 V2000
   -0.8273   -4.0140    2.1487 C   0  0  0  0  0  0  0  0  0  0  0  0
   -1.5686   -3.3670    1.4259 O   0  0  0  0  0  0  0  0  0  0  0  0
   -1.2203   -4.2600    3.5934 C   0  0  0  0  0  0  0  0  0  0  0  0
   -0.4702   -3.8327    4.2635 H   0  0  0  0  0  0  0  0  0  0  0  0
   -2.1873   -3.7951    3.8065 H   0  0  0  0  0  0  0  0  0  0  0  0
   -1.2987   -5.3336    3.7818 H   0  0  0  0  0  0  0  0  0  0  0  0
    0.3817   -4.4969    1.6823 N   0  0  0  0  0  0  0  0  0  0  0  0
    0.9083   -4.4034    0.3035 C   0  0  2  0  0  0  0  0  0  0  0  0
    1.2540   -2.9719   -0.1687 C   0  0  0  0  0  0  0  0  0  0  0  0
    2.3553   -2.7842   -0.6637 O   0  0  0  0  0  0  0  0  0  0  0  0
   -0.0316   -5.0953   -0.6947 C   0  0  0  0  0  0  0  0  0  0  0  0
    0.9479   -4.9985    2.3608 H   0  0  0  0  0  0  0  0  0  0  0  0
    1.8517   -4.9594    0.2861 H   0  0  0  0  0  0  0  0  0  0  0  0
   -0.9753   -4.5519   -0.7986 H   0  0  0  0  0  0  0  0  0  0  0  0
    0.4413   -5.1429   -1.6809 H   0  0  0  0  0  0  0  0  0  0  0  0
   -0.2516   -6.1154   -0.3667 H   0  0  0  0  0  0  0  0  0  0  0  0
    0.2640   -2.0076   -0.2070 N   0  0  0  0  0  0  0  0  0  0  0  0
    0.3098   -0.5261   -0.2465 C   0  0  2  0  0  0  0  0  0  0  0  0
   -0.9221    0.0019   -1.0154 C   0  0  0  0  0  0  0  0  0  0  0  0
   -1.1153   -0.2916   -2.1885 O   0  0  0  0  0  0  0  0  0  0  0  0
    1.6447    0.2352   -0.5300 C   0  0  2  0  0  0  0  0  0  0  0  0
    2.7171   -0.0039    0.5726 C   0  0  0  0  0  0  0  0  0  0  0  0
    1.3999    1.7515   -0.6967 C   0  0  0  0  0  0  0  0  0  0  0  0
    4.1097    0.5048    0.1859 C   0  0  0  0  0  0  0  0  0  0  0  0
   -0.6312   -2.3879    0.1145 H   0  0  0  0  0  0  0  0  0  0  0  0
    0.1018   -0.2496    0.7910 H   0  0  0  0  0  0  0  0  0  0  0  0
    2.0362   -0.1482   -1.4788 H   0  0  0  0  0  0  0  0  0  0  0  0
    2.8032   -1.0502    0.8501 H   0  0  0  0  0  0  0  0  0  0  0  0
    2.4026    0.5187    1.4813 H   0  0  0  0  0  0  0  0  0  0  0  0
    0.9614    2.1741    0.2129 H   0  0  0  0  0  0  0  0  0  0  0  0
    2.3308    2.2808   -0.9112 H   0  0  0  0  0  0  0  0  0  0  0  0
    0.7276    1.9517   -1.5363 H   0  0  0  0  0  0  0  0  0  0  0  0
    4.4162    0.0783   -0.7743 H   0  0  0  0  0  0  0  0  0  0  0  0
    4.8372    0.2024    0.9451 H   0  0  0  0  0  0  0  0  0  0  0  0
    4.1344    1.5950    0.1135 H   0  0  0  0  0  0  0  0  0  0  0  0
   -1.8200    0.8407   -0.3816 N   0  0  0  0  0  0  0  0  0  0  0  0
   -2.8590    1.6116   -1.0741 C   0  0  2  0  0  0  0  0  0  0  0  0
   -2.9029    3.0639   -0.5574 C   0  0  0  0  0  0  0  0  0  0  0  0
   -2.3420    3.3600    0.4932 O   0  0  0  0  0  0  0  0  0  0  0  0
   -4.2006    0.9107   -0.8503 C   0  0  0  0  0  0  0  0  0  0  0  0
   -1.5474    1.1888    0.5365 H   0  0  0  0  0  0  0  0  0  0  0  0
   -2.6502    1.6542   -2.1484 H   0  0  0  0  0  0  0  0  0  0  0  0
   -4.4369    0.8672    0.2177 H   0  0  0  0  0  0  0  0  0  0  0  0
   -5.0046    1.4457   -1.3643 H   0  0  0  0  0  0  0  0  0  0  0  0
   -4.1607   -0.1114   -1.2405 H   0  0  0  0  0  0  0  0  0  0  0  0
   -3.5579    4.0459   -1.2765 N   0  0  0  0  0  0  0  0  0  0  0  0
   -3.6044    5.4423   -0.8606 C   0  0  0  0  0  0  0  0  0  0  0  0
   -3.9765    3.7805   -2.1635 H   0  0  0  0  0  0  0  0  0  0  0  0
   -4.0601    5.5315    0.1312 H   0  0  0  0  0  0  0  0  0  0  0  0
   -2.5946    5.8644   -0.8234 H   0  0  0  0  0  0  0  0  0  0  0  0
   -4.1994    6.0285   -1.5672 H   0  0  0  0  0  0  0  0  0  0  0  0
  1  2  2  0  0  0  0
  1  3  1  0  0  0  0
  1  7  1  0  0  0  0
  3  4  1  0  0  0  0
  3  5  1  0  0  0  0
  3  6  1  0  0  0  0
  7  8  1  0  0  0  0
  7 12  1  0  0  0  0
  8  9  1  0  0  0  0
  8 11  1  0  0  0  0
  8 13  1  0  0  0  0
  9 10  2  0  0  0  0
  9 17  1  0  0  0  0
 11 14  1  0  0  0  0
 11 15  1  0  0  0  0
 11 16  1  0  0  0  0
 17 18  1  0  0  0  0
 17 25  1  0  0  0  0
 18 19  1  0  0  0  0
 18 21  1  0  0  0  0
 18 26  1  0  0  0  0
 19 20  2  0  0  0  0
 19 36  1  0  0  0  0
 21 22  1  0  0  0  0
 21 23  1  0  0  0  0
 21 27  1  0  0  0  0
 22 24  1  0  0  0  0
 22 28  1  0  0  0  0
 22 29  1  0  0  0  0
 23 30  1  0  0  0  0
 23 31  1  0  0  0  0
 23 32  1  0  0  0  0
 24 33  1  0  0  0  0
 24 34  1  0  0  0  0
 24 35  1  0  0  0  0
 36 37  1  0  0  0  0
 36 41  1  0  0  0  0
 37 38  1  0  0  0  0
 37 40  1  0  0  0  0
 37 42  1  0  0  0  0
 38 39  2  0  0  0  0
 38 46  1  0  0  0  0
 40 43  1  0  0  0  0
 40 44  1  0  0  0  0
 40 45  1  0  0  0  0
 46 47  1  0  0  0  0
 46 48  1  0  0  0  0
 47 49  1  0  0  0  0
 47 50  1  0  0  0  0
 47 51  1  0  0  0  0
M  END
$$$$

  -OEChem-05262216503D

 51 50  0     1  0  0  0  0  0999 V2000
    1.8657   -4.5980    2.2139 C   0  0  0  0  0  0  0  0  0  0  0  0
    1.7615   -3.6784    3.0080 O   0  0  0  0  0  0  0  0  0  0  0  0
    3.0961   -5.4842    2.2723 C   0  0  0  0  0  0  0  0  0  0  0  0
    3.6242   -5.4521    1.3160 H   0  0  0  0  0  0  0  0  0  0  0  0
    3.7737   -5.1397    3.0586 H   0  0  0  0  0  0  0  0  0  0  0  0
    2.8044   -6.5152    2.4859 H   0  0  0  0  0  0  0  0  0  0  0  0
    0.9036   -4.8652    1.2571 N   0  0  0  0  0  0  0  0  0  0  0  0
   -0.2083   -3.9878    0.8330 C   0  0  2  0  0  0  0  0  0  0  0  0
    0.2170   -2.9841   -0.2694 C   0  0  0  0  0  0  0  0  0  0  0  0
    0.9588   -3.3745   -1.1582 O   0  0  0  0  0  0  0  0  0  0  0  0
   -0.9811   -3.3455    1.9983 C   0  0  0  0  0  0  0  0  0  0  0  0
    1.1926   -5.5561    0.5694 H   0  0  0  0  0  0  0  0  0  0  0  0
   -0.9337   -4.6449    0.3443 H   0  0  0  0  0  0  0  0  0  0  0  0
   -0.4166   -2.5303    2.4550 H   0  0  0  0  0  0  0  0  0  0  0  0
   -1.9332   -2.9402    1.6427 H   0  0  0  0  0  0  0  0  0  0  0  0
   -1.1923   -4.0940    2.7680 H   0  0  0  0  0  0  0  0  0  0  0  0
   -0.6008   -1.9478   -0.6466 N   0  0  0  0  0  0  0  0  0  0  0  0
   -0.5531   -0.5513   -0.1503 C   0  0  2  0  0  0  0  0  0  0  0  0
   -1.0663    0.3086   -1.3318 C   0  0  0  0  0  0  0  0  0  0  0  0
   -0.7347    0.0474   -2.4828 O   0  0  0  0  0  0  0  0  0  0  0  0
    0.8377    0.0401    0.2968 C   0  0  2  0  0  0  0  0  0  0  0  0
    1.4984   -0.6692    1.5072 C   0  0  0  0  0  0  0  0  0  0  0  0
    0.7133    1.5479    0.6289 C   0  0  0  0  0  0  0  0  0  0  0  0
    2.9542   -0.2560    1.7559 C   0  0  0  0  0  0  0  0  0  0  0  0
   -0.5787   -1.9262   -1.6700 H   0  0  0  0  0  0  0  0  0  0  0  0
   -1.2519   -0.4598    0.6864 H   0  0  0  0  0  0  0  0  0  0  0  0
    1.5189   -0.0660   -0.5556 H   0  0  0  0  0  0  0  0  0  0  0  0
    1.5332   -1.7392    1.3451 H   0  0  0  0  0  0  0  0  0  0  0  0
    0.9083   -0.4904    2.4116 H   0  0  0  0  0  0  0  0  0  0  0  0
   -0.0314    1.7077    1.4151 H   0  0  0  0  0  0  0  0  0  0  0  0
    1.6643    1.9637    0.9674 H   0  0  0  0  0  0  0  0  0  0  0  0
    0.4265    2.1303   -0.2506 H   0  0  0  0  0  0  0  0  0  0  0  0
    3.5359   -0.3211    0.8313 H   0  0  0  0  0  0  0  0  0  0  0  0
    3.4040   -0.9280    2.4937 H   0  0  0  0  0  0  0  0  0  0  0  0
    3.0225    0.7619    2.1485 H   0  0  0  0  0  0  0  0  0  0  0  0
   -1.9840    1.3190   -1.1150 N   0  0  0  0  0  0  0  0  0  0  0  0
   -2.4026    2.2868   -2.1367 C   0  0  2  0  0  0  0  0  0  0  0  0
   -2.5661    3.6965   -1.5314 C   0  0  0  0  0  0  0  0  0  0  0  0
   -2.5548    3.8451   -0.3137 O   0  0  0  0  0  0  0  0  0  0  0  0
   -3.7173    1.7972   -2.7501 C   0  0  0  0  0  0  0  0  0  0  0  0
   -2.1423    1.5979   -0.1468 H   0  0  0  0  0  0  0  0  0  0  0  0
   -1.6429    2.3573   -2.9225 H   0  0  0  0  0  0  0  0  0  0  0  0
   -4.4986    1.7379   -1.9855 H   0  0  0  0  0  0  0  0  0  0  0  0
   -4.0517    2.4770   -3.5396 H   0  0  0  0  0  0  0  0  0  0  0  0
   -3.5814    0.8028   -3.1875 H   0  0  0  0  0  0  0  0  0  0  0  0
   -2.7019    4.8026   -2.3495 N   0  0  0  0  0  0  0  0  0  0  0  0
   -2.8324    6.1630   -1.8417 C   0  0  0  0  0  0  0  0  0  0  0  0
   -2.6754    4.6526   -3.3540 H   0  0  0  0  0  0  0  0  0  0  0  0
   -3.7308    6.2570   -1.2226 H   0  0  0  0  0  0  0  0  0  0  0  0
   -1.9590    6.4336   -1.2391 H   0  0  0  0  0  0  0  0  0  0  0  0
   -2.9105    6.8705   -2.6728 H   0  0  0  0  0  0  0  0  0  0  0  0
  1  2  2  0  0  0  0
  1  3  1  0  0  0  0
  1  7  1  0  0  0  0
  3  4  1  0  0  0  0
  3  5  1  0  0  0  0
  3  6  1  0  0  0  0
  7  8  1  0  0  0  0
  7 12  1  0  0  0  0
  8  9  1  0  0  0  0
  8 11  1  0  0  0  0
  8 13  1  0  0  0  0
  9 10  2  0  0  0  0
  9 17  1  0  0  0  0
 11 14  1  0  0  0  0
 11 15  1  0  0  0  0
 11 16  1  0  0  0  0
 17 18  1  0  0  0  0
 17 25  1  0  0  0  0
 18 19  1  0  0  0  0
 18 21  1  0  0  0  0
 18 26  1  0  0  0  0
 19 20  2  0  0  0  0
 19 36  1  0  0  0  0
 21 22  1  0  0  0  0
 21 23  1  0  0  0  0
 21 27  1  0  0  0  0
 22 24  1  0  0  0  0
 22 28  1  0  0  0  0
 22 29  1  0  0  0  0
 23 30  1  0  0  0  0
 23 31  1  0  0  0  0
 23 32  1  0  0  0  0
 24 33  1  0  0  0  0
 24 34  1  0  0  0  0
 24 35  1  0  0  0  0
 36 37  1  0  0  0  0
 36 41  1  0  0  0  0
 37 38  1  0  0  0  0
 37 40  1  0  0  0  0
 37 42  1  0  0  0  0
 38 39  2  0  0  0  0
 38 46  1  0  0  0  0
 40 43  1  0  0  0  0
 40 44  1  0  0  0  0
 40 45  1  0  0  0  0
 46 47  1  0  0  0  0
 46 48  1  0  0  0  0
 47 49  1  0  0  0  0
 47 50  1  0  0  0  0
 47 51  1  0  0  0  0
M  END
$$$$

  -OEChem-05262216503D

 51 50  0     1  0  0  0  0  0999 V2000
    1.8348   -4.6743    2.1498 C   0  0  0  0  0  0  0  0  0  0  0  0
    1.8152   -3.7448    2.9387 O   0  0  0  0  0  0  0  0  0  0  0  0
    3.0153   -5.6276    2.1636 C   0  0  0  0  0  0  0  0  0  0  0  0
    3.5233   -5.6035    1.1962 H   0  0  0  0  0  0  0  0  0  0  0  0
    3.7271   -5.3373    2.9415 H   0  0  0  0  0  0  0  0  0  0  0  0
    2.6725   -6.6458    2.3633 H   0  0  0  0  0  0  0  0  0  0  0  0
    0.8214   -4.8901    1.2344 N   0  0  0  0  0  0  0  0  0  0  0  0
   -0.2469   -3.9438    0.8502 C   0  0  2  0  0  0  0  0  0  0  0  0
    0.2167   -2.9223   -0.2197 C   0  0  0  0  0  0  0  0  0  0  0  0
    0.9676   -3.3028   -1.1053 O   0  0  0  0  0  0  0  0  0  0  0  0
   -0.9714   -3.3056    2.0485 C   0  0  0  0  0  0  0  0  0  0  0  0
    1.0426   -5.5985    0.5397 H   0  0  0  0  0  0  0  0  0  0  0  0
   -1.0094   -4.5455    0.3470 H   0  0  0  0  0  0  0  0  0  0  0  0
   -0.3593   -2.5417    2.5322 H   0  0  0  0  0  0  0  0  0  0  0  0
   -1.9018   -2.8346    1.7180 H   0  0  0  0  0  0  0  0  0  0  0  0
   -1.2185   -4.0712    2.7900 H   0  0  0  0  0  0  0  0  0  0  0  0
   -0.5856   -1.8711   -0.5885 N   0  0  0  0  0  0  0  0  0  0  0  0
   -0.5149   -0.4661   -0.1135 C   0  0  2  0  0  0  0  0  0  0  0  0
   -1.0370    0.3856   -1.3043 C   0  0  0  0  0  0  0  0  0  0  0  0
   -0.9274   -0.0213   -2.4568 O   0  0  0  0  0  0  0  0  0  0  0  0
    0.8997    0.0804    0.3286 C   0  0  2  0  0  0  0  0  0  0  0  0
    1.5292   -0.6405    1.5513 C   0  0  0  0  0  0  0  0  0  0  0  0
    0.8513    1.5966    0.6362 C   0  0  0  0  0  0  0  0  0  0  0  0
    2.9998   -0.2847    1.8030 C   0  0  0  0  0  0  0  0  0  0  0  0
   -0.6008   -1.8611   -1.6130 H   0  0  0  0  0  0  0  0  0  0  0  0
   -1.2059   -0.3505    0.7265 H   0  0  0  0  0  0  0  0  0  0  0  0
    1.5769   -0.0693   -0.5201 H   0  0  0  0  0  0  0  0  0  0  0  0
    1.5229   -1.7126    1.4074 H   0  0  0  0  0  0  0  0  0  0  0  0
    0.9426   -0.4262    2.4505 H   0  0  0  0  0  0  0  0  0  0  0  0
    0.0733    1.8148    1.3744 H   0  0  0  0  0  0  0  0  0  0  0  0
    1.8028    1.9620    1.0262 H   0  0  0  0  0  0  0  0  0  0  0  0
    0.6586    2.1777   -0.2688 H   0  0  0  0  0  0  0  0  0  0  0  0
    3.5773   -0.3580    0.8763 H   0  0  0  0  0  0  0  0  0  0  0  0
    3.4261   -0.9840    2.5291 H   0  0  0  0  0  0  0  0  0  0  0  0
    3.1077    0.7233    2.2109 H   0  0  0  0  0  0  0  0  0  0  0  0
   -1.6887    1.5875   -1.0969 N   0  0  0  0  0  0  0  0  0  0  0  0
   -2.0647    2.5225   -2.1656 C   0  0  2  0  0  0  0  0  0  0  0  0
   -1.9240    3.9872   -1.7004 C   0  0  0  0  0  0  0  0  0  0  0  0
   -1.7127    4.2369   -0.5180 O   0  0  0  0  0  0  0  0  0  0  0  0
   -3.5054    2.2190   -2.5874 C   0  0  0  0  0  0  0  0  0  0  0  0
   -1.6459    1.9791   -0.1561 H   0  0  0  0  0  0  0  0  0  0  0  0
   -1.4015    2.3916   -3.0274 H   0  0  0  0  0  0  0  0  0  0  0  0
   -4.1870    2.3476   -1.7405 H   0  0  0  0  0  0  0  0  0  0  0  0
   -3.8203    2.8879   -3.3939 H   0  0  0  0  0  0  0  0  0  0  0  0
   -3.5850    1.1876   -2.9458 H   0  0  0  0  0  0  0  0  0  0  0  0
   -2.0142    5.0257   -2.6088 N   0  0  0  0  0  0  0  0  0  0  0  0
   -1.8744    6.4293   -2.2392 C   0  0  0  0  0  0  0  0  0  0  0  0
   -2.1656    4.7867   -3.5846 H   0  0  0  0  0  0  0  0  0  0  0  0
   -2.6286    6.7078   -1.4954 H   0  0  0  0  0  0  0  0  0  0  0  0
   -0.8802    6.6191   -1.8211 H   0  0  0  0  0  0  0  0  0  0  0  0
   -2.0068    7.0667   -3.1189 H   0  0  0  0  0  0  0  0  0  0  0  0
  1  2  2  0  0  0  0
  1  3  1  0  0  0  0
  1  7  1  0  0  0  0
  3  4  1  0  0  0  0
  3  5  1  0  0  0  0
  3  6  1  0  0  0  0
  7  8  1  0  0  0  0
  7 12  1  0  0  0  0
  8  9  1  0  0  0  0
  8 11  1  0  0  0  0
  8 13  1  0  0  0  0
  9 10  2  0  0  0  0
  9 17  1  0  0  0  0
 11 14  1  0  0  0  0
 11 15  1  0  0  0  0
 11 16  1  0  0  0  0
 17 18  1  0  0  0  0
 17 25  1  0  0  0  0
 18 19  1  0  0  0  0
 18 21  1  0  0  0  0
 18 26  1  0  0  0  0
 19 20  2  0  0  0  0
 19 36  1  0  0  0  0
 21 22  1  0  0  0  0
 21 23  1  0  0  0  0
 21 27  1  0  0  0  0
 22 24  1  0  0  0  0
 22 28  1  0  0  0  0
 22 29  1  0  0  0  0
 23 30  1  0  0  0  0
 23 31  1  0  0  0  0
 23 32  1  0  0  0  0
 24 33  1  0  0  0  0
 24 34  1  0  0  0  0
 24 35  1  0  0  0  0
 36 37  1  0  0  0  0
 36 41  1  0  0  0  0
 37 38  1  0  0  0  0
 37 40  1  0  0  0  0
 37 42  1  0  0  0  0
 38 39  2  0  0  0  0
 38 46  1  0  0  0  0
 40 43  1  0  0  0  0
 40 44  1  0  0  0  0
 40 45  1  0  0  0  0
 46 47  1  0  0  0  0
 46 48  1  0  0  0  0
 47 49  1  0  0  0  0
 47 50  1  0  0  0  0
 47 51  1  0  0  0  0
M  END
$$$$

  -OEChem-05262216503D

 51 50  0     1  0  0  0  0  0999 V2000
    1.8008   -4.6785    2.1384 C   0  0  0  0  0  0  0  0  0  0  0  0
    1.7700   -3.7726    2.9544 O   0  0  0  0  0  0  0  0  0  0  0  0
    2.9942   -5.6155    2.1269 C   0  0  0  0  0  0  0  0  0  0  0  0
    3.4993   -5.5640    1.1590 H   0  0  0  0  0  0  0  0  0  0  0  0
    3.7042   -5.3317    2.9090 H   0  0  0  0  0  0  0  0  0  0  0  0
    2.6658   -6.6423    2.3053 H   0  0  0  0  0  0  0  0  0  0  0  0
    0.7901   -4.8811    1.2164 N   0  0  0  0  0  0  0  0  0  0  0  0
   -0.2787   -3.9284    0.8489 C   0  0  2  0  0  0  0  0  0  0  0  0
    0.1921   -2.8823   -0.1930 C   0  0  0  0  0  0  0  0  0  0  0  0
    0.9531   -3.2376   -1.0810 O   0  0  0  0  0  0  0  0  0  0  0  0
   -1.0056   -3.3116    2.0572 C   0  0  0  0  0  0  0  0  0  0  0  0
    1.0202   -5.5678    0.5029 H   0  0  0  0  0  0  0  0  0  0  0  0
   -1.0395   -4.5188    0.3297 H   0  0  0  0  0  0  0  0  0  0  0  0
   -0.3940   -2.5547    2.5531 H   0  0  0  0  0  0  0  0  0  0  0  0
   -1.9360   -2.8352    1.7343 H   0  0  0  0  0  0  0  0  0  0  0  0
   -1.2525   -4.0897    2.7856 H   0  0  0  0  0  0  0  0  0  0  0  0
   -0.6012   -1.8142   -0.5309 N   0  0  0  0  0  0  0  0  0  0  0  0
   -0.4856   -0.4023   -0.0808 C   0  0  2  0  0  0  0  0  0  0  0  0
   -1.0494    0.4450   -1.2634 C   0  0  0  0  0  0  0  0  0  0  0  0
   -1.2082   -0.0620   -2.3708 O   0  0  0  0  0  0  0  0  0  0  0  0
    0.9623    0.0857    0.3381 C   0  0  2  0  0  0  0  0  0  0  0  0
    1.5655   -0.6514    1.5676 C   0  0  0  0  0  0  0  0  0  0  0  0
    1.0151    1.6067    0.6178 C   0  0  0  0  0  0  0  0  0  0  0  0
    3.0544   -0.3731    1.8112 C   0  0  0  0  0  0  0  0  0  0  0  0
   -0.6884   -1.8172   -1.5515 H   0  0  0  0  0  0  0  0  0  0  0  0
   -1.1496   -0.2602    0.7768 H   0  0  0  0  0  0  0  0  0  0  0  0
    1.6211   -0.1171   -0.5140 H   0  0  0  0  0  0  0  0  0  0  0  0
    1.5012   -1.7232    1.4469 H   0  0  0  0  0  0  0  0  0  0  0  0
    0.9959   -0.3920    2.4657 H   0  0  0  0  0  0  0  0  0  0  0  0
    0.2106    1.9028    1.2982 H   0  0  0  0  0  0  0  0  0  0  0  0
    1.9624    1.9112    1.0648 H   0  0  0  0  0  0  0  0  0  0  0  0
    0.9339    2.1757   -0.3116 H   0  0  0  0  0  0  0  0  0  0  0  0
    3.6225   -0.4818    0.8823 H   0  0  0  0  0  0  0  0  0  0  0  0
    3.4449   -1.0916    2.5388 H   0  0  0  0  0  0  0  0  0  0  0  0
    3.2203    0.6284    2.2153 H   0  0  0  0  0  0  0  0  0  0  0  0
   -1.3986    1.7753   -1.1219 N   0  0  0  0  0  0  0  0  0  0  0  0
   -1.7470    2.6706   -2.2328 C   0  0  2  0  0  0  0  0  0  0  0  0
   -1.2816    4.1142   -1.9513 C   0  0  0  0  0  0  0  0  0  0  0  0
   -0.8956    4.4270   -0.8295 O   0  0  0  0  0  0  0  0  0  0  0  0
   -3.2635    2.6197   -2.4416 C   0  0  0  0  0  0  0  0  0  0  0  0
   -1.1441    2.2296   -0.2450 H   0  0  0  0  0  0  0  0  0  0  0  0
   -1.2445    2.3406   -3.1485 H   0  0  0  0  0  0  0  0  0  0  0  0
   -3.7853    2.9548   -1.5395 H   0  0  0  0  0  0  0  0  0  0  0  0
   -3.5594    3.2630   -3.2757 H   0  0  0  0  0  0  0  0  0  0  0  0
   -3.5798    1.5964   -2.6679 H   0  0  0  0  0  0  0  0  0  0  0  0
   -1.2744    5.0582   -2.9612 N   0  0  0  0  0  0  0  0  0  0  0  0
   -0.8235    6.4314   -2.7707 C   0  0  0  0  0  0  0  0  0  0  0  0
   -1.5796    4.7632   -3.8843 H   0  0  0  0  0  0  0  0  0  0  0  0
   -1.4360    6.9344   -2.0149 H   0  0  0  0  0  0  0  0  0  0  0  0
    0.2226    6.4504   -2.4469 H   0  0  0  0  0  0  0  0  0  0  0  0
   -0.9047    6.9898   -3.7083 H   0  0  0  0  0  0  0  0  0  0  0  0
  1  2  2  0  0  0  0
  1  3  1  0  0  0  0
  1  7  1  0  0  0  0
  3  4  1  0  0  0  0
  3  5  1  0  0  0  0
  3  6  1  0  0  0  0
  7  8  1  0  0  0  0
  7 12  1  0  0  0  0
  8  9  1  0  0  0  0
  8 11  1  0  0  0  0
  8 13  1  0  0  0  0
  9 10  2  0  0  0  0
  9 17  1  0  0  0  0
 11 14  1  0  0  0  0
 11 15  1  0  0  0  0
 11 16  1  0  0  0  0
 17 18  1  0  0  0  0
 17 25  1  0  0  0  0
 18 19  1  0  0  0  0
 18 21  1  0  0  0  0
 18 26  1  0  0  0  0
 19 20  2  0  0  0  0
 19 36  1  0  0  0  0
 21 22  1  0  0  0  0
 21 23  1  0  0  0  0
 21 27  1  0  0  0  0
 22 24  1  0  0  0  0
 22 28  1  0  0  0  0
 22 29  1  0  0  0  0
 23 30  1  0  0  0  0
 23 31  1  0  0  0  0
 23 32  1  0  0  0  0
 24 33  1  0  0  0  0
 24 34  1  0  0  0  0
 24 35  1  0  0  0  0
 36 37  1  0  0  0  0
 36 41  1  0  0  0  0
 37 38  1  0  0  0  0
 37 40  1  0  0  0  0
 37 42  1  0  0  0  0
 38 39  2  0  0  0  0
 38 46  1  0  0  0  0
 40 43  1  0  0  0  0
 40 44  1  0  0  0  0
 40 45  1  0  0  0  0
 46 47  1  0  0  0  0
 46 48  1  0  0  0  0
 47 49  1  0  0  0  0
 47 50  1  0  0  0  0
 47 51  1  0  0  0  0
M  END
$$$$

  -OEChem-05262216503D

 51 50  0     1  0  0  0  0  0999 V2000
    1.7687   -4.4052    0.2352 C   0  0  0  0  0  0  0  0  0  0  0  0
    1.8119   -3.6496   -0.7236 O   0  0  0  0  0  0  0  0  0  0  0  0
    3.0406   -5.0529    0.7482 C   0  0  0  0  0  0  0  0  0  0  0  0
    3.8915   -4.7567    0.1285 H   0  0  0  0  0  0  0  0  0  0  0  0
    3.2287   -4.7380    1.7776 H   0  0  0  0  0  0  0  0  0  0  0  0
    2.9446   -6.1408    0.7184 H   0  0  0  0  0  0  0  0  0  0  0  0
    0.5761   -4.6272    0.8935 N   0  0  0  0  0  0  0  0  0  0  0  0
   -0.5970   -3.7710    0.6720 C   0  0  2  0  0  0  0  0  0  0  0  0
   -0.4859   -2.4602    1.4763 C   0  0  0  0  0  0  0  0  0  0  0  0
   -0.0663   -2.4767    2.6290 O   0  0  0  0  0  0  0  0  0  0  0  0
   -1.8476   -4.5548    1.0742 C   0  0  0  0  0  0  0  0  0  0  0  0
    0.6625   -5.0530    1.8125 H   0  0  0  0  0  0  0  0  0  0  0  0
   -0.6782   -3.5158   -0.3903 H   0  0  0  0  0  0  0  0  0  0  0  0
   -1.8124   -4.8181    2.1363 H   0  0  0  0  0  0  0  0  0  0  0  0
   -2.7455   -3.9552    0.8951 H   0  0  0  0  0  0  0  0  0  0  0  0
   -1.9232   -5.4752    0.4871 H   0  0  0  0  0  0  0  0  0  0  0  0
   -1.0072   -1.2848    0.9852 N   0  0  0  0  0  0  0  0  0  0  0  0
   -0.4313    0.0829    1.0186 C   0  0  2  0  0  0  0  0  0  0  0  0
   -1.3160    0.8642   -0.0193 C   0  0  0  0  0  0  0  0  0  0  0  0
   -2.1792    0.2724   -0.6683 O   0  0  0  0  0  0  0  0  0  0  0  0
    1.0962    0.1801    0.5696 C   0  0  2  0  0  0  0  0  0  0  0  0
    2.1329   -0.5818    1.4479 C   0  0  0  0  0  0  0  0  0  0  0  0
    1.5702    1.6574    0.5245 C   0  0  0  0  0  0  0  0  0  0  0  0
    3.5397   -0.6788    0.8339 C   0  0  0  0  0  0  0  0  0  0  0  0
   -1.5871   -1.4216    0.1546 H   0  0  0  0  0  0  0  0  0  0  0  0
   -0.5561    0.5141    2.0164 H   0  0  0  0  0  0  0  0  0  0  0  0
    1.1658   -0.2394   -0.4405 H   0  0  0  0  0  0  0  0  0  0  0  0
    1.8450   -1.6184    1.5560 H   0  0  0  0  0  0  0  0  0  0  0  0
    2.1814   -0.1380    2.4477 H   0  0  0  0  0  0  0  0  0  0  0  0
    1.0951    2.2390    1.3207 H   0  0  0  0  0  0  0  0  0  0  0  0
    2.6467    1.7700    0.6490 H   0  0  0  0  0  0  0  0  0  0  0  0
    1.3375    2.1028   -0.4460 H   0  0  0  0  0  0  0  0  0  0  0  0
    3.4781   -0.9917   -0.2133 H   0  0  0  0  0  0  0  0  0  0  0  0
    4.1251   -1.4256    1.3789 H   0  0  0  0  0  0  0  0  0  0  0  0
    4.0838    0.2664    0.8893 H   0  0  0  0  0  0  0  0  0  0  0  0
   -1.1505    2.2027   -0.3249 N   0  0  0  0  0  0  0  0  0  0  0  0
   -1.8272    2.9201   -1.4141 C   0  0  2  0  0  0  0  0  0  0  0  0
   -0.9409    4.0534   -1.9709 C   0  0  0  0  0  0  0  0  0  0  0  0
    0.0395    4.4341   -1.3396 O   0  0  0  0  0  0  0  0  0  0  0  0
   -3.1458    3.4856   -0.8785 C   0  0  0  0  0  0  0  0  0  0  0  0
   -0.3631    2.6839    0.1083 H   0  0  0  0  0  0  0  0  0  0  0  0
   -2.0354    2.2326   -2.2407 H   0  0  0  0  0  0  0  0  0  0  0  0
   -2.9555    4.1827   -0.0562 H   0  0  0  0  0  0  0  0  0  0  0  0
   -3.6856    4.0165   -1.6682 H   0  0  0  0  0  0  0  0  0  0  0  0
   -3.7840    2.6767   -0.5092 H   0  0  0  0  0  0  0  0  0  0  0  0
   -1.2338    4.6399   -3.1881 N   0  0  0  0  0  0  0  0  0  0  0  0
   -0.4205    5.6926   -3.7846 C   0  0  0  0  0  0  0  0  0  0  0  0
   -2.0354    4.2852   -3.7019 H   0  0  0  0  0  0  0  0  0  0  0  0
   -0.3535    6.5538   -3.1113 H   0  0  0  0  0  0  0  0  0  0  0  0
    0.5909    5.3255   -3.9890 H   0  0  0  0  0  0  0  0  0  0  0  0
   -0.8648    6.0262   -4.7273 H   0  0  0  0  0  0  0  0  0  0  0  0
  1  2  2  0  0  0  0
  1  3  1  0  0  0  0
  1  7  1  0  0  0  0
  3  4  1  0  0  0  0
  3  5  1  0  0  0  0
  3  6  1  0  0  0  0
  7  8  1  0  0  0  0
  7 12  1  0  0  0  0
  8  9  1  0  0  0  0
  8 11  1  0  0  0  0
  8 13  1  0  0  0  0
  9 10  2  0  0  0  0
  9 17  1  0  0  0  0
 11 14  1  0  0  0  0
 11 15  1  0  0  0  0
 11 16  1  0  0  0  0
 17 18  1  0  0  0  0
 17 25  1  0  0  0  0
 18 19  1  0  0  0  0
 18 21  1  0  0  0  0
 18 26  1  0  0  0  0
 19 20  2  0  0  0  0
 19 36  1  0  0  0  0
 21 22  1  0  0  0  0
 21 23  1  0  0  0  0
 21 27  1  0  0  0  0
 22 24  1  0  0  0  0
 22 28  1  0  0  0  0
 22 29  1  0  0  0  0
 23 30  1  0  0  0  0
 23 31  1  0  0  0  0
 23 32  1  0  0  0  0
 24 33  1  0  0  0  0
 24 34  1  0  0  0  0
 24 35  1  0  0  0  0
 36 37  1  0  0  0  0
 36 41  1  0  0  0  0
 37 38  1  0  0  0  0
 37 40  1  0  0  0  0
 37 42  1  0  0  0  0
 38 39  2  0  0  0  0
 38 46  1  0  0  0  0
 40 43  1  0  0  0  0
 40 44  1  0  0  0  0
 40 45  1  0  0  0  0
 46 47  1  0  0  0  0
 46 48  1  0  0  0  0
 47 49  1  0  0  0  0
 47 50  1  0  0  0  0
 47 51  1  0  0  0  0
M  END
$$$$

  -OEChem-05262216503D

 51 50  0     1  0  0  0  0  0999 V2000
    2.0274   -4.4590    2.1277 C   0  0  0  0  0  0  0  0  0  0  0  0
    2.3081   -3.5386    2.8791 O   0  0  0  0  0  0  0  0  0  0  0  0
    3.0190   -5.5851    1.9056 C   0  0  0  0  0  0  0  0  0  0  0  0
    3.3114   -5.6233    0.8532 H   0  0  0  0  0  0  0  0  0  0  0  0
    3.9134   -5.4261    2.5144 H   0  0  0  0  0  0  0  0  0  0  0  0
    2.5675   -6.5399    2.1860 H   0  0  0  0  0  0  0  0  0  0  0  0
    0.8207   -4.4748    1.4603 N   0  0  0  0  0  0  0  0  0  0  0  0
   -0.1274   -3.3519    1.4245 C   0  0  2  0  0  0  0  0  0  0  0  0
   -0.3315   -2.8372   -0.0207 C   0  0  0  0  0  0  0  0  0  0  0  0
   -0.4113   -3.6368   -0.9423 O   0  0  0  0  0  0  0  0  0  0  0  0
   -1.4537   -3.8512    2.0027 C   0  0  0  0  0  0  0  0  0  0  0  0
    0.7125   -5.1813    0.7351 H   0  0  0  0  0  0  0  0  0  0  0  0
    0.2176   -2.5194    2.0447 H   0  0  0  0  0  0  0  0  0  0  0  0
   -1.3122   -4.1955    3.0317 H   0  0  0  0  0  0  0  0  0  0  0  0
   -2.1942   -3.0453    2.0060 H   0  0  0  0  0  0  0  0  0  0  0  0
   -1.8463   -4.6813    1.4066 H   0  0  0  0  0  0  0  0  0  0  0  0
   -0.8568   -1.5954   -0.2815 N   0  0  0  0  0  0  0  0  0  0  0  0
   -0.3980   -0.2455    0.1363 C   0  0  2  0  0  0  0  0  0  0  0  0
   -1.2144    0.7128   -0.8127 C   0  0  0  0  0  0  0  0  0  0  0  0
   -2.1671    0.2748   -1.4540 O   0  0  0  0  0  0  0  0  0  0  0  0
    1.1597    0.0181   -0.0421 C   0  0  2  0  0  0  0  0  0  0  0  0
    2.1009   -0.8874    0.8006 C   0  0  0  0  0  0  0  0  0  0  0  0
    1.5202    1.4770    0.3607 C   0  0  0  0  0  0  0  0  0  0  0  0
    3.5854   -0.7930    0.4129 C   0  0  0  0  0  0  0  0  0  0  0  0
   -1.3481   -1.5895   -1.1789 H   0  0  0  0  0  0  0  0  0  0  0  0
   -0.6884   -0.0562    1.1740 H   0  0  0  0  0  0  0  0  0  0  0  0
    1.4073   -0.1356   -1.0986 H   0  0  0  0  0  0  0  0  0  0  0  0
    1.8632   -1.9282    0.6248 H   0  0  0  0  0  0  0  0  0  0  0  0
    1.9750   -0.6834    1.8694 H   0  0  0  0  0  0  0  0  0  0  0  0
    0.7648    1.8956    1.0332 H   0  0  0  0  0  0  0  0  0  0  0  0
    2.4719    1.5602    0.8873 H   0  0  0  0  0  0  0  0  0  0  0  0
    1.6026    2.1058   -0.5311 H   0  0  0  0  0  0  0  0  0  0  0  0
    3.7069   -0.9395   -0.6646 H   0  0  0  0  0  0  0  0  0  0  0  0
    4.1459   -1.5773    0.9315 H   0  0  0  0  0  0  0  0  0  0  0  0
    4.0304    0.1657    0.6873 H   0  0  0  0  0  0  0  0  0  0  0  0
   -0.9397    2.0524   -1.0233 N   0  0  0  0  0  0  0  0  0  0  0  0
   -1.6197    2.9273   -1.9894 C   0  0  2  0  0  0  0  0  0  0  0  0
   -0.6960    4.0740   -2.4500 C   0  0  0  0  0  0  0  0  0  0  0  0
    0.3477    4.3009   -1.8466 O   0  0  0  0  0  0  0  0  0  0  0  0
   -2.8856    3.4904   -1.3338 C   0  0  0  0  0  0  0  0  0  0  0  0
   -0.1027    2.4349   -0.5876 H   0  0  0  0  0  0  0  0  0  0  0  0
   -1.8961    2.3523   -2.8797 H   0  0  0  0  0  0  0  0  0  0  0  0
   -2.6285    4.0695   -0.4410 H   0  0  0  0  0  0  0  0  0  0  0  0
   -3.4227    4.1422   -2.0294 H   0  0  0  0  0  0  0  0  0  0  0  0
   -3.5563    2.6768   -1.0395 H   0  0  0  0  0  0  0  0  0  0  0  0
   -1.0287    4.8487   -3.5458 N   0  0  0  0  0  0  0  0  0  0  0  0
   -0.1999    5.9447   -4.0329 C   0  0  0  0  0  0  0  0  0  0  0  0
   -1.8913    4.6284   -4.0353 H   0  0  0  0  0  0  0  0  0  0  0  0
   -0.0809    6.7092   -3.2578 H   0  0  0  0  0  0  0  0  0  0  0  0
    0.7909    5.5779   -4.3213 H   0  0  0  0  0  0  0  0  0  0  0  0
   -0.6637    6.4102   -4.9081 H   0  0  0  0  0  0  0  0  0  0  0  0
  1  2  2  0  0  0  0
  1  3  1  0  0  0  0
  1  7  1  0  0  0  0
  3  4  1  0  0  0  0
  3  5  1  0  0  0  0
  3  6  1  0  0  0  0
  7  8  1  0  0  0  0
  7 12  1  0  0  0  0
  8  9  1  0  0  0  0
  8 11  1  0  0  0  0
  8 13  1  0  0  0  0
  9 10  2  0  0  0  0
  9 17  1  0  0  0  0
 11 14  1  0  0  0  0
 11 15  1  0  0  0  0
 11 16  1  0  0  0  0
 17 18  1  0  0  0  0
 17 25  1  0  0  0  0
 18 19  1  0  0  0  0
 18 21  1  0  0  0  0
 18 26  1  0  0  0  0
 19 20  2  0  0  0  0
 19 36  1  0  0  0  0
 21 22  1  0  0  0  0
 21 23  1  0  0  0  0
 21 27  1  0  0  0  0
 22 24  1  0  0  0  0
 22 28  1  0  0  0  0
 22 29  1  0  0  0  0
 23 30  1  0  0  0  0
 23 31  1  0  0  0  0
 23 32  1  0  0  0  0
 24 33  1  0  0  0  0
 24 34  1  0  0  0  0
 24 35  1  0  0  0  0
 36 37  1  0  0  0  0
 36 41  1  0  0  0  0
 37 38  1  0  0  0  0
 37 40  1  0  0  0  0
 37 42  1  0  0  0  0
 38 39  2  0  0  0  0
 38 46  1  0  0  0  0
 40 43  1  0  0  0  0
 40 44  1  0  0  0  0
 40 45  1  0  0  0  0
 46 47  1  0  0  0  0
 46 48  1  0  0  0  0
 47 49  1  0  0  0  0
 47 50  1  0  0  0  0
 47 51  1  0  0  0  0
M  END
$$$$

  -OEChem-05262216503D

 51 50  0     1  0  0  0  0  0999 V2000
    0.8466   -3.4611   -0.5460 C   0  0  0  0  0  0  0  0  0  0  0  0
    0.3501   -2.5365   -1.1730 O   0  0  0  0  0  0  0  0  0  0  0  0
    2.2148   -3.9895   -0.9330 C   0  0  0  0  0  0  0  0  0  0  0  0
    2.5754   -3.4803   -1.8310 H   0  0  0  0  0  0  0  0  0  0  0  0
    2.9246   -3.8155   -0.1205 H   0  0  0  0  0  0  0  0  0  0  0  0
    2.1586   -5.0617   -1.1359 H   0  0  0  0  0  0  0  0  0  0  0  0
    0.1929   -3.9858    0.5509 N   0  0  0  0  0  0  0  0  0  0  0  0
   -0.9867   -3.3386    1.1387 C   0  0  2  0  0  0  0  0  0  0  0  0
   -0.5871   -2.0410    1.8712 C   0  0  0  0  0  0  0  0  0  0  0  0
    0.0659   -2.0903    2.9061 O   0  0  0  0  0  0  0  0  0  0  0  0
   -1.6646   -4.3348    2.0838 C   0  0  0  0  0  0  0  0  0  0  0  0
    0.7402   -4.5968    1.1510 H   0  0  0  0  0  0  0  0  0  0  0  0
   -1.6997   -3.0834    0.3474 H   0  0  0  0  0  0  0  0  0  0  0  0
   -0.9821   -4.6332    2.8862 H   0  0  0  0  0  0  0  0  0  0  0  0
   -2.5526   -3.8827    2.5364 H   0  0  0  0  0  0  0  0  0  0  0  0
   -1.9726   -5.2299    1.5351 H   0  0  0  0  0  0  0  0  0  0  0  0
   -1.0319   -0.8254    1.4009 N   0  0  0  0  0  0  0  0  0  0  0  0
   -0.3134    0.4694    1.3265 C   0  0  2  0  0  0  0  0  0  0  0  0
   -1.2945    1.2285    0.3521 C   0  0  0  0  0  0  0  0  0  0  0  0
   -2.5028    1.1438    0.5327 O   0  0  0  0  0  0  0  0  0  0  0  0
    1.1575    0.4867    0.7534 C   0  0  2  0  0  0  0  0  0  0  0  0
    2.2244   -0.3210    1.5418 C   0  0  0  0  0  0  0  0  0  0  0  0
    1.7275    1.9366    0.8109 C   0  0  0  0  0  0  0  0  0  0  0  0
    3.5481   -0.4641    0.7803 C   0  0  0  0  0  0  0  0  0  0  0  0
   -1.7910   -0.9014    0.7248 H   0  0  0  0  0  0  0  0  0  0  0  0
   -0.3216    0.9527    2.3084 H   0  0  0  0  0  0  0  0  0  0  0  0
    1.1250    0.1126   -0.2737 H   0  0  0  0  0  0  0  0  0  0  0  0
    2.3858    0.0910    2.5435 H   0  0  0  0  0  0  0  0  0  0  0  0
    1.8909   -1.3454    1.6563 H   0  0  0  0  0  0  0  0  0  0  0  0
    0.9953    2.7072    0.5799 H   0  0  0  0  0  0  0  0  0  0  0  0
    2.5522    2.0489    0.1013 H   0  0  0  0  0  0  0  0  0  0  0  0
    2.0999    2.1710    1.8135 H   0  0  0  0  0  0  0  0  0  0  0  0
    3.3690   -0.8323   -0.2347 H   0  0  0  0  0  0  0  0  0  0  0  0
    4.1964   -1.1783    1.2970 H   0  0  0  0  0  0  0  0  0  0  0  0
    4.0784    0.4905    0.7224 H   0  0  0  0  0  0  0  0  0  0  0  0
   -1.0628    2.2164   -0.5804 N   0  0  0  0  0  0  0  0  0  0  0  0
   -0.3194    1.9863   -1.8341 C   0  0  2  0  0  0  0  0  0  0  0  0
   -0.4451    3.1936   -2.7893 C   0  0  0  0  0  0  0  0  0  0  0  0
   -1.3341    4.0214   -2.6334 O   0  0  0  0  0  0  0  0  0  0  0  0
   -0.8628    0.7372   -2.5463 C   0  0  0  0  0  0  0  0  0  0  0  0
   -1.9191    2.7513   -0.7347 H   0  0  0  0  0  0  0  0  0  0  0  0
    0.7440    1.8525   -1.6333 H   0  0  0  0  0  0  0  0  0  0  0  0
   -1.9354    0.8465   -2.7388 H   0  0  0  0  0  0  0  0  0  0  0  0
   -0.3529    0.5852   -3.5024 H   0  0  0  0  0  0  0  0  0  0  0  0
   -0.7092   -0.1586   -1.9382 H   0  0  0  0  0  0  0  0  0  0  0  0
    0.4450    3.3499   -3.8366 N   0  0  0  0  0  0  0  0  0  0  0  0
    0.3692    4.4519   -4.7882 C   0  0  0  0  0  0  0  0  0  0  0  0
    1.1557    2.6360   -3.9653 H   0  0  0  0  0  0  0  0  0  0  0  0
   -0.5822    4.4249   -5.3298 H   0  0  0  0  0  0  0  0  0  0  0  0
    0.4517    5.4126   -4.2689 H   0  0  0  0  0  0  0  0  0  0  0  0
    1.1836    4.3819   -5.5156 H   0  0  0  0  0  0  0  0  0  0  0  0
  1  2  2  0  0  0  0
  1  3  1  0  0  0  0
  1  7  1  0  0  0  0
  3  4  1  0  0  0  0
  3  5  1  0  0  0  0
  3  6  1  0  0  0  0
  7  8  1  0  0  0  0
  7 12  1  0  0  0  0
  8  9  1  0  0  0  0
  8 11  1  0  0  0  0
  8 13  1  0  0  0  0
  9 10  2  0  0  0  0
  9 17  1  0  0  0  0
 11 14  1  0  0  0  0
 11 15  1  0  0  0  0
 11 16  1  0  0  0  0
 17 18  1  0  0  0  0
 17 25  1  0  0  0  0
 18 19  1  0  0  0  0
 18 21  1  0  0  0  0
 18 26  1  0  0  0  0
 19 20  2  0  0  0  0
 19 36  1  0  0  0  0
 21 22  1  0  0  0  0
 21 23  1  0  0  0  0
 21 27  1  0  0  0  0
 22 24  1  0  0  0  0
 22 28  1  0  0  0  0
 22 29  1  0  0  0  0
 23 30  1  0  0  0  0
 23 31  1  0  0  0  0
 23 32  1  0  0  0  0
 24 33  1  0  0  0  0
 24 34  1  0  0  0  0
 24 35  1  0  0  0  0
 36 37  1  0  0  0  0
 36 41  1  0  0  0  0
 37 38  1  0  0  0  0
 37 40  1  0  0  0  0
 37 42  1  0  0  0  0
 38 39  2  0  0  0  0
 38 46  1  0  0  0  0
 40 43  1  0  0  0  0
 40 44  1  0  0  0  0
 40 45  1  0  0  0  0
 46 47  1  0  0  0  0
 46 48  1  0  0  0  0
 47 49  1  0  0  0  0
 47 50  1  0  0  0  0
 47 51  1  0  0  0  0
M  END
$$$$

  -OEChem-05262216503D

 51 50  0     1  0  0  0  0  0999 V2000
    1.4904   -5.1105    0.2659 C   0  0  0  0  0  0  0  0  0  0  0  0
    1.6401   -4.7093   -0.8777 O   0  0  0  0  0  0  0  0  0  0  0  0
    2.5490   -5.9891    0.9049 C   0  0  0  0  0  0  0  0  0  0  0  0
    3.3326   -6.2240    0.1792 H   0  0  0  0  0  0  0  0  0  0  0  0
    2.9996   -5.4705    1.7546 H   0  0  0  0  0  0  0  0  0  0  0  0
    2.0996   -6.9223    1.2528 H   0  0  0  0  0  0  0  0  0  0  0  0
    0.3767   -4.7485    0.9951 N   0  0  0  0  0  0  0  0  0  0  0  0
   -0.5360   -3.6758    0.5759 C   0  0  2  0  0  0  0  0  0  0  0  0
   -0.1835   -2.3352    1.2521 C   0  0  0  0  0  0  0  0  0  0  0  0
    0.2928   -2.3354    2.3810 O   0  0  0  0  0  0  0  0  0  0  0  0
   -1.9605   -4.1057    0.9347 C   0  0  0  0  0  0  0  0  0  0  0  0
    0.4391   -4.9186    1.9962 H   0  0  0  0  0  0  0  0  0  0  0  0
   -0.4848   -3.5297   -0.5082 H   0  0  0  0  0  0  0  0  0  0  0  0
   -2.0588   -4.2478    2.0158 H   0  0  0  0  0  0  0  0  0  0  0  0
   -2.6810   -3.3450    0.6180 H   0  0  0  0  0  0  0  0  0  0  0  0
   -2.2092   -5.0466    0.4339 H   0  0  0  0  0  0  0  0  0  0  0  0
   -0.6457   -1.1531    0.7121 N   0  0  0  0  0  0  0  0  0  0  0  0
   -0.1352    0.2322    0.8478 C   0  0  2  0  0  0  0  0  0  0  0  0
   -0.9188    0.9232   -0.3282 C   0  0  0  0  0  0  0  0  0  0  0  0
   -2.0901    0.6130   -0.5351 O   0  0  0  0  0  0  0  0  0  0  0  0
    1.4077    0.4989    0.6181 C   0  0  2  0  0  0  0  0  0  0  0  0
    2.3955   -0.1965    1.5893 C   0  0  0  0  0  0  0  0  0  0  0  0
    1.7279    2.0174    0.7915 C   0  0  0  0  0  0  0  0  0  0  0  0
    3.8512   -0.0828    1.1173 C   0  0  0  0  0  0  0  0  0  0  0  0
   -1.3013   -1.2717   -0.0611 H   0  0  0  0  0  0  0  0  0  0  0  0
   -0.4434    0.6528    1.8100 H   0  0  0  0  0  0  0  0  0  0  0  0
    1.6490    0.1786   -0.4021 H   0  0  0  0  0  0  0  0  0  0  0  0
    2.2101   -1.2650    1.5980 H   0  0  0  0  0  0  0  0  0  0  0  0
    2.2785    0.1739    2.6132 H   0  0  0  0  0  0  0  0  0  0  0  0
    2.1743    2.2312    1.7681 H   0  0  0  0  0  0  0  0  0  0  0  0
    2.4351    2.3376    0.0194 H   0  0  0  0  0  0  0  0  0  0  0  0
    0.8415    2.6525    0.7316 H   0  0  0  0  0  0  0  0  0  0  0  0
    3.9547   -0.4676    0.0978 H   0  0  0  0  0  0  0  0  0  0  0  0
    4.5010   -0.6689    1.7743 H   0  0  0  0  0  0  0  0  0  0  0  0
    4.1960    0.9548    1.1370 H   0  0  0  0  0  0  0  0  0  0  0  0
   -0.3627    1.7983   -1.2459 N   0  0  0  0  0  0  0  0  0  0  0  0
   -1.0298    2.3502   -2.4316 C   0  0  2  0  0  0  0  0  0  0  0  0
    0.0056    2.8048   -3.4822 C   0  0  0  0  0  0  0  0  0  0  0  0
    1.1904    2.8944   -3.1766 O   0  0  0  0  0  0  0  0  0  0  0  0
   -1.9072    3.5321   -2.0036 C   0  0  0  0  0  0  0  0  0  0  0  0
    0.6409    1.9684   -1.1746 H   0  0  0  0  0  0  0  0  0  0  0  0
   -1.6558    1.5793   -2.8931 H   0  0  0  0  0  0  0  0  0  0  0  0
   -1.2960    4.3151   -1.5437 H   0  0  0  0  0  0  0  0  0  0  0  0
   -2.4270    3.9570   -2.8672 H   0  0  0  0  0  0  0  0  0  0  0  0
   -2.6588    3.2067   -1.2776 H   0  0  0  0  0  0  0  0  0  0  0  0
   -0.3873    3.1087   -4.7724 N   0  0  0  0  0  0  0  0  0  0  0  0
    0.5394    3.5468   -5.8096 C   0  0  0  0  0  0  0  0  0  0  0  0
   -1.3732    3.0169   -4.9994 H   0  0  0  0  0  0  0  0  0  0  0  0
    1.0238    4.4854   -5.5201 H   0  0  0  0  0  0  0  0  0  0  0  0
    1.3123    2.7897   -5.9792 H   0  0  0  0  0  0  0  0  0  0  0  0
    0.0042    3.7099   -6.7500 H   0  0  0  0  0  0  0  0  0  0  0  0
  1  2  2  0  0  0  0
  1  3  1  0  0  0  0
  1  7  1  0  0  0  0
  3  4  1  0  0  0  0
  3  5  1  0  0  0  0
  3  6  1  0  0  0  0
  7  8  1  0  0  0  0
  7 12  1  0  0  0  0
  8  9  1  0  0  0  0
  8 11  1  0  0  0  0
  8 13  1  0  0  0  0
  9 10  2  0  0  0  0
  9 17  1  0  0  0  0
 11 14  1  0  0  0  0
 11 15  1  0  0  0  0
 11 16  1  0  0  0  0
 17 18  1  0  0  0  0
 17 25  1  0  0  0  0
 18 19  1  0  0  0  0
 18 21  1  0  0  0  0
 18 26  1  0  0  0  0
 19 20  2  0  0  0  0
 19 36  1  0  0  0  0
 21 22  1  0  0  0  0
 21 23  1  0  0  0  0
 21 27  1  0  0  0  0
 22 24  1  0  0  0  0
 22 28  1  0  0  0  0
 22 29  1  0  0  0  0
 23 30  1  0  0  0  0
 23 31  1  0  0  0  0
 23 32  1  0  0  0  0
 24 33  1  0  0  0  0
 24 34  1  0  0  0  0
 24 35  1  0  0  0  0
 36 37  1  0  0  0  0
 36 41  1  0  0  0  0
 37 38  1  0  0  0  0
 37 40  1  0  0  0  0
 37 42  1  0  0  0  0
 38 39  2  0  0  0  0
 38 46  1  0  0  0  0
 40 43  1  0  0  0  0
 40 44  1  0  0  0  0
 40 45  1  0  0  0  0
 46 47  1  0  0  0  0
 46 48  1  0  0  0  0
 47 49  1  0  0  0  0
 47 50  1  0  0  0  0
 47 51  1  0  0  0  0
M  END
$$$$

  -OEChem-05262216503D

 51 50  0     1  0  0  0  0  0999 V2000
    1.4548   -5.2619    0.2476 C   0  0  0  0  0  0  0  0  0  0  0  0
    1.5490   -5.0137   -0.9441 O   0  0  0  0  0  0  0  0  0  0  0  0
    2.4832   -6.1511    0.9205 C   0  0  0  0  0  0  0  0  0  0  0  0
    3.2131   -6.5063    0.1875 H   0  0  0  0  0  0  0  0  0  0  0  0
    3.0087   -5.5913    1.6982 H   0  0  0  0  0  0  0  0  0  0  0  0
    1.9900   -7.0149    1.3731 H   0  0  0  0  0  0  0  0  0  0  0  0
    0.4261   -4.7287    0.9958 N   0  0  0  0  0  0  0  0  0  0  0  0
   -0.4602   -3.6590    0.5153 C   0  0  2  0  0  0  0  0  0  0  0  0
   -0.1301   -2.3081    1.1826 C   0  0  0  0  0  0  0  0  0  0  0  0
    0.3238   -2.2983    2.3202 O   0  0  0  0  0  0  0  0  0  0  0  0
   -1.9000   -4.0745    0.8268 C   0  0  0  0  0  0  0  0  0  0  0  0
    0.5371   -4.7969    2.0054 H   0  0  0  0  0  0  0  0  0  0  0  0
   -0.3618   -3.5303   -0.5677 H   0  0  0  0  0  0  0  0  0  0  0  0
   -2.0430   -4.1825    1.9070 H   0  0  0  0  0  0  0  0  0  0  0  0
   -2.6045   -3.3231    0.4568 H   0  0  0  0  0  0  0  0  0  0  0  0
   -2.1304   -5.0305    0.3462 H   0  0  0  0  0  0  0  0  0  0  0  0
   -0.5955   -1.1342    0.6254 N   0  0  0  0  0  0  0  0  0  0  0  0
   -0.1126    0.2600    0.7715 C   0  0  2  0  0  0  0  0  0  0  0  0
   -0.8696    0.9304   -0.4242 C   0  0  0  0  0  0  0  0  0  0  0  0
   -2.0843    0.7814   -0.5115 O   0  0  0  0  0  0  0  0  0  0  0  0
    1.4296    0.5750    0.6143 C   0  0  2  0  0  0  0  0  0  0  0  0
    2.3829   -0.0857    1.6425 C   0  0  0  0  0  0  0  0  0  0  0  0
    1.6799    2.1008    0.7972 C   0  0  0  0  0  0  0  0  0  0  0  0
    3.8637    0.0549    1.2681 C   0  0  0  0  0  0  0  0  0  0  0  0
   -1.2392   -1.2689   -0.1536 H   0  0  0  0  0  0  0  0  0  0  0  0
   -0.4700    0.6749    1.7195 H   0  0  0  0  0  0  0  0  0  0  0  0
    1.7402    0.2571   -0.3872 H   0  0  0  0  0  0  0  0  0  0  0  0
    2.2243   -1.1578    1.6419 H   0  0  0  0  0  0  0  0  0  0  0  0
    2.1958    0.2843    2.6559 H   0  0  0  0  0  0  0  0  0  0  0  0
    1.6767    2.3656    1.8598 H   0  0  0  0  0  0  0  0  0  0  0  0
    2.6488    2.3808    0.3732 H   0  0  0  0  0  0  0  0  0  0  0  0
    0.9285    2.7304    0.3193 H   0  0  0  0  0  0  0  0  0  0  0  0
    4.0328   -0.2663    0.2356 H   0  0  0  0  0  0  0  0  0  0  0  0
    4.4730   -0.5709    1.9274 H   0  0  0  0  0  0  0  0  0  0  0  0
    4.2033    1.0884    1.3775 H   0  0  0  0  0  0  0  0  0  0  0  0
   -0.2542    1.5664   -1.4897 N   0  0  0  0  0  0  0  0  0  0  0  0
   -0.9242    2.0695   -2.6960 C   0  0  2  0  0  0  0  0  0  0  0  0
    0.0629    2.1670   -3.8786 C   0  0  0  0  0  0  0  0  0  0  0  0
    1.2692    2.0712   -3.6785 O   0  0  0  0  0  0  0  0  0  0  0  0
   -1.5249    3.4452   -2.3874 C   0  0  0  0  0  0  0  0  0  0  0  0
    0.7660    1.5820   -1.4989 H   0  0  0  0  0  0  0  0  0  0  0  0
   -1.7237    1.3804   -2.9878 H   0  0  0  0  0  0  0  0  0  0  0  0
   -0.7383    4.1497   -2.0989 H   0  0  0  0  0  0  0  0  0  0  0  0
   -2.0455    3.8429   -3.2635 H   0  0  0  0  0  0  0  0  0  0  0  0
   -2.2442    3.3709   -1.5658 H   0  0  0  0  0  0  0  0  0  0  0  0
   -0.3981    2.3522   -5.1691 N   0  0  0  0  0  0  0  0  0  0  0  0
    0.4823    2.4336   -6.3287 C   0  0  0  0  0  0  0  0  0  0  0  0
   -1.4026    2.4141   -5.3081 H   0  0  0  0  0  0  0  0  0  0  0  0
    1.1775    3.2733   -6.2241 H   0  0  0  0  0  0  0  0  0  0  0  0
    1.0598    1.5094   -6.4372 H   0  0  0  0  0  0  0  0  0  0  0  0
   -0.1044    2.5828   -7.2402 H   0  0  0  0  0  0  0  0  0  0  0  0
  1  2  2  0  0  0  0
  1  3  1  0  0  0  0
  1  7  1  0  0  0  0
  3  4  1  0  0  0  0
  3  5  1  0  0  0  0
  3  6  1  0  0  0  0
  7  8  1  0  0  0  0
  7 12  1  0  0  0  0
  8  9  1  0  0  0  0
  8 11  1  0  0  0  0
  8 13  1  0  0  0  0
  9 10  2  0  0  0  0
  9 17  1  0  0  0  0
 11 14  1  0  0  0  0
 11 15  1  0  0  0  0
 11 16  1  0  0  0  0
 17 18  1  0  0  0  0
 17 25  1  0  0  0  0
 18 19  1  0  0  0  0
 18 21  1  0  0  0  0
 18 26  1  0  0  0  0
 19 20  2  0  0  0  0
 19 36  1  0  0  0  0
 21 22  1  0  0  0  0
 21 23  1  0  0  0  0
 21 27  1  0  0  0  0
 22 24  1  0  0  0  0
 22 28  1  0  0  0  0
 22 29  1  0  0  0  0
 23 30  1  0  0  0  0
 23 31  1  0  0  0  0
 23 32  1  0  0  0  0
 24 33  1  0  0  0  0
 24 34  1  0  0  0  0
 24 35  1  0  0  0  0
 36 37  1  0  0  0  0
 36 41  1  0  0  0  0
 37 38  1  0  0  0  0
 37 40  1  0  0  0  0
 37 42  1  0  0  0  0
 38 39  2  0  0  0  0
 38 46  1  0  0  0  0
 40 43  1  0  0  0  0
 40 44  1  0  0  0  0
 40 45  1  0  0  0  0
 46 47  1  0  0  0  0
 46 48  1  0  0  0  0
 47 49  1  0  0  0  0
 47 50  1  0  0  0  0
 47 51  1  0  0  0  0
M  END
$$$$

  -OEChem-05262216503D

 51 50  0     1  0  0  0  0  0999 V2000
    1.4961   -5.1666    0.3003 C   0  0  0  0  0  0  0  0  0  0  0  0
    1.6241   -4.8586   -0.8741 O   0  0  0  0  0  0  0  0  0  0  0  0
    2.5480   -6.0237    0.9786 C   0  0  0  0  0  0  0  0  0  0  0  0
    3.2984   -6.3471    0.2516 H   0  0  0  0  0  0  0  0  0  0  0  0
    3.0440   -5.4502    1.7653 H   0  0  0  0  0  0  0  0  0  0  0  0
    2.0813   -6.9077    1.4200 H   0  0  0  0  0  0  0  0  0  0  0  0
    0.4095   -4.7226    1.0247 N   0  0  0  0  0  0  0  0  0  0  0  0
   -0.5053   -3.6762    0.5463 C   0  0  2  0  0  0  0  0  0  0  0  0
   -0.1797   -2.3077    1.1789 C   0  0  0  0  0  0  0  0  0  0  0  0
    0.2509   -2.2664    2.3245 O   0  0  0  0  0  0  0  0  0  0  0  0
   -1.9303   -4.1079    0.9007 C   0  0  0  0  0  0  0  0  0  0  0  0
    0.4870   -4.8234    2.0344 H   0  0  0  0  0  0  0  0  0  0  0  0
   -0.4368   -3.5701   -0.5416 H   0  0  0  0  0  0  0  0  0  0  0  0
   -2.0448   -4.2015    1.9857 H   0  0  0  0  0  0  0  0  0  0  0  0
   -2.6547   -3.3723    0.5378 H   0  0  0  0  0  0  0  0  0  0  0  0
   -2.1586   -5.0741    0.4404 H   0  0  0  0  0  0  0  0  0  0  0  0
   -0.6320   -1.1486    0.5815 N   0  0  0  0  0  0  0  0  0  0  0  0
   -0.1232    0.2403    0.6827 C   0  0  2  0  0  0  0  0  0  0  0  0
   -0.8535    0.9109   -0.5192 C   0  0  0  0  0  0  0  0  0  0  0  0
   -2.0736    1.0128   -0.4859 O   0  0  0  0  0  0  0  0  0  0  0  0
    1.4263    0.5286    0.5340 C   0  0  2  0  0  0  0  0  0  0  0  0
    2.3552   -0.1047    1.5996 C   0  0  0  0  0  0  0  0  0  0  0  0
    1.6845    2.0588    0.6176 C   0  0  0  0  0  0  0  0  0  0  0  0
    3.8449   -0.0038    1.2474 C   0  0  0  0  0  0  0  0  0  0  0  0
   -1.2403   -1.3116   -0.2185 H   0  0  0  0  0  0  0  0  0  0  0  0
   -0.4757    0.6841    1.6194 H   0  0  0  0  0  0  0  0  0  0  0  0
    1.7500    0.1503   -0.4412 H   0  0  0  0  0  0  0  0  0  0  0  0
    2.1784   -1.1729    1.6443 H   0  0  0  0  0  0  0  0  0  0  0  0
    2.1592    0.3170    2.5909 H   0  0  0  0  0  0  0  0  0  0  0  0
    1.5332    2.4131    1.6424 H   0  0  0  0  0  0  0  0  0  0  0  0
    2.7080    2.2962    0.3162 H   0  0  0  0  0  0  0  0  0  0  0  0
    1.0273    2.6424   -0.0293 H   0  0  0  0  0  0  0  0  0  0  0  0
    4.0257   -0.3599    0.2284 H   0  0  0  0  0  0  0  0  0  0  0  0
    4.4297   -0.6212    1.9363 H   0  0  0  0  0  0  0  0  0  0  0  0
    4.2050    1.0248    1.3327 H   0  0  0  0  0  0  0  0  0  0  0  0
   -0.2295    1.2361   -1.7117 N   0  0  0  0  0  0  0  0  0  0  0  0
   -0.8934    1.7390   -2.9205 C   0  0  2  0  0  0  0  0  0  0  0  0
   -0.0141    1.5104   -4.1677 C   0  0  0  0  0  0  0  0  0  0  0  0
    1.1677    1.2096   -4.0370 O   0  0  0  0  0  0  0  0  0  0  0  0
   -1.1821    3.2341   -2.7425 C   0  0  0  0  0  0  0  0  0  0  0  0
    0.7675    1.0345   -1.7916 H   0  0  0  0  0  0  0  0  0  0  0  0
   -1.8351    1.2010   -3.0728 H   0  0  0  0  0  0  0  0  0  0  0  0
   -0.2507    3.7864   -2.5809 H   0  0  0  0  0  0  0  0  0  0  0  0
   -1.6777    3.6388   -3.6299 H   0  0  0  0  0  0  0  0  0  0  0  0
   -1.8371    3.3972   -1.8809 H   0  0  0  0  0  0  0  0  0  0  0  0
   -0.5471    1.6327   -5.4375 N   0  0  0  0  0  0  0  0  0  0  0  0
    0.2316    1.4288   -6.6533 C   0  0  0  0  0  0  0  0  0  0  0  0
   -1.5304    1.8757   -5.5164 H   0  0  0  0  0  0  0  0  0  0  0  0
    1.0431    2.1615   -6.7165 H   0  0  0  0  0  0  0  0  0  0  0  0
    0.6637    0.4225   -6.6670 H   0  0  0  0  0  0  0  0  0  0  0  0
   -0.4061    1.5427   -7.5352 H   0  0  0  0  0  0  0  0  0  0  0  0
  1  2  2  0  0  0  0
  1  3  1  0  0  0  0
  1  7  1  0  0  0  0
  3  4  1  0  0  0  0
  3  5  1  0  0  0  0
  3  6  1  0  0  0  0
  7  8  1  0  0  0  0
  7 12  1  0  0  0  0
  8  9  1  0  0  0  0
  8 11  1  0  0  0  0
  8 13  1  0  0  0  0
  9 10  2  0  0  0  0
  9 17  1  0  0  0  0
 11 14  1  0  0  0  0
 11 15  1  0  0  0  0
 11 16  1  0  0  0  0
 17 18  1  0  0  0  0
 17 25  1  0  0  0  0
 18 19  1  0  0  0  0
 18 21  1  0  0  0  0
 18 26  1  0  0  0  0
 19 20  2  0  0  0  0
 19 36  1  0  0  0  0
 21 22  1  0  0  0  0
 21 23  1  0  0  0  0
 21 27  1  0  0  0  0
 22 24  1  0  0  0  0
 22 28  1  0  0  0  0
 22 29  1  0  0  0  0
 23 30  1  0  0  0  0
 23 31  1  0  0  0  0
 23 32  1  0  0  0  0
 24 33  1  0  0  0  0
 24 34  1  0  0  0  0
 24 35  1  0  0  0  0
 36 37  1  0  0  0  0
 36 41  1  0  0  0  0
 37 38  1  0  0  0  0
 37 40  1  0  0  0  0
 37 42  1  0  0  0  0
 38 39  2  0  0  0  0
 38 46  1  0  0  0  0
 40 43  1  0  0  0  0
 40 44  1  0  0  0  0
 40 45  1  0  0  0  0
 46 47  1  0  0  0  0
 46 48  1  0  0  0  0
 47 49  1  0  0  0  0
 47 50  1  0  0  0  0
 47 51  1  0  0  0  0
M  END
$$$$

  -OEChem-05262216503D

 51 50  0     1  0  0  0  0  0999 V2000
   -0.1777   -3.1644   -1.5925 C   0  0  0  0  0  0  0  0  0  0  0  0
   -1.0745   -2.3548   -1.7788 O   0  0  0  0  0  0  0  0  0  0  0  0
    0.7837   -3.5222   -2.7088 C   0  0  0  0  0  0  0  0  0  0  0  0
    0.4191   -3.1252   -3.6598 H   0  0  0  0  0  0  0  0  0  0  0  0
    1.7682   -3.0933   -2.5042 H   0  0  0  0  0  0  0  0  0  0  0  0
    0.8763   -4.6074   -2.7949 H   0  0  0  0  0  0  0  0  0  0  0  0
   -0.0323   -3.7413   -0.3467 N   0  0  0  0  0  0  0  0  0  0  0  0
   -0.9677   -3.5478    0.7747 C   0  0  2  0  0  0  0  0  0  0  0  0
   -0.7673   -2.1914    1.4947 C   0  0  0  0  0  0  0  0  0  0  0  0
   -0.6528   -2.1250    2.7109 O   0  0  0  0  0  0  0  0  0  0  0  0
   -0.8047   -4.7500    1.7137 C   0  0  0  0  0  0  0  0  0  0  0  0
    0.7401   -4.3901   -0.2250 H   0  0  0  0  0  0  0  0  0  0  0  0
   -1.9954   -3.5586    0.3953 H   0  0  0  0  0  0  0  0  0  0  0  0
    0.2018   -4.7698    2.1440 H   0  0  0  0  0  0  0  0  0  0  0  0
   -1.5288   -4.6923    2.5330 H   0  0  0  0  0  0  0  0  0  0  0  0
   -0.9745   -5.6851    1.1715 H   0  0  0  0  0  0  0  0  0  0  0  0
   -0.9278   -1.0318    0.7674 N   0  0  0  0  0  0  0  0  0  0  0  0
   -0.2754    0.2871    0.9286 C   0  0  2  0  0  0  0  0  0  0  0  0
   -0.6216    0.9769   -0.4174 C   0  0  0  0  0  0  0  0  0  0  0  0
   -1.6904    1.5593   -0.5442 O   0  0  0  0  0  0  0  0  0  0  0  0
    1.2908    0.3702    1.1285 C   0  0  2  0  0  0  0  0  0  0  0  0
    1.8576   -0.2976    2.4058 C   0  0  0  0  0  0  0  0  0  0  0  0
    1.7316    1.8563    1.1630 C   0  0  0  0  0  0  0  0  0  0  0  0
    3.3869   -0.4121    2.4103 C   0  0  0  0  0  0  0  0  0  0  0  0
   -1.2213   -1.2353   -0.1939 H   0  0  0  0  0  0  0  0  0  0  0  0
   -0.7633    0.8252    1.7478 H   0  0  0  0  0  0  0  0  0  0  0  0
    1.7670   -0.1257    0.2768 H   0  0  0  0  0  0  0  0  0  0  0  0
    1.5221   -1.3268    2.4584 H   0  0  0  0  0  0  0  0  0  0  0  0
    1.5058    0.2231    3.3024 H   0  0  0  0  0  0  0  0  0  0  0  0
    1.3255    2.3506    2.0514 H   0  0  0  0  0  0  0  0  0  0  0  0
    2.8205    1.9431    1.1851 H   0  0  0  0  0  0  0  0  0  0  0  0
    1.3953    2.4119    0.2844 H   0  0  0  0  0  0  0  0  0  0  0  0
    3.7440   -0.8512    1.4737 H   0  0  0  0  0  0  0  0  0  0  0  0
    3.7055   -1.0556    3.2363 H   0  0  0  0  0  0  0  0  0  0  0  0
    3.8585    0.5646    2.5471 H   0  0  0  0  0  0  0  0  0  0  0  0
    0.2010    0.8683   -1.5249 N   0  0  0  0  0  0  0  0  0  0  0  0
   -0.2353    1.1255   -2.9008 C   0  0  2  0  0  0  0  0  0  0  0  0
    0.4660    0.1673   -3.8860 C   0  0  0  0  0  0  0  0  0  0  0  0
    1.4624   -0.4601   -3.5353 O   0  0  0  0  0  0  0  0  0  0  0  0
    0.0748    2.5848   -3.2448 C   0  0  0  0  0  0  0  0  0  0  0  0
    1.0070    0.2530   -1.4276 H   0  0  0  0  0  0  0  0  0  0  0  0
   -1.3137    0.9524   -2.9872 H   0  0  0  0  0  0  0  0  0  0  0  0
    1.1508    2.7738   -3.1762 H   0  0  0  0  0  0  0  0  0  0  0  0
   -0.2574    2.8197   -4.2602 H   0  0  0  0  0  0  0  0  0  0  0  0
   -0.4420    3.2542   -2.5496 H   0  0  0  0  0  0  0  0  0  0  0  0
   -0.0162    0.0090   -5.1720 N   0  0  0  0  0  0  0  0  0  0  0  0
    0.5822   -0.8903   -6.1505 C   0  0  0  0  0  0  0  0  0  0  0  0
   -0.8708    0.5020   -5.4153 H   0  0  0  0  0  0  0  0  0  0  0  0
    1.6454   -0.6623   -6.2819 H   0  0  0  0  0  0  0  0  0  0  0  0
    0.4815   -1.9310   -5.8264 H   0  0  0  0  0  0  0  0  0  0  0  0
    0.0853   -0.7794   -7.1192 H   0  0  0  0  0  0  0  0  0  0  0  0
  1  2  2  0  0  0  0
  1  3  1  0  0  0  0
  1  7  1  0  0  0  0
  3  4  1  0  0  0  0
  3  5  1  0  0  0  0
  3  6  1  0  0  0  0
  7  8  1  0  0  0  0
  7 12  1  0  0  0  0
  8  9  1  0  0  0  0
  8 11  1  0  0  0  0
  8 13  1  0  0  0  0
  9 10  2  0  0  0  0
  9 17  1  0  0  0  0
 11 14  1  0  0  0  0
 11 15  1  0  0  0  0
 11 16  1  0  0  0  0
 17 18  1  0  0  0  0
 17 25  1  0  0  0  0
 18 19  1  0  0  0  0
 18 21  1  0  0  0  0
 18 26  1  0  0  0  0
 19 20  2  0  0  0  0
 19 36  1  0  0  0  0
 21 22  1  0  0  0  0
 21 23  1  0  0  0  0
 21 27  1  0  0  0  0
 22 24  1  0  0  0  0
 22 28  1  0  0  0  0
 22 29  1  0  0  0  0
 23 30  1  0  0  0  0
 23 31  1  0  0  0  0
 23 32  1  0  0  0  0
 24 33  1  0  0  0  0
 24 34  1  0  0  0  0
 24 35  1  0  0  0  0
 36 37  1  0  0  0  0
 36 41  1  0  0  0  0
 37 38  1  0  0  0  0
 37 40  1  0  0  0  0
 37 42  1  0  0  0  0
 38 39  2  0  0  0  0
 38 46  1  0  0  0  0
 40 43  1  0  0  0  0
 40 44  1  0  0  0  0
 40 45  1  0  0  0  0
 46 47  1  0  0  0  0
 46 48  1  0  0  0  0
 47 49  1  0  0  0  0
 47 50  1  0  0  0  0
 47 51  1  0  0  0  0
M  END
$$$$

  -OEChem-05262216503D

 51 50  0     1  0  0  0  0  0999 V2000
    1.8064   -3.0847   -0.8011 C   0  0  0  0  0  0  0  0  0  0  0  0
    1.5556   -2.0920   -1.4720 O   0  0  0  0  0  0  0  0  0  0  0  0
    3.2514   -3.4505   -0.5210 C   0  0  0  0  0  0  0  0  0  0  0  0
    3.9234   -2.7597   -1.0380 H   0  0  0  0  0  0  0  0  0  0  0  0
    3.4484   -3.3961    0.5525 H   0  0  0  0  0  0  0  0  0  0  0  0
    3.4542   -4.4657   -0.8707 H   0  0  0  0  0  0  0  0  0  0  0  0
    0.7958   -3.8440   -0.2431 N   0  0  0  0  0  0  0  0  0  0  0  0
   -0.6283   -3.4850   -0.3097 C   0  0  2  0  0  0  0  0  0  0  0  0
   -0.9374   -2.2516    0.5667 C   0  0  0  0  0  0  0  0  0  0  0  0
   -1.1496   -2.3489    1.7689 O   0  0  0  0  0  0  0  0  0  0  0  0
   -1.4509   -4.7071    0.1099 C   0  0  0  0  0  0  0  0  0  0  0  0
    1.0741   -4.5558    0.4260 H   0  0  0  0  0  0  0  0  0  0  0  0
   -0.8942   -3.2407   -1.3443 H   0  0  0  0  0  0  0  0  0  0  0  0
   -1.2053   -5.0072    1.1338 H   0  0  0  0  0  0  0  0  0  0  0  0
   -2.5196   -4.4746    0.0649 H   0  0  0  0  0  0  0  0  0  0  0  0
   -1.2512   -5.5490   -0.5600 H   0  0  0  0  0  0  0  0  0  0  0  0
   -0.9306   -1.0214   -0.0450 N   0  0  0  0  0  0  0  0  0  0  0  0
   -0.3188    0.2388    0.4287 C   0  0  2  0  0  0  0  0  0  0  0  0
   -0.3536    1.0591   -0.8772 C   0  0  0  0  0  0  0  0  0  0  0  0
   -1.2356    1.8836   -1.0857 O   0  0  0  0  0  0  0  0  0  0  0  0
    1.1561    0.2654    0.9853 C   0  0  2  0  0  0  0  0  0  0  0  0
    1.4061   -0.5692    2.2638 C   0  0  0  0  0  0  0  0  0  0  0  0
    1.5597    1.7291    1.2823 C   0  0  0  0  0  0  0  0  0  0  0  0
    2.8921   -0.7222    2.6093 C   0  0  0  0  0  0  0  0  0  0  0  0
   -0.9313   -1.1149   -1.0676 H   0  0  0  0  0  0  0  0  0  0  0  0
   -0.9823    0.6977    1.1689 H   0  0  0  0  0  0  0  0  0  0  0  0
    1.8241   -0.1252    0.2136 H   0  0  0  0  0  0  0  0  0  0  0  0
    1.0598   -1.5855    2.1086 H   0  0  0  0  0  0  0  0  0  0  0  0
    0.8542   -0.1486    3.1107 H   0  0  0  0  0  0  0  0  0  0  0  0
    0.9263    2.1457    2.0720 H   0  0  0  0  0  0  0  0  0  0  0  0
    2.6017    1.7948    1.6035 H   0  0  0  0  0  0  0  0  0  0  0  0
    1.4648    2.3630    0.3965 H   0  0  0  0  0  0  0  0  0  0  0  0
    3.4594   -1.0564    1.7355 H   0  0  0  0  0  0  0  0  0  0  0  0
    3.0116   -1.4649    3.4040 H   0  0  0  0  0  0  0  0  0  0  0  0
    3.3154    0.2204    2.9661 H   0  0  0  0  0  0  0  0  0  0  0  0
    0.5535    0.7600   -1.8807 N   0  0  0  0  0  0  0  0  0  0  0  0
    0.1410    0.9223   -3.2790 C   0  0  2  0  0  0  0  0  0  0  0  0
   -0.9886   -0.0635   -3.6708 C   0  0  0  0  0  0  0  0  0  0  0  0
   -1.1873   -1.0885   -3.0208 O   0  0  0  0  0  0  0  0  0  0  0  0
    1.3738    0.6900   -4.1541 C   0  0  0  0  0  0  0  0  0  0  0  0
    1.0891   -0.0918   -1.6865 H   0  0  0  0  0  0  0  0  0  0  0  0
   -0.2197    1.9438   -3.4392 H   0  0  0  0  0  0  0  0  0  0  0  0
    1.7530   -0.3283   -4.0170 H   0  0  0  0  0  0  0  0  0  0  0  0
    1.1254    0.8296   -5.2106 H   0  0  0  0  0  0  0  0  0  0  0  0
    2.1664    1.3963   -3.8880 H   0  0  0  0  0  0  0  0  0  0  0  0
   -1.8008    0.2085   -4.7561 N   0  0  0  0  0  0  0  0  0  0  0  0
   -2.9533   -0.6112   -5.1098 C   0  0  0  0  0  0  0  0  0  0  0  0
   -1.6948    1.1171   -5.1974 H   0  0  0  0  0  0  0  0  0  0  0  0
   -2.6434   -1.6416   -5.3137 H   0  0  0  0  0  0  0  0  0  0  0  0
   -3.6832   -0.6179   -4.2934 H   0  0  0  0  0  0  0  0  0  0  0  0
   -3.4392   -0.2144   -6.0064 H   0  0  0  0  0  0  0  0  0  0  0  0
  1  2  2  0  0  0  0
  1  3  1  0  0  0  0
  1  7  1  0  0  0  0
  3  4  1  0  0  0  0
  3  5  1  0  0  0  0
  3  6  1  0  0  0  0
  7  8  1  0  0  0  0
  7 12  1  0  0  0  0
  8  9  1  0  0  0  0
  8 11  1  0  0  0  0
  8 13  1  0  0  0  0
  9 10  2  0  0  0  0
  9 17  1  0  0  0  0
 11 14  1  0  0  0  0
 11 15  1  0  0  0  0
 11 16  1  0  0  0  0
 17 18  1  0  0  0  0
 17 25  1  0  0  0  0
 18 19  1  0  0  0  0
 18 21  1  0  0  0  0
 18 26  1  0  0  0  0
 19 20  2  0  0  0  0
 19 36  1  0  0  0  0
 21 22  1  0  0  0  0
 21 23  1  0  0  0  0
 21 27  1  0  0  0  0
 22 24  1  0  0  0  0
 22 28  1  0  0  0  0
 22 29  1  0  0  0  0
 23 30  1  0  0  0  0
 23 31  1  0  0  0  0
 23 32  1  0  0  0  0
 24 33  1  0  0  0  0
 24 34  1  0  0  0  0
 24 35  1  0  0  0  0
 36 37  1  0  0  0  0
 36 41  1  0  0  0  0
 37 38  1  0  0  0  0
 37 40  1  0  0  0  0
 37 42  1  0  0  0  0
 38 39  2  0  0  0  0
 38 46  1  0  0  0  0
 40 43  1  0  0  0  0
 40 44  1  0  0  0  0
 40 45  1  0  0  0  0
 46 47  1  0  0  0  0
 46 48  1  0  0  0  0
 47 49  1  0  0  0  0
 47 50  1  0  0  0  0
 47 51  1  0  0  0  0
M  END
$$$$

  -OEChem-05262216503D

 51 50  0     1  0  0  0  0  0999 V2000
    1.7109   -3.2909   -0.7619 C   0  0  0  0  0  0  0  0  0  0  0  0
    1.4485   -2.3451   -1.4934 O   0  0  0  0  0  0  0  0  0  0  0  0
    3.1587   -3.6697   -0.5151 C   0  0  0  0  0  0  0  0  0  0  0  0
    3.8215   -3.0459   -1.1214 H   0  0  0  0  0  0  0  0  0  0  0  0
    3.4067   -3.5255    0.5394 H   0  0  0  0  0  0  0  0  0  0  0  0
    3.3216   -4.7171   -0.7810 H   0  0  0  0  0  0  0  0  0  0  0  0
    0.7083   -3.9801   -0.1075 N   0  0  0  0  0  0  0  0  0  0  0  0
   -0.7067   -3.5821   -0.1372 C   0  0  2  0  0  0  0  0  0  0  0  0
   -0.9355   -2.2747    0.6527 C   0  0  0  0  0  0  0  0  0  0  0  0
   -1.1237   -2.2768    1.8628 O   0  0  0  0  0  0  0  0  0  0  0  0
   -1.5401   -4.7432    0.4144 C   0  0  0  0  0  0  0  0  0  0  0  0
    0.9989   -4.6433    0.6052 H   0  0  0  0  0  0  0  0  0  0  0  0
   -1.0166   -3.4105   -1.1741 H   0  0  0  0  0  0  0  0  0  0  0  0
   -1.2542   -4.9701    1.4466 H   0  0  0  0  0  0  0  0  0  0  0  0
   -2.6034   -4.4838    0.3991 H   0  0  0  0  0  0  0  0  0  0  0  0
   -1.3937   -5.6400   -0.1952 H   0  0  0  0  0  0  0  0  0  0  0  0
   -0.9066   -1.0921   -0.0479 N   0  0  0  0  0  0  0  0  0  0  0  0
   -0.3071    0.2071    0.3323 C   0  0  2  0  0  0  0  0  0  0  0  0
   -0.2978    0.9441   -1.0245 C   0  0  0  0  0  0  0  0  0  0  0  0
   -1.0544    1.8834   -1.2382 O   0  0  0  0  0  0  0  0  0  0  0  0
    1.1759    0.2566    0.8667 C   0  0  2  0  0  0  0  0  0  0  0  0
    1.4455   -0.4992    2.1901 C   0  0  0  0  0  0  0  0  0  0  0  0
    1.5993    1.7323    1.0697 C   0  0  0  0  0  0  0  0  0  0  0  0
    2.9371   -0.6383    2.5190 C   0  0  0  0  0  0  0  0  0  0  0  0
   -0.9545   -1.2516   -1.0606 H   0  0  0  0  0  0  0  0  0  0  0  0
   -0.9685    0.7222    1.0366 H   0  0  0  0  0  0  0  0  0  0  0  0
    1.8250   -0.1870    0.1054 H   0  0  0  0  0  0  0  0  0  0  0  0
    1.0956   -1.5222    2.1029 H   0  0  0  0  0  0  0  0  0  0  0  0
    0.9096   -0.0254    3.0190 H   0  0  0  0  0  0  0  0  0  0  0  0
    0.9767    2.2037    1.8369 H   0  0  0  0  0  0  0  0  0  0  0  0
    2.6444    1.8061    1.3784 H   0  0  0  0  0  0  0  0  0  0  0  0
    1.5070    2.3137    0.1484 H   0  0  0  0  0  0  0  0  0  0  0  0
    3.4890   -1.0193    1.6543 H   0  0  0  0  0  0  0  0  0  0  0  0
    3.0688   -1.3395    3.3487 H   0  0  0  0  0  0  0  0  0  0  0  0
    3.3683    0.3200    2.8203 H   0  0  0  0  0  0  0  0  0  0  0  0
    0.4140    0.3902   -2.0768 N   0  0  0  0  0  0  0  0  0  0  0  0
   -0.1001    0.4882   -3.4459 C   0  0  2  0  0  0  0  0  0  0  0  0
   -1.3321   -0.4233   -3.6575 C   0  0  0  0  0  0  0  0  0  0  0  0
   -1.5186   -1.4008   -2.9351 O   0  0  0  0  0  0  0  0  0  0  0  0
    1.0309    0.0830   -4.3923 C   0  0  0  0  0  0  0  0  0  0  0  0
    0.8719   -0.4971   -1.8418 H   0  0  0  0  0  0  0  0  0  0  0  0
   -0.3893    1.5220   -3.6629 H   0  0  0  0  0  0  0  0  0  0  0  0
    1.3434   -0.9480   -4.1944 H   0  0  0  0  0  0  0  0  0  0  0  0
    0.7029    0.1536   -5.4337 H   0  0  0  0  0  0  0  0  0  0  0  0
    1.8945    0.7411   -4.2550 H   0  0  0  0  0  0  0  0  0  0  0  0
   -2.2418   -0.1449   -4.6605 N   0  0  0  0  0  0  0  0  0  0  0  0
   -3.4752   -0.9000   -4.8451 C   0  0  0  0  0  0  0  0  0  0  0  0
   -2.1256    0.7309   -5.1620 H   0  0  0  0  0  0  0  0  0  0  0  0
   -3.2547   -1.9594   -5.0140 H   0  0  0  0  0  0  0  0  0  0  0  0
   -4.1151   -0.8093   -3.9609 H   0  0  0  0  0  0  0  0  0  0  0  0
   -4.0248   -0.5207   -5.7120 H   0  0  0  0  0  0  0  0  0  0  0  0
  1  2  2  0  0  0  0
  1  3  1  0  0  0  0
  1  7  1  0  0  0  0
  3  4  1  0  0  0  0
  3  5  1  0  0  0  0
  3  6  1  0  0  0  0
  7  8  1  0  0  0  0
  7 12  1  0  0  0  0
  8  9  1  0  0  0  0
  8 11  1  0  0  0  0
  8 13  1  0  0  0  0
  9 10  2  0  0  0  0
  9 17  1  0  0  0  0
 11 14  1  0  0  0  0
 11 15  1  0  0  0  0
 11 16  1  0  0  0  0
 17 18  1  0  0  0  0
 17 25  1  0  0  0  0
 18 19  1  0  0  0  0
 18 21  1  0  0  0  0
 18 26  1  0  0  0  0
 19 20  2  0  0  0  0
 19 36  1  0  0  0  0
 21 22  1  0  0  0  0
 21 23  1  0  0  0  0
 21 27  1  0  0  0  0
 22 24  1  0  0  0  0
 22 28  1  0  0  0  0
 22 29  1  0  0  0  0
 23 30  1  0  0  0  0
 23 31  1  0  0  0  0
 23 32  1  0  0  0  0
 24 33  1  0  0  0  0
 24 34  1  0  0  0  0
 24 35  1  0  0  0  0
 36 37  1  0  0  0  0
 36 41  1  0  0  0  0
 37 38  1  0  0  0  0
 37 40  1  0  0  0  0
 37 42  1  0  0  0  0
 38 39  2  0  0  0  0
 38 46  1  0  0  0  0
 40 43  1  0  0  0  0
 40 44  1  0  0  0  0
 40 45  1  0  0  0  0
 46 47  1  0  0  0  0
 46 48  1  0  0  0  0
 47 49  1  0  0  0  0
 47 50  1  0  0  0  0
 47 51  1  0  0  0  0
M  END
$$$$

  -OEChem-05262216503D

 51 50  0     1  0  0  0  0  0999 V2000
    1.5843   -3.4938   -0.6880 C   0  0  0  0  0  0  0  0  0  0  0  0
    1.3032   -2.6261   -1.5043 O   0  0  0  0  0  0  0  0  0  0  0  0
    3.0350   -3.8769   -0.4663 C   0  0  0  0  0  0  0  0  0  0  0  0
    3.6834   -3.3085   -1.1391 H   0  0  0  0  0  0  0  0  0  0  0  0
    3.3247   -3.6619    0.5654 H   0  0  0  0  0  0  0  0  0  0  0  0
    3.1739   -4.9430   -0.6622 H   0  0  0  0  0  0  0  0  0  0  0  0
    0.5997   -4.0846    0.0794 N   0  0  0  0  0  0  0  0  0  0  0  0
   -0.8033   -3.6464    0.0748 C   0  0  2  0  0  0  0  0  0  0  0  0
   -0.9529   -2.2649    0.7495 C   0  0  0  0  0  0  0  0  0  0  0  0
   -1.1399   -2.1521    1.9543 O   0  0  0  0  0  0  0  0  0  0  0  0
   -1.6456   -4.7254    0.7625 C   0  0  0  0  0  0  0  0  0  0  0  0
    0.9088   -4.6769    0.8447 H   0  0  0  0  0  0  0  0  0  0  0  0
   -1.1564   -3.5581   -0.9587 H   0  0  0  0  0  0  0  0  0  0  0  0
   -1.3171   -4.8746    1.7961 H   0  0  0  0  0  0  0  0  0  0  0  0
   -2.6994   -4.4294    0.7740 H   0  0  0  0  0  0  0  0  0  0  0  0
   -1.5588   -5.6747    0.2253 H   0  0  0  0  0  0  0  0  0  0  0  0
   -0.8808   -1.1518   -0.0551 N   0  0  0  0  0  0  0  0  0  0  0  0
   -0.2761    0.1770    0.2011 C   0  0  2  0  0  0  0  0  0  0  0  0
   -0.2077    0.8001   -1.2133 C   0  0  0  0  0  0  0  0  0  0  0  0
   -0.8146    1.8351   -1.4601 O   0  0  0  0  0  0  0  0  0  0  0  0
    1.2053    0.2406    0.7408 C   0  0  2  0  0  0  0  0  0  0  0  0
    1.4521   -0.3961    2.1307 C   0  0  0  0  0  0  0  0  0  0  0  0
    1.6710    1.7169    0.8138 C   0  0  0  0  0  0  0  0  0  0  0  0
    2.9371   -0.5411    2.4871 C   0  0  0  0  0  0  0  0  0  0  0  0
   -0.9809   -1.3916   -1.0470 H   0  0  0  0  0  0  0  0  0  0  0  0
   -0.9358    0.7659    0.8464 H   0  0  0  0  0  0  0  0  0  0  0  0
    1.8421   -0.2894    0.0245 H   0  0  0  0  0  0  0  0  0  0  0  0
    1.0812   -1.4146    2.1345 H   0  0  0  0  0  0  0  0  0  0  0  0
    0.9214    0.1630    2.9082 H   0  0  0  0  0  0  0  0  0  0  0  0
    1.0337    2.2821    1.5017 H   0  0  0  0  0  0  0  0  0  0  0  0
    2.7042    1.7930    1.1589 H   0  0  0  0  0  0  0  0  0  0  0  0
    1.6381    2.2044   -0.1642 H   0  0  0  0  0  0  0  0  0  0  0  0
    3.4879   -1.0056    1.6635 H   0  0  0  0  0  0  0  0  0  0  0  0
    3.0427   -1.1742    3.3734 H   0  0  0  0  0  0  0  0  0  0  0  0
    3.3892    0.4278    2.7144 H   0  0  0  0  0  0  0  0  0  0  0  0
    0.2565    0.0294   -2.2685 N   0  0  0  0  0  0  0  0  0  0  0  0
   -0.3957    0.0705   -3.5805 C   0  0  2  0  0  0  0  0  0  0  0  0
   -1.7073   -0.7467   -3.5756 C   0  0  0  0  0  0  0  0  0  0  0  0
   -1.8480   -1.6882   -2.7979 O   0  0  0  0  0  0  0  0  0  0  0  0
    0.5847   -0.4979   -4.6074 C   0  0  0  0  0  0  0  0  0  0  0  0
    0.6465   -0.8784   -1.9921 H   0  0  0  0  0  0  0  0  0  0  0  0
   -0.6282    1.1053   -3.8530 H   0  0  0  0  0  0  0  0  0  0  0  0
    0.8356   -1.5358   -4.3635 H   0  0  0  0  0  0  0  0  0  0  0  0
    0.1466   -0.4716   -5.6099 H   0  0  0  0  0  0  0  0  0  0  0  0
    1.5074    0.0904   -4.6165 H   0  0  0  0  0  0  0  0  0  0  0  0
   -2.7408   -0.4180   -4.4325 N   0  0  0  0  0  0  0  0  0  0  0  0
   -4.0457   -1.0663   -4.3850 C   0  0  0  0  0  0  0  0  0  0  0  0
   -2.6415    0.4395   -4.9682 H   0  0  0  0  0  0  0  0  0  0  0  0
   -3.9450   -2.1449   -4.5460 H   0  0  0  0  0  0  0  0  0  0  0  0
   -4.5216   -0.8972   -3.4131 H   0  0  0  0  0  0  0  0  0  0  0  0
   -4.6975   -0.6621   -5.1653 H   0  0  0  0  0  0  0  0  0  0  0  0
  1  2  2  0  0  0  0
  1  3  1  0  0  0  0
  1  7  1  0  0  0  0
  3  4  1  0  0  0  0
  3  5  1  0  0  0  0
  3  6  1  0  0  0  0
  7  8  1  0  0  0  0
  7 12  1  0  0  0  0
  8  9  1  0  0  0  0
  8 11  1  0  0  0  0
  8 13  1  0  0  0  0
  9 10  2  0  0  0  0
  9 17  1  0  0  0  0
 11 14  1  0  0  0  0
 11 15  1  0  0  0  0
 11 16  1  0  0  0  0
 17 18  1  0  0  0  0
 17 25  1  0  0  0  0
 18 19  1  0  0  0  0
 18 21  1  0  0  0  0
 18 26  1  0  0  0  0
 19 20  2  0  0  0  0
 19 36  1  0  0  0  0
 21 22  1  0  0  0  0
 21 23  1  0  0  0  0
 21 27  1  0  0  0  0
 22 24  1  0  0  0  0
 22 28  1  0  0  0  0
 22 29  1  0  0  0  0
 23 30  1  0  0  0  0
 23 31  1  0  0  0  0
 23 32  1  0  0  0  0
 24 33  1  0  0  0  0
 24 34  1  0  0  0  0
 24 35  1  0  0  0  0
 36 37  1  0  0  0  0
 36 41  1  0  0  0  0
 37 38  1  0  0  0  0
 37 40  1  0  0  0  0
 37 42  1  0  0  0  0
 38 39  2  0  0  0  0
 38 46  1  0  0  0  0
 40 43  1  0  0  0  0
 40 44  1  0  0  0  0
 40 45  1  0  0  0  0
 46 47  1  0  0  0  0
 46 48  1  0  0  0  0
 47 49  1  0  0  0  0
 47 50  1  0  0  0  0
 47 51  1  0  0  0  0
M  END
$$$$

  -OEChem-05262216503D

 51 50  0     1  0  0  0  0  0999 V2000
    1.3907   -3.6574   -0.7815 C   0  0  0  0  0  0  0  0  0  0  0  0
    1.0115   -2.8425   -1.6117 O   0  0  0  0  0  0  0  0  0  0  0  0
    2.8581   -4.0334   -0.7125 C   0  0  0  0  0  0  0  0  0  0  0  0
    3.4085   -3.5581   -1.5293 H   0  0  0  0  0  0  0  0  0  0  0  0
    3.2828   -3.7021    0.2385 H   0  0  0  0  0  0  0  0  0  0  0  0
    2.9709   -5.1168   -0.7970 H   0  0  0  0  0  0  0  0  0  0  0  0
    0.5077   -4.1828    0.1412 N   0  0  0  0  0  0  0  0  0  0  0  0
   -0.8833   -3.7288    0.2851 C   0  0  2  0  0  0  0  0  0  0  0  0
   -0.9417   -2.3115    0.8983 C   0  0  0  0  0  0  0  0  0  0  0  0
   -1.0986   -2.1347    2.0995 O   0  0  0  0  0  0  0  0  0  0  0  0
   -1.6373   -4.7651    1.1257 C   0  0  0  0  0  0  0  0  0  0  0  0
    0.9066   -4.7363    0.8940 H   0  0  0  0  0  0  0  0  0  0  0  0
   -1.3612   -3.6877   -0.7000 H   0  0  0  0  0  0  0  0  0  0  0  0
   -1.1851   -4.8632    2.1180 H   0  0  0  0  0  0  0  0  0  0  0  0
   -2.6815   -4.4607    1.2500 H   0  0  0  0  0  0  0  0  0  0  0  0
   -1.6182   -5.7421    0.6335 H   0  0  0  0  0  0  0  0  0  0  0  0
   -0.8685   -1.2396    0.0384 N   0  0  0  0  0  0  0  0  0  0  0  0
   -0.2738    0.1093    0.2083 C   0  0  2  0  0  0  0  0  0  0  0  0
   -0.1955    0.6782   -1.2338 C   0  0  0  0  0  0  0  0  0  0  0  0
   -0.6542    1.7910   -1.4625 O   0  0  0  0  0  0  0  0  0  0  0  0
    1.2193    0.1836    0.7236 C   0  0  2  0  0  0  0  0  0  0  0  0
    1.4867   -0.3844    2.1402 C   0  0  0  0  0  0  0  0  0  0  0  0
    1.7149    1.6536    0.7196 C   0  0  0  0  0  0  0  0  0  0  0  0
    2.9757   -0.5274    2.4819 C   0  0  0  0  0  0  0  0  0  0  0  0
   -1.0497   -1.5145   -0.9319 H   0  0  0  0  0  0  0  0  0  0  0  0
   -0.9249    0.7299    0.8321 H   0  0  0  0  0  0  0  0  0  0  0  0
    1.8342   -0.3915    0.0222 H   0  0  0  0  0  0  0  0  0  0  0  0
    1.1128   -1.3993    2.2002 H   0  0  0  0  0  0  0  0  0  0  0  0
    0.9722    0.2156    2.8977 H   0  0  0  0  0  0  0  0  0  0  0  0
    1.0840    2.2678    1.3701 H   0  0  0  0  0  0  0  0  0  0  0  0
    2.7468    1.7306    1.0674 H   0  0  0  0  0  0  0  0  0  0  0  0
    1.7022    2.0879   -0.2833 H   0  0  0  0  0  0  0  0  0  0  0  0
    3.5122   -1.0258    1.6687 H   0  0  0  0  0  0  0  0  0  0  0  0
    3.0888   -1.1287    3.3892 H   0  0  0  0  0  0  0  0  0  0  0  0
    3.4382    0.4451    2.6689 H   0  0  0  0  0  0  0  0  0  0  0  0
   -0.0201   -0.1831   -2.3064 N   0  0  0  0  0  0  0  0  0  0  0  0
   -0.8332   -0.1005   -3.5231 C   0  0  2  0  0  0  0  0  0  0  0  0
   -2.1476   -0.8955   -3.3619 C   0  0  0  0  0  0  0  0  0  0  0  0
   -2.2242   -1.8070   -2.5408 O   0  0  0  0  0  0  0  0  0  0  0  0
   -0.0003   -0.6642   -4.6755 C   0  0  0  0  0  0  0  0  0  0  0  0
    0.3117   -1.1202   -2.0544 H   0  0  0  0  0  0  0  0  0  0  0  0
   -1.0818    0.9417   -3.7491 H   0  0  0  0  0  0  0  0  0  0  0  0
    0.2619   -1.7099   -4.4826 H   0  0  0  0  0  0  0  0  0  0  0  0
   -0.5606   -0.6134   -5.6140 H   0  0  0  0  0  0  0  0  0  0  0  0
    0.9238   -0.0892   -4.7912 H   0  0  0  0  0  0  0  0  0  0  0  0
   -3.2518   -0.5862   -4.1331 N   0  0  0  0  0  0  0  0  0  0  0  0
   -4.5462   -1.2361   -3.9674 C   0  0  0  0  0  0  0  0  0  0  0  0
   -3.1878    0.2333   -4.7302 H   0  0  0  0  0  0  0  0  0  0  0  0
   -4.4521   -2.3191   -4.0995 H   0  0  0  0  0  0  0  0  0  0  0  0
   -4.9499   -1.0361   -2.9692 H   0  0  0  0  0  0  0  0  0  0  0  0
   -5.2555   -0.8600   -4.7107 H   0  0  0  0  0  0  0  0  0  0  0  0
  1  2  2  0  0  0  0
  1  3  1  0  0  0  0
  1  7  1  0  0  0  0
  3  4  1  0  0  0  0
  3  5  1  0  0  0  0
  3  6  1  0  0  0  0
  7  8  1  0  0  0  0
  7 12  1  0  0  0  0
  8  9  1  0  0  0  0
  8 11  1  0  0  0  0
  8 13  1  0  0  0  0
  9 10  2  0  0  0  0
  9 17  1  0  0  0  0
 11 14  1  0  0  0  0
 11 15  1  0  0  0  0
 11 16  1  0  0  0  0
 17 18  1  0  0  0  0
 17 25  1  0  0  0  0
 18 19  1  0  0  0  0
 18 21  1  0  0  0  0
 18 26  1  0  0  0  0
 19 20  2  0  0  0  0
 19 36  1  0  0  0  0
 21 22  1  0  0  0  0
 21 23  1  0  0  0  0
 21 27  1  0  0  0  0
 22 24  1  0  0  0  0
 22 28  1  0  0  0  0
 22 29  1  0  0  0  0
 23 30  1  0  0  0  0
 23 31  1  0  0  0  0
 23 32  1  0  0  0  0
 24 33  1  0  0  0  0
 24 34  1  0  0  0  0
 24 35  1  0  0  0  0
 36 37  1  0  0  0  0
 36 41  1  0  0  0  0
 37 38  1  0  0  0  0
 37 40  1  0  0  0  0
 37 42  1  0  0  0  0
 38 39  2  0  0  0  0
 38 46  1  0  0  0  0
 40 43  1  0  0  0  0
 40 44  1  0  0  0  0
 40 45  1  0  0  0  0
 46 47  1  0  0  0  0
 46 48  1  0  0  0  0
 47 49  1  0  0  0  0
 47 50  1  0  0  0  0
 47 51  1  0  0  0  0
M  END
$$$$

  -OEChem-05262216503D

 51 50  0     1  0  0  0  0  0999 V2000
    1.0892   -3.9815   -0.9192 C   0  0  0  0  0  0  0  0  0  0  0  0
    0.6594   -3.1421   -1.6982 O   0  0  0  0  0  0  0  0  0  0  0  0
    2.4612   -4.5883   -1.1427 C   0  0  0  0  0  0  0  0  0  0  0  0
    2.8976   -4.2053   -2.0696 H   0  0  0  0  0  0  0  0  0  0  0  0
    3.1221   -4.3332   -0.3106 H   0  0  0  0  0  0  0  0  0  0  0  0
    2.3814   -5.6756   -1.2161 H   0  0  0  0  0  0  0  0  0  0  0  0
    0.3528   -4.3475    0.1895 N   0  0  0  0  0  0  0  0  0  0  0  0
   -0.9550   -3.7718    0.5373 C   0  0  2  0  0  0  0  0  0  0  0  0
   -0.8230   -2.3257    1.0714 C   0  0  0  0  0  0  0  0  0  0  0  0
   -0.9449   -2.0732    2.2623 O   0  0  0  0  0  0  0  0  0  0  0  0
   -1.6313   -4.7154    1.5396 C   0  0  0  0  0  0  0  0  0  0  0  0
    0.7970   -4.9701    0.8581 H   0  0  0  0  0  0  0  0  0  0  0  0
   -1.5862   -3.7343   -0.3580 H   0  0  0  0  0  0  0  0  0  0  0  0
   -1.0346   -4.8035    2.4532 H   0  0  0  0  0  0  0  0  0  0  0  0
   -2.6204   -4.3316    1.8093 H   0  0  0  0  0  0  0  0  0  0  0  0
   -1.7549   -5.7110    1.1032 H   0  0  0  0  0  0  0  0  0  0  0  0
   -0.7612   -1.3130    0.1388 N   0  0  0  0  0  0  0  0  0  0  0  0
   -0.2446    0.0792    0.1850 C   0  0  2  0  0  0  0  0  0  0  0  0
   -0.1476    0.5244   -1.3045 C   0  0  0  0  0  0  0  0  0  0  0  0
   -0.4985    1.6632   -1.5922 O   0  0  0  0  0  0  0  0  0  0  0  0
    1.2254    0.2899    0.7393 C   0  0  2  0  0  0  0  0  0  0  0  0
    1.4713   -0.1118    2.2156 C   0  0  0  0  0  0  0  0  0  0  0  0
    1.6537    1.7743    0.5952 C   0  0  0  0  0  0  0  0  0  0  0  0
    2.9509   -0.1364    2.6238 C   0  0  0  0  0  0  0  0  0  0  0  0
   -1.0460   -1.6385   -0.7896 H   0  0  0  0  0  0  0  0  0  0  0  0
   -0.9490    0.7181    0.7273 H   0  0  0  0  0  0  0  0  0  0  0  0
    1.8933   -0.3233    0.1240 H   0  0  0  0  0  0  0  0  0  0  0  0
    1.1574   -1.1367    2.3644 H   0  0  0  0  0  0  0  0  0  0  0  0
    0.8931    0.5283    2.8900 H   0  0  0  0  0  0  0  0  0  0  0  0
    0.9206    2.4283    1.0780 H   0  0  0  0  0  0  0  0  0  0  0  0
    2.6300    1.9646    1.0435 H   0  0  0  0  0  0  0  0  0  0  0  0
    1.7463    2.0681   -0.4534 H   0  0  0  0  0  0  0  0  0  0  0  0
    3.5489   -0.6648    1.8752 H   0  0  0  0  0  0  0  0  0  0  0  0
    3.0594   -0.6560    3.5806 H   0  0  0  0  0  0  0  0  0  0  0  0
    3.3496    0.8734    2.7492 H   0  0  0  0  0  0  0  0  0  0  0  0
   -0.1997   -0.4123   -2.3271 N   0  0  0  0  0  0  0  0  0  0  0  0
   -1.1476   -0.3216   -3.4424 C   0  0  2  0  0  0  0  0  0  0  0  0
   -2.4862   -1.0015   -3.0809 C   0  0  0  0  0  0  0  0  0  0  0  0
   -2.5251   -1.8714   -2.2134 O   0  0  0  0  0  0  0  0  0  0  0  0
   -0.5050   -1.0034   -4.6511 C   0  0  0  0  0  0  0  0  0  0  0  0
    0.0776   -1.3621   -2.0594 H   0  0  0  0  0  0  0  0  0  0  0  0
   -1.3462    0.7244   -3.6982 H   0  0  0  0  0  0  0  0  0  0  0  0
   -0.3020   -2.0572   -4.4328 H   0  0  0  0  0  0  0  0  0  0  0  0
   -1.1684   -0.9482   -5.5193 H   0  0  0  0  0  0  0  0  0  0  0  0
    0.4398   -0.5119   -4.9041 H   0  0  0  0  0  0  0  0  0  0  0  0
   -3.6538   -0.6332   -3.7222 N   0  0  0  0  0  0  0  0  0  0  0  0
   -4.9612   -1.1679   -3.3624 C   0  0  0  0  0  0  0  0  0  0  0  0
   -3.6050    0.1541   -4.3625 H   0  0  0  0  0  0  0  0  0  0  0  0
   -4.9732   -2.2576   -3.4708 H   0  0  0  0  0  0  0  0  0  0  0  0
   -5.2064   -0.9142   -2.3256 H   0  0  0  0  0  0  0  0  0  0  0  0
   -5.7342   -0.7488   -4.0136 H   0  0  0  0  0  0  0  0  0  0  0  0
  1  2  2  0  0  0  0
  1  3  1  0  0  0  0
  1  7  1  0  0  0  0
  3  4  1  0  0  0  0
  3  5  1  0  0  0  0
  3  6  1  0  0  0  0
  7  8  1  0  0  0  0
  7 12  1  0  0  0  0
  8  9  1  0  0  0  0
  8 11  1  0  0  0  0
  8 13  1  0  0  0  0
  9 10  2  0  0  0  0
  9 17  1  0  0  0  0
 11 14  1  0  0  0  0
 11 15  1  0  0  0  0
 11 16  1  0  0  0  0
 17 18  1  0  0  0  0
 17 25  1  0  0  0  0
 18 19  1  0  0  0  0
 18 21  1  0  0  0  0
 18 26  1  0  0  0  0
 19 20  2  0  0  0  0
 19 36  1  0  0  0  0
 21 22  1  0  0  0  0
 21 23  1  0  0  0  0
 21 27  1  0  0  0  0
 22 24  1  0  0  0  0
 22 28  1  0  0  0  0
 22 29  1  0  0  0  0
 23 30  1  0  0  0  0
 23 31  1  0  0  0  0
 23 32  1  0  0  0  0
 24 33  1  0  0  0  0
 24 34  1  0  0  0  0
 24 35  1  0  0  0  0
 36 37  1  0  0  0  0
 36 41  1  0  0  0  0
 37 38  1  0  0  0  0
 37 40  1  0  0  0  0
 37 42  1  0  0  0  0
 38 39  2  0  0  0  0
 38 46  1  0  0  0  0
 40 43  1  0  0  0  0
 40 44  1  0  0  0  0
 40 45  1  0  0  0  0
 46 47  1  0  0  0  0
 46 48  1  0  0  0  0
 47 49  1  0  0  0  0
 47 50  1  0  0  0  0
 47 51  1  0  0  0  0
M  END
$$$$

  -OEChem-05262216503D

 51 50  0     1  0  0  0  0  0999 V2000
    0.6349   -4.0058   -0.7520 C   0  0  0  0  0  0  0  0  0  0  0  0
   -0.2573   -3.4113   -1.3397 O   0  0  0  0  0  0  0  0  0  0  0  0
    1.8963   -4.4113   -1.4893 C   0  0  0  0  0  0  0  0  0  0  0  0
    1.7747   -4.2437   -2.5633 H   0  0  0  0  0  0  0  0  0  0  0  0
    2.7435   -3.8196   -1.1340 H   0  0  0  0  0  0  0  0  0  0  0  0
    2.1048   -5.4708   -1.3218 H   0  0  0  0  0  0  0  0  0  0  0  0
    0.5171   -4.2371    0.6035 N   0  0  0  0  0  0  0  0  0  0  0  0
   -0.6770   -3.9122    1.4019 C   0  0  2  0  0  0  0  0  0  0  0  0
   -0.7970   -2.3983    1.7050 C   0  0  0  0  0  0  0  0  0  0  0  0
   -0.9543   -1.9796    2.8443 O   0  0  0  0  0  0  0  0  0  0  0  0
   -0.6221   -4.7694    2.6726 C   0  0  0  0  0  0  0  0  0  0  0  0
    1.2966   -4.6957    1.0671 H   0  0  0  0  0  0  0  0  0  0  0  0
   -1.5756   -4.1997    0.8444 H   0  0  0  0  0  0  0  0  0  0  0  0
    0.2509   -4.5055    3.2781 H   0  0  0  0  0  0  0  0  0  0  0  0
   -1.5217   -4.6094    3.2761 H   0  0  0  0  0  0  0  0  0  0  0  0
   -0.5656   -5.8317    2.4165 H   0  0  0  0  0  0  0  0  0  0  0  0
   -0.9553   -1.5261    0.6501 N   0  0  0  0  0  0  0  0  0  0  0  0
   -0.4368   -0.1426    0.4764 C   0  0  2  0  0  0  0  0  0  0  0  0
   -0.6092    0.2136   -1.0399 C   0  0  0  0  0  0  0  0  0  0  0  0
   -0.6198    1.3889   -1.3872 O   0  0  0  0  0  0  0  0  0  0  0  0
    1.1181    0.0323    0.7939 C   0  0  2  0  0  0  0  0  0  0  0  0
    1.5748   -0.2557    2.2532 C   0  0  0  0  0  0  0  0  0  0  0  0
    1.6079    1.4660    0.4565 C   0  0  0  0  0  0  0  0  0  0  0  0
    3.0980   -0.3297    2.4442 C   0  0  0  0  0  0  0  0  0  0  0  0
   -0.9842   -2.0612   -0.2166 H   0  0  0  0  0  0  0  0  0  0  0  0
   -1.0264    0.5512    1.0842 H   0  0  0  0  0  0  0  0  0  0  0  0
    1.6553   -0.6694    0.1468 H   0  0  0  0  0  0  0  0  0  0  0  0
    1.2464   -1.2396    2.5582 H   0  0  0  0  0  0  0  0  0  0  0  0
    1.1373    0.4770    2.9390 H   0  0  0  0  0  0  0  0  0  0  0  0
    0.9153    2.2099    0.8632 H   0  0  0  0  0  0  0  0  0  0  0  0
    2.5997    1.6793    0.8546 H   0  0  0  0  0  0  0  0  0  0  0  0
    1.6898    1.6083   -0.6240 H   0  0  0  0  0  0  0  0  0  0  0  0
    3.5576   -0.9303    1.6532 H   0  0  0  0  0  0  0  0  0  0  0  0
    3.3241   -0.7987    3.4070 H   0  0  0  0  0  0  0  0  0  0  0  0
    3.5559    0.6626    2.4487 H   0  0  0  0  0  0  0  0  0  0  0  0
   -1.1493   -0.6782   -1.9590 N   0  0  0  0  0  0  0  0  0  0  0  0
   -1.7649   -0.3287   -3.2472 C   0  0  2  0  0  0  0  0  0  0  0  0
   -3.2361   -0.7878   -3.3147 C   0  0  0  0  0  0  0  0  0  0  0  0
   -3.5969   -1.8071   -2.7367 O   0  0  0  0  0  0  0  0  0  0  0  0
   -0.9439   -1.0060   -4.3462 C   0  0  0  0  0  0  0  0  0  0  0  0
   -1.2236   -1.6581   -1.6864 H   0  0  0  0  0  0  0  0  0  0  0  0
   -1.7479    0.7528   -3.4127 H   0  0  0  0  0  0  0  0  0  0  0  0
   -0.9474   -2.0929   -4.2115 H   0  0  0  0  0  0  0  0  0  0  0  0
   -1.3595   -0.7760   -5.3320 H   0  0  0  0  0  0  0  0  0  0  0  0
    0.0918   -0.6539   -4.3153 H   0  0  0  0  0  0  0  0  0  0  0  0
   -4.1554   -0.0762   -4.0636 N   0  0  0  0  0  0  0  0  0  0  0  0
   -5.5652   -0.4375   -4.1460 C   0  0  0  0  0  0  0  0  0  0  0  0
   -3.8467    0.8001   -4.4741 H   0  0  0  0  0  0  0  0  0  0  0  0
   -5.6780   -1.4464   -4.5567 H   0  0  0  0  0  0  0  0  0  0  0  0
   -6.0267   -0.4074   -3.1533 H   0  0  0  0  0  0  0  0  0  0  0  0
   -6.0983    0.2615   -4.7974 H   0  0  0  0  0  0  0  0  0  0  0  0
  1  2  2  0  0  0  0
  1  3  1  0  0  0  0
  1  7  1  0  0  0  0
  3  4  1  0  0  0  0
  3  5  1  0  0  0  0
  3  6  1  0  0  0  0
  7  8  1  0  0  0  0
  7 12  1  0  0  0  0
  8  9  1  0  0  0  0
  8 11  1  0  0  0  0
  8 13  1  0  0  0  0
  9 10  2  0  0  0  0
  9 17  1  0  0  0  0
 11 14  1  0  0  0  0
 11 15  1  0  0  0  0
 11 16  1  0  0  0  0
 17 18  1  0  0  0  0
 17 25  1  0  0  0  0
 18 19  1  0  0  0  0
 18 21  1  0  0  0  0
 18 26  1  0  0  0  0
 19 20  2  0  0  0  0
 19 36  1  0  0  0  0
 21 22  1  0  0  0  0
 21 23  1  0  0  0  0
 21 27  1  0  0  0  0
 22 24  1  0  0  0  0
 22 28  1  0  0  0  0
 22 29  1  0  0  0  0
 23 30  1  0  0  0  0
 23 31  1  0  0  0  0
 23 32  1  0  0  0  0
 24 33  1  0  0  0  0
 24 34  1  0  0  0  0
 24 35  1  0  0  0  0
 36 37  1  0  0  0  0
 36 41  1  0  0  0  0
 37 38  1  0  0  0  0
 37 40  1  0  0  0  0
 37 42  1  0  0  0  0
 38 39  2  0  0  0  0
 38 46  1  0  0  0  0
 40 43  1  0  0  0  0
 40 44  1  0  0  0  0
 40 45  1  0  0  0  0
 46 47  1  0  0  0  0
 46 48  1  0  0  0  0
 47 49  1  0  0  0  0
 47 50  1  0  0  0  0
 47 51  1  0  0  0  0
M  END
$$$$

  -OEChem-05262216503D

 51 50  0     1  0  0  0  0  0999 V2000
    0.5049   -3.8661   -0.6774 C   0  0  0  0  0  0  0  0  0  0  0  0
   -0.5099   -3.4084   -1.1797 O   0  0  0  0  0  0  0  0  0  0  0  0
    1.7429   -4.1012   -1.5209 C   0  0  0  0  0  0  0  0  0  0  0  0
    1.5333   -3.8733   -2.5699 H   0  0  0  0  0  0  0  0  0  0  0  0
    2.5567   -3.4578   -1.1775 H   0  0  0  0  0  0  0  0  0  0  0  0
    2.0553   -5.1454   -1.4438 H   0  0  0  0  0  0  0  0  0  0  0  0
    0.5358   -4.0961    0.6826 N   0  0  0  0  0  0  0  0  0  0  0  0
   -0.6013   -3.8530    1.5858 C   0  0  2  0  0  0  0  0  0  0  0  0
   -0.7851   -2.3485    1.8987 C   0  0  0  0  0  0  0  0  0  0  0  0
   -0.8359   -1.9252    3.0461 O   0  0  0  0  0  0  0  0  0  0  0  0
   -0.3740   -4.6986    2.8449 C   0  0  0  0  0  0  0  0  0  0  0  0
    1.4147   -4.4123    1.0829 H   0  0  0  0  0  0  0  0  0  0  0  0
   -1.5266   -4.1999    1.1126 H   0  0  0  0  0  0  0  0  0  0  0  0
    0.5285   -4.3722    3.3717 H   0  0  0  0  0  0  0  0  0  0  0  0
   -1.2255   -4.5996    3.5256 H   0  0  0  0  0  0  0  0  0  0  0  0
   -0.2655   -5.7551    2.5821 H   0  0  0  0  0  0  0  0  0  0  0  0
   -1.0409   -1.4652    0.8730 N   0  0  0  0  0  0  0  0  0  0  0  0
   -0.3927   -0.1459    0.6348 C   0  0  2  0  0  0  0  0  0  0  0  0
   -0.8058    0.2047   -0.8416 C   0  0  0  0  0  0  0  0  0  0  0  0
   -0.3147    1.1126   -1.4991 O   0  0  0  0  0  0  0  0  0  0  0  0
    1.1980   -0.1199    0.7600 C   0  0  2  0  0  0  0  0  0  0  0  0
    1.7971   -0.4626    2.1570 C   0  0  0  0  0  0  0  0  0  0  0  0
    1.7447    1.2937    0.4098 C   0  0  0  0  0  0  0  0  0  0  0  0
    3.3194   -0.6815    2.1546 C   0  0  0  0  0  0  0  0  0  0  0  0
   -1.1250   -2.0020    0.0033 H   0  0  0  0  0  0  0  0  0  0  0  0
   -0.8240    0.5955    1.3145 H   0  0  0  0  0  0  0  0  0  0  0  0
    1.5989   -0.8416    0.0405 H   0  0  0  0  0  0  0  0  0  0  0  0
    1.4140   -1.4094    2.5130 H   0  0  0  0  0  0  0  0  0  0  0  0
    1.5214    0.3067    2.8860 H   0  0  0  0  0  0  0  0  0  0  0  0
    1.0135    2.0640    0.6751 H   0  0  0  0  0  0  0  0  0  0  0  0
    2.6702    1.5454    0.9266 H   0  0  0  0  0  0  0  0  0  0  0  0
    1.9635    1.3645   -0.6594 H   0  0  0  0  0  0  0  0  0  0  0  0
    3.6077   -1.3507    1.3383 H   0  0  0  0  0  0  0  0  0  0  0  0
    3.6231   -1.1418    3.0999 H   0  0  0  0  0  0  0  0  0  0  0  0
    3.8738    0.2541    2.0542 H   0  0  0  0  0  0  0  0  0  0  0  0
   -1.8351   -0.4881   -1.4619 N   0  0  0  0  0  0  0  0  0  0  0  0
   -2.3857   -0.1994   -2.7922 C   0  0  2  0  0  0  0  0  0  0  0  0
   -3.9082   -0.4434   -2.8391 C   0  0  0  0  0  0  0  0  0  0  0  0
   -4.4666   -1.0605   -1.9382 O   0  0  0  0  0  0  0  0  0  0  0  0
   -1.6647   -1.0944   -3.8037 C   0  0  0  0  0  0  0  0  0  0  0  0
   -2.4107   -1.0778   -0.8610 H   0  0  0  0  0  0  0  0  0  0  0  0
   -2.2190    0.8511   -3.0518 H   0  0  0  0  0  0  0  0  0  0  0  0
   -1.8341   -2.1501   -3.5673 H   0  0  0  0  0  0  0  0  0  0  0  0
   -2.0275   -0.9003   -4.8174 H   0  0  0  0  0  0  0  0  0  0  0  0
   -0.5877   -0.9013   -3.7788 H   0  0  0  0  0  0  0  0  0  0  0  0
   -4.6600    0.0454   -3.8918 N   0  0  0  0  0  0  0  0  0  0  0  0
   -6.1049   -0.1208   -3.9894 C   0  0  0  0  0  0  0  0  0  0  0  0
   -4.1740    0.5718   -4.6117 H   0  0  0  0  0  0  0  0  0  0  0  0
   -6.3656   -1.1831   -4.0426 H   0  0  0  0  0  0  0  0  0  0  0  0
   -6.6013    0.3212   -3.1190 H   0  0  0  0  0  0  0  0  0  0  0  0
   -6.4823    0.3733   -4.8898 H   0  0  0  0  0  0  0  0  0  0  0  0
  1  2  2  0  0  0  0
  1  3  1  0  0  0  0
  1  7  1  0  0  0  0
  3  4  1  0  0  0  0
  3  5  1  0  0  0  0
  3  6  1  0  0  0  0
  7  8  1  0  0  0  0
  7 12  1  0  0  0  0
  8  9  1  0  0  0  0
  8 11  1  0  0  0  0
  8 13  1  0  0  0  0
  9 10  2  0  0  0  0
  9 17  1  0  0  0  0
 11 14  1  0  0  0  0
 11 15  1  0  0  0  0
 11 16  1  0  0  0  0
 17 18  1  0  0  0  0
 17 25  1  0  0  0  0
 18 19  1  0  0  0  0
 18 21  1  0  0  0  0
 18 26  1  0  0  0  0
 19 20  2  0  0  0  0
 19 36  1  0  0  0  0
 21 22  1  0  0  0  0
 21 23  1  0  0  0  0
 21 27  1  0  0  0  0
 22 24  1  0  0  0  0
 22 28  1  0  0  0  0
 22 29  1  0  0  0  0
 23 30  1  0  0  0  0
 23 31  1  0  0  0  0
 23 32  1  0  0  0  0
 24 33  1  0  0  0  0
 24 34  1  0  0  0  0
 24 35  1  0  0  0  0
 36 37  1  0  0  0  0
 36 41  1  0  0  0  0
 37 38  1  0  0  0  0
 37 40  1  0  0  0  0
 37 42  1  0  0  0  0
 38 39  2  0  0  0  0
 38 46  1  0  0  0  0
 40 43  1  0  0  0  0
 40 44  1  0  0  0  0
 40 45  1  0  0  0  0
 46 47  1  0  0  0  0
 46 48  1  0  0  0  0
 47 49  1  0  0  0  0
 47 50  1  0  0  0  0
 47 51  1  0  0  0  0
M  END
$$$$

  -OEChem-05262216503D

 51 50  0     1  0  0  0  0  0999 V2000
    0.1414   -3.9417   -0.7526 C   0  0  0  0  0  0  0  0  0  0  0  0
   -0.9478   -3.4875   -1.0657 O   0  0  0  0  0  0  0  0  0  0  0  0
    1.1989   -4.1962   -1.8085 C   0  0  0  0  0  0  0  0  0  0  0  0
    2.0807   -3.5819   -1.6105 H   0  0  0  0  0  0  0  0  0  0  0  0
    1.4872   -5.2500   -1.8019 H   0  0  0  0  0  0  0  0  0  0  0  0
    0.8102   -3.9435   -2.7992 H   0  0  0  0  0  0  0  0  0  0  0  0
    0.4203   -4.1545    0.5817 N   0  0  0  0  0  0  0  0  0  0  0  0
   -0.5369   -3.9054    1.6731 C   0  0  2  0  0  0  0  0  0  0  0  0
   -0.6584   -2.4006    2.0150 C   0  0  0  0  0  0  0  0  0  0  0  0
   -0.6068   -1.9929    3.1677 O   0  0  0  0  0  0  0  0  0  0  0  0
   -0.0921   -4.7521    2.8722 C   0  0  0  0  0  0  0  0  0  0  0  0
    1.3564   -4.4714    0.8183 H   0  0  0  0  0  0  0  0  0  0  0  0
   -1.5330   -4.2487    1.3724 H   0  0  0  0  0  0  0  0  0  0  0  0
    0.8858   -4.4215    3.2370 H   0  0  0  0  0  0  0  0  0  0  0  0
   -0.8148   -4.6602    3.6898 H   0  0  0  0  0  0  0  0  0  0  0  0
   -0.0249   -5.8076    2.5918 H   0  0  0  0  0  0  0  0  0  0  0  0
   -0.9757   -1.4988    1.0227 N   0  0  0  0  0  0  0  0  0  0  0  0
   -0.3620   -0.1648    0.7966 C   0  0  2  0  0  0  0  0  0  0  0  0
   -0.8529    0.1897   -0.6539 C   0  0  0  0  0  0  0  0  0  0  0  0
   -0.1640    0.7352   -1.5087 O   0  0  0  0  0  0  0  0  0  0  0  0
    1.2214   -0.0694    0.8447 C   0  0  2  0  0  0  0  0  0  0  0  0
    1.9155   -0.4208    2.1897 C   0  0  0  0  0  0  0  0  0  0  0  0
    1.6641    1.3930    0.5317 C   0  0  0  0  0  0  0  0  0  0  0  0
    3.4407   -0.5554    2.0559 C   0  0  0  0  0  0  0  0  0  0  0  0
   -1.1684   -1.9988    0.1475 H   0  0  0  0  0  0  0  0  0  0  0  0
   -0.7865    0.5488    1.5096 H   0  0  0  0  0  0  0  0  0  0  0  0
    1.6162   -0.7408    0.0744 H   0  0  0  0  0  0  0  0  0  0  0  0
    1.5982   -1.3964    2.5391 H   0  0  0  0  0  0  0  0  0  0  0  0
    1.6552    0.3124    2.9606 H   0  0  0  0  0  0  0  0  0  0  0  0
    0.8072    2.0734    0.5074 H   0  0  0  0  0  0  0  0  0  0  0  0
    2.3542    1.8033    1.2731 H   0  0  0  0  0  0  0  0  0  0  0  0
    2.1611    1.4293   -0.4429 H   0  0  0  0  0  0  0  0  0  0  0  0
    3.6918   -1.2810    1.2762 H   0  0  0  0  0  0  0  0  0  0  0  0
    3.8636   -0.9066    3.0022 H   0  0  0  0  0  0  0  0  0  0  0  0
    3.9165    0.3970    1.8092 H   0  0  0  0  0  0  0  0  0  0  0  0
   -2.0724   -0.2995   -1.0947 N   0  0  0  0  0  0  0  0  0  0  0  0
   -2.6499   -0.0867   -2.4284 C   0  0  2  0  0  0  0  0  0  0  0  0
   -4.1891    0.0066   -2.3737 C   0  0  0  0  0  0  0  0  0  0  0  0
   -4.7944   -0.3038   -1.3534 O   0  0  0  0  0  0  0  0  0  0  0  0
   -2.2133   -1.2454   -3.3300 C   0  0  0  0  0  0  0  0  0  0  0  0
   -2.6987   -0.6745   -0.3813 H   0  0  0  0  0  0  0  0  0  0  0  0
   -2.2822    0.8561   -2.8467 H   0  0  0  0  0  0  0  0  0  0  0  0
   -2.5947   -2.1955   -2.9419 H   0  0  0  0  0  0  0  0  0  0  0  0
   -2.5920   -1.1068   -4.3468 H   0  0  0  0  0  0  0  0  0  0  0  0
   -1.1209   -1.3015   -3.3732 H   0  0  0  0  0  0  0  0  0  0  0  0
   -4.9013    0.4566   -3.4707 N   0  0  0  0  0  0  0  0  0  0  0  0
   -6.3530    0.5893   -3.4835 C   0  0  0  0  0  0  0  0  0  0  0  0
   -4.3741    0.7222   -4.2971 H   0  0  0  0  0  0  0  0  0  0  0  0
   -6.8282   -0.3736   -3.2683 H   0  0  0  0  0  0  0  0  0  0  0  0
   -6.6776    1.3175   -2.7327 H   0  0  0  0  0  0  0  0  0  0  0  0
   -6.6929    0.9299   -4.4664 H   0  0  0  0  0  0  0  0  0  0  0  0
  1  2  2  0  0  0  0
  1  3  1  0  0  0  0
  1  7  1  0  0  0  0
  3  4  1  0  0  0  0
  3  5  1  0  0  0  0
  3  6  1  0  0  0  0
  7  8  1  0  0  0  0
  7 12  1  0  0  0  0
  8  9  1  0  0  0  0
  8 11  1  0  0  0  0
  8 13  1  0  0  0  0
  9 10  2  0  0  0  0
  9 17  1  0  0  0  0
 11 14  1  0  0  0  0
 11 15  1  0  0  0  0
 11 16  1  0  0  0  0
 17 18  1  0  0  0  0
 17 25  1  0  0  0  0
 18 19  1  0  0  0  0
 18 21  1  0  0  0  0
 18 26  1  0  0  0  0
 19 20  2  0  0  0  0
 19 36  1  0  0  0  0
 21 22  1  0  0  0  0
 21 23  1  0  0  0  0
 21 27  1  0  0  0  0
 22 24  1  0  0  0  0
 22 28  1  0  0  0  0
 22 29  1  0  0  0  0
 23 30  1  0  0  0  0
 23 31  1  0  0  0  0
 23 32  1  0  0  0  0
 24 33  1  0  0  0  0
 24 34  1  0  0  0  0
 24 35  1  0  0  0  0
 36 37  1  0  0  0  0
 36 41  1  0  0  0  0
 37 38  1  0  0  0  0
 37 40  1  0  0  0  0
 37 42  1  0  0  0  0
 38 39  2  0  0  0  0
 38 46  1  0  0  0  0
 40 43  1  0  0  0  0
 40 44  1  0  0  0  0
 40 45  1  0  0  0  0
 46 47  1  0  0  0  0
 46 48  1  0  0  0  0
 47 49  1  0  0  0  0
 47 50  1  0  0  0  0
 47 51  1  0  0  0  0
M  END
$$$$

  -OEChem-05262216503D

 51 50  0     1  0  0  0  0  0999 V2000
    2.0035   -5.2559    0.7226 C   0  0  0  0  0  0  0  0  0  0  0  0
    2.0823   -5.2370   -0.4953 O   0  0  0  0  0  0  0  0  0  0  0  0
    3.1589   -5.7886    1.5491 C   0  0  0  0  0  0  0  0  0  0  0  0
    3.9206   -6.2242    0.8963 H   0  0  0  0  0  0  0  0  0  0  0  0
    3.6101   -4.9767    2.1252 H   0  0  0  0  0  0  0  0  0  0  0  0
    2.8033   -6.5601    2.2363 H   0  0  0  0  0  0  0  0  0  0  0  0
    0.8789   -4.7722    1.3578 N   0  0  0  0  0  0  0  0  0  0  0  0
   -0.1603   -3.9775    0.6885 C   0  0  2  0  0  0  0  0  0  0  0  0
   -0.1721   -2.5287    1.2162 C   0  0  0  0  0  0  0  0  0  0  0  0
    0.1427   -2.3030    2.3787 O   0  0  0  0  0  0  0  0  0  0  0  0
   -1.5061   -4.6604    0.9445 C   0  0  0  0  0  0  0  0  0  0  0  0
    0.9635   -4.6380    2.3639 H   0  0  0  0  0  0  0  0  0  0  0  0
    0.0132   -3.9376   -0.3921 H   0  0  0  0  0  0  0  0  0  0  0  0
   -1.7191   -4.6985    2.0178 H   0  0  0  0  0  0  0  0  0  0  0  0
   -2.3149   -4.1153    0.4483 H   0  0  0  0  0  0  0  0  0  0  0  0
   -1.4899   -5.6834    0.5557 H   0  0  0  0  0  0  0  0  0  0  0  0
   -0.7685   -1.5183    0.4915 N   0  0  0  0  0  0  0  0  0  0  0  0
   -0.3444   -0.0963    0.4129 C   0  0  2  0  0  0  0  0  0  0  0  0
   -1.1692    0.3891   -0.8250 C   0  0  0  0  0  0  0  0  0  0  0  0
   -0.6699    0.7862   -1.8711 O   0  0  0  0  0  0  0  0  0  0  0  0
    1.1835    0.2458    0.1723 C   0  0  2  0  0  0  0  0  0  0  0  0
    2.1752   -0.2182    1.2730 C   0  0  0  0  0  0  0  0  0  0  0  0
    1.3748    1.7893    0.1115 C   0  0  0  0  0  0  0  0  0  0  0  0
    3.6470   -0.0917    0.8591 C   0  0  0  0  0  0  0  0  0  0  0  0
   -1.1635   -1.8622   -0.3819 H   0  0  0  0  0  0  0  0  0  0  0  0
   -0.6830    0.4299    1.3107 H   0  0  0  0  0  0  0  0  0  0  0  0
    1.4859   -0.2028   -0.7807 H   0  0  0  0  0  0  0  0  0  0  0  0
    2.0524   -1.2804    1.4523 H   0  0  0  0  0  0  0  0  0  0  0  0
    1.9897    0.3072    2.2155 H   0  0  0  0  0  0  0  0  0  0  0  0
    1.2487    2.2289    1.1060 H   0  0  0  0  0  0  0  0  0  0  0  0
    2.3726    2.0411   -0.2562 H   0  0  0  0  0  0  0  0  0  0  0  0
    0.6686    2.2874   -0.5534 H   0  0  0  0  0  0  0  0  0  0  0  0
    3.8114   -0.5463   -0.1229 H   0  0  0  0  0  0  0  0  0  0  0  0
    4.2816   -0.6057    1.5874 H   0  0  0  0  0  0  0  0  0  0  0  0
    3.9619    0.9544    0.8223 H   0  0  0  0  0  0  0  0  0  0  0  0
   -2.5050    0.0301   -0.9041 N   0  0  0  0  0  0  0  0  0  0  0  0
   -3.4092    0.3878   -2.0060 C   0  0  2  0  0  0  0  0  0  0  0  0
   -4.8315    0.6802   -1.4859 C   0  0  0  0  0  0  0  0  0  0  0  0
   -5.1522    0.3318   -0.3546 O   0  0  0  0  0  0  0  0  0  0  0  0
   -3.4272   -0.7682   -3.0102 C   0  0  0  0  0  0  0  0  0  0  0  0
   -2.9520   -0.2423   -0.0270 H   0  0  0  0  0  0  0  0  0  0  0  0
   -3.0514    1.2952   -2.5047 H   0  0  0  0  0  0  0  0  0  0  0  0
   -3.7934   -1.6832   -2.5337 H   0  0  0  0  0  0  0  0  0  0  0  0
   -4.0779   -0.5318   -3.8575 H   0  0  0  0  0  0  0  0  0  0  0  0
   -2.4182   -0.9533   -3.3924 H   0  0  0  0  0  0  0  0  0  0  0  0
   -5.7464    1.3510   -2.2758 N   0  0  0  0  0  0  0  0  0  0  0  0
   -7.0870    1.7011   -1.8220 C   0  0  0  0  0  0  0  0  0  0  0  0
   -5.4432    1.6530   -3.1974 H   0  0  0  0  0  0  0  0  0  0  0  0
   -7.6521    0.7989   -1.5649 H   0  0  0  0  0  0  0  0  0  0  0  0
   -7.0363    2.3483   -0.9399 H   0  0  0  0  0  0  0  0  0  0  0  0
   -7.6266    2.2341   -2.6107 H   0  0  0  0  0  0  0  0  0  0  0  0
  1  2  2  0  0  0  0
  1  3  1  0  0  0  0
  1  7  1  0  0  0  0
  3  4  1  0  0  0  0
  3  5  1  0  0  0  0
  3  6  1  0  0  0  0
  7  8  1  0  0  0  0
  7 12  1  0  0  0  0
  8  9  1  0  0  0  0
  8 11  1  0  0  0  0
  8 13  1  0  0  0  0
  9 10  2  0  0  0  0
  9 17  1  0  0  0  0
 11 14  1  0  0  0  0
 11 15  1  0  0  0  0
 11 16  1  0  0  0  0
 17 18  1  0  0  0  0
 17 25  1  0  0  0  0
 18 19  1  0  0  0  0
 18 21  1  0  0  0  0
 18 26  1  0  0  0  0
 19 20  2  0  0  0  0
 19 36  1  0  0  0  0
 21 22  1  0  0  0  0
 21 23  1  0  0  0  0
 21 27  1  0  0  0  0
 22 24  1  0  0  0  0
 22 28  1  0  0  0  0
 22 29  1  0  0  0  0
 23 30  1  0  0  0  0
 23 31  1  0  0  0  0
 23 32  1  0  0  0  0
 24 33  1  0  0  0  0
 24 34  1  0  0  0  0
 24 35  1  0  0  0  0
 36 37  1  0  0  0  0
 36 41  1  0  0  0  0
 37 38  1  0  0  0  0
 37 40  1  0  0  0  0
 37 42  1  0  0  0  0
 38 39  2  0  0  0  0
 38 46  1  0  0  0  0
 40 43  1  0  0  0  0
 40 44  1  0  0  0  0
 40 45  1  0  0  0  0
 46 47  1  0  0  0  0
 46 48  1  0  0  0  0
 47 49  1  0  0  0  0
 47 50  1  0  0  0  0
 47 51  1  0  0  0  0
M  END
$$$$

  -OEChem-05262216503D

 51 50  0     1  0  0  0  0  0999 V2000
    1.8710   -5.3612    0.6801 C   0  0  0  0  0  0  0  0  0  0  0  0
    1.8849   -5.3848   -0.5402 O   0  0  0  0  0  0  0  0  0  0  0  0
    3.0139   -5.9802    1.4628 C   0  0  0  0  0  0  0  0  0  0  0  0
    3.7379   -6.4333    0.7793 H   0  0  0  0  0  0  0  0  0  0  0  0
    3.5196   -5.2123    2.0535 H   0  0  0  0  0  0  0  0  0  0  0  0
    2.6316   -6.7537    2.1334 H   0  0  0  0  0  0  0  0  0  0  0  0
    0.8275   -4.7632    1.3554 N   0  0  0  0  0  0  0  0  0  0  0  0
   -0.1966   -3.9264    0.7141 C   0  0  2  0  0  0  0  0  0  0  0  0
   -0.1611   -2.4846    1.2594 C   0  0  0  0  0  0  0  0  0  0  0  0
    0.1995   -2.2786    2.4123 O   0  0  0  0  0  0  0  0  0  0  0  0
   -1.5594   -4.5705    0.9796 C   0  0  0  0  0  0  0  0  0  0  0  0
    0.9676   -4.6152    2.3534 H   0  0  0  0  0  0  0  0  0  0  0  0
   -0.0349   -3.8745   -0.3679 H   0  0  0  0  0  0  0  0  0  0  0  0
   -1.7577   -4.6193    2.0554 H   0  0  0  0  0  0  0  0  0  0  0  0
   -2.3572   -3.9913    0.5049 H   0  0  0  0  0  0  0  0  0  0  0  0
   -1.5819   -5.5869    0.5740 H   0  0  0  0  0  0  0  0  0  0  0  0
   -0.7642   -1.4555    0.5671 N   0  0  0  0  0  0  0  0  0  0  0  0
   -0.3193   -0.0423    0.4914 C   0  0  2  0  0  0  0  0  0  0  0  0
   -1.1688    0.4782   -0.7058 C   0  0  0  0  0  0  0  0  0  0  0  0
   -0.7129    0.6690   -1.8272 O   0  0  0  0  0  0  0  0  0  0  0  0
    1.2034    0.2745    0.1982 C   0  0  2  0  0  0  0  0  0  0  0  0
    2.2281   -0.2178    1.2539 C   0  0  0  0  0  0  0  0  0  0  0  0
    1.4089    1.8110    0.1011 C   0  0  0  0  0  0  0  0  0  0  0  0
    3.6848   -0.1128    0.7857 C   0  0  0  0  0  0  0  0  0  0  0  0
   -1.1902   -1.7819   -0.2980 H   0  0  0  0  0  0  0  0  0  0  0  0
   -0.6127    0.4780    1.4082 H   0  0  0  0  0  0  0  0  0  0  0  0
    1.4628   -0.1867   -0.7615 H   0  0  0  0  0  0  0  0  0  0  0  0
    2.0922   -1.2783    1.4320 H   0  0  0  0  0  0  0  0  0  0  0  0
    2.0888    0.3069    2.2046 H   0  0  0  0  0  0  0  0  0  0  0  0
    1.2898    2.2744    1.0856 H   0  0  0  0  0  0  0  0  0  0  0  0
    2.4073    2.0462   -0.2759 H   0  0  0  0  0  0  0  0  0  0  0  0
    0.7029    2.2908   -0.5794 H   0  0  0  0  0  0  0  0  0  0  0  0
    3.8056   -0.5680   -0.2024 H   0  0  0  0  0  0  0  0  0  0  0  0
    4.3370   -0.6390    1.4896 H   0  0  0  0  0  0  0  0  0  0  0  0
    4.0148    0.9283    0.7388 H   0  0  0  0  0  0  0  0  0  0  0  0
   -2.5468    0.4249   -0.5983 N   0  0  0  0  0  0  0  0  0  0  0  0
   -3.4954    0.8053   -1.6539 C   0  0  2  0  0  0  0  0  0  0  0  0
   -4.8397    1.2749   -1.0589 C   0  0  0  0  0  0  0  0  0  0  0  0
   -5.0884    1.0777    0.1255 O   0  0  0  0  0  0  0  0  0  0  0  0
   -3.7157   -0.3980   -2.5778 C   0  0  0  0  0  0  0  0  0  0  0  0
   -2.9353    0.2804    0.3348 H   0  0  0  0  0  0  0  0  0  0  0  0
   -3.0827    1.6380   -2.2335 H   0  0  0  0  0  0  0  0  0  0  0  0
   -4.1442   -1.2358   -2.0186 H   0  0  0  0  0  0  0  0  0  0  0  0
   -4.3979   -0.1373   -3.3924 H   0  0  0  0  0  0  0  0  0  0  0  0
   -2.7670   -0.7210   -3.0175 H   0  0  0  0  0  0  0  0  0  0  0  0
   -5.7730    1.9197   -1.8495 N   0  0  0  0  0  0  0  0  0  0  0  0
   -7.0669    2.3717   -1.3518 C   0  0  0  0  0  0  0  0  0  0  0  0
   -5.5406    2.0712   -2.8269 H   0  0  0  0  0  0  0  0  0  0  0  0
   -7.6603    1.5207   -1.0013 H   0  0  0  0  0  0  0  0  0  0  0  0
   -6.9352    3.0748   -0.5225 H   0  0  0  0  0  0  0  0  0  0  0  0
   -7.6231    2.8772   -2.1471 H   0  0  0  0  0  0  0  0  0  0  0  0
  1  2  2  0  0  0  0
  1  3  1  0  0  0  0
  1  7  1  0  0  0  0
  3  4  1  0  0  0  0
  3  5  1  0  0  0  0
  3  6  1  0  0  0  0
  7  8  1  0  0  0  0
  7 12  1  0  0  0  0
  8  9  1  0  0  0  0
  8 11  1  0  0  0  0
  8 13  1  0  0  0  0
  9 10  2  0  0  0  0
  9 17  1  0  0  0  0
 11 14  1  0  0  0  0
 11 15  1  0  0  0  0
 11 16  1  0  0  0  0
 17 18  1  0  0  0  0
 17 25  1  0  0  0  0
 18 19  1  0  0  0  0
 18 21  1  0  0  0  0
 18 26  1  0  0  0  0
 19 20  2  0  0  0  0
 19 36  1  0  0  0  0
 21 22  1  0  0  0  0
 21 23  1  0  0  0  0
 21 27  1  0  0  0  0
 22 24  1  0  0  0  0
 22 28  1  0  0  0  0
 22 29  1  0  0  0  0
 23 30  1  0  0  0  0
 23 31  1  0  0  0  0
 23 32  1  0  0  0  0
 24 33  1  0  0  0  0
 24 34  1  0  0  0  0
 24 35  1  0  0  0  0
 36 37  1  0  0  0  0
 36 41  1  0  0  0  0
 37 38  1  0  0  0  0
 37 40  1  0  0  0  0
 37 42  1  0  0  0  0
 38 39  2  0  0  0  0
 38 46  1  0  0  0  0
 40 43  1  0  0  0  0
 40 44  1  0  0  0  0
 40 45  1  0  0  0  0
 46 47  1  0  0  0  0
 46 48  1  0  0  0  0
 47 49  1  0  0  0  0
 47 50  1  0  0  0  0
 47 51  1  0  0  0  0
M  END
$$$$

  -OEChem-05262216503D

 51 50  0     1  0  0  0  0  0999 V2000
    1.9146   -5.5361    0.7390 C   0  0  0  0  0  0  0  0  0  0  0  0
    1.8312   -5.7324   -0.4630 O   0  0  0  0  0  0  0  0  0  0  0  0
    3.0586   -6.1413    1.5302 C   0  0  0  0  0  0  0  0  0  0  0  0
    3.7526   -6.6523    0.8571 H   0  0  0  0  0  0  0  0  0  0  0  0
    3.6009   -5.3571    2.0642 H   0  0  0  0  0  0  0  0  0  0  0  0
    2.6709   -6.8635    2.2526 H   0  0  0  0  0  0  0  0  0  0  0  0
    0.9754   -4.7581    1.3821 N   0  0  0  0  0  0  0  0  0  0  0  0
   -0.0433   -3.9545    0.6943 C   0  0  2  0  0  0  0  0  0  0  0  0
   -0.1284   -2.5352    1.2908 C   0  0  0  0  0  0  0  0  0  0  0  0
    0.2442   -2.3273    2.4400 O   0  0  0  0  0  0  0  0  0  0  0  0
   -1.3840   -4.6826    0.8177 C   0  0  0  0  0  0  0  0  0  0  0  0
    1.1690   -4.5105    2.3518 H   0  0  0  0  0  0  0  0  0  0  0  0
    0.2101   -3.8453   -0.3658 H   0  0  0  0  0  0  0  0  0  0  0  0
   -1.6643   -4.7915    1.8703 H   0  0  0  0  0  0  0  0  0  0  0  0
   -2.1734   -4.1278    0.3021 H   0  0  0  0  0  0  0  0  0  0  0  0
   -1.3146   -5.6793    0.3702 H   0  0  0  0  0  0  0  0  0  0  0  0
   -0.7953   -1.5303    0.6230 N   0  0  0  0  0  0  0  0  0  0  0  0
   -0.4098   -0.1024    0.5511 C   0  0  2  0  0  0  0  0  0  0  0  0
   -1.2988    0.4122   -0.6123 C   0  0  0  0  0  0  0  0  0  0  0  0
   -0.9260    0.3877   -1.7798 O   0  0  0  0  0  0  0  0  0  0  0  0
    1.0887    0.2797    0.2187 C   0  0  2  0  0  0  0  0  0  0  0  0
    2.1645   -0.1774    1.2382 C   0  0  0  0  0  0  0  0  0  0  0  0
    1.2162    1.8200    0.0924 C   0  0  0  0  0  0  0  0  0  0  0  0
    3.6019   -0.0075    0.7295 C   0  0  0  0  0  0  0  0  0  0  0  0
   -1.2094   -1.8659   -0.2447 H   0  0  0  0  0  0  0  0  0  0  0  0
   -0.6958    0.3927    1.4846 H   0  0  0  0  0  0  0  0  0  0  0  0
    1.3416   -0.1769   -0.7447 H   0  0  0  0  0  0  0  0  0  0  0  0
    2.0767   -1.2437    1.4156 H   0  0  0  0  0  0  0  0  0  0  0  0
    2.0319    0.3391    2.1946 H   0  0  0  0  0  0  0  0  0  0  0  0
    1.0257    2.2984    1.0583 H   0  0  0  0  0  0  0  0  0  0  0  0
    2.2154    2.1047   -0.2450 H   0  0  0  0  0  0  0  0  0  0  0  0
    0.5170    2.2353   -0.6373 H   0  0  0  0  0  0  0  0  0  0  0  0
    3.7120   -0.4467   -0.2670 H   0  0  0  0  0  0  0  0  0  0  0  0
    4.2959   -0.5136    1.4078 H   0  0  0  0  0  0  0  0  0  0  0  0
    3.8882    1.0466    0.6860 H   0  0  0  0  0  0  0  0  0  0  0  0
   -2.6459    0.6154   -0.3813 N   0  0  0  0  0  0  0  0  0  0  0  0
   -3.6036    1.0936   -1.3874 C   0  0  2  0  0  0  0  0  0  0  0  0
   -4.6832    1.9945   -0.7532 C   0  0  0  0  0  0  0  0  0  0  0  0
   -4.8244    2.0188    0.4647 O   0  0  0  0  0  0  0  0  0  0  0  0
   -4.2448   -0.1218   -2.0635 C   0  0  0  0  0  0  0  0  0  0  0  0
   -2.9518    0.6522    0.5918 H   0  0  0  0  0  0  0  0  0  0  0  0
   -3.0809    1.6916   -2.1417 H   0  0  0  0  0  0  0  0  0  0  0  0
   -4.7896   -0.7252   -1.3302 H   0  0  0  0  0  0  0  0  0  0  0  0
   -4.9443    0.1963   -2.8422 H   0  0  0  0  0  0  0  0  0  0  0  0
   -3.4753   -0.7468   -2.5276 H   0  0  0  0  0  0  0  0  0  0  0  0
   -5.4906    2.7882   -1.5467 N   0  0  0  0  0  0  0  0  0  0  0  0
   -6.5294    3.6592   -1.0106 C   0  0  0  0  0  0  0  0  0  0  0  0
   -5.3471    2.7531   -2.5519 H   0  0  0  0  0  0  0  0  0  0  0  0
   -7.3027    3.0678   -0.5095 H   0  0  0  0  0  0  0  0  0  0  0  0
   -6.1040    4.3661   -0.2904 H   0  0  0  0  0  0  0  0  0  0  0  0
   -6.9987    4.2305   -1.8173 H   0  0  0  0  0  0  0  0  0  0  0  0
  1  2  2  0  0  0  0
  1  3  1  0  0  0  0
  1  7  1  0  0  0  0
  3  4  1  0  0  0  0
  3  5  1  0  0  0  0
  3  6  1  0  0  0  0
  7  8  1  0  0  0  0
  7 12  1  0  0  0  0
  8  9  1  0  0  0  0
  8 11  1  0  0  0  0
  8 13  1  0  0  0  0
  9 10  2  0  0  0  0
  9 17  1  0  0  0  0
 11 14  1  0  0  0  0
 11 15  1  0  0  0  0
 11 16  1  0  0  0  0
 17 18  1  0  0  0  0
 17 25  1  0  0  0  0
 18 19  1  0  0  0  0
 18 21  1  0  0  0  0
 18 26  1  0  0  0  0
 19 20  2  0  0  0  0
 19 36  1  0  0  0  0
 21 22  1  0  0  0  0
 21 23  1  0  0  0  0
 21 27  1  0  0  0  0
 22 24  1  0  0  0  0
 22 28  1  0  0  0  0
 22 29  1  0  0  0  0
 23 30  1  0  0  0  0
 23 31  1  0  0  0  0
 23 32  1  0  0  0  0
 24 33  1  0  0  0  0
 24 34  1  0  0  0  0
 24 35  1  0  0  0  0
 36 37  1  0  0  0  0
 36 41  1  0  0  0  0
 37 38  1  0  0  0  0
 37 40  1  0  0  0  0
 37 42  1  0  0  0  0
 38 39  2  0  0  0  0
 38 46  1  0  0  0  0
 40 43  1  0  0  0  0
 40 44  1  0  0  0  0
 40 45  1  0  0  0  0
 46 47  1  0  0  0  0
 46 48  1  0  0  0  0
 47 49  1  0  0  0  0
 47 50  1  0  0  0  0
 47 51  1  0  0  0  0
M  END
$$$$

  -OEChem-05262216503D

 51 50  0     1  0  0  0  0  0999 V2000
    1.8353   -5.6674    0.7658 C   0  0  0  0  0  0  0  0  0  0  0  0
    1.6932   -5.9274   -0.4184 O   0  0  0  0  0  0  0  0  0  0  0  0
    2.9454   -6.3275    1.5622 C   0  0  0  0  0  0  0  0  0  0  0  0
    3.5047   -7.0202    0.9273 H   0  0  0  0  0  0  0  0  0  0  0  0
    3.6319   -5.5686    1.9456 H   0  0  0  0  0  0  0  0  0  0  0  0
    2.5224   -6.8841    2.4019 H   0  0  0  0  0  0  0  0  0  0  0  0
    0.9949   -4.7644    1.3813 N   0  0  0  0  0  0  0  0  0  0  0  0
    0.0008   -3.9423    0.6788 C   0  0  2  0  0  0  0  0  0  0  0  0
   -0.0888   -2.5302    1.2939 C   0  0  0  0  0  0  0  0  0  0  0  0
    0.3161   -2.3301    2.4337 O   0  0  0  0  0  0  0  0  0  0  0  0
   -1.3501   -4.6604    0.7521 C   0  0  0  0  0  0  0  0  0  0  0  0
    1.2265   -4.4855    2.3343 H   0  0  0  0  0  0  0  0  0  0  0  0
    0.2891   -3.8211   -0.3713 H   0  0  0  0  0  0  0  0  0  0  0  0
   -1.6602   -4.7878    1.7942 H   0  0  0  0  0  0  0  0  0  0  0  0
   -2.1206   -4.0885    0.2267 H   0  0  0  0  0  0  0  0  0  0  0  0
   -1.2772   -5.6488    0.2870 H   0  0  0  0  0  0  0  0  0  0  0  0
   -0.7858   -1.5227    0.6609 N   0  0  0  0  0  0  0  0  0  0  0  0
   -0.4200   -0.0891    0.6109 C   0  0  2  0  0  0  0  0  0  0  0  0
   -1.3338    0.4508   -0.5171 C   0  0  0  0  0  0  0  0  0  0  0  0
   -1.0855    0.2320   -1.6976 O   0  0  0  0  0  0  0  0  0  0  0  0
    1.0594    0.3241    0.2369 C   0  0  2  0  0  0  0  0  0  0  0  0
    2.1740   -0.1426    1.2089 C   0  0  0  0  0  0  0  0  0  0  0  0
    1.1534    1.8676    0.1320 C   0  0  0  0  0  0  0  0  0  0  0  0
    3.5929    0.0587    0.6618 C   0  0  0  0  0  0  0  0  0  0  0  0
   -1.2077   -1.8441   -0.2092 H   0  0  0  0  0  0  0  0  0  0  0  0
   -0.6832    0.3791    1.5647 H   0  0  0  0  0  0  0  0  0  0  0  0
    1.2867   -0.1077   -0.7442 H   0  0  0  0  0  0  0  0  0  0  0  0
    2.1053   -1.2142    1.3615 H   0  0  0  0  0  0  0  0  0  0  0  0
    2.0640    0.3478    2.1816 H   0  0  0  0  0  0  0  0  0  0  0  0
    0.9456    2.3283    1.1030 H   0  0  0  0  0  0  0  0  0  0  0  0
    2.1473    2.1819   -0.1938 H   0  0  0  0  0  0  0  0  0  0  0  0
    0.4492    2.2728   -0.5993 H   0  0  0  0  0  0  0  0  0  0  0  0
    3.6786   -0.3526   -0.3488 H   0  0  0  0  0  0  0  0  0  0  0  0
    4.3129   -0.4567    1.3052 H   0  0  0  0  0  0  0  0  0  0  0  0
    3.8654    1.1169    0.6379 H   0  0  0  0  0  0  0  0  0  0  0  0
   -2.5869    0.9360   -0.1982 N   0  0  0  0  0  0  0  0  0  0  0  0
   -3.5435    1.4835   -1.1691 C   0  0  2  0  0  0  0  0  0  0  0  0
   -4.3676    2.6361   -0.5574 C   0  0  0  0  0  0  0  0  0  0  0  0
   -4.3253    2.8475    0.6498 O   0  0  0  0  0  0  0  0  0  0  0  0
   -4.4622    0.3501   -1.6361 C   0  0  0  0  0  0  0  0  0  0  0  0
   -2.7703    1.1427    0.7840 H   0  0  0  0  0  0  0  0  0  0  0  0
   -3.0046    1.8906   -2.0312 H   0  0  0  0  0  0  0  0  0  0  0  0
   -5.0217   -0.0621   -0.7901 H   0  0  0  0  0  0  0  0  0  0  0  0
   -5.1750    0.7148   -2.3819 H   0  0  0  0  0  0  0  0  0  0  0  0
   -3.8727   -0.4533   -2.0891 H   0  0  0  0  0  0  0  0  0  0  0  0
   -5.1453    3.4495   -1.3609 N   0  0  0  0  0  0  0  0  0  0  0  0
   -5.9286    4.5672   -0.8478 C   0  0  0  0  0  0  0  0  0  0  0  0
   -5.1485    3.2633   -2.3596 H   0  0  0  0  0  0  0  0  0  0  0  0
   -6.6610    4.2173   -0.1124 H   0  0  0  0  0  0  0  0  0  0  0  0
   -5.2752    5.3054   -0.3707 H   0  0  0  0  0  0  0  0  0  0  0  0
   -6.4672    5.0585   -1.6640 H   0  0  0  0  0  0  0  0  0  0  0  0
  1  2  2  0  0  0  0
  1  3  1  0  0  0  0
  1  7  1  0  0  0  0
  3  4  1  0  0  0  0
  3  5  1  0  0  0  0
  3  6  1  0  0  0  0
  7  8  1  0  0  0  0
  7 12  1  0  0  0  0
  8  9  1  0  0  0  0
  8 11  1  0  0  0  0
  8 13  1  0  0  0  0
  9 10  2  0  0  0  0
  9 17  1  0  0  0  0
 11 14  1  0  0  0  0
 11 15  1  0  0  0  0
 11 16  1  0  0  0  0
 17 18  1  0  0  0  0
 17 25  1  0  0  0  0
 18 19  1  0  0  0  0
 18 21  1  0  0  0  0
 18 26  1  0  0  0  0
 19 20  2  0  0  0  0
 19 36  1  0  0  0  0
 21 22  1  0  0  0  0
 21 23  1  0  0  0  0
 21 27  1  0  0  0  0
 22 24  1  0  0  0  0
 22 28  1  0  0  0  0
 22 29  1  0  0  0  0
 23 30  1  0  0  0  0
 23 31  1  0  0  0  0
 23 32  1  0  0  0  0
 24 33  1  0  0  0  0
 24 34  1  0  0  0  0
 24 35  1  0  0  0  0
 36 37  1  0  0  0  0
 36 41  1  0  0  0  0
 37 38  1  0  0  0  0
 37 40  1  0  0  0  0
 37 42  1  0  0  0  0
 38 39  2  0  0  0  0
 38 46  1  0  0  0  0
 40 43  1  0  0  0  0
 40 44  1  0  0  0  0
 40 45  1  0  0  0  0
 46 47  1  0  0  0  0
 46 48  1  0  0  0  0
 47 49  1  0  0  0  0
 47 50  1  0  0  0  0
 47 51  1  0  0  0  0
M  END
$$$$

  -OEChem-05262216503D

 51 50  0     1  0  0  0  0  0999 V2000
    1.8169   -5.6674    0.6996 C   0  0  0  0  0  0  0  0  0  0  0  0
    1.6660   -5.8948   -0.4902 O   0  0  0  0  0  0  0  0  0  0  0  0
    2.9283   -6.3553    1.4701 C   0  0  0  0  0  0  0  0  0  0  0  0
    3.5463   -6.9487    0.7902 H   0  0  0  0  0  0  0  0  0  0  0  0
    3.5607   -5.6111    1.9606 H   0  0  0  0  0  0  0  0  0  0  0  0
    2.5016   -7.0171    2.2276 H   0  0  0  0  0  0  0  0  0  0  0  0
    0.9819   -4.7808    1.3457 N   0  0  0  0  0  0  0  0  0  0  0  0
   -0.0119   -3.9344    0.6723 C   0  0  2  0  0  0  0  0  0  0  0  0
   -0.0972   -2.5409    1.3294 C   0  0  0  0  0  0  0  0  0  0  0  0
    0.3386   -2.3658    2.4623 O   0  0  0  0  0  0  0  0  0  0  0  0
   -1.3643   -4.6511    0.7245 C   0  0  0  0  0  0  0  0  0  0  0  0
    1.2202   -4.5292    2.3045 H   0  0  0  0  0  0  0  0  0  0  0  0
    0.2745   -3.7814   -0.3741 H   0  0  0  0  0  0  0  0  0  0  0  0
   -1.6755   -4.8062    1.7625 H   0  0  0  0  0  0  0  0  0  0  0  0
   -2.1327   -4.0639    0.2128 H   0  0  0  0  0  0  0  0  0  0  0  0
   -1.2927   -5.6264    0.2325 H   0  0  0  0  0  0  0  0  0  0  0  0
   -0.8085   -1.5207    0.7342 N   0  0  0  0  0  0  0  0  0  0  0  0
   -0.4493   -0.0860    0.7037 C   0  0  2  0  0  0  0  0  0  0  0  0
   -1.3864    0.4780   -0.3901 C   0  0  0  0  0  0  0  0  0  0  0  0
   -1.3002    0.0810   -1.5476 O   0  0  0  0  0  0  0  0  0  0  0  0
    1.0131    0.3364    0.2845 C   0  0  2  0  0  0  0  0  0  0  0  0
    2.1581   -0.1531    1.2082 C   0  0  0  0  0  0  0  0  0  0  0  0
    1.1068    1.8805    0.1939 C   0  0  0  0  0  0  0  0  0  0  0  0
    3.5582    0.0579    0.6193 C   0  0  0  0  0  0  0  0  0  0  0  0
   -1.2468   -1.8201   -0.1368 H   0  0  0  0  0  0  0  0  0  0  0  0
   -0.6838    0.3615    1.6748 H   0  0  0  0  0  0  0  0  0  0  0  0
    1.2016   -0.0805   -0.7114 H   0  0  0  0  0  0  0  0  0  0  0  0
    2.0904   -1.2275    1.3407 H   0  0  0  0  0  0  0  0  0  0  0  0
    2.0810    0.3171    2.1942 H   0  0  0  0  0  0  0  0  0  0  0  0
    0.9156    2.3318    1.1727 H   0  0  0  0  0  0  0  0  0  0  0  0
    2.0953    2.1980   -0.1457 H   0  0  0  0  0  0  0  0  0  0  0  0
    0.3909    2.2920   -0.5227 H   0  0  0  0  0  0  0  0  0  0  0  0
    3.6080   -0.3273   -0.4037 H   0  0  0  0  0  0  0  0  0  0  0  0
    4.2971   -0.4757    1.2249 H   0  0  0  0  0  0  0  0  0  0  0  0
    3.8333    1.1155    0.6139 H   0  0  0  0  0  0  0  0  0  0  0  0
   -2.4865    1.2328   -0.0331 N   0  0  0  0  0  0  0  0  0  0  0  0
   -3.4255    1.8380   -0.9864 C   0  0  2  0  0  0  0  0  0  0  0  0
   -3.9056    3.2220   -0.5020 C   0  0  0  0  0  0  0  0  0  0  0  0
   -3.6938    3.5749    0.6532 O   0  0  0  0  0  0  0  0  0  0  0  0
   -4.6115    0.8856   -1.1622 C   0  0  0  0  0  0  0  0  0  0  0  0
   -2.5175    1.5906    0.9219 H   0  0  0  0  0  0  0  0  0  0  0  0
   -2.9324    1.9843   -1.9533 H   0  0  0  0  0  0  0  0  0  0  0  0
   -5.1267    0.7375   -0.2074 H   0  0  0  0  0  0  0  0  0  0  0  0
   -5.3260    1.2897   -1.8857 H   0  0  0  0  0  0  0  0  0  0  0  0
   -4.2656   -0.0870   -1.5269 H   0  0  0  0  0  0  0  0  0  0  0  0
   -4.5635    4.0790   -1.3647 N   0  0  0  0  0  0  0  0  0  0  0  0
   -5.0395    5.4002   -0.9724 C   0  0  0  0  0  0  0  0  0  0  0  0
   -4.7179    3.7630   -2.3178 H   0  0  0  0  0  0  0  0  0  0  0  0
   -5.8131    5.3154   -0.2021 H   0  0  0  0  0  0  0  0  0  0  0  0
   -4.2153    6.0048   -0.5790 H   0  0  0  0  0  0  0  0  0  0  0  0
   -5.4661    5.9206   -1.8354 H   0  0  0  0  0  0  0  0  0  0  0  0
  1  2  2  0  0  0  0
  1  3  1  0  0  0  0
  1  7  1  0  0  0  0
  3  4  1  0  0  0  0
  3  5  1  0  0  0  0
  3  6  1  0  0  0  0
  7  8  1  0  0  0  0
  7 12  1  0  0  0  0
  8  9  1  0  0  0  0
  8 11  1  0  0  0  0
  8 13  1  0  0  0  0
  9 10  2  0  0  0  0
  9 17  1  0  0  0  0
 11 14  1  0  0  0  0
 11 15  1  0  0  0  0
 11 16  1  0  0  0  0
 17 18  1  0  0  0  0
 17 25  1  0  0  0  0
 18 19  1  0  0  0  0
 18 21  1  0  0  0  0
 18 26  1  0  0  0  0
 19 20  2  0  0  0  0
 19 36  1  0  0  0  0
 21 22  1  0  0  0  0
 21 23  1  0  0  0  0
 21 27  1  0  0  0  0
 22 24  1  0  0  0  0
 22 28  1  0  0  0  0
 22 29  1  0  0  0  0
 23 30  1  0  0  0  0
 23 31  1  0  0  0  0
 23 32  1  0  0  0  0
 24 33  1  0  0  0  0
 24 34  1  0  0  0  0
 24 35  1  0  0  0  0
 36 37  1  0  0  0  0
 36 41  1  0  0  0  0
 37 38  1  0  0  0  0
 37 40  1  0  0  0  0
 37 42  1  0  0  0  0
 38 39  2  0  0  0  0
 38 46  1  0  0  0  0
 40 43  1  0  0  0  0
 40 44  1  0  0  0  0
 40 45  1  0  0  0  0
 46 47  1  0  0  0  0
 46 48  1  0  0  0  0
 47 49  1  0  0  0  0
 47 50  1  0  0  0  0
 47 51  1  0  0  0  0
M  END
$$$$

  -OEChem-05262216503D

 51 50  0     1  0  0  0  0  0999 V2000
    1.8426   -5.5721    0.6352 C   0  0  0  0  0  0  0  0  0  0  0  0
    1.7585   -5.6968   -0.5761 O   0  0  0  0  0  0  0  0  0  0  0  0
    2.9651   -6.2574    1.3915 C   0  0  0  0  0  0  0  0  0  0  0  0
    3.6339   -6.7680    0.6928 H   0  0  0  0  0  0  0  0  0  0  0  0
    3.5413   -5.5190    1.9546 H   0  0  0  0  0  0  0  0  0  0  0  0
    2.5522   -6.9941    2.0848 H   0  0  0  0  0  0  0  0  0  0  0  0
    0.9245   -4.8051    1.3208 N   0  0  0  0  0  0  0  0  0  0  0  0
   -0.0757   -3.9407    0.6795 C   0  0  2  0  0  0  0  0  0  0  0  0
   -0.1443   -2.5595    1.3620 C   0  0  0  0  0  0  0  0  0  0  0  0
    0.3133   -2.4037    2.4891 O   0  0  0  0  0  0  0  0  0  0  0  0
   -1.4291   -4.6528    0.7449 C   0  0  0  0  0  0  0  0  0  0  0  0
    1.1299   -4.6093    2.2997 H   0  0  0  0  0  0  0  0  0  0  0  0
    0.1880   -3.7671   -0.3694 H   0  0  0  0  0  0  0  0  0  0  0  0
   -1.7228   -4.8226    1.7859 H   0  0  0  0  0  0  0  0  0  0  0  0
   -2.2040   -4.0537    0.2568 H   0  0  0  0  0  0  0  0  0  0  0  0
   -1.3701   -5.6202    0.2358 H   0  0  0  0  0  0  0  0  0  0  0  0
   -0.8578   -1.5265    0.7930 N   0  0  0  0  0  0  0  0  0  0  0  0
   -0.4933   -0.0929    0.7803 C   0  0  2  0  0  0  0  0  0  0  0  0
   -1.4385    0.5006   -0.2912 C   0  0  0  0  0  0  0  0  0  0  0  0
   -1.5214   -0.0210   -1.3993 O   0  0  0  0  0  0  0  0  0  0  0  0
    0.9616    0.3230    0.3308 C   0  0  2  0  0  0  0  0  0  0  0  0
    2.1252   -0.1931    1.2162 C   0  0  0  0  0  0  0  0  0  0  0  0
    1.0687    1.8682    0.2641 C   0  0  0  0  0  0  0  0  0  0  0  0
    3.5127    0.0143    0.5957 C   0  0  0  0  0  0  0  0  0  0  0  0
   -1.3156   -1.8062   -0.0756 H   0  0  0  0  0  0  0  0  0  0  0  0
   -0.7062    0.3390    1.7631 H   0  0  0  0  0  0  0  0  0  0  0  0
    1.1196   -0.0784   -0.6768 H   0  0  0  0  0  0  0  0  0  0  0  0
    2.0508   -1.2689    1.3339 H   0  0  0  0  0  0  0  0  0  0  0  0
    2.0780    0.2624    2.2107 H   0  0  0  0  0  0  0  0  0  0  0  0
    0.8709    2.3064    1.2475 H   0  0  0  0  0  0  0  0  0  0  0  0
    2.0616    2.1857   -0.0613 H   0  0  0  0  0  0  0  0  0  0  0  0
    0.3635    2.2954   -0.4537 H   0  0  0  0  0  0  0  0  0  0  0  0
    3.5323   -0.3514   -0.4357 H   0  0  0  0  0  0  0  0  0  0  0  0
    4.2599   -0.5405    1.1715 H   0  0  0  0  0  0  0  0  0  0  0  0
    3.8016    1.0683    0.6045 H   0  0  0  0  0  0  0  0  0  0  0  0
   -2.3343    1.4962    0.0459 N   0  0  0  0  0  0  0  0  0  0  0  0
   -3.2004    2.1906   -0.9153 C   0  0  2  0  0  0  0  0  0  0  0  0
   -3.3125    3.6938   -0.5837 C   0  0  0  0  0  0  0  0  0  0  0  0
   -2.8824    4.1194    0.4832 O   0  0  0  0  0  0  0  0  0  0  0  0
   -4.5768    1.5211   -0.8864 C   0  0  0  0  0  0  0  0  0  0  0  0
   -2.1853    1.9688    0.9377 H   0  0  0  0  0  0  0  0  0  0  0  0
   -2.7816    2.1106   -1.9242 H   0  0  0  0  0  0  0  0  0  0  0  0
   -5.0220    1.6039    0.1104 H   0  0  0  0  0  0  0  0  0  0  0  0
   -5.2495    1.9913   -1.6098 H   0  0  0  0  0  0  0  0  0  0  0  0
   -4.4852    0.4602   -1.1400 H   0  0  0  0  0  0  0  0  0  0  0  0
   -3.8823    4.5741   -1.4850 N   0  0  0  0  0  0  0  0  0  0  0  0
   -4.0225    6.0026   -1.2283 C   0  0  0  0  0  0  0  0  0  0  0  0
   -4.2239    4.1960   -2.3639 H   0  0  0  0  0  0  0  0  0  0  0  0
   -4.6838    6.1743   -0.3724 H   0  0  0  0  0  0  0  0  0  0  0  0
   -3.0466    6.4523   -1.0162 H   0  0  0  0  0  0  0  0  0  0  0  0
   -4.4494    6.5046   -2.1019 H   0  0  0  0  0  0  0  0  0  0  0  0
  1  2  2  0  0  0  0
  1  3  1  0  0  0  0
  1  7  1  0  0  0  0
  3  4  1  0  0  0  0
  3  5  1  0  0  0  0
  3  6  1  0  0  0  0
  7  8  1  0  0  0  0
  7 12  1  0  0  0  0
  8  9  1  0  0  0  0
  8 11  1  0  0  0  0
  8 13  1  0  0  0  0
  9 10  2  0  0  0  0
  9 17  1  0  0  0  0
 11 14  1  0  0  0  0
 11 15  1  0  0  0  0
 11 16  1  0  0  0  0
 17 18  1  0  0  0  0
 17 25  1  0  0  0  0
 18 19  1  0  0  0  0
 18 21  1  0  0  0  0
 18 26  1  0  0  0  0
 19 20  2  0  0  0  0
 19 36  1  0  0  0  0
 21 22  1  0  0  0  0
 21 23  1  0  0  0  0
 21 27  1  0  0  0  0
 22 24  1  0  0  0  0
 22 28  1  0  0  0  0
 22 29  1  0  0  0  0
 23 30  1  0  0  0  0
 23 31  1  0  0  0  0
 23 32  1  0  0  0  0
 24 33  1  0  0  0  0
 24 34  1  0  0  0  0
 24 35  1  0  0  0  0
 36 37  1  0  0  0  0
 36 41  1  0  0  0  0
 37 38  1  0  0  0  0
 37 40  1  0  0  0  0
 37 42  1  0  0  0  0
 38 39  2  0  0  0  0
 38 46  1  0  0  0  0
 40 43  1  0  0  0  0
 40 44  1  0  0  0  0
 40 45  1  0  0  0  0
 46 47  1  0  0  0  0
 46 48  1  0  0  0  0
 47 49  1  0  0  0  0
 47 50  1  0  0  0  0
 47 51  1  0  0  0  0
M  END
$$$$

  -OEChem-05262216503D

 51 50  0     1  0  0  0  0  0999 V2000
    1.8094   -5.4847    0.5766 C   0  0  0  0  0  0  0  0  0  0  0  0
    1.8084   -5.4920   -0.6441 O   0  0  0  0  0  0  0  0  0  0  0  0
    2.9225   -6.1791    1.3378 C   0  0  0  0  0  0  0  0  0  0  0  0
    3.6404   -6.6177    0.6392 H   0  0  0  0  0  0  0  0  0  0  0  0
    3.4441   -5.4594    1.9732 H   0  0  0  0  0  0  0  0  0  0  0  0
    2.5076   -6.9738    1.9626 H   0  0  0  0  0  0  0  0  0  0  0  0
    0.8115   -4.8375    1.2741 N   0  0  0  0  0  0  0  0  0  0  0  0
   -0.1628   -3.9241    0.6607 C   0  0  2  0  0  0  0  0  0  0  0  0
   -0.1501   -2.5479    1.3563 C   0  0  0  0  0  0  0  0  0  0  0  0
    0.3302   -2.4277    2.4785 O   0  0  0  0  0  0  0  0  0  0  0  0
   -1.5451   -4.5731    0.7602 C   0  0  0  0  0  0  0  0  0  0  0  0
    0.9748   -4.7093    2.2717 H   0  0  0  0  0  0  0  0  0  0  0  0
    0.0754   -3.7556   -0.3951 H   0  0  0  0  0  0  0  0  0  0  0  0
   -1.8255   -4.7187    1.8084 H   0  0  0  0  0  0  0  0  0  0  0  0
   -2.3008   -3.9433    0.2808 H   0  0  0  0  0  0  0  0  0  0  0  0
   -1.5413   -5.5470    0.2605 H   0  0  0  0  0  0  0  0  0  0  0  0
   -0.8478   -1.4865    0.8233 N   0  0  0  0  0  0  0  0  0  0  0  0
   -0.4747   -0.0549    0.8381 C   0  0  2  0  0  0  0  0  0  0  0  0
   -1.4276    0.5688   -0.2125 C   0  0  0  0  0  0  0  0  0  0  0  0
   -1.6865   -0.0340   -1.2513 O   0  0  0  0  0  0  0  0  0  0  0  0
    0.9826    0.3458    0.3752 C   0  0  2  0  0  0  0  0  0  0  0  0
    2.1488   -0.2073    1.2356 C   0  0  0  0  0  0  0  0  0  0  0  0
    1.1275    1.8883    0.3273 C   0  0  0  0  0  0  0  0  0  0  0  0
    3.5349   -0.0152    0.6062 C   0  0  0  0  0  0  0  0  0  0  0  0
   -1.3425   -1.7357   -0.0353 H   0  0  0  0  0  0  0  0  0  0  0  0
   -0.6730    0.3594    1.8315 H   0  0  0  0  0  0  0  0  0  0  0  0
    1.1177   -0.0437   -0.6403 H   0  0  0  0  0  0  0  0  0  0  0  0
    2.0573   -1.2836    1.3300 H   0  0  0  0  0  0  0  0  0  0  0  0
    2.1205    0.2269    2.2405 H   0  0  0  0  0  0  0  0  0  0  0  0
    0.9201    2.3214    1.3110 H   0  0  0  0  0  0  0  0  0  0  0  0
    2.1332    2.1876    0.0261 H   0  0  0  0  0  0  0  0  0  0  0  0
    0.4501    2.3372   -0.4032 H   0  0  0  0  0  0  0  0  0  0  0  0
    3.5348   -0.3485   -0.4363 H   0  0  0  0  0  0  0  0  0  0  0  0
    4.2733   -0.6066    1.1563 H   0  0  0  0  0  0  0  0  0  0  0  0
    3.8518    1.0299    0.6451 H   0  0  0  0  0  0  0  0  0  0  0  0
   -2.0903    1.7508    0.0558 N   0  0  0  0  0  0  0  0  0  0  0  0
   -2.9107    2.4813   -0.9182 C   0  0  2  0  0  0  0  0  0  0  0  0
   -2.7186    4.0065   -0.7781 C   0  0  0  0  0  0  0  0  0  0  0  0
   -2.0972    4.4610    0.1769 O   0  0  0  0  0  0  0  0  0  0  0  0
   -4.3738    2.0881   -0.6966 C   0  0  0  0  0  0  0  0  0  0  0  0
   -1.7702    2.2859    0.8632 H   0  0  0  0  0  0  0  0  0  0  0  0
   -2.6150    2.2107   -1.9375 H   0  0  0  0  0  0  0  0  0  0  0  0
   -4.6900    2.3443    0.3197 H   0  0  0  0  0  0  0  0  0  0  0  0
   -5.0250    2.6065   -1.4064 H   0  0  0  0  0  0  0  0  0  0  0  0
   -4.4991    1.0100   -0.8388 H   0  0  0  0  0  0  0  0  0  0  0  0
   -3.2197    4.8713   -1.7339 N   0  0  0  0  0  0  0  0  0  0  0  0
   -3.0480    6.3180   -1.6717 C   0  0  0  0  0  0  0  0  0  0  0  0
   -3.7116    4.4674   -2.5258 H   0  0  0  0  0  0  0  0  0  0  0  0
   -3.4919    6.7173   -0.7537 H   0  0  0  0  0  0  0  0  0  0  0  0
   -1.9846    6.5791   -1.6921 H   0  0  0  0  0  0  0  0  0  0  0  0
   -3.5365    6.7949   -2.5268 H   0  0  0  0  0  0  0  0  0  0  0  0
  1  2  2  0  0  0  0
  1  3  1  0  0  0  0
  1  7  1  0  0  0  0
  3  4  1  0  0  0  0
  3  5  1  0  0  0  0
  3  6  1  0  0  0  0
  7  8  1  0  0  0  0
  7 12  1  0  0  0  0
  8  9  1  0  0  0  0
  8 11  1  0  0  0  0
  8 13  1  0  0  0  0
  9 10  2  0  0  0  0
  9 17  1  0  0  0  0
 11 14  1  0  0  0  0
 11 15  1  0  0  0  0
 11 16  1  0  0  0  0
 17 18  1  0  0  0  0
 17 25  1  0  0  0  0
 18 19  1  0  0  0  0
 18 21  1  0  0  0  0
 18 26  1  0  0  0  0
 19 20  2  0  0  0  0
 19 36  1  0  0  0  0
 21 22  1  0  0  0  0
 21 23  1  0  0  0  0
 21 27  1  0  0  0  0
 22 24  1  0  0  0  0
 22 28  1  0  0  0  0
 22 29  1  0  0  0  0
 23 30  1  0  0  0  0
 23 31  1  0  0  0  0
 23 32  1  0  0  0  0
 24 33  1  0  0  0  0
 24 34  1  0  0  0  0
 24 35  1  0  0  0  0
 36 37  1  0  0  0  0
 36 41  1  0  0  0  0
 37 38  1  0  0  0  0
 37 40  1  0  0  0  0
 37 42  1  0  0  0  0
 38 39  2  0  0  0  0
 38 46  1  0  0  0  0
 40 43  1  0  0  0  0
 40 44  1  0  0  0  0
 40 45  1  0  0  0  0
 46 47  1  0  0  0  0
 46 48  1  0  0  0  0
 47 49  1  0  0  0  0
 47 50  1  0  0  0  0
 47 51  1  0  0  0  0
M  END
$$$$

  -OEChem-05262216503D

 51 50  0     1  0  0  0  0  0999 V2000
    1.8117   -5.3392    0.5115 C   0  0  0  0  0  0  0  0  0  0  0  0
    1.9041   -5.1809   -0.6954 O   0  0  0  0  0  0  0  0  0  0  0  0
    2.9083   -6.0676    1.2653 C   0  0  0  0  0  0  0  0  0  0  0  0
    3.6912   -6.3909    0.5736 H   0  0  0  0  0  0  0  0  0  0  0  0
    3.3500   -5.4032    2.0119 H   0  0  0  0  0  0  0  0  0  0  0  0
    2.4965   -6.9466    1.7672 H   0  0  0  0  0  0  0  0  0  0  0  0
    0.7264   -4.8450    1.2045 N   0  0  0  0  0  0  0  0  0  0  0  0
   -0.2387   -3.8897    0.6400 C   0  0  2  0  0  0  0  0  0  0  0  0
   -0.1734   -2.5289    1.3645 C   0  0  0  0  0  0  0  0  0  0  0  0
    0.3086   -2.4523    2.4898 O   0  0  0  0  0  0  0  0  0  0  0  0
   -1.6339   -4.5064    0.7639 C   0  0  0  0  0  0  0  0  0  0  0  0
    0.8235   -4.8316    2.2182 H   0  0  0  0  0  0  0  0  0  0  0  0
   -0.0309   -3.7061   -0.4195 H   0  0  0  0  0  0  0  0  0  0  0  0
   -1.8877   -4.6739    1.8156 H   0  0  0  0  0  0  0  0  0  0  0  0
   -2.3864   -3.8442    0.3249 H   0  0  0  0  0  0  0  0  0  0  0  0
   -1.6709   -5.4658    0.2381 H   0  0  0  0  0  0  0  0  0  0  0  0
   -0.8509   -1.4369    0.8671 N   0  0  0  0  0  0  0  0  0  0  0  0
   -0.4643   -0.0072    0.9040 C   0  0  2  0  0  0  0  0  0  0  0  0
   -1.4254    0.6525   -0.1256 C   0  0  0  0  0  0  0  0  0  0  0  0
   -1.8612    0.0030   -1.0744 O   0  0  0  0  0  0  0  0  0  0  0  0
    1.0056    0.3546    0.4323 C   0  0  2  0  0  0  0  0  0  0  0  0
    2.1640   -0.2410    1.2784 C   0  0  0  0  0  0  0  0  0  0  0  0
    1.2092    1.8903    0.3800 C   0  0  0  0  0  0  0  0  0  0  0  0
    3.5531   -0.0870    0.6421 C   0  0  0  0  0  0  0  0  0  0  0  0
   -1.3803   -1.6557    0.0204 H   0  0  0  0  0  0  0  0  0  0  0  0
   -0.6446    0.3936    1.9060 H   0  0  0  0  0  0  0  0  0  0  0  0
    1.1207   -0.0373   -0.5847 H   0  0  0  0  0  0  0  0  0  0  0  0
    2.0443   -1.3145    1.3639 H   0  0  0  0  0  0  0  0  0  0  0  0
    2.1556    0.1841    2.2873 H   0  0  0  0  0  0  0  0  0  0  0  0
    0.9188    2.3488    1.3307 H   0  0  0  0  0  0  0  0  0  0  0  0
    2.2464    2.1602    0.1772 H   0  0  0  0  0  0  0  0  0  0  0  0
    0.6270    2.3403   -0.4271 H   0  0  0  0  0  0  0  0  0  0  0  0
    3.5291   -0.3818   -0.4116 H   0  0  0  0  0  0  0  0  0  0  0  0
    4.2692   -0.7304    1.1625 H   0  0  0  0  0  0  0  0  0  0  0  0
    3.9192    0.9400    0.7157 H   0  0  0  0  0  0  0  0  0  0  0  0
   -1.8410    1.9635    0.0171 N   0  0  0  0  0  0  0  0  0  0  0  0
   -2.5899    2.7150   -0.9991 C   0  0  2  0  0  0  0  0  0  0  0  0
   -2.1089    4.1794   -1.0794 C   0  0  0  0  0  0  0  0  0  0  0  0
   -1.3302    4.6152   -0.2377 O   0  0  0  0  0  0  0  0  0  0  0  0
   -4.0777    2.6464   -0.6441 C   0  0  0  0  0  0  0  0  0  0  0  0
   -1.3588    2.5229    0.7209 H   0  0  0  0  0  0  0  0  0  0  0  0
   -2.4347    2.2696   -1.9876 H   0  0  0  0  0  0  0  0  0  0  0  0
   -4.2597    3.1047    0.3334 H   0  0  0  0  0  0  0  0  0  0  0  0
   -4.6772    3.1721   -1.3934 H   0  0  0  0  0  0  0  0  0  0  0  0
   -4.4097    1.6038   -0.6077 H   0  0  0  0  0  0  0  0  0  0  0  0
   -2.5277    5.0040   -2.1074 N   0  0  0  0  0  0  0  0  0  0  0  0
   -2.0723    6.3802   -2.2647 C   0  0  0  0  0  0  0  0  0  0  0  0
   -3.1464    4.6069   -2.8086 H   0  0  0  0  0  0  0  0  0  0  0  0
   -2.2743    6.9587   -1.3570 H   0  0  0  0  0  0  0  0  0  0  0  0
   -0.9964    6.4061   -2.4667 H   0  0  0  0  0  0  0  0  0  0  0  0
   -2.5937    6.8582   -3.0994 H   0  0  0  0  0  0  0  0  0  0  0  0
  1  2  2  0  0  0  0
  1  3  1  0  0  0  0
  1  7  1  0  0  0  0
  3  4  1  0  0  0  0
  3  5  1  0  0  0  0
  3  6  1  0  0  0  0
  7  8  1  0  0  0  0
  7 12  1  0  0  0  0
  8  9  1  0  0  0  0
  8 11  1  0  0  0  0
  8 13  1  0  0  0  0
  9 10  2  0  0  0  0
  9 17  1  0  0  0  0
 11 14  1  0  0  0  0
 11 15  1  0  0  0  0
 11 16  1  0  0  0  0
 17 18  1  0  0  0  0
 17 25  1  0  0  0  0
 18 19  1  0  0  0  0
 18 21  1  0  0  0  0
 18 26  1  0  0  0  0
 19 20  2  0  0  0  0
 19 36  1  0  0  0  0
 21 22  1  0  0  0  0
 21 23  1  0  0  0  0
 21 27  1  0  0  0  0
 22 24  1  0  0  0  0
 22 28  1  0  0  0  0
 22 29  1  0  0  0  0
 23 30  1  0  0  0  0
 23 31  1  0  0  0  0
 23 32  1  0  0  0  0
 24 33  1  0  0  0  0
 24 34  1  0  0  0  0
 24 35  1  0  0  0  0
 36 37  1  0  0  0  0
 36 41  1  0  0  0  0
 37 38  1  0  0  0  0
 37 40  1  0  0  0  0
 37 42  1  0  0  0  0
 38 39  2  0  0  0  0
 38 46  1  0  0  0  0
 40 43  1  0  0  0  0
 40 44  1  0  0  0  0
 40 45  1  0  0  0  0
 46 47  1  0  0  0  0
 46 48  1  0  0  0  0
 47 49  1  0  0  0  0
 47 50  1  0  0  0  0
 47 51  1  0  0  0  0
M  END
$$$$

  -OEChem-05262216503D

 51 50  0     1  0  0  0  0  0999 V2000
    1.7523   -5.1466    0.4540 C   0  0  0  0  0  0  0  0  0  0  0  0
    1.9104   -4.7822   -0.7004 O   0  0  0  0  0  0  0  0  0  0  0  0
    2.8392   -5.9432    1.1511 C   0  0  0  0  0  0  0  0  0  0  0  0
    3.6531   -6.1623    0.4543 H   0  0  0  0  0  0  0  0  0  0  0  0
    3.2391   -5.3707    1.9915 H   0  0  0  0  0  0  0  0  0  0  0  0
    2.4310   -6.8863    1.5223 H   0  0  0  0  0  0  0  0  0  0  0  0
    0.6013   -4.8222    1.1422 N   0  0  0  0  0  0  0  0  0  0  0  0
   -0.3725   -3.8295    0.6642 C   0  0  2  0  0  0  0  0  0  0  0  0
   -0.2062   -2.4767    1.3863 C   0  0  0  0  0  0  0  0  0  0  0  0
    0.2672   -2.4376    2.5171 O   0  0  0  0  0  0  0  0  0  0  0  0
   -1.7739   -4.3962    0.9024 C   0  0  0  0  0  0  0  0  0  0  0  0
    0.6481   -4.9526    2.1503 H   0  0  0  0  0  0  0  0  0  0  0  0
   -0.2492   -3.6524   -0.4098 H   0  0  0  0  0  0  0  0  0  0  0  0
   -1.9499   -4.5473    1.9723 H   0  0  0  0  0  0  0  0  0  0  0  0
   -2.5342   -3.7090    0.5185 H   0  0  0  0  0  0  0  0  0  0  0  0
   -1.8866   -5.3563    0.3896 H   0  0  0  0  0  0  0  0  0  0  0  0
   -0.8214   -1.3457    0.8957 N   0  0  0  0  0  0  0  0  0  0  0  0
   -0.3734    0.0678    0.9281 C   0  0  2  0  0  0  0  0  0  0  0  0
   -1.3159    0.7650   -0.1059 C   0  0  0  0  0  0  0  0  0  0  0  0
   -1.9433    0.0960   -0.9267 O   0  0  0  0  0  0  0  0  0  0  0  0
    1.1237    0.3316    0.4607 C   0  0  2  0  0  0  0  0  0  0  0  0
    2.2385   -0.3258    1.3228 C   0  0  0  0  0  0  0  0  0  0  0  0
    1.4336    1.8495    0.3943 C   0  0  0  0  0  0  0  0  0  0  0  0
    3.6419   -0.2716    0.7005 C   0  0  0  0  0  0  0  0  0  0  0  0
   -1.3919   -1.5347    0.0687 H   0  0  0  0  0  0  0  0  0  0  0  0
   -0.5335    0.4842    1.9274 H   0  0  0  0  0  0  0  0  0  0  0  0
    1.2214   -0.0800   -0.5502 H   0  0  0  0  0  0  0  0  0  0  0  0
    2.0552   -1.3886    1.4148 H   0  0  0  0  0  0  0  0  0  0  0  0
    2.2478    0.1074    2.3283 H   0  0  0  0  0  0  0  0  0  0  0  0
    1.0339    2.3622    1.2748 H   0  0  0  0  0  0  0  0  0  0  0  0
    2.5022    2.0600    0.3478 H   0  0  0  0  0  0  0  0  0  0  0  0
    1.0082    2.2936   -0.5091 H   0  0  0  0  0  0  0  0  0  0  0  0
    3.6058   -0.5562   -0.3557 H   0  0  0  0  0  0  0  0  0  0  0  0
    4.3009   -0.9729    1.2218 H   0  0  0  0  0  0  0  0  0  0  0  0
    4.0871    0.7224    0.7863 H   0  0  0  0  0  0  0  0  0  0  0  0
   -1.4586    2.1384   -0.1744 N   0  0  0  0  0  0  0  0  0  0  0  0
   -2.1776    2.8615   -1.2314 C   0  0  2  0  0  0  0  0  0  0  0  0
   -1.5583    4.2541   -1.4728 C   0  0  0  0  0  0  0  0  0  0  0  0
   -0.7171    4.6946   -0.6961 O   0  0  0  0  0  0  0  0  0  0  0  0
   -3.6485    2.9837   -0.8211 C   0  0  0  0  0  0  0  0  0  0  0  0
   -0.8456    2.6992    0.4174 H   0  0  0  0  0  0  0  0  0  0  0  0
   -2.1092    2.3074   -2.1736 H   0  0  0  0  0  0  0  0  0  0  0  0
   -3.7393    3.5485    0.1123 H   0  0  0  0  0  0  0  0  0  0  0  0
   -4.2243    3.4965   -1.5972 H   0  0  0  0  0  0  0  0  0  0  0  0
   -4.0835    1.9905   -0.6706 H   0  0  0  0  0  0  0  0  0  0  0  0
   -1.9273    5.0077   -2.5717 N   0  0  0  0  0  0  0  0  0  0  0  0
   -1.3766    6.3270   -2.8582 C   0  0  0  0  0  0  0  0  0  0  0  0
   -2.6179    4.6137   -3.2042 H   0  0  0  0  0  0  0  0  0  0  0  0
   -1.6330    7.0305   -2.0591 H   0  0  0  0  0  0  0  0  0  0  0  0
   -0.2862    6.2777   -2.9473 H   0  0  0  0  0  0  0  0  0  0  0  0
   -1.7818    6.7098   -3.7998 H   0  0  0  0  0  0  0  0  0  0  0  0
  1  2  2  0  0  0  0
  1  3  1  0  0  0  0
  1  7  1  0  0  0  0
  3  4  1  0  0  0  0
  3  5  1  0  0  0  0
  3  6  1  0  0  0  0
  7  8  1  0  0  0  0
  7 12  1  0  0  0  0
  8  9  1  0  0  0  0
  8 11  1  0  0  0  0
  8 13  1  0  0  0  0
  9 10  2  0  0  0  0
  9 17  1  0  0  0  0
 11 14  1  0  0  0  0
 11 15  1  0  0  0  0
 11 16  1  0  0  0  0
 17 18  1  0  0  0  0
 17 25  1  0  0  0  0
 18 19  1  0  0  0  0
 18 21  1  0  0  0  0
 18 26  1  0  0  0  0
 19 20  2  0  0  0  0
 19 36  1  0  0  0  0
 21 22  1  0  0  0  0
 21 23  1  0  0  0  0
 21 27  1  0  0  0  0
 22 24  1  0  0  0  0
 22 28  1  0  0  0  0
 22 29  1  0  0  0  0
 23 30  1  0  0  0  0
 23 31  1  0  0  0  0
 23 32  1  0  0  0  0
 24 33  1  0  0  0  0
 24 34  1  0  0  0  0
 24 35  1  0  0  0  0
 36 37  1  0  0  0  0
 36 41  1  0  0  0  0
 37 38  1  0  0  0  0
 37 40  1  0  0  0  0
 37 42  1  0  0  0  0
 38 39  2  0  0  0  0
 38 46  1  0  0  0  0
 40 43  1  0  0  0  0
 40 44  1  0  0  0  0
 40 45  1  0  0  0  0
 46 47  1  0  0  0  0
 46 48  1  0  0  0  0
 47 49  1  0  0  0  0
 47 50  1  0  0  0  0
 47 51  1  0  0  0  0
M  END
$$$$
