
  -OEChem-01062216083D

 31 30  0     1  0  0  0  0  0999 V2000
   -3.7131   -2.6335    0.9044 H   0  0  0  0  0  0  0  0  0  0  0  0
   -3.5154   -1.7106    0.3519 C   0  0  0  0  0  0  0  0  0  0  0  0
   -4.3419   -1.0153    0.5179 H   0  0  0  0  0  0  0  0  0  0  0  0
   -3.4537   -1.9451   -0.7135 H   0  0  0  0  0  0  0  0  0  0  0  0
   -2.2144   -1.0878    0.8221 C   0  0  0  0  0  0  0  0  0  0  0  0
   -1.6601   -1.5307    1.8140 O   0  0  0  0  0  0  0  0  0  0  0  0
   -1.7602    0.0650    0.2183 N   0  0  0  0  0  0  0  0  0  0  0  0
   -2.3581    0.4459   -0.5159 H   0  0  0  0  0  0  0  0  0  0  0  0
   -0.4202    0.6801    0.2941 C   0  0  1  0  0  0  0  0  0  0  0  0
   -0.1903    0.9377    1.3323 H   0  0  0  0  0  0  0  0  0  0  0  0
    0.7199   -0.1926   -0.3200 C   0  0  0  0  0  0  0  0  0  0  0  0
    0.4386   -0.4075   -1.3568 H   0  0  0  0  0  0  0  0  0  0  0  0
    1.6397    0.3993   -0.3526 H   0  0  0  0  0  0  0  0  0  0  0  0
    1.0847   -1.5304    0.3540 C   0  0  0  0  0  0  0  0  0  0  0  0
    0.2094   -2.1787    0.4040 H   0  0  0  0  0  0  0  0  0  0  0  0
    2.1180   -2.2655   -0.5073 C   0  0  0  0  0  0  0  0  0  0  0  0
    3.0314   -1.6707   -0.6080 H   0  0  0  0  0  0  0  0  0  0  0  0
    2.3780   -3.2260   -0.0518 H   0  0  0  0  0  0  0  0  0  0  0  0
    1.7153   -2.4588   -1.5065 H   0  0  0  0  0  0  0  0  0  0  0  0
    1.6432   -1.3133    1.7663 C   0  0  0  0  0  0  0  0  0  0  0  0
    0.8952   -0.8449    2.4119 H   0  0  0  0  0  0  0  0  0  0  0  0
    1.9217   -2.2723    2.2139 H   0  0  0  0  0  0  0  0  0  0  0  0
    2.5296   -0.6722    1.7381 H   0  0  0  0  0  0  0  0  0  0  0  0
   -0.4366    1.9752   -0.5630 C   0  0  0  0  0  0  0  0  0  0  0  0
   -1.4379    2.2808   -1.2047 O   0  0  0  0  0  0  0  0  0  0  0  0
    0.6882    2.7742   -0.6817 N   0  0  0  0  0  0  0  0  0  0  0  0
    1.5063    2.5185   -0.1364 H   0  0  0  0  0  0  0  0  0  0  0  0
    0.7347    3.9824   -1.4967 C   0  0  0  0  0  0  0  0  0  0  0  0
   -0.0026    4.7113   -1.1439 H   0  0  0  0  0  0  0  0  0  0  0  0
    1.7273    4.4393   -1.4396 H   0  0  0  0  0  0  0  0  0  0  0  0
    0.5236    3.7462   -2.5449 H   0  0  0  0  0  0  0  0  0  0  0  0
  1  2  1  0  0  0  0
  2  3  1  0  0  0  0
  2  4  1  0  0  0  0
  2  5  1  0  0  0  0
  5  6  2  0  0  0  0
  5  7  1  0  0  0  0
  7  8  1  0  0  0  0
  7  9  1  0  0  0  0
  9 10  1  0  0  0  0
  9 11  1  0  0  0  0
  9 24  1  0  0  0  0
 11 12  1  0  0  0  0
 11 13  1  0  0  0  0
 11 14  1  0  0  0  0
 14 15  1  0  0  0  0
 14 16  1  0  0  0  0
 14 20  1  0  0  0  0
 16 17  1  0  0  0  0
 16 18  1  0  0  0  0
 16 19  1  0  0  0  0
 20 21  1  0  0  0  0
 20 22  1  0  0  0  0
 20 23  1  0  0  0  0
 24 25  2  0  0  0  0
 24 26  1  0  0  0  0
 26 27  1  0  0  0  0
 26 28  1  0  0  0  0
 28 29  1  0  0  0  0
 28 30  1  0  0  0  0
 28 31  1  0  0  0  0
M  END
$$$$

  -OEChem-01062216083D

 31 30  0     1  0  0  0  0  0999 V2000
   -3.7663   -2.5751    0.9056 H   0  0  0  0  0  0  0  0  0  0  0  0
   -3.5368   -1.6651    0.3443 C   0  0  0  0  0  0  0  0  0  0  0  0
   -4.3326   -0.9356    0.5139 H   0  0  0  0  0  0  0  0  0  0  0  0
   -3.4961   -1.9090   -0.7199 H   0  0  0  0  0  0  0  0  0  0  0  0
   -2.2065   -1.0928    0.7957 C   0  0  0  0  0  0  0  0  0  0  0  0
   -1.6497   -1.5695    1.7702 O   0  0  0  0  0  0  0  0  0  0  0  0
   -1.7366    0.0607    0.2054 N   0  0  0  0  0  0  0  0  0  0  0  0
   -2.3599    0.4945   -0.4765 H   0  0  0  0  0  0  0  0  0  0  0  0
   -0.3936    0.6713    0.2836 C   0  0  1  0  0  0  0  0  0  0  0  0
   -0.1643    0.9305    1.3214 H   0  0  0  0  0  0  0  0  0  0  0  0
    0.7482   -0.2108   -0.3209 C   0  0  0  0  0  0  0  0  0  0  0  0
    0.4754   -0.4255   -1.3601 H   0  0  0  0  0  0  0  0  0  0  0  0
    1.6729    0.3728   -0.3419 H   0  0  0  0  0  0  0  0  0  0  0  0
    1.1072   -1.5472    0.3594 C   0  0  0  0  0  0  0  0  0  0  0  0
    0.2312   -2.1939    0.4016 H   0  0  0  0  0  0  0  0  0  0  0  0
    2.1428   -2.2915   -0.4919 C   0  0  0  0  0  0  0  0  0  0  0  0
    3.0619   -1.7046   -0.5865 H   0  0  0  0  0  0  0  0  0  0  0  0
    2.3913   -3.2532   -0.0320 H   0  0  0  0  0  0  0  0  0  0  0  0
    1.7474   -2.4848   -1.4940 H   0  0  0  0  0  0  0  0  0  0  0  0
    1.6522   -1.3285    1.7768 C   0  0  0  0  0  0  0  0  0  0  0  0
    0.8986   -0.8572    2.4139 H   0  0  0  0  0  0  0  0  0  0  0  0
    1.9238   -2.2871    2.2296 H   0  0  0  0  0  0  0  0  0  0  0  0
    2.5404   -0.6896    1.7565 H   0  0  0  0  0  0  0  0  0  0  0  0
   -0.4257    1.9734   -0.5707 C   0  0  0  0  0  0  0  0  0  0  0  0
   -1.4958    2.4036   -0.9924 O   0  0  0  0  0  0  0  0  0  0  0  0
    0.7286    2.6324   -0.9626 N   0  0  0  0  0  0  0  0  0  0  0  0
    1.6131    2.2822   -0.6073 H   0  0  0  0  0  0  0  0  0  0  0  0
    0.7317    3.8264   -1.8003 C   0  0  0  0  0  0  0  0  0  0  0  0
    0.1692    4.6337   -1.3197 H   0  0  0  0  0  0  0  0  0  0  0  0
    1.7572    4.1703   -1.9649 H   0  0  0  0  0  0  0  0  0  0  0  0
    0.2791    3.6123   -2.7741 H   0  0  0  0  0  0  0  0  0  0  0  0
  1  2  1  0  0  0  0
  2  3  1  0  0  0  0
  2  4  1  0  0  0  0
  2  5  1  0  0  0  0
  5  6  2  0  0  0  0
  5  7  1  0  0  0  0
  7  8  1  0  0  0  0
  7  9  1  0  0  0  0
  9 10  1  0  0  0  0
  9 11  1  0  0  0  0
  9 24  1  0  0  0  0
 11 12  1  0  0  0  0
 11 13  1  0  0  0  0
 11 14  1  0  0  0  0
 14 15  1  0  0  0  0
 14 16  1  0  0  0  0
 14 20  1  0  0  0  0
 16 17  1  0  0  0  0
 16 18  1  0  0  0  0
 16 19  1  0  0  0  0
 20 21  1  0  0  0  0
 20 22  1  0  0  0  0
 20 23  1  0  0  0  0
 24 25  2  0  0  0  0
 24 26  1  0  0  0  0
 26 27  1  0  0  0  0
 26 28  1  0  0  0  0
 28 29  1  0  0  0  0
 28 30  1  0  0  0  0
 28 31  1  0  0  0  0
M  END
$$$$

  -OEChem-01062216083D

 31 30  0     1  0  0  0  0  0999 V2000
   -3.7818   -2.5603    0.8564 H   0  0  0  0  0  0  0  0  0  0  0  0
   -3.5612   -1.6236    0.3369 C   0  0  0  0  0  0  0  0  0  0  0  0
   -4.3402   -0.8953    0.5755 H   0  0  0  0  0  0  0  0  0  0  0  0
   -3.5629   -1.8099   -0.7396 H   0  0  0  0  0  0  0  0  0  0  0  0
   -2.2075   -1.0921    0.7687 C   0  0  0  0  0  0  0  0  0  0  0  0
   -1.6472   -1.5967    1.7266 O   0  0  0  0  0  0  0  0  0  0  0  0
   -1.7218    0.0587    0.1847 N   0  0  0  0  0  0  0  0  0  0  0  0
   -2.3645    0.5366   -0.4473 H   0  0  0  0  0  0  0  0  0  0  0  0
   -0.3727    0.6576    0.2618 C   0  0  1  0  0  0  0  0  0  0  0  0
   -0.1458    0.9225    1.2987 H   0  0  0  0  0  0  0  0  0  0  0  0
    0.7740   -0.2311   -0.3238 C   0  0  0  0  0  0  0  0  0  0  0  0
    0.5142   -0.4533   -1.3647 H   0  0  0  0  0  0  0  0  0  0  0  0
    1.6989    0.3528   -0.3316 H   0  0  0  0  0  0  0  0  0  0  0  0
    1.1287   -1.5614    0.3700 C   0  0  0  0  0  0  0  0  0  0  0  0
    0.2531   -2.2088    0.4065 H   0  0  0  0  0  0  0  0  0  0  0  0
    2.1717   -2.3105   -0.4677 C   0  0  0  0  0  0  0  0  0  0  0  0
    3.0912   -1.7237   -0.5578 H   0  0  0  0  0  0  0  0  0  0  0  0
    2.4166   -3.2688    0.0010 H   0  0  0  0  0  0  0  0  0  0  0  0
    1.7853   -2.5106   -1.4719 H   0  0  0  0  0  0  0  0  0  0  0  0
    1.6591   -1.3344    1.7915 C   0  0  0  0  0  0  0  0  0  0  0  0
    0.8970   -0.8637    2.4191 H   0  0  0  0  0  0  0  0  0  0  0  0
    1.9302   -2.2900    2.2507 H   0  0  0  0  0  0  0  0  0  0  0  0
    2.5447   -0.6919    1.7770 H   0  0  0  0  0  0  0  0  0  0  0  0
   -0.4146    1.9614   -0.5928 C   0  0  0  0  0  0  0  0  0  0  0  0
   -1.4887    2.5260   -0.7770 O   0  0  0  0  0  0  0  0  0  0  0  0
    0.6899    2.4723   -1.2572 N   0  0  0  0  0  0  0  0  0  0  0  0
    1.5793    2.0018   -1.1223 H   0  0  0  0  0  0  0  0  0  0  0  0
    0.6482    3.6648   -2.0962 C   0  0  0  0  0  0  0  0  0  0  0  0
    0.3239    4.5329   -1.5126 H   0  0  0  0  0  0  0  0  0  0  0  0
    1.6413    3.8752   -2.5047 H   0  0  0  0  0  0  0  0  0  0  0  0
   -0.0455    3.5220   -2.9314 H   0  0  0  0  0  0  0  0  0  0  0  0
  1  2  1  0  0  0  0
  2  3  1  0  0  0  0
  2  4  1  0  0  0  0
  2  5  1  0  0  0  0
  5  6  2  0  0  0  0
  5  7  1  0  0  0  0
  7  8  1  0  0  0  0
  7  9  1  0  0  0  0
  9 10  1  0  0  0  0
  9 11  1  0  0  0  0
  9 24  1  0  0  0  0
 11 12  1  0  0  0  0
 11 13  1  0  0  0  0
 11 14  1  0  0  0  0
 14 15  1  0  0  0  0
 14 16  1  0  0  0  0
 14 20  1  0  0  0  0
 16 17  1  0  0  0  0
 16 18  1  0  0  0  0
 16 19  1  0  0  0  0
 20 21  1  0  0  0  0
 20 22  1  0  0  0  0
 20 23  1  0  0  0  0
 24 25  2  0  0  0  0
 24 26  1  0  0  0  0
 26 27  1  0  0  0  0
 26 28  1  0  0  0  0
 28 29  1  0  0  0  0
 28 30  1  0  0  0  0
 28 31  1  0  0  0  0
M  END
$$$$

  -OEChem-01062216083D

 31 30  0     1  0  0  0  0  0999 V2000
   -3.8034   -2.5403    0.8371 H   0  0  0  0  0  0  0  0  0  0  0  0
   -3.5805   -1.5952    0.3340 C   0  0  0  0  0  0  0  0  0  0  0  0
   -4.3436   -0.8617    0.6055 H   0  0  0  0  0  0  0  0  0  0  0  0
   -3.6086   -1.7573   -0.7461 H   0  0  0  0  0  0  0  0  0  0  0  0
   -2.2102   -1.0927    0.7479 C   0  0  0  0  0  0  0  0  0  0  0  0
   -1.6427   -1.6209    1.6882 O   0  0  0  0  0  0  0  0  0  0  0  0
   -1.7177    0.0575    0.1679 N   0  0  0  0  0  0  0  0  0  0  0  0
   -2.3746    0.5626   -0.4259 H   0  0  0  0  0  0  0  0  0  0  0  0
   -0.3634    0.6453    0.2407 C   0  0  1  0  0  0  0  0  0  0  0  0
   -0.1387    0.9138    1.2773 H   0  0  0  0  0  0  0  0  0  0  0  0
    0.7902   -0.2433   -0.3311 C   0  0  0  0  0  0  0  0  0  0  0  0
    0.5364   -0.4780   -1.3706 H   0  0  0  0  0  0  0  0  0  0  0  0
    1.7098    0.3503   -0.3370 H   0  0  0  0  0  0  0  0  0  0  0  0
    1.1473   -1.5675    0.3731 C   0  0  0  0  0  0  0  0  0  0  0  0
    0.2750   -2.2192    0.4072 H   0  0  0  0  0  0  0  0  0  0  0  0
    2.1984   -2.3188   -0.4521 C   0  0  0  0  0  0  0  0  0  0  0  0
    3.1176   -1.7306   -0.5372 H   0  0  0  0  0  0  0  0  0  0  0  0
    2.4412   -3.2742    0.0236 H   0  0  0  0  0  0  0  0  0  0  0  0
    1.8207   -2.5249   -1.4582 H   0  0  0  0  0  0  0  0  0  0  0  0
    1.6652   -1.3283    1.7971 C   0  0  0  0  0  0  0  0  0  0  0  0
    0.9007   -0.8443    2.4117 H   0  0  0  0  0  0  0  0  0  0  0  0
    1.9236   -2.2807    2.2704 H   0  0  0  0  0  0  0  0  0  0  0  0
    2.5563   -0.6931    1.7843 H   0  0  0  0  0  0  0  0  0  0  0  0
   -0.4094    1.9512   -0.6079 C   0  0  0  0  0  0  0  0  0  0  0  0
   -1.4178    2.6475   -0.5676 O   0  0  0  0  0  0  0  0  0  0  0  0
    0.5735    2.3133   -1.5168 N   0  0  0  0  0  0  0  0  0  0  0  0
    1.3918    1.7164   -1.5868 H   0  0  0  0  0  0  0  0  0  0  0  0
    0.4963    3.4991   -2.3626 C   0  0  0  0  0  0  0  0  0  0  0  0
    0.4322    4.4039   -1.7489 H   0  0  0  0  0  0  0  0  0  0  0  0
    1.3871    3.5719   -2.9937 H   0  0  0  0  0  0  0  0  0  0  0  0
   -0.3835    3.4505   -3.0128 H   0  0  0  0  0  0  0  0  0  0  0  0
  1  2  1  0  0  0  0
  2  3  1  0  0  0  0
  2  4  1  0  0  0  0
  2  5  1  0  0  0  0
  5  6  2  0  0  0  0
  5  7  1  0  0  0  0
  7  8  1  0  0  0  0
  7  9  1  0  0  0  0
  9 10  1  0  0  0  0
  9 11  1  0  0  0  0
  9 24  1  0  0  0  0
 11 12  1  0  0  0  0
 11 13  1  0  0  0  0
 11 14  1  0  0  0  0
 14 15  1  0  0  0  0
 14 16  1  0  0  0  0
 14 20  1  0  0  0  0
 16 17  1  0  0  0  0
 16 18  1  0  0  0  0
 16 19  1  0  0  0  0
 20 21  1  0  0  0  0
 20 22  1  0  0  0  0
 20 23  1  0  0  0  0
 24 25  2  0  0  0  0
 24 26  1  0  0  0  0
 26 27  1  0  0  0  0
 26 28  1  0  0  0  0
 28 29  1  0  0  0  0
 28 30  1  0  0  0  0
 28 31  1  0  0  0  0
M  END
$$$$

  -OEChem-01062216083D

 31 30  0     1  0  0  0  0  0999 V2000
   -3.8103   -2.5349    0.8433 H   0  0  0  0  0  0  0  0  0  0  0  0
   -3.5897   -1.5894    0.3401 C   0  0  0  0  0  0  0  0  0  0  0  0
   -4.3494   -0.8554    0.6195 H   0  0  0  0  0  0  0  0  0  0  0  0
   -3.6271   -1.7496   -0.7400 H   0  0  0  0  0  0  0  0  0  0  0  0
   -2.2150   -1.0899    0.7434 C   0  0  0  0  0  0  0  0  0  0  0  0
   -1.6410   -1.6212    1.6775 O   0  0  0  0  0  0  0  0  0  0  0  0
   -1.7245    0.0588    0.1580 N   0  0  0  0  0  0  0  0  0  0  0  0
   -2.3865    0.5624   -0.4295 H   0  0  0  0  0  0  0  0  0  0  0  0
   -0.3672    0.6401    0.2220 C   0  0  1  0  0  0  0  0  0  0  0  0
   -0.1408    0.9118    1.2576 H   0  0  0  0  0  0  0  0  0  0  0  0
    0.7892   -0.2492   -0.3413 C   0  0  0  0  0  0  0  0  0  0  0  0
    0.5314   -0.5029   -1.3752 H   0  0  0  0  0  0  0  0  0  0  0  0
    1.7025    0.3552   -0.3624 H   0  0  0  0  0  0  0  0  0  0  0  0
    1.1522   -1.5665    0.3723 C   0  0  0  0  0  0  0  0  0  0  0  0
    0.2834   -2.2224    0.4123 H   0  0  0  0  0  0  0  0  0  0  0  0
    2.2062   -2.3178   -0.4493 C   0  0  0  0  0  0  0  0  0  0  0  0
    3.1217   -1.7247   -0.5401 H   0  0  0  0  0  0  0  0  0  0  0  0
    2.4551   -3.2684    0.0328 H   0  0  0  0  0  0  0  0  0  0  0  0
    1.8280   -2.5336   -1.4535 H   0  0  0  0  0  0  0  0  0  0  0  0
    1.6711   -1.3134    1.7932 C   0  0  0  0  0  0  0  0  0  0  0  0
    0.9014   -0.8372    2.4070 H   0  0  0  0  0  0  0  0  0  0  0  0
    1.9445   -2.2595    2.2703 H   0  0  0  0  0  0  0  0  0  0  0  0
    2.5529   -0.6655    1.7744 H   0  0  0  0  0  0  0  0  0  0  0  0
   -0.4080    1.9440   -0.6243 C   0  0  0  0  0  0  0  0  0  0  0  0
   -1.2863    2.7654   -0.3930 O   0  0  0  0  0  0  0  0  0  0  0  0
    0.3915    2.1622   -1.7362 N   0  0  0  0  0  0  0  0  0  0  0  0
    1.0881    1.4577   -1.9587 H   0  0  0  0  0  0  0  0  0  0  0  0
    0.2954    3.3467   -2.5817 C   0  0  0  0  0  0  0  0  0  0  0  0
    0.5041    4.2504   -1.9996 H   0  0  0  0  0  0  0  0  0  0  0  0
    1.0200    3.2873   -3.3994 H   0  0  0  0  0  0  0  0  0  0  0  0
   -0.7069    3.4295   -3.0149 H   0  0  0  0  0  0  0  0  0  0  0  0
  1  2  1  0  0  0  0
  2  3  1  0  0  0  0
  2  4  1  0  0  0  0
  2  5  1  0  0  0  0
  5  6  2  0  0  0  0
  5  7  1  0  0  0  0
  7  8  1  0  0  0  0
  7  9  1  0  0  0  0
  9 10  1  0  0  0  0
  9 11  1  0  0  0  0
  9 24  1  0  0  0  0
 11 12  1  0  0  0  0
 11 13  1  0  0  0  0
 11 14  1  0  0  0  0
 14 15  1  0  0  0  0
 14 16  1  0  0  0  0
 14 20  1  0  0  0  0
 16 17  1  0  0  0  0
 16 18  1  0  0  0  0
 16 19  1  0  0  0  0
 20 21  1  0  0  0  0
 20 22  1  0  0  0  0
 20 23  1  0  0  0  0
 24 25  2  0  0  0  0
 24 26  1  0  0  0  0
 26 27  1  0  0  0  0
 26 28  1  0  0  0  0
 28 29  1  0  0  0  0
 28 30  1  0  0  0  0
 28 31  1  0  0  0  0
M  END
$$$$

  -OEChem-01062216083D

 31 30  0     1  0  0  0  0  0999 V2000
   -3.8018   -2.5470    0.8713 H   0  0  0  0  0  0  0  0  0  0  0  0
   -3.5925   -1.6041    0.3581 C   0  0  0  0  0  0  0  0  0  0  0  0
   -4.3574   -0.8744    0.6352 H   0  0  0  0  0  0  0  0  0  0  0  0
   -3.6336   -1.7746   -0.7202 H   0  0  0  0  0  0  0  0  0  0  0  0
   -2.2206   -1.0894    0.7513 C   0  0  0  0  0  0  0  0  0  0  0  0
   -1.6393   -1.6084    1.6874 O   0  0  0  0  0  0  0  0  0  0  0  0
   -1.7406    0.0579    0.1540 N   0  0  0  0  0  0  0  0  0  0  0  0
   -2.4016    0.5355   -0.4545 H   0  0  0  0  0  0  0  0  0  0  0  0
   -0.3818    0.6380    0.2058 C   0  0  1  0  0  0  0  0  0  0  0  0
   -0.1517    0.9128    1.2401 H   0  0  0  0  0  0  0  0  0  0  0  0
    0.7762   -0.2491   -0.3562 C   0  0  0  0  0  0  0  0  0  0  0  0
    0.5113   -0.5206   -1.3832 H   0  0  0  0  0  0  0  0  0  0  0  0
    1.6831    0.3645   -0.3962 H   0  0  0  0  0  0  0  0  0  0  0  0
    1.1479   -1.5596    0.3644 C   0  0  0  0  0  0  0  0  0  0  0  0
    0.2817   -2.2187    0.4141 H   0  0  0  0  0  0  0  0  0  0  0  0
    2.2028   -2.3115   -0.4564 C   0  0  0  0  0  0  0  0  0  0  0  0
    3.1143   -1.7137   -0.5557 H   0  0  0  0  0  0  0  0  0  0  0  0
    2.4602   -3.2567    0.0317 H   0  0  0  0  0  0  0  0  0  0  0  0
    1.8221   -2.5372   -1.4573 H   0  0  0  0  0  0  0  0  0  0  0  0
    1.6709   -1.2913    1.7811 C   0  0  0  0  0  0  0  0  0  0  0  0
    0.8982   -0.8219    2.3967 H   0  0  0  0  0  0  0  0  0  0  0  0
    1.9603   -2.2305    2.2626 H   0  0  0  0  0  0  0  0  0  0  0  0
    2.5428   -0.6306    1.7532 H   0  0  0  0  0  0  0  0  0  0  0  0
   -0.4140    1.9379   -0.6410 C   0  0  0  0  0  0  0  0  0  0  0  0
   -1.0943    2.8763   -0.2498 O   0  0  0  0  0  0  0  0  0  0  0  0
    0.1469    2.0334   -1.9053 N   0  0  0  0  0  0  0  0  0  0  0  0
    0.6838    1.2397   -2.2413 H   0  0  0  0  0  0  0  0  0  0  0  0
    0.0549    3.2250   -2.7410 C   0  0  0  0  0  0  0  0  0  0  0  0
    0.5261    4.0790   -2.2431 H   0  0  0  0  0  0  0  0  0  0  0  0
    0.5629    3.0577   -3.6955 H   0  0  0  0  0  0  0  0  0  0  0  0
   -0.9925    3.4699   -2.9462 H   0  0  0  0  0  0  0  0  0  0  0  0
  1  2  1  0  0  0  0
  2  3  1  0  0  0  0
  2  4  1  0  0  0  0
  2  5  1  0  0  0  0
  5  6  2  0  0  0  0
  5  7  1  0  0  0  0
  7  8  1  0  0  0  0
  7  9  1  0  0  0  0
  9 10  1  0  0  0  0
  9 11  1  0  0  0  0
  9 24  1  0  0  0  0
 11 12  1  0  0  0  0
 11 13  1  0  0  0  0
 11 14  1  0  0  0  0
 14 15  1  0  0  0  0
 14 16  1  0  0  0  0
 14 20  1  0  0  0  0
 16 17  1  0  0  0  0
 16 18  1  0  0  0  0
 16 19  1  0  0  0  0
 20 21  1  0  0  0  0
 20 22  1  0  0  0  0
 20 23  1  0  0  0  0
 24 25  2  0  0  0  0
 24 26  1  0  0  0  0
 26 27  1  0  0  0  0
 26 28  1  0  0  0  0
 28 29  1  0  0  0  0
 28 30  1  0  0  0  0
 28 31  1  0  0  0  0
M  END
$$$$

  -OEChem-01062216083D

 31 30  0     1  0  0  0  0  0999 V2000
   -3.7890   -2.5711    0.9040 H   0  0  0  0  0  0  0  0  0  0  0  0
   -3.5915   -1.6314    0.3802 C   0  0  0  0  0  0  0  0  0  0  0  0
   -4.3668   -0.9092    0.6479 H   0  0  0  0  0  0  0  0  0  0  0  0
   -3.6285   -1.8155   -0.6961 H   0  0  0  0  0  0  0  0  0  0  0  0
   -2.2275   -1.0923    0.7689 C   0  0  0  0  0  0  0  0  0  0  0  0
   -1.6373   -1.5952    1.7080 O   0  0  0  0  0  0  0  0  0  0  0  0
   -1.7624    0.0551    0.1591 N   0  0  0  0  0  0  0  0  0  0  0  0
   -2.4203    0.4994   -0.4761 H   0  0  0  0  0  0  0  0  0  0  0  0
   -0.4047    0.6391    0.1984 C   0  0  1  0  0  0  0  0  0  0  0  0
   -0.1693    0.9156    1.2313 H   0  0  0  0  0  0  0  0  0  0  0  0
    0.7546   -0.2406   -0.3698 C   0  0  0  0  0  0  0  0  0  0  0  0
    0.4870   -0.5197   -1.3935 H   0  0  0  0  0  0  0  0  0  0  0  0
    1.6555    0.3815   -0.4211 H   0  0  0  0  0  0  0  0  0  0  0  0
    1.1371   -1.5469    0.3533 C   0  0  0  0  0  0  0  0  0  0  0  0
    0.2743   -2.2099    0.4127 H   0  0  0  0  0  0  0  0  0  0  0  0
    2.1908   -2.2960   -0.4708 C   0  0  0  0  0  0  0  0  0  0  0  0
    3.0976   -1.6927   -0.5788 H   0  0  0  0  0  0  0  0  0  0  0  0
    2.4569   -3.2375    0.0200 H   0  0  0  0  0  0  0  0  0  0  0  0
    1.8047   -2.5281   -1.4681 H   0  0  0  0  0  0  0  0  0  0  0  0
    1.6705   -1.2710    1.7646 C   0  0  0  0  0  0  0  0  0  0  0  0
    0.9009   -0.8022    2.3845 H   0  0  0  0  0  0  0  0  0  0  0  0
    1.9680   -2.2072    2.2468 H   0  0  0  0  0  0  0  0  0  0  0  0
    2.5398   -0.6071    1.7275 H   0  0  0  0  0  0  0  0  0  0  0  0
   -0.4316    1.9347   -0.6500 C   0  0  0  0  0  0  0  0  0  0  0  0
   -0.8346    2.9710   -0.1421 O   0  0  0  0  0  0  0  0  0  0  0  0
   -0.1519    1.9394   -2.0074 N   0  0  0  0  0  0  0  0  0  0  0  0
    0.1706    1.0707   -2.4224 H   0  0  0  0  0  0  0  0  0  0  0  0
   -0.2140    3.1364   -2.8382 C   0  0  0  0  0  0  0  0  0  0  0  0
    0.4858    3.8943   -2.4708 H   0  0  0  0  0  0  0  0  0  0  0  0
    0.0507    2.8934   -3.8717 H   0  0  0  0  0  0  0  0  0  0  0  0
   -1.2252    3.5569   -2.8307 H   0  0  0  0  0  0  0  0  0  0  0  0
  1  2  1  0  0  0  0
  2  3  1  0  0  0  0
  2  4  1  0  0  0  0
  2  5  1  0  0  0  0
  5  6  2  0  0  0  0
  5  7  1  0  0  0  0
  7  8  1  0  0  0  0
  7  9  1  0  0  0  0
  9 10  1  0  0  0  0
  9 11  1  0  0  0  0
  9 24  1  0  0  0  0
 11 12  1  0  0  0  0
 11 13  1  0  0  0  0
 11 14  1  0  0  0  0
 14 15  1  0  0  0  0
 14 16  1  0  0  0  0
 14 20  1  0  0  0  0
 16 17  1  0  0  0  0
 16 18  1  0  0  0  0
 16 19  1  0  0  0  0
 20 21  1  0  0  0  0
 20 22  1  0  0  0  0
 20 23  1  0  0  0  0
 24 25  2  0  0  0  0
 24 26  1  0  0  0  0
 26 27  1  0  0  0  0
 26 28  1  0  0  0  0
 28 29  1  0  0  0  0
 28 30  1  0  0  0  0
 28 31  1  0  0  0  0
M  END
$$$$

  -OEChem-01062216083D

 31 30  0     1  0  0  0  0  0999 V2000
   -3.7760   -2.5956    0.9361 H   0  0  0  0  0  0  0  0  0  0  0  0
   -3.5913   -1.6578    0.4042 C   0  0  0  0  0  0  0  0  0  0  0  0
   -4.3774   -0.9447    0.6646 H   0  0  0  0  0  0  0  0  0  0  0  0
   -3.6244   -1.8518   -0.6705 H   0  0  0  0  0  0  0  0  0  0  0  0
   -2.2355   -1.0965    0.7902 C   0  0  0  0  0  0  0  0  0  0  0  0
   -1.6374   -1.5852    1.7315 O   0  0  0  0  0  0  0  0  0  0  0  0
   -1.7850    0.0519    0.1711 N   0  0  0  0  0  0  0  0  0  0  0  0
   -2.4401    0.4696   -0.4842 H   0  0  0  0  0  0  0  0  0  0  0  0
   -0.4297    0.6431    0.2061 C   0  0  1  0  0  0  0  0  0  0  0  0
   -0.1906    0.9176    1.2389 H   0  0  0  0  0  0  0  0  0  0  0  0
    0.7318   -0.2222   -0.3760 C   0  0  0  0  0  0  0  0  0  0  0  0
    0.4660   -0.4912   -1.4028 H   0  0  0  0  0  0  0  0  0  0  0  0
    1.6277    0.4072   -0.4245 H   0  0  0  0  0  0  0  0  0  0  0  0
    1.1240   -1.5308    0.3374 C   0  0  0  0  0  0  0  0  0  0  0  0
    0.2637   -2.1969    0.3994 H   0  0  0  0  0  0  0  0  0  0  0  0
    2.1780   -2.2693   -0.4957 C   0  0  0  0  0  0  0  0  0  0  0  0
    3.0803   -1.6593   -0.6060 H   0  0  0  0  0  0  0  0  0  0  0  0
    2.4528   -3.2114   -0.0109 H   0  0  0  0  0  0  0  0  0  0  0  0
    1.7875   -2.4995   -1.4919 H   0  0  0  0  0  0  0  0  0  0  0  0
    1.6653   -1.2601    1.7468 C   0  0  0  0  0  0  0  0  0  0  0  0
    0.8997   -0.7943    2.3735 H   0  0  0  0  0  0  0  0  0  0  0  0
    1.9657   -2.1981    2.2236 H   0  0  0  0  0  0  0  0  0  0  0  0
    2.5340   -0.5957    1.7070 H   0  0  0  0  0  0  0  0  0  0  0  0
   -0.4552    1.9335   -0.6448 C   0  0  0  0  0  0  0  0  0  0  0  0
   -0.5399    3.0217   -0.0950 O   0  0  0  0  0  0  0  0  0  0  0  0
   -0.4766    1.8860   -2.0292 N   0  0  0  0  0  0  0  0  0  0  0  0
   -0.3762    0.9755   -2.4674 H   0  0  0  0  0  0  0  0  0  0  0  0
   -0.5028    3.0759   -2.8717 C   0  0  0  0  0  0  0  0  0  0  0  0
    0.3777    3.6987   -2.6819 H   0  0  0  0  0  0  0  0  0  0  0  0
   -0.5041    2.7914   -3.9282 H   0  0  0  0  0  0  0  0  0  0  0  0
   -1.4026    3.6673   -2.6720 H   0  0  0  0  0  0  0  0  0  0  0  0
  1  2  1  0  0  0  0
  2  3  1  0  0  0  0
  2  4  1  0  0  0  0
  2  5  1  0  0  0  0
  5  6  2  0  0  0  0
  5  7  1  0  0  0  0
  7  8  1  0  0  0  0
  7  9  1  0  0  0  0
  9 10  1  0  0  0  0
  9 11  1  0  0  0  0
  9 24  1  0  0  0  0
 11 12  1  0  0  0  0
 11 13  1  0  0  0  0
 11 14  1  0  0  0  0
 14 15  1  0  0  0  0
 14 16  1  0  0  0  0
 14 20  1  0  0  0  0
 16 17  1  0  0  0  0
 16 18  1  0  0  0  0
 16 19  1  0  0  0  0
 20 21  1  0  0  0  0
 20 22  1  0  0  0  0
 20 23  1  0  0  0  0
 24 25  2  0  0  0  0
 24 26  1  0  0  0  0
 26 27  1  0  0  0  0
 26 28  1  0  0  0  0
 28 29  1  0  0  0  0
 28 30  1  0  0  0  0
 28 31  1  0  0  0  0
M  END
$$$$

  -OEChem-01062216083D

 31 30  0     1  0  0  0  0  0999 V2000
   -3.7710   -2.6171    0.9750 H   0  0  0  0  0  0  0  0  0  0  0  0
   -3.5957   -1.6828    0.4340 C   0  0  0  0  0  0  0  0  0  0  0  0
   -4.3872   -0.9743    0.6901 H   0  0  0  0  0  0  0  0  0  0  0  0
   -3.6304   -1.8873   -0.6385 H   0  0  0  0  0  0  0  0  0  0  0  0
   -2.2437   -1.1069    0.8117 C   0  0  0  0  0  0  0  0  0  0  0  0
   -1.6350   -1.5887    1.7496 O   0  0  0  0  0  0  0  0  0  0  0  0
   -1.8065    0.0441    0.1869 N   0  0  0  0  0  0  0  0  0  0  0  0
   -2.4688    0.4564   -0.4645 H   0  0  0  0  0  0  0  0  0  0  0  0
   -0.4563    0.6494    0.2261 C   0  0  1  0  0  0  0  0  0  0  0  0
   -0.2162    0.9206    1.2596 H   0  0  0  0  0  0  0  0  0  0  0  0
    0.7076   -0.1976   -0.3744 C   0  0  0  0  0  0  0  0  0  0  0  0
    0.4423   -0.4463   -1.4067 H   0  0  0  0  0  0  0  0  0  0  0  0
    1.5996    0.4384   -0.4134 H   0  0  0  0  0  0  0  0  0  0  0  0
    1.1101   -1.5138    0.3201 C   0  0  0  0  0  0  0  0  0  0  0  0
    0.2525   -2.1845    0.3772 H   0  0  0  0  0  0  0  0  0  0  0  0
    2.1653   -2.2351   -0.5267 C   0  0  0  0  0  0  0  0  0  0  0  0
    3.0642   -1.6195   -0.6328 H   0  0  0  0  0  0  0  0  0  0  0  0
    2.4472   -3.1820   -0.0557 H   0  0  0  0  0  0  0  0  0  0  0  0
    1.7724   -2.4540   -1.5244 H   0  0  0  0  0  0  0  0  0  0  0  0
    1.6582   -1.2603    1.7307 C   0  0  0  0  0  0  0  0  0  0  0  0
    0.8963   -0.8020    2.3674 H   0  0  0  0  0  0  0  0  0  0  0  0
    1.9612   -2.2039    2.1946 H   0  0  0  0  0  0  0  0  0  0  0  0
    2.5266   -0.5953    1.6948 H   0  0  0  0  0  0  0  0  0  0  0  0
   -0.4809    1.9352   -0.6283 C   0  0  0  0  0  0  0  0  0  0  0  0
   -0.2599    3.0206   -0.1123 O   0  0  0  0  0  0  0  0  0  0  0  0
   -0.7983    1.8828   -1.9759 N   0  0  0  0  0  0  0  0  0  0  0  0
   -0.8819    0.9628   -2.3976 H   0  0  0  0  0  0  0  0  0  0  0  0
   -0.7899    3.0559   -2.8421 C   0  0  0  0  0  0  0  0  0  0  0  0
    0.2058    3.5114   -2.8605 H   0  0  0  0  0  0  0  0  0  0  0  0
   -1.0607    2.7741   -3.8641 H   0  0  0  0  0  0  0  0  0  0  0  0
   -1.5112    3.7996   -2.4871 H   0  0  0  0  0  0  0  0  0  0  0  0
  1  2  1  0  0  0  0
  2  3  1  0  0  0  0
  2  4  1  0  0  0  0
  2  5  1  0  0  0  0
  5  6  2  0  0  0  0
  5  7  1  0  0  0  0
  7  8  1  0  0  0  0
  7  9  1  0  0  0  0
  9 10  1  0  0  0  0
  9 11  1  0  0  0  0
  9 24  1  0  0  0  0
 11 12  1  0  0  0  0
 11 13  1  0  0  0  0
 11 14  1  0  0  0  0
 14 15  1  0  0  0  0
 14 16  1  0  0  0  0
 14 20  1  0  0  0  0
 16 17  1  0  0  0  0
 16 18  1  0  0  0  0
 16 19  1  0  0  0  0
 20 21  1  0  0  0  0
 20 22  1  0  0  0  0
 20 23  1  0  0  0  0
 24 25  2  0  0  0  0
 24 26  1  0  0  0  0
 26 27  1  0  0  0  0
 26 28  1  0  0  0  0
 28 29  1  0  0  0  0
 28 30  1  0  0  0  0
 28 31  1  0  0  0  0
M  END
$$$$

  -OEChem-01062216083D

 31 30  0     1  0  0  0  0  0999 V2000
   -3.7686   -2.6388    1.0145 H   0  0  0  0  0  0  0  0  0  0  0  0
   -3.6002   -1.7092    0.4631 C   0  0  0  0  0  0  0  0  0  0  0  0
   -4.3956   -1.0031    0.7138 H   0  0  0  0  0  0  0  0  0  0  0  0
   -3.6365   -1.9257   -0.6071 H   0  0  0  0  0  0  0  0  0  0  0  0
   -2.2501   -1.1219    0.8311 C   0  0  0  0  0  0  0  0  0  0  0  0
   -1.6341   -1.5955    1.7683 O   0  0  0  0  0  0  0  0  0  0  0  0
   -1.8236    0.0313    0.2023 N   0  0  0  0  0  0  0  0  0  0  0  0
   -2.4977    0.4511   -0.4313 H   0  0  0  0  0  0  0  0  0  0  0  0
   -0.4799    0.6526    0.2478 C   0  0  1  0  0  0  0  0  0  0  0  0
   -0.2403    0.9213    1.2821 H   0  0  0  0  0  0  0  0  0  0  0  0
    0.6845   -0.1812   -0.3672 C   0  0  0  0  0  0  0  0  0  0  0  0
    0.4144   -0.4142   -1.4023 H   0  0  0  0  0  0  0  0  0  0  0  0
    1.5746    0.4579   -0.4024 H   0  0  0  0  0  0  0  0  0  0  0  0
    1.0967   -1.5033    0.3093 C   0  0  0  0  0  0  0  0  0  0  0  0
    0.2426   -2.1785    0.3650 H   0  0  0  0  0  0  0  0  0  0  0  0
    2.1514   -2.2090   -0.5512 C   0  0  0  0  0  0  0  0  0  0  0  0
    3.0441   -1.5843   -0.6579 H   0  0  0  0  0  0  0  0  0  0  0  0
    2.4450   -3.1573   -0.0900 H   0  0  0  0  0  0  0  0  0  0  0  0
    1.7537   -2.4231   -1.5481 H   0  0  0  0  0  0  0  0  0  0  0  0
    1.6539   -1.2606    1.7177 C   0  0  0  0  0  0  0  0  0  0  0  0
    0.8951   -0.8109    2.3639 H   0  0  0  0  0  0  0  0  0  0  0  0
    1.9642   -2.2072    2.1706 H   0  0  0  0  0  0  0  0  0  0  0  0
    2.5193   -0.5916    1.6809 H   0  0  0  0  0  0  0  0  0  0  0  0
   -0.4958    1.9359   -0.6095 C   0  0  0  0  0  0  0  0  0  0  0  0
   -0.0085    2.9706   -0.1787 O   0  0  0  0  0  0  0  0  0  0  0  0
   -1.0842    1.9359   -1.8641 N   0  0  0  0  0  0  0  0  0  0  0  0
   -1.3286    1.0320   -2.2564 H   0  0  0  0  0  0  0  0  0  0  0  0
   -1.0649    3.0980   -2.7450 C   0  0  0  0  0  0  0  0  0  0  0  0
   -0.0345    3.3789   -2.9868 H   0  0  0  0  0  0  0  0  0  0  0  0
   -1.5916    2.8753   -3.6777 H   0  0  0  0  0  0  0  0  0  0  0  0
   -1.5589    3.9499   -2.2658 H   0  0  0  0  0  0  0  0  0  0  0  0
  1  2  1  0  0  0  0
  2  3  1  0  0  0  0
  2  4  1  0  0  0  0
  2  5  1  0  0  0  0
  5  6  2  0  0  0  0
  5  7  1  0  0  0  0
  7  8  1  0  0  0  0
  7  9  1  0  0  0  0
  9 10  1  0  0  0  0
  9 11  1  0  0  0  0
  9 24  1  0  0  0  0
 11 12  1  0  0  0  0
 11 13  1  0  0  0  0
 11 14  1  0  0  0  0
 14 15  1  0  0  0  0
 14 16  1  0  0  0  0
 14 20  1  0  0  0  0
 16 17  1  0  0  0  0
 16 18  1  0  0  0  0
 16 19  1  0  0  0  0
 20 21  1  0  0  0  0
 20 22  1  0  0  0  0
 20 23  1  0  0  0  0
 24 25  2  0  0  0  0
 24 26  1  0  0  0  0
 26 27  1  0  0  0  0
 26 28  1  0  0  0  0
 28 29  1  0  0  0  0
 28 30  1  0  0  0  0
 28 31  1  0  0  0  0
M  END
$$$$

  -OEChem-01062216083D

 31 30  0     1  0  0  0  0  0999 V2000
   -3.7638   -2.6594    1.0554 H   0  0  0  0  0  0  0  0  0  0  0  0
   -3.5963   -1.7399    0.4870 C   0  0  0  0  0  0  0  0  0  0  0  0
   -4.3940   -1.0311    0.7222 H   0  0  0  0  0  0  0  0  0  0  0  0
   -3.6284   -1.9768   -0.5790 H   0  0  0  0  0  0  0  0  0  0  0  0
   -2.2489   -1.1425    0.8471 C   0  0  0  0  0  0  0  0  0  0  0  0
   -1.6280   -1.6047    1.7866 O   0  0  0  0  0  0  0  0  0  0  0  0
   -1.8348    0.0123    0.2127 N   0  0  0  0  0  0  0  0  0  0  0  0
   -2.5261    0.4398   -0.3952 H   0  0  0  0  0  0  0  0  0  0  0  0
   -0.4979    0.6511    0.2607 C   0  0  1  0  0  0  0  0  0  0  0  0
   -0.2598    0.9195    1.2951 H   0  0  0  0  0  0  0  0  0  0  0  0
    0.6670   -0.1784   -0.3613 C   0  0  0  0  0  0  0  0  0  0  0  0
    0.3937   -0.4049   -1.3972 H   0  0  0  0  0  0  0  0  0  0  0  0
    1.5565    0.4617   -0.3963 H   0  0  0  0  0  0  0  0  0  0  0  0
    1.0891   -1.5013    0.3083 C   0  0  0  0  0  0  0  0  0  0  0  0
    0.2388   -2.1813    0.3662 H   0  0  0  0  0  0  0  0  0  0  0  0
    2.1421   -2.1987   -0.5610 C   0  0  0  0  0  0  0  0  0  0  0  0
    3.0306   -1.5692   -0.6727 H   0  0  0  0  0  0  0  0  0  0  0  0
    2.4441   -3.1465   -0.1047 H   0  0  0  0  0  0  0  0  0  0  0  0
    1.7384   -2.4114   -1.5556 H   0  0  0  0  0  0  0  0  0  0  0  0
    1.6523   -1.2609    1.7150 C   0  0  0  0  0  0  0  0  0  0  0  0
    0.8951   -0.8153    2.3662 H   0  0  0  0  0  0  0  0  0  0  0  0
    1.9684   -2.2077    2.1635 H   0  0  0  0  0  0  0  0  0  0  0  0
    2.5152   -0.5888    1.6762 H   0  0  0  0  0  0  0  0  0  0  0  0
   -0.5030    1.9348   -0.6001 C   0  0  0  0  0  0  0  0  0  0  0  0
    0.1932    2.8879   -0.2815 O   0  0  0  0  0  0  0  0  0  0  0  0
   -1.3232    2.0427   -1.7126 N   0  0  0  0  0  0  0  0  0  0  0  0
   -1.7181    1.1799   -2.0715 H   0  0  0  0  0  0  0  0  0  0  0  0
   -1.3179    3.2141   -2.5819 C   0  0  0  0  0  0  0  0  0  0  0  0
   -0.3353    3.3417   -3.0482 H   0  0  0  0  0  0  0  0  0  0  0  0
   -2.0660    3.1019   -3.3723 H   0  0  0  0  0  0  0  0  0  0  0  0
   -1.5559    4.1174   -2.0101 H   0  0  0  0  0  0  0  0  0  0  0  0
  1  2  1  0  0  0  0
  2  3  1  0  0  0  0
  2  4  1  0  0  0  0
  2  5  1  0  0  0  0
  5  6  2  0  0  0  0
  5  7  1  0  0  0  0
  7  8  1  0  0  0  0
  7  9  1  0  0  0  0
  9 10  1  0  0  0  0
  9 11  1  0  0  0  0
  9 24  1  0  0  0  0
 11 12  1  0  0  0  0
 11 13  1  0  0  0  0
 11 14  1  0  0  0  0
 14 15  1  0  0  0  0
 14 16  1  0  0  0  0
 14 20  1  0  0  0  0
 16 17  1  0  0  0  0
 16 18  1  0  0  0  0
 16 19  1  0  0  0  0
 20 21  1  0  0  0  0
 20 22  1  0  0  0  0
 20 23  1  0  0  0  0
 24 25  2  0  0  0  0
 24 26  1  0  0  0  0
 26 27  1  0  0  0  0
 26 28  1  0  0  0  0
 28 29  1  0  0  0  0
 28 30  1  0  0  0  0
 28 31  1  0  0  0  0
M  END
$$$$

  -OEChem-01062216083D

 31 30  0     1  0  0  0  0  0999 V2000
   -3.6455   -2.7425    1.0989 H   0  0  0  0  0  0  0  0  0  0  0  0
   -3.4960   -1.8505    0.4838 C   0  0  0  0  0  0  0  0  0  0  0  0
   -4.3570   -1.1895    0.6084 H   0  0  0  0  0  0  0  0  0  0  0  0
   -3.4250   -2.1554   -0.5629 H   0  0  0  0  0  0  0  0  0  0  0  0
   -2.2258   -1.1344    0.9036 C   0  0  0  0  0  0  0  0  0  0  0  0
   -1.6324   -1.5058    1.9000 O   0  0  0  0  0  0  0  0  0  0  0  0
   -1.8524    0.0196    0.2435 N   0  0  0  0  0  0  0  0  0  0  0  0
   -2.4938    0.3081   -0.4842 H   0  0  0  0  0  0  0  0  0  0  0  0
   -0.5184    0.6695    0.2633 C   0  0  1  0  0  0  0  0  0  0  0  0
   -0.2638    0.9418    1.2928 H   0  0  0  0  0  0  0  0  0  0  0  0
    0.6236   -0.1911   -0.3646 C   0  0  0  0  0  0  0  0  0  0  0  0
    0.3230   -0.4346   -1.3891 H   0  0  0  0  0  0  0  0  0  0  0  0
    1.5239    0.4305   -0.4345 H   0  0  0  0  0  0  0  0  0  0  0  0
    1.0444   -1.5047    0.3261 C   0  0  0  0  0  0  0  0  0  0  0  0
    0.1887   -2.1731    0.4217 H   0  0  0  0  0  0  0  0  0  0  0  0
    2.0684   -2.2329   -0.5520 C   0  0  0  0  0  0  0  0  0  0  0  0
    2.9650   -1.6202   -0.6905 H   0  0  0  0  0  0  0  0  0  0  0  0
    2.3628   -3.1788   -0.0867 H   0  0  0  0  0  0  0  0  0  0  0  0
    1.6421   -2.4535   -1.5355 H   0  0  0  0  0  0  0  0  0  0  0  0
    1.6475   -1.2411    1.7120 C   0  0  0  0  0  0  0  0  0  0  0  0
    0.9168   -0.7639    2.3707 H   0  0  0  0  0  0  0  0  0  0  0  0
    1.9556   -2.1832    2.1755 H   0  0  0  0  0  0  0  0  0  0  0  0
    2.5229   -0.5887    1.6354 H   0  0  0  0  0  0  0  0  0  0  0  0
   -0.5069    1.9570   -0.6010 C   0  0  0  0  0  0  0  0  0  0  0  0
    0.3847    2.7805   -0.4488 O   0  0  0  0  0  0  0  0  0  0  0  0
   -1.5077    2.2400   -1.5193 N   0  0  0  0  0  0  0  0  0  0  0  0
   -2.1630    1.5030   -1.7451 H   0  0  0  0  0  0  0  0  0  0  0  0
   -1.5021    3.4377   -2.3528 C   0  0  0  0  0  0  0  0  0  0  0  0
   -0.6308    3.4391   -3.0162 H   0  0  0  0  0  0  0  0  0  0  0  0
   -2.4067    3.4754   -2.9674 H   0  0  0  0  0  0  0  0  0  0  0  0
   -1.4725    4.3388   -1.7307 H   0  0  0  0  0  0  0  0  0  0  0  0
  1  2  1  0  0  0  0
  2  3  1  0  0  0  0
  2  4  1  0  0  0  0
  2  5  1  0  0  0  0
  5  6  2  0  0  0  0
  5  7  1  0  0  0  0
  7  8  1  0  0  0  0
  7  9  1  0  0  0  0
  9 10  1  0  0  0  0
  9 11  1  0  0  0  0
  9 24  1  0  0  0  0
 11 12  1  0  0  0  0
 11 13  1  0  0  0  0
 11 14  1  0  0  0  0
 14 15  1  0  0  0  0
 14 16  1  0  0  0  0
 14 20  1  0  0  0  0
 16 17  1  0  0  0  0
 16 18  1  0  0  0  0
 16 19  1  0  0  0  0
 20 21  1  0  0  0  0
 20 22  1  0  0  0  0
 20 23  1  0  0  0  0
 24 25  2  0  0  0  0
 24 26  1  0  0  0  0
 26 27  1  0  0  0  0
 26 28  1  0  0  0  0
 28 29  1  0  0  0  0
 28 30  1  0  0  0  0
 28 31  1  0  0  0  0
M  END
$$$$

  -OEChem-01062216083D

 31 30  0     1  0  0  0  0  0999 V2000
   -3.4573   -2.7964    1.0522 H   0  0  0  0  0  0  0  0  0  0  0  0
   -3.3302   -1.9211    0.4086 C   0  0  0  0  0  0  0  0  0  0  0  0
   -4.2614   -1.3495    0.4038 H   0  0  0  0  0  0  0  0  0  0  0  0
   -3.1119   -2.2621   -0.6062 H   0  0  0  0  0  0  0  0  0  0  0  0
   -2.1936   -1.0577    0.9223 C   0  0  0  0  0  0  0  0  0  0  0  0
   -1.6756   -1.3162    1.9942 O   0  0  0  0  0  0  0  0  0  0  0  0
   -1.8451    0.0894    0.2391 N   0  0  0  0  0  0  0  0  0  0  0  0
   -2.3487    0.1795   -0.6375 H   0  0  0  0  0  0  0  0  0  0  0  0
   -0.4934    0.7017    0.2346 C   0  0  1  0  0  0  0  0  0  0  0  0
   -0.2197    0.9838    1.2562 H   0  0  0  0  0  0  0  0  0  0  0  0
    0.6131   -0.2175   -0.3788 C   0  0  0  0  0  0  0  0  0  0  0  0
    0.2963   -0.4753   -1.3947 H   0  0  0  0  0  0  0  0  0  0  0  0
    1.5373    0.3639   -0.4706 H   0  0  0  0  0  0  0  0  0  0  0  0
    0.9919   -1.5257    0.3489 C   0  0  0  0  0  0  0  0  0  0  0  0
    0.1158   -2.1609    0.4800 H   0  0  0  0  0  0  0  0  0  0  0  0
    1.9811   -2.3174   -0.5145 C   0  0  0  0  0  0  0  0  0  0  0  0
    2.8945   -1.7389   -0.6863 H   0  0  0  0  0  0  0  0  0  0  0  0
    2.2522   -3.2552   -0.0194 H   0  0  0  0  0  0  0  0  0  0  0  0
    1.5348   -2.5596   -1.4840 H   0  0  0  0  0  0  0  0  0  0  0  0
    1.6228   -1.2364    1.7178 C   0  0  0  0  0  0  0  0  0  0  0  0
    0.9155   -0.7197    2.3723 H   0  0  0  0  0  0  0  0  0  0  0  0
    1.9135   -2.1714    2.2065 H   0  0  0  0  0  0  0  0  0  0  0  0
    2.5137   -0.6101    1.6078 H   0  0  0  0  0  0  0  0  0  0  0  0
   -0.4932    1.9881   -0.6363 C   0  0  0  0  0  0  0  0  0  0  0  0
    0.5350    2.6270   -0.8170 O   0  0  0  0  0  0  0  0  0  0  0  0
   -1.6475    2.4166   -1.2740 N   0  0  0  0  0  0  0  0  0  0  0  0
   -2.5190    2.0442   -0.9126 H   0  0  0  0  0  0  0  0  0  0  0  0
   -1.7030    3.6483   -2.0548 C   0  0  0  0  0  0  0  0  0  0  0  0
   -0.9731    3.6190   -2.8708 H   0  0  0  0  0  0  0  0  0  0  0  0
   -2.6987    3.7755   -2.4903 H   0  0  0  0  0  0  0  0  0  0  0  0
   -1.4868    4.5148   -1.4210 H   0  0  0  0  0  0  0  0  0  0  0  0
  1  2  1  0  0  0  0
  2  3  1  0  0  0  0
  2  4  1  0  0  0  0
  2  5  1  0  0  0  0
  5  6  2  0  0  0  0
  5  7  1  0  0  0  0
  7  8  1  0  0  0  0
  7  9  1  0  0  0  0
  9 10  1  0  0  0  0
  9 11  1  0  0  0  0
  9 24  1  0  0  0  0
 11 12  1  0  0  0  0
 11 13  1  0  0  0  0
 11 14  1  0  0  0  0
 14 15  1  0  0  0  0
 14 16  1  0  0  0  0
 14 20  1  0  0  0  0
 16 17  1  0  0  0  0
 16 18  1  0  0  0  0
 16 19  1  0  0  0  0
 20 21  1  0  0  0  0
 20 22  1  0  0  0  0
 20 23  1  0  0  0  0
 24 25  2  0  0  0  0
 24 26  1  0  0  0  0
 26 27  1  0  0  0  0
 26 28  1  0  0  0  0
 28 29  1  0  0  0  0
 28 30  1  0  0  0  0
 28 31  1  0  0  0  0
M  END
$$$$

  -OEChem-01062216083D

 31 30  0     1  0  0  0  0  0999 V2000
   -3.4878   -2.7689    1.0192 H   0  0  0  0  0  0  0  0  0  0  0  0
   -3.3504   -1.8877    0.3857 C   0  0  0  0  0  0  0  0  0  0  0  0
   -4.2695   -1.2969    0.4005 H   0  0  0  0  0  0  0  0  0  0  0  0
   -3.1522   -2.2188   -0.6366 H   0  0  0  0  0  0  0  0  0  0  0  0
   -2.1889   -1.0560    0.8960 C   0  0  0  0  0  0  0  0  0  0  0  0
   -1.6739   -1.3294    1.9657 O   0  0  0  0  0  0  0  0  0  0  0  0
   -1.8251    0.0930    0.2247 N   0  0  0  0  0  0  0  0  0  0  0  0
   -2.3402    0.2160   -0.6427 H   0  0  0  0  0  0  0  0  0  0  0  0
   -0.4688    0.6951    0.2194 C   0  0  1  0  0  0  0  0  0  0  0  0
   -0.1953    0.9790    1.2403 H   0  0  0  0  0  0  0  0  0  0  0  0
    0.6390   -0.2302   -0.3843 C   0  0  0  0  0  0  0  0  0  0  0  0
    0.3290   -0.4907   -1.4018 H   0  0  0  0  0  0  0  0  0  0  0  0
    1.5665    0.3464   -0.4703 H   0  0  0  0  0  0  0  0  0  0  0  0
    1.0092   -1.5349    0.3538 C   0  0  0  0  0  0  0  0  0  0  0  0
    0.1299   -2.1664    0.4808 H   0  0  0  0  0  0  0  0  0  0  0  0
    2.0008   -2.3357   -0.4981 C   0  0  0  0  0  0  0  0  0  0  0  0
    2.9171   -1.7614   -0.6689 H   0  0  0  0  0  0  0  0  0  0  0  0
    2.2658   -3.2705    0.0058 H   0  0  0  0  0  0  0  0  0  0  0  0
    1.5591   -2.5836   -1.4682 H   0  0  0  0  0  0  0  0  0  0  0  0
    1.6292   -1.2406    1.7263 C   0  0  0  0  0  0  0  0  0  0  0  0
    0.9178   -0.7180    2.3715 H   0  0  0  0  0  0  0  0  0  0  0  0
    1.9117   -2.1740    2.2225 H   0  0  0  0  0  0  0  0  0  0  0  0
    2.5233   -0.6182    1.6206 H   0  0  0  0  0  0  0  0  0  0  0  0
   -0.4947    1.9856   -0.6476 C   0  0  0  0  0  0  0  0  0  0  0  0
    0.5296    2.5107   -1.0643 O   0  0  0  0  0  0  0  0  0  0  0  0
   -1.7072    2.5594   -0.9968 N   0  0  0  0  0  0  0  0  0  0  0  0
   -2.5123    2.2514   -0.4595 H   0  0  0  0  0  0  0  0  0  0  0  0
   -1.8063    3.8189   -1.7264 C   0  0  0  0  0  0  0  0  0  0  0  0
   -1.2958    3.7442   -2.6924 H   0  0  0  0  0  0  0  0  0  0  0  0
   -2.8558    4.0669   -1.9115 H   0  0  0  0  0  0  0  0  0  0  0  0
   -1.3529    4.6326   -1.1505 H   0  0  0  0  0  0  0  0  0  0  0  0
  1  2  1  0  0  0  0
  2  3  1  0  0  0  0
  2  4  1  0  0  0  0
  2  5  1  0  0  0  0
  5  6  2  0  0  0  0
  5  7  1  0  0  0  0
  7  8  1  0  0  0  0
  7  9  1  0  0  0  0
  9 10  1  0  0  0  0
  9 11  1  0  0  0  0
  9 24  1  0  0  0  0
 11 12  1  0  0  0  0
 11 13  1  0  0  0  0
 11 14  1  0  0  0  0
 14 15  1  0  0  0  0
 14 16  1  0  0  0  0
 14 20  1  0  0  0  0
 16 17  1  0  0  0  0
 16 18  1  0  0  0  0
 16 19  1  0  0  0  0
 20 21  1  0  0  0  0
 20 22  1  0  0  0  0
 20 23  1  0  0  0  0
 24 25  2  0  0  0  0
 24 26  1  0  0  0  0
 26 27  1  0  0  0  0
 26 28  1  0  0  0  0
 28 29  1  0  0  0  0
 28 30  1  0  0  0  0
 28 31  1  0  0  0  0
M  END
$$$$

  -OEChem-01062216083D

 31 30  0     1  0  0  0  0  0999 V2000
   -3.5158   -2.7398    1.0073 H   0  0  0  0  0  0  0  0  0  0  0  0
   -3.3577   -1.8654    0.3695 C   0  0  0  0  0  0  0  0  0  0  0  0
   -4.2671   -1.2597    0.3708 H   0  0  0  0  0  0  0  0  0  0  0  0
   -3.1549   -2.2068   -0.6483 H   0  0  0  0  0  0  0  0  0  0  0  0
   -2.1874   -1.0493    0.8849 C   0  0  0  0  0  0  0  0  0  0  0  0
   -1.6733   -1.3364    1.9517 O   0  0  0  0  0  0  0  0  0  0  0  0
   -1.8132    0.1029    0.2249 N   0  0  0  0  0  0  0  0  0  0  0  0
   -2.3407    0.2587   -0.6303 H   0  0  0  0  0  0  0  0  0  0  0  0
   -0.4540    0.6958    0.2236 C   0  0  1  0  0  0  0  0  0  0  0  0
   -0.1796    0.9760    1.2453 H   0  0  0  0  0  0  0  0  0  0  0  0
    0.6525   -0.2317   -0.3782 C   0  0  0  0  0  0  0  0  0  0  0  0
    0.3461   -0.4879   -1.3978 H   0  0  0  0  0  0  0  0  0  0  0  0
    1.5808    0.3448   -0.4559 H   0  0  0  0  0  0  0  0  0  0  0  0
    1.0172   -1.5399    0.3559 C   0  0  0  0  0  0  0  0  0  0  0  0
    0.1356   -2.1698    0.4758 H   0  0  0  0  0  0  0  0  0  0  0  0
    2.0093   -2.3391   -0.4972 C   0  0  0  0  0  0  0  0  0  0  0  0
    2.9269   -1.7656   -0.6638 H   0  0  0  0  0  0  0  0  0  0  0  0
    2.2716   -3.2766    0.0031 H   0  0  0  0  0  0  0  0  0  0  0  0
    1.5694   -2.5824   -1.4693 H   0  0  0  0  0  0  0  0  0  0  0  0
    1.6324   -1.2552    1.7327 C   0  0  0  0  0  0  0  0  0  0  0  0
    0.9170   -0.7411    2.3801 H   0  0  0  0  0  0  0  0  0  0  0  0
    1.9173   -2.1920    2.2216 H   0  0  0  0  0  0  0  0  0  0  0  0
    2.5245   -0.6288    1.6354 H   0  0  0  0  0  0  0  0  0  0  0  0
   -0.4965    1.9907   -0.6372 C   0  0  0  0  0  0  0  0  0  0  0  0
    0.4574    2.3867   -1.2950 O   0  0  0  0  0  0  0  0  0  0  0  0
   -1.6740    2.7174   -0.7036 N   0  0  0  0  0  0  0  0  0  0  0  0
   -2.3971    2.4620   -0.0366 H   0  0  0  0  0  0  0  0  0  0  0  0
   -1.7944    3.9850   -1.4155 C   0  0  0  0  0  0  0  0  0  0  0  0
   -1.5530    3.8542   -2.4757 H   0  0  0  0  0  0  0  0  0  0  0  0
   -2.8178    4.3648   -1.3406 H   0  0  0  0  0  0  0  0  0  0  0  0
   -1.1154    4.7308   -0.9888 H   0  0  0  0  0  0  0  0  0  0  0  0
  1  2  1  0  0  0  0
  2  3  1  0  0  0  0
  2  4  1  0  0  0  0
  2  5  1  0  0  0  0
  5  6  2  0  0  0  0
  5  7  1  0  0  0  0
  7  8  1  0  0  0  0
  7  9  1  0  0  0  0
  9 10  1  0  0  0  0
  9 11  1  0  0  0  0
  9 24  1  0  0  0  0
 11 12  1  0  0  0  0
 11 13  1  0  0  0  0
 11 14  1  0  0  0  0
 14 15  1  0  0  0  0
 14 16  1  0  0  0  0
 14 20  1  0  0  0  0
 16 17  1  0  0  0  0
 16 18  1  0  0  0  0
 16 19  1  0  0  0  0
 20 21  1  0  0  0  0
 20 22  1  0  0  0  0
 20 23  1  0  0  0  0
 24 25  2  0  0  0  0
 24 26  1  0  0  0  0
 26 27  1  0  0  0  0
 26 28  1  0  0  0  0
 28 29  1  0  0  0  0
 28 30  1  0  0  0  0
 28 31  1  0  0  0  0
M  END
$$$$

  -OEChem-01062216083D

 31 30  0     1  0  0  0  0  0999 V2000
   -3.5433   -2.7207    0.9744 H   0  0  0  0  0  0  0  0  0  0  0  0
   -3.3831   -1.8336    0.3549 C   0  0  0  0  0  0  0  0  0  0  0  0
   -4.2823   -1.2136    0.3880 H   0  0  0  0  0  0  0  0  0  0  0  0
   -3.2048   -2.1532   -0.6747 H   0  0  0  0  0  0  0  0  0  0  0  0
   -2.1910   -1.0481    0.8683 C   0  0  0  0  0  0  0  0  0  0  0  0
   -1.6747   -1.3567    1.9281 O   0  0  0  0  0  0  0  0  0  0  0  0
   -1.8041    0.1078    0.2230 N   0  0  0  0  0  0  0  0  0  0  0  0
   -2.3416    0.2952   -0.6198 H   0  0  0  0  0  0  0  0  0  0  0  0
   -0.4420    0.6900    0.2265 C   0  0  1  0  0  0  0  0  0  0  0  0
   -0.1681    0.9627    1.2502 H   0  0  0  0  0  0  0  0  0  0  0  0
    0.6686   -0.2326   -0.3731 C   0  0  0  0  0  0  0  0  0  0  0  0
    0.3662   -0.4882   -1.3943 H   0  0  0  0  0  0  0  0  0  0  0  0
    1.5936    0.3503   -0.4475 H   0  0  0  0  0  0  0  0  0  0  0  0
    1.0302   -1.5431    0.3579 C   0  0  0  0  0  0  0  0  0  0  0  0
    0.1478   -2.1736    0.4704 H   0  0  0  0  0  0  0  0  0  0  0  0
    2.0282   -2.3370   -0.4932 C   0  0  0  0  0  0  0  0  0  0  0  0
    2.9443   -1.7598   -0.6551 H   0  0  0  0  0  0  0  0  0  0  0  0
    2.2922   -3.2747    0.0056 H   0  0  0  0  0  0  0  0  0  0  0  0
    1.5925   -2.5790   -1.4675 H   0  0  0  0  0  0  0  0  0  0  0  0
    1.6376   -1.2638    1.7392 C   0  0  0  0  0  0  0  0  0  0  0  0
    0.9164   -0.7573    2.3864 H   0  0  0  0  0  0  0  0  0  0  0  0
    1.9243   -2.2022    2.2238 H   0  0  0  0  0  0  0  0  0  0  0  0
    2.5273   -0.6328    1.6498 H   0  0  0  0  0  0  0  0  0  0  0  0
   -0.4926    1.9905   -0.6214 C   0  0  0  0  0  0  0  0  0  0  0  0
    0.3188    2.2563   -1.4995 O   0  0  0  0  0  0  0  0  0  0  0  0
   -1.5463    2.8657   -0.4238 N   0  0  0  0  0  0  0  0  0  0  0  0
   -2.1671    2.6644    0.3557 H   0  0  0  0  0  0  0  0  0  0  0  0
   -1.6852    4.1345   -1.1292 C   0  0  0  0  0  0  0  0  0  0  0  0
   -1.7479    3.9677   -2.2097 H   0  0  0  0  0  0  0  0  0  0  0  0
   -2.5956    4.6490   -0.8067 H   0  0  0  0  0  0  0  0  0  0  0  0
   -0.8280    4.7838   -0.9218 H   0  0  0  0  0  0  0  0  0  0  0  0
  1  2  1  0  0  0  0
  2  3  1  0  0  0  0
  2  4  1  0  0  0  0
  2  5  1  0  0  0  0
  5  6  2  0  0  0  0
  5  7  1  0  0  0  0
  7  8  1  0  0  0  0
  7  9  1  0  0  0  0
  9 10  1  0  0  0  0
  9 11  1  0  0  0  0
  9 24  1  0  0  0  0
 11 12  1  0  0  0  0
 11 13  1  0  0  0  0
 11 14  1  0  0  0  0
 14 15  1  0  0  0  0
 14 16  1  0  0  0  0
 14 20  1  0  0  0  0
 16 17  1  0  0  0  0
 16 18  1  0  0  0  0
 16 19  1  0  0  0  0
 20 21  1  0  0  0  0
 20 22  1  0  0  0  0
 20 23  1  0  0  0  0
 24 25  2  0  0  0  0
 24 26  1  0  0  0  0
 26 27  1  0  0  0  0
 26 28  1  0  0  0  0
 28 29  1  0  0  0  0
 28 30  1  0  0  0  0
 28 31  1  0  0  0  0
M  END
$$$$

  -OEChem-01062216083D

 31 30  0     1  0  0  0  0  0999 V2000
   -3.5418   -2.7193    0.9374 H   0  0  0  0  0  0  0  0  0  0  0  0
   -3.3890   -1.8152    0.3412 C   0  0  0  0  0  0  0  0  0  0  0  0
   -4.2882   -1.1974    0.4001 H   0  0  0  0  0  0  0  0  0  0  0  0
   -3.2210   -2.1062   -0.6986 H   0  0  0  0  0  0  0  0  0  0  0  0
   -2.1927   -1.0423    0.8634 C   0  0  0  0  0  0  0  0  0  0  0  0
   -1.6763   -1.3661    1.9190 O   0  0  0  0  0  0  0  0  0  0  0  0
   -1.7977    0.1167    0.2292 N   0  0  0  0  0  0  0  0  0  0  0  0
   -2.3361    0.3206   -0.6093 H   0  0  0  0  0  0  0  0  0  0  0  0
   -0.4341    0.6902    0.2391 C   0  0  1  0  0  0  0  0  0  0  0  0
   -0.1601    0.9523    1.2654 H   0  0  0  0  0  0  0  0  0  0  0  0
    0.6772   -0.2280   -0.3640 C   0  0  0  0  0  0  0  0  0  0  0  0
    0.3746   -0.4823   -1.3856 H   0  0  0  0  0  0  0  0  0  0  0  0
    1.5987    0.3603   -0.4381 H   0  0  0  0  0  0  0  0  0  0  0  0
    1.0343   -1.5443    0.3585 C   0  0  0  0  0  0  0  0  0  0  0  0
    0.1498   -2.1734    0.4623 H   0  0  0  0  0  0  0  0  0  0  0  0
    2.0344   -2.3347   -0.4935 C   0  0  0  0  0  0  0  0  0  0  0  0
    2.9524   -1.7584   -0.6468 H   0  0  0  0  0  0  0  0  0  0  0  0
    2.2940   -3.2764    0.0001 H   0  0  0  0  0  0  0  0  0  0  0  0
    1.6034   -2.5694   -1.4718 H   0  0  0  0  0  0  0  0  0  0  0  0
    1.6370   -1.2767    1.7443 C   0  0  0  0  0  0  0  0  0  0  0  0
    0.9171   -0.7678    2.3909 H   0  0  0  0  0  0  0  0  0  0  0  0
    1.9140   -2.2197    2.2256 H   0  0  0  0  0  0  0  0  0  0  0  0
    2.5323   -0.6524    1.6620 H   0  0  0  0  0  0  0  0  0  0  0  0
   -0.4819    1.9954   -0.5973 C   0  0  0  0  0  0  0  0  0  0  0  0
    0.1256    2.1412   -1.6510 O   0  0  0  0  0  0  0  0  0  0  0  0
   -1.3317    3.0063   -0.1860 N   0  0  0  0  0  0  0  0  0  0  0  0
   -1.8326    2.8623    0.6869 H   0  0  0  0  0  0  0  0  0  0  0  0
   -1.4898    4.2702   -0.8954 C   0  0  0  0  0  0  0  0  0  0  0  0
   -1.8580    4.0962   -1.9119 H   0  0  0  0  0  0  0  0  0  0  0  0
   -2.2077    4.9095   -0.3730 H   0  0  0  0  0  0  0  0  0  0  0  0
   -0.5330    4.7995   -0.9525 H   0  0  0  0  0  0  0  0  0  0  0  0
  1  2  1  0  0  0  0
  2  3  1  0  0  0  0
  2  4  1  0  0  0  0
  2  5  1  0  0  0  0
  5  6  2  0  0  0  0
  5  7  1  0  0  0  0
  7  8  1  0  0  0  0
  7  9  1  0  0  0  0
  9 10  1  0  0  0  0
  9 11  1  0  0  0  0
  9 24  1  0  0  0  0
 11 12  1  0  0  0  0
 11 13  1  0  0  0  0
 11 14  1  0  0  0  0
 14 15  1  0  0  0  0
 14 16  1  0  0  0  0
 14 20  1  0  0  0  0
 16 17  1  0  0  0  0
 16 18  1  0  0  0  0
 16 19  1  0  0  0  0
 20 21  1  0  0  0  0
 20 22  1  0  0  0  0
 20 23  1  0  0  0  0
 24 25  2  0  0  0  0
 24 26  1  0  0  0  0
 26 27  1  0  0  0  0
 26 28  1  0  0  0  0
 28 29  1  0  0  0  0
 28 30  1  0  0  0  0
 28 31  1  0  0  0  0
M  END
$$$$

  -OEChem-01062216083D

 31 30  0     1  0  0  0  0  0999 V2000
   -3.5744   -2.6983    0.9301 H   0  0  0  0  0  0  0  0  0  0  0  0
   -3.4044   -1.7982    0.3325 C   0  0  0  0  0  0  0  0  0  0  0  0
   -4.2941   -1.1661    0.3863 H   0  0  0  0  0  0  0  0  0  0  0  0
   -3.2367   -2.0933   -0.7062 H   0  0  0  0  0  0  0  0  0  0  0  0
   -2.1978   -1.0434    0.8578 C   0  0  0  0  0  0  0  0  0  0  0  0
   -1.6797   -1.3842    1.9073 O   0  0  0  0  0  0  0  0  0  0  0  0
   -1.7944    0.1178    0.2338 N   0  0  0  0  0  0  0  0  0  0  0  0
   -2.3297    0.3350   -0.6037 H   0  0  0  0  0  0  0  0  0  0  0  0
   -0.4310    0.6865    0.2539 C   0  0  1  0  0  0  0  0  0  0  0  0
   -0.1609    0.9374    1.2840 H   0  0  0  0  0  0  0  0  0  0  0  0
    0.6848   -0.2219   -0.3530 C   0  0  0  0  0  0  0  0  0  0  0  0
    0.3848   -0.4721   -1.3765 H   0  0  0  0  0  0  0  0  0  0  0  0
    1.6027    0.3722   -0.4237 H   0  0  0  0  0  0  0  0  0  0  0  0
    1.0407   -1.5449    0.3578 C   0  0  0  0  0  0  0  0  0  0  0  0
    0.1563   -2.1758    0.4516 H   0  0  0  0  0  0  0  0  0  0  0  0
    2.0469   -2.3247   -0.4968 C   0  0  0  0  0  0  0  0  0  0  0  0
    2.9643   -1.7452   -0.6412 H   0  0  0  0  0  0  0  0  0  0  0  0
    2.3067   -3.2703   -0.0106 H   0  0  0  0  0  0  0  0  0  0  0  0
    1.6201   -2.5516   -1.4788 H   0  0  0  0  0  0  0  0  0  0  0  0
    1.6371   -1.2905    1.7485 C   0  0  0  0  0  0  0  0  0  0  0  0
    0.9118   -0.7938    2.3985 H   0  0  0  0  0  0  0  0  0  0  0  0
    1.9175   -2.2378    2.2193 H   0  0  0  0  0  0  0  0  0  0  0  0
    2.5291   -0.6604    1.6771 H   0  0  0  0  0  0  0  0  0  0  0  0
   -0.4667    1.9954   -0.5725 C   0  0  0  0  0  0  0  0  0  0  0  0
   -0.1115    2.0465   -1.7439 O   0  0  0  0  0  0  0  0  0  0  0  0
   -1.0534    3.1157   -0.0134 N   0  0  0  0  0  0  0  0  0  0  0  0
   -1.4091    3.0303    0.9351 H   0  0  0  0  0  0  0  0  0  0  0  0
   -1.2224    4.3783   -0.7228 C   0  0  0  0  0  0  0  0  0  0  0  0
   -1.8687    4.2432   -1.5962 H   0  0  0  0  0  0  0  0  0  0  0  0
   -1.6800    5.1235   -0.0650 H   0  0  0  0  0  0  0  0  0  0  0  0
   -0.2530    4.7625   -1.0575 H   0  0  0  0  0  0  0  0  0  0  0  0
  1  2  1  0  0  0  0
  2  3  1  0  0  0  0
  2  4  1  0  0  0  0
  2  5  1  0  0  0  0
  5  6  2  0  0  0  0
  5  7  1  0  0  0  0
  7  8  1  0  0  0  0
  7  9  1  0  0  0  0
  9 10  1  0  0  0  0
  9 11  1  0  0  0  0
  9 24  1  0  0  0  0
 11 12  1  0  0  0  0
 11 13  1  0  0  0  0
 11 14  1  0  0  0  0
 14 15  1  0  0  0  0
 14 16  1  0  0  0  0
 14 20  1  0  0  0  0
 16 17  1  0  0  0  0
 16 18  1  0  0  0  0
 16 19  1  0  0  0  0
 20 21  1  0  0  0  0
 20 22  1  0  0  0  0
 20 23  1  0  0  0  0
 24 25  2  0  0  0  0
 24 26  1  0  0  0  0
 26 27  1  0  0  0  0
 26 28  1  0  0  0  0
 28 29  1  0  0  0  0
 28 30  1  0  0  0  0
 28 31  1  0  0  0  0
M  END
$$$$

  -OEChem-01062216083D

 31 30  0     1  0  0  0  0  0999 V2000
   -3.5654   -2.7020    0.9050 H   0  0  0  0  0  0  0  0  0  0  0  0
   -3.4072   -1.7871    0.3272 C   0  0  0  0  0  0  0  0  0  0  0  0
   -4.3003   -1.1623    0.4038 H   0  0  0  0  0  0  0  0  0  0  0  0
   -3.2469   -2.0567   -0.7195 H   0  0  0  0  0  0  0  0  0  0  0  0
   -2.2012   -1.0366    0.8591 C   0  0  0  0  0  0  0  0  0  0  0  0
   -1.6833   -1.3871    1.9059 O   0  0  0  0  0  0  0  0  0  0  0  0
   -1.7888    0.1229    0.2377 N   0  0  0  0  0  0  0  0  0  0  0  0
   -2.3144    0.3448   -0.6054 H   0  0  0  0  0  0  0  0  0  0  0  0
   -0.4250    0.6865    0.2700 C   0  0  1  0  0  0  0  0  0  0  0  0
   -0.1601    0.9287    1.3034 H   0  0  0  0  0  0  0  0  0  0  0  0
    0.6918   -0.2140   -0.3424 C   0  0  0  0  0  0  0  0  0  0  0  0
    0.3969   -0.4541   -1.3699 H   0  0  0  0  0  0  0  0  0  0  0  0
    1.6102    0.3805   -0.4027 H   0  0  0  0  0  0  0  0  0  0  0  0
    1.0393   -1.5449    0.3565 C   0  0  0  0  0  0  0  0  0  0  0  0
    0.1516   -2.1732    0.4383 H   0  0  0  0  0  0  0  0  0  0  0  0
    2.0489   -2.3175   -0.5004 C   0  0  0  0  0  0  0  0  0  0  0  0
    2.9672   -1.7370   -0.6343 H   0  0  0  0  0  0  0  0  0  0  0  0
    2.3053   -3.2679   -0.0220 H   0  0  0  0  0  0  0  0  0  0  0  0
    1.6269   -2.5344   -1.4867 H   0  0  0  0  0  0  0  0  0  0  0  0
    1.6275   -1.3065    1.7535 C   0  0  0  0  0  0  0  0  0  0  0  0
    0.9004   -0.8128    2.4037 H   0  0  0  0  0  0  0  0  0  0  0  0
    1.9003   -2.2595    2.2169 H   0  0  0  0  0  0  0  0  0  0  0  0
    2.5227   -0.6799    1.6936 H   0  0  0  0  0  0  0  0  0  0  0  0
   -0.4442    1.9930   -0.5558 C   0  0  0  0  0  0  0  0  0  0  0  0
   -0.3736    1.9795   -1.7790 O   0  0  0  0  0  0  0  0  0  0  0  0
   -0.7324    3.1869    0.0791 N   0  0  0  0  0  0  0  0  0  0  0  0
   -0.8950    3.1545    1.0818 H   0  0  0  0  0  0  0  0  0  0  0  0
   -0.9106    4.4514   -0.6242 C   0  0  0  0  0  0  0  0  0  0  0  0
   -1.7635    4.3926   -1.3083 H   0  0  0  0  0  0  0  0  0  0  0  0
   -1.0954    5.2585    0.0914 H   0  0  0  0  0  0  0  0  0  0  0  0
   -0.0129    4.7002   -1.2002 H   0  0  0  0  0  0  0  0  0  0  0  0
  1  2  1  0  0  0  0
  2  3  1  0  0  0  0
  2  4  1  0  0  0  0
  2  5  1  0  0  0  0
  5  6  2  0  0  0  0
  5  7  1  0  0  0  0
  7  8  1  0  0  0  0
  7  9  1  0  0  0  0
  9 10  1  0  0  0  0
  9 11  1  0  0  0  0
  9 24  1  0  0  0  0
 11 12  1  0  0  0  0
 11 13  1  0  0  0  0
 11 14  1  0  0  0  0
 14 15  1  0  0  0  0
 14 16  1  0  0  0  0
 14 20  1  0  0  0  0
 16 17  1  0  0  0  0
 16 18  1  0  0  0  0
 16 19  1  0  0  0  0
 20 21  1  0  0  0  0
 20 22  1  0  0  0  0
 20 23  1  0  0  0  0
 24 25  2  0  0  0  0
 24 26  1  0  0  0  0
 26 27  1  0  0  0  0
 26 28  1  0  0  0  0
 28 29  1  0  0  0  0
 28 30  1  0  0  0  0
 28 31  1  0  0  0  0
M  END
$$$$

  -OEChem-01062216083D

 31 30  0     1  0  0  0  0  0999 V2000
   -3.5880   -2.6920    0.9000 H   0  0  0  0  0  0  0  0  0  0  0  0
   -3.4243   -1.7743    0.3281 C   0  0  0  0  0  0  0  0  0  0  0  0
   -4.3099   -1.1403    0.4159 H   0  0  0  0  0  0  0  0  0  0  0  0
   -3.2748   -2.0374   -0.7219 H   0  0  0  0  0  0  0  0  0  0  0  0
   -2.2067   -1.0402    0.8568 C   0  0  0  0  0  0  0  0  0  0  0  0
   -1.6855   -1.4033    1.8980 O   0  0  0  0  0  0  0  0  0  0  0  0
   -1.7848    0.1165    0.2372 N   0  0  0  0  0  0  0  0  0  0  0  0
   -2.3069    0.3506   -0.6056 H   0  0  0  0  0  0  0  0  0  0  0  0
   -0.4234    0.6823    0.2818 C   0  0  1  0  0  0  0  0  0  0  0  0
   -0.1675    0.9212    1.3181 H   0  0  0  0  0  0  0  0  0  0  0  0
    0.6987   -0.2061   -0.3347 C   0  0  0  0  0  0  0  0  0  0  0  0
    0.4099   -0.4345   -1.3665 H   0  0  0  0  0  0  0  0  0  0  0  0
    1.6163    0.3910   -0.3831 H   0  0  0  0  0  0  0  0  0  0  0  0
    1.0442   -1.5427    0.3539 C   0  0  0  0  0  0  0  0  0  0  0  0
    0.1560   -2.1720    0.4250 H   0  0  0  0  0  0  0  0  0  0  0  0
    2.0605   -2.3072   -0.5022 C   0  0  0  0  0  0  0  0  0  0  0  0
    2.9802   -1.7261   -0.6234 H   0  0  0  0  0  0  0  0  0  0  0  0
    2.3125   -3.2624   -0.0309 H   0  0  0  0  0  0  0  0  0  0  0  0
    1.6464   -2.5145   -1.4939 H   0  0  0  0  0  0  0  0  0  0  0  0
    1.6241   -1.3158    1.7563 C   0  0  0  0  0  0  0  0  0  0  0  0
    0.8941   -0.8256    2.4062 H   0  0  0  0  0  0  0  0  0  0  0  0
    1.8927   -2.2728    2.2141 H   0  0  0  0  0  0  0  0  0  0  0  0
    2.5208   -0.6904    1.7066 H   0  0  0  0  0  0  0  0  0  0  0  0
   -0.4328    1.9839   -0.5485 C   0  0  0  0  0  0  0  0  0  0  0  0
   -0.6234    1.9506   -1.7588 O   0  0  0  0  0  0  0  0  0  0  0  0
   -0.4151    3.2083    0.0937 N   0  0  0  0  0  0  0  0  0  0  0  0
   -0.3724    3.2037    1.1089 H   0  0  0  0  0  0  0  0  0  0  0  0
   -0.5682    4.4817   -0.5991 C   0  0  0  0  0  0  0  0  0  0  0  0
   -1.5486    4.5388   -1.0832 H   0  0  0  0  0  0  0  0  0  0  0  0
   -0.4833    5.3101    0.1106 H   0  0  0  0  0  0  0  0  0  0  0  0
    0.2092    4.6001   -1.3611 H   0  0  0  0  0  0  0  0  0  0  0  0
  1  2  1  0  0  0  0
  2  3  1  0  0  0  0
  2  4  1  0  0  0  0
  2  5  1  0  0  0  0
  5  6  2  0  0  0  0
  5  7  1  0  0  0  0
  7  8  1  0  0  0  0
  7  9  1  0  0  0  0
  9 10  1  0  0  0  0
  9 11  1  0  0  0  0
  9 24  1  0  0  0  0
 11 12  1  0  0  0  0
 11 13  1  0  0  0  0
 11 14  1  0  0  0  0
 14 15  1  0  0  0  0
 14 16  1  0  0  0  0
 14 20  1  0  0  0  0
 16 17  1  0  0  0  0
 16 18  1  0  0  0  0
 16 19  1  0  0  0  0
 20 21  1  0  0  0  0
 20 22  1  0  0  0  0
 20 23  1  0  0  0  0
 24 25  2  0  0  0  0
 24 26  1  0  0  0  0
 26 27  1  0  0  0  0
 26 28  1  0  0  0  0
 28 29  1  0  0  0  0
 28 30  1  0  0  0  0
 28 31  1  0  0  0  0
M  END
$$$$

  -OEChem-01062216083D

 31 30  0     1  0  0  0  0  0999 V2000
   -3.6141   -2.6862    0.9030 H   0  0  0  0  0  0  0  0  0  0  0  0
   -3.4466   -1.7658    0.3366 C   0  0  0  0  0  0  0  0  0  0  0  0
   -4.3245   -1.1234    0.4388 H   0  0  0  0  0  0  0  0  0  0  0  0
   -3.3108   -2.0218   -0.7170 H   0  0  0  0  0  0  0  0  0  0  0  0
   -2.2158   -1.0489    0.8580 C   0  0  0  0  0  0  0  0  0  0  0  0
   -1.6871   -1.4268    1.8902 O   0  0  0  0  0  0  0  0  0  0  0  0
   -1.7855    0.1046    0.2384 N   0  0  0  0  0  0  0  0  0  0  0  0
   -2.3118    0.3569   -0.5972 H   0  0  0  0  0  0  0  0  0  0  0  0
   -0.4278    0.6778    0.2922 C   0  0  1  0  0  0  0  0  0  0  0  0
   -0.1797    0.9190    1.3300 H   0  0  0  0  0  0  0  0  0  0  0  0
    0.7004   -0.1971   -0.3280 C   0  0  0  0  0  0  0  0  0  0  0  0
    0.4163   -0.4151   -1.3636 H   0  0  0  0  0  0  0  0  0  0  0  0
    1.6155    0.4043   -0.3670 H   0  0  0  0  0  0  0  0  0  0  0  0
    1.0494   -1.5368    0.3511 C   0  0  0  0  0  0  0  0  0  0  0  0
    0.1630   -2.1698    0.4136 H   0  0  0  0  0  0  0  0  0  0  0  0
    2.0731   -2.2889   -0.5074 C   0  0  0  0  0  0  0  0  0  0  0  0
    2.9917   -1.7038   -0.6174 H   0  0  0  0  0  0  0  0  0  0  0  0
    2.3257   -3.2481   -0.0447 H   0  0  0  0  0  0  0  0  0  0  0  0
    1.6649   -2.4872   -1.5034 H   0  0  0  0  0  0  0  0  0  0  0  0
    1.6222   -1.3181    1.7579 C   0  0  0  0  0  0  0  0  0  0  0  0
    0.8870   -0.8373    2.4087 H   0  0  0  0  0  0  0  0  0  0  0  0
    1.8939   -2.2774    2.2089 H   0  0  0  0  0  0  0  0  0  0  0  0
    2.5156   -0.6874    1.7174 H   0  0  0  0  0  0  0  0  0  0  0  0
   -0.4333    1.9729   -0.5459 C   0  0  0  0  0  0  0  0  0  0  0  0
   -0.8426    1.9557   -1.7018 O   0  0  0  0  0  0  0  0  0  0  0  0
   -0.1183    3.1837    0.0423 N   0  0  0  0  0  0  0  0  0  0  0  0
    0.1319    3.1774    1.0271 H   0  0  0  0  0  0  0  0  0  0  0  0
   -0.2103    4.4606   -0.6543 C   0  0  0  0  0  0  0  0  0  0  0  0
   -1.2442    4.6588   -0.9554 H   0  0  0  0  0  0  0  0  0  0  0  0
    0.1221    5.2724   -0.0004 H   0  0  0  0  0  0  0  0  0  0  0  0
    0.4230    4.4560   -1.5477 H   0  0  0  0  0  0  0  0  0  0  0  0
  1  2  1  0  0  0  0
  2  3  1  0  0  0  0
  2  4  1  0  0  0  0
  2  5  1  0  0  0  0
  5  6  2  0  0  0  0
  5  7  1  0  0  0  0
  7  8  1  0  0  0  0
  7  9  1  0  0  0  0
  9 10  1  0  0  0  0
  9 11  1  0  0  0  0
  9 24  1  0  0  0  0
 11 12  1  0  0  0  0
 11 13  1  0  0  0  0
 11 14  1  0  0  0  0
 14 15  1  0  0  0  0
 14 16  1  0  0  0  0
 14 20  1  0  0  0  0
 16 17  1  0  0  0  0
 16 18  1  0  0  0  0
 16 19  1  0  0  0  0
 20 21  1  0  0  0  0
 20 22  1  0  0  0  0
 20 23  1  0  0  0  0
 24 25  2  0  0  0  0
 24 26  1  0  0  0  0
 26 27  1  0  0  0  0
 26 28  1  0  0  0  0
 28 29  1  0  0  0  0
 28 30  1  0  0  0  0
 28 31  1  0  0  0  0
M  END
$$$$

  -OEChem-01062216083D

 31 30  0     1  0  0  0  0  0999 V2000
   -3.6397   -2.6839    0.9120 H   0  0  0  0  0  0  0  0  0  0  0  0
   -3.4674   -1.7641    0.3462 C   0  0  0  0  0  0  0  0  0  0  0  0
   -4.3360   -1.1108    0.4595 H   0  0  0  0  0  0  0  0  0  0  0  0
   -3.3460   -2.0189   -0.7095 H   0  0  0  0  0  0  0  0  0  0  0  0
   -2.2229   -1.0622    0.8558 C   0  0  0  0  0  0  0  0  0  0  0  0
   -1.6829   -1.4527    1.8774 O   0  0  0  0  0  0  0  0  0  0  0  0
   -1.7907    0.0901    0.2358 N   0  0  0  0  0  0  0  0  0  0  0  0
   -2.3298    0.3647   -0.5851 H   0  0  0  0  0  0  0  0  0  0  0  0
   -0.4386    0.6755    0.2935 C   0  0  1  0  0  0  0  0  0  0  0  0
   -0.1982    0.9207    1.3322 H   0  0  0  0  0  0  0  0  0  0  0  0
    0.6963   -0.1895   -0.3270 C   0  0  0  0  0  0  0  0  0  0  0  0
    0.4135   -0.4054   -1.3634 H   0  0  0  0  0  0  0  0  0  0  0  0
    1.6079    0.4172   -0.3638 H   0  0  0  0  0  0  0  0  0  0  0  0
    1.0552   -1.5281    0.3491 C   0  0  0  0  0  0  0  0  0  0  0  0
    0.1742   -2.1688    0.4080 H   0  0  0  0  0  0  0  0  0  0  0  0
    2.0855   -2.2701   -0.5099 C   0  0  0  0  0  0  0  0  0  0  0  0
    2.9998   -1.6779   -0.6169 H   0  0  0  0  0  0  0  0  0  0  0  0
    2.3443   -3.2288   -0.0494 H   0  0  0  0  0  0  0  0  0  0  0  0
    1.6799   -2.4686   -1.5069 H   0  0  0  0  0  0  0  0  0  0  0  0
    1.6228   -1.3076    1.7576 C   0  0  0  0  0  0  0  0  0  0  0  0
    0.8822   -0.8315    2.4058 H   0  0  0  0  0  0  0  0  0  0  0  0
    1.8982   -2.2658    2.2086 H   0  0  0  0  0  0  0  0  0  0  0  0
    2.5128   -0.6718    1.7209 H   0  0  0  0  0  0  0  0  0  0  0  0
   -0.4411    1.9675   -0.5503 C   0  0  0  0  0  0  0  0  0  0  0  0
   -1.0372    2.0012   -1.6220 O   0  0  0  0  0  0  0  0  0  0  0  0
    0.1520    3.1183   -0.0652 N   0  0  0  0  0  0  0  0  0  0  0  0
    0.5876    3.0733    0.8516 H   0  0  0  0  0  0  0  0  0  0  0  0
    0.1350    4.3904   -0.7764 C   0  0  0  0  0  0  0  0  0  0  0  0
   -0.8934    4.7444   -0.9033 H   0  0  0  0  0  0  0  0  0  0  0  0
    0.6941    5.1447   -0.2146 H   0  0  0  0  0  0  0  0  0  0  0  0
    0.5963    4.2835   -1.7639 H   0  0  0  0  0  0  0  0  0  0  0  0
  1  2  1  0  0  0  0
  2  3  1  0  0  0  0
  2  4  1  0  0  0  0
  2  5  1  0  0  0  0
  5  6  2  0  0  0  0
  5  7  1  0  0  0  0
  7  8  1  0  0  0  0
  7  9  1  0  0  0  0
  9 10  1  0  0  0  0
  9 11  1  0  0  0  0
  9 24  1  0  0  0  0
 11 12  1  0  0  0  0
 11 13  1  0  0  0  0
 11 14  1  0  0  0  0
 14 15  1  0  0  0  0
 14 16  1  0  0  0  0
 14 20  1  0  0  0  0
 16 17  1  0  0  0  0
 16 18  1  0  0  0  0
 16 19  1  0  0  0  0
 20 21  1  0  0  0  0
 20 22  1  0  0  0  0
 20 23  1  0  0  0  0
 24 25  2  0  0  0  0
 24 26  1  0  0  0  0
 26 27  1  0  0  0  0
 26 28  1  0  0  0  0
 28 29  1  0  0  0  0
 28 30  1  0  0  0  0
 28 31  1  0  0  0  0
M  END
$$$$

  -OEChem-01062216083D

 31 30  0     1  0  0  0  0  0999 V2000
   -3.6525   -2.6853    0.8962 H   0  0  0  0  0  0  0  0  0  0  0  0
   -3.4896   -1.7503    0.3530 C   0  0  0  0  0  0  0  0  0  0  0  0
   -4.3501   -1.0952    0.5097 H   0  0  0  0  0  0  0  0  0  0  0  0
   -3.3999   -1.9746   -0.7127 H   0  0  0  0  0  0  0  0  0  0  0  0
   -2.2264   -1.0715    0.8483 C   0  0  0  0  0  0  0  0  0  0  0  0
   -1.6796   -1.4764    1.8605 O   0  0  0  0  0  0  0  0  0  0  0  0
   -1.7874    0.0787    0.2295 N   0  0  0  0  0  0  0  0  0  0  0  0
   -2.3427    0.3824   -0.5707 H   0  0  0  0  0  0  0  0  0  0  0  0
   -0.4404    0.6758    0.2937 C   0  0  1  0  0  0  0  0  0  0  0  0
   -0.2062    0.9272    1.3324 H   0  0  0  0  0  0  0  0  0  0  0  0
    0.6991   -0.1857   -0.3245 C   0  0  0  0  0  0  0  0  0  0  0  0
    0.4175   -0.4017   -1.3613 H   0  0  0  0  0  0  0  0  0  0  0  0
    1.6100    0.4221   -0.3598 H   0  0  0  0  0  0  0  0  0  0  0  0
    1.0635   -1.5234    0.3501 C   0  0  0  0  0  0  0  0  0  0  0  0
    0.1857   -2.1688    0.4065 H   0  0  0  0  0  0  0  0  0  0  0  0
    2.0981   -2.2585   -0.5096 C   0  0  0  0  0  0  0  0  0  0  0  0
    3.0096   -1.6615   -0.6137 H   0  0  0  0  0  0  0  0  0  0  0  0
    2.3611   -3.2169   -0.0512 H   0  0  0  0  0  0  0  0  0  0  0  0
    1.6952   -2.4565   -1.5078 H   0  0  0  0  0  0  0  0  0  0  0  0
    1.6289   -1.3030    1.7593 C   0  0  0  0  0  0  0  0  0  0  0  0
    0.8843   -0.8347    2.4087 H   0  0  0  0  0  0  0  0  0  0  0  0
    1.9120   -2.2604    2.2072 H   0  0  0  0  0  0  0  0  0  0  0  0
    2.5139   -0.6602    1.7245 H   0  0  0  0  0  0  0  0  0  0  0  0
   -0.4415    1.9647   -0.5579 C   0  0  0  0  0  0  0  0  0  0  0  0
   -1.2000    2.0721   -1.5168 O   0  0  0  0  0  0  0  0  0  0  0  0
    0.3895    3.0200   -0.2294 N   0  0  0  0  0  0  0  0  0  0  0  0
    0.9808    2.9170    0.5903 H   0  0  0  0  0  0  0  0  0  0  0  0
    0.4177    4.2773   -0.9664 C   0  0  0  0  0  0  0  0  0  0  0  0
   -0.5603    4.7682   -0.9242 H   0  0  0  0  0  0  0  0  0  0  0  0
    1.1623    4.9526   -0.5339 H   0  0  0  0  0  0  0  0  0  0  0  0
    0.6793    4.1012   -2.0152 H   0  0  0  0  0  0  0  0  0  0  0  0
  1  2  1  0  0  0  0
  2  3  1  0  0  0  0
  2  4  1  0  0  0  0
  2  5  1  0  0  0  0
  5  6  2  0  0  0  0
  5  7  1  0  0  0  0
  7  8  1  0  0  0  0
  7  9  1  0  0  0  0
  9 10  1  0  0  0  0
  9 11  1  0  0  0  0
  9 24  1  0  0  0  0
 11 12  1  0  0  0  0
 11 13  1  0  0  0  0
 11 14  1  0  0  0  0
 14 15  1  0  0  0  0
 14 16  1  0  0  0  0
 14 20  1  0  0  0  0
 16 17  1  0  0  0  0
 16 18  1  0  0  0  0
 16 19  1  0  0  0  0
 20 21  1  0  0  0  0
 20 22  1  0  0  0  0
 20 23  1  0  0  0  0
 24 25  2  0  0  0  0
 24 26  1  0  0  0  0
 26 27  1  0  0  0  0
 26 28  1  0  0  0  0
 28 29  1  0  0  0  0
 28 30  1  0  0  0  0
 28 31  1  0  0  0  0
M  END
$$$$

  -OEChem-01062216083D

 31 30  0     1  0  0  0  0  0999 V2000
   -3.7009   -2.6451    0.9349 H   0  0  0  0  0  0  0  0  0  0  0  0
   -3.4985   -1.7400    0.3556 C   0  0  0  0  0  0  0  0  0  0  0  0
   -4.3396   -1.0520    0.4700 H   0  0  0  0  0  0  0  0  0  0  0  0
   -3.3992   -2.0115   -0.6981 H   0  0  0  0  0  0  0  0  0  0  0  0
   -2.2213   -1.0820    0.8420 C   0  0  0  0  0  0  0  0  0  0  0  0
   -1.6690   -1.5030    1.8447 O   0  0  0  0  0  0  0  0  0  0  0  0
   -1.7790    0.0701    0.2289 N   0  0  0  0  0  0  0  0  0  0  0  0
   -2.3548    0.4060   -0.5438 H   0  0  0  0  0  0  0  0  0  0  0  0
   -0.4373    0.6804    0.2967 C   0  0  1  0  0  0  0  0  0  0  0  0
   -0.2038    0.9348    1.3348 H   0  0  0  0  0  0  0  0  0  0  0  0
    0.7022   -0.1830   -0.3244 C   0  0  0  0  0  0  0  0  0  0  0  0
    0.4164   -0.3987   -1.3599 H   0  0  0  0  0  0  0  0  0  0  0  0
    1.6157    0.4198   -0.3632 H   0  0  0  0  0  0  0  0  0  0  0  0
    1.0704   -1.5208    0.3479 C   0  0  0  0  0  0  0  0  0  0  0  0
    0.1948   -2.1684    0.4040 H   0  0  0  0  0  0  0  0  0  0  0  0
    2.1031   -2.2560   -0.5142 C   0  0  0  0  0  0  0  0  0  0  0  0
    3.0161   -1.6611   -0.6182 H   0  0  0  0  0  0  0  0  0  0  0  0
    2.3640   -3.2161   -0.0579 H   0  0  0  0  0  0  0  0  0  0  0  0
    1.6986   -2.4514   -1.5122 H   0  0  0  0  0  0  0  0  0  0  0  0
    1.6364   -1.3004    1.7569 C   0  0  0  0  0  0  0  0  0  0  0  0
    0.8921   -0.8310    2.4061 H   0  0  0  0  0  0  0  0  0  0  0  0
    1.9184   -2.2581    2.2052 H   0  0  0  0  0  0  0  0  0  0  0  0
    2.5220   -0.6585    1.7222 H   0  0  0  0  0  0  0  0  0  0  0  0
   -0.4446    1.9719   -0.5571 C   0  0  0  0  0  0  0  0  0  0  0  0
   -1.3381    2.1716   -1.3749 O   0  0  0  0  0  0  0  0  0  0  0  0
    0.5696    2.9047   -0.4305 N   0  0  0  0  0  0  0  0  0  0  0  0
    1.2879    2.7279    0.2659 H   0  0  0  0  0  0  0  0  0  0  0  0
    0.6287    4.1363   -1.2083 C   0  0  0  0  0  0  0  0  0  0  0  0
   -0.2537    4.7550   -1.0136 H   0  0  0  0  0  0  0  0  0  0  0  0
    1.5202    4.7108   -0.9394 H   0  0  0  0  0  0  0  0  0  0  0  0
    0.6730    3.9113   -2.2791 H   0  0  0  0  0  0  0  0  0  0  0  0
  1  2  1  0  0  0  0
  2  3  1  0  0  0  0
  2  4  1  0  0  0  0
  2  5  1  0  0  0  0
  5  6  2  0  0  0  0
  5  7  1  0  0  0  0
  7  8  1  0  0  0  0
  7  9  1  0  0  0  0
  9 10  1  0  0  0  0
  9 11  1  0  0  0  0
  9 24  1  0  0  0  0
 11 12  1  0  0  0  0
 11 13  1  0  0  0  0
 11 14  1  0  0  0  0
 14 15  1  0  0  0  0
 14 16  1  0  0  0  0
 14 20  1  0  0  0  0
 16 17  1  0  0  0  0
 16 18  1  0  0  0  0
 16 19  1  0  0  0  0
 20 21  1  0  0  0  0
 20 22  1  0  0  0  0
 20 23  1  0  0  0  0
 24 25  2  0  0  0  0
 24 26  1  0  0  0  0
 26 27  1  0  0  0  0
 26 28  1  0  0  0  0
 28 29  1  0  0  0  0
 28 30  1  0  0  0  0
 28 31  1  0  0  0  0
M  END
$$$$

  -OEChem-01062216083D

 31 30  0     1  0  0  0  0  0999 V2000
   -3.6373   -2.6834    0.9359 H   0  0  0  0  0  0  0  0  0  0  0  0
   -3.4975   -1.7230    0.4322 C   0  0  0  0  0  0  0  0  0  0  0  0
   -4.2705   -1.0296    0.7719 H   0  0  0  0  0  0  0  0  0  0  0  0
   -3.6004   -1.8728   -0.6451 H   0  0  0  0  0  0  0  0  0  0  0  0
   -2.1244   -1.1614    0.7488 C   0  0  0  0  0  0  0  0  0  0  0  0
   -1.4326   -1.7010    1.5963 O   0  0  0  0  0  0  0  0  0  0  0  0
   -1.7179    0.0090    0.1441 N   0  0  0  0  0  0  0  0  0  0  0  0
   -2.4036    0.4822   -0.4445 H   0  0  0  0  0  0  0  0  0  0  0  0
   -0.3941    0.6533    0.2229 C   0  0  1  0  0  0  0  0  0  0  0  0
   -0.0508    0.6725    1.2615 H   0  0  0  0  0  0  0  0  0  0  0  0
    0.6548   -0.0469   -0.6896 C   0  0  0  0  0  0  0  0  0  0  0  0
    0.2521   -0.0505   -1.7085 H   0  0  0  0  0  0  0  0  0  0  0  0
    1.5699    0.5532   -0.7074 H   0  0  0  0  0  0  0  0  0  0  0  0
    1.0652   -1.4898   -0.3314 C   0  0  0  0  0  0  0  0  0  0  0  0
    0.1823   -2.1313   -0.2903 H   0  0  0  0  0  0  0  0  0  0  0  0
    1.9832   -2.0434   -1.4278 C   0  0  0  0  0  0  0  0  0  0  0  0
    2.8934   -1.4414   -1.5131 H   0  0  0  0  0  0  0  0  0  0  0  0
    2.2690   -3.0749   -1.1989 H   0  0  0  0  0  0  0  0  0  0  0  0
    1.4704   -2.0385   -2.3946 H   0  0  0  0  0  0  0  0  0  0  0  0
    1.8027   -1.5461    1.0143 C   0  0  0  0  0  0  0  0  0  0  0  0
    1.1632   -1.1962    1.8288 H   0  0  0  0  0  0  0  0  0  0  0  0
    2.0989   -2.5753    1.2395 H   0  0  0  0  0  0  0  0  0  0  0  0
    2.7022   -0.9234    0.9884 H   0  0  0  0  0  0  0  0  0  0  0  0
   -0.5119    2.1135   -0.2836 C   0  0  0  0  0  0  0  0  0  0  0  0
   -1.5801    2.5351   -0.7171 O   0  0  0  0  0  0  0  0  0  0  0  0
    0.5911    2.9493   -0.3139 N   0  0  0  0  0  0  0  0  0  0  0  0
    1.4625    2.5914    0.0662 H   0  0  0  0  0  0  0  0  0  0  0  0
    0.5421    4.3269   -0.7890 C   0  0  0  0  0  0  0  0  0  0  0  0
   -0.1315    4.9231   -0.1644 H   0  0  0  0  0  0  0  0  0  0  0  0
    1.5391    4.7761   -0.7501 H   0  0  0  0  0  0  0  0  0  0  0  0
    0.1878    4.3633   -1.8247 H   0  0  0  0  0  0  0  0  0  0  0  0
  1  2  1  0  0  0  0
  2  3  1  0  0  0  0
  2  4  1  0  0  0  0
  2  5  1  0  0  0  0
  5  6  2  0  0  0  0
  5  7  1  0  0  0  0
  7  8  1  0  0  0  0
  7  9  1  0  0  0  0
  9 10  1  0  0  0  0
  9 11  1  0  0  0  0
  9 24  1  0  0  0  0
 11 12  1  0  0  0  0
 11 13  1  0  0  0  0
 11 14  1  0  0  0  0
 14 15  1  0  0  0  0
 14 16  1  0  0  0  0
 14 20  1  0  0  0  0
 16 17  1  0  0  0  0
 16 18  1  0  0  0  0
 16 19  1  0  0  0  0
 20 21  1  0  0  0  0
 20 22  1  0  0  0  0
 20 23  1  0  0  0  0
 24 25  2  0  0  0  0
 24 26  1  0  0  0  0
 26 27  1  0  0  0  0
 26 28  1  0  0  0  0
 28 29  1  0  0  0  0
 28 30  1  0  0  0  0
 28 31  1  0  0  0  0
M  END
$$$$

  -OEChem-01062216083D

 31 30  0     1  0  0  0  0  0999 V2000
   -3.6599   -2.6517    0.9384 H   0  0  0  0  0  0  0  0  0  0  0  0
   -3.5074   -1.6936    0.4339 C   0  0  0  0  0  0  0  0  0  0  0  0
   -4.2609   -0.9850    0.7862 H   0  0  0  0  0  0  0  0  0  0  0  0
   -3.6294   -1.8393   -0.6420 H   0  0  0  0  0  0  0  0  0  0  0  0
   -2.1180   -1.1616    0.7303 C   0  0  0  0  0  0  0  0  0  0  0  0
   -1.4241   -1.7220    1.5620 O   0  0  0  0  0  0  0  0  0  0  0  0
   -1.7036    0.0102    0.1329 N   0  0  0  0  0  0  0  0  0  0  0  0
   -2.4074    0.5221   -0.3990 H   0  0  0  0  0  0  0  0  0  0  0  0
   -0.3771    0.6509    0.2150 C   0  0  1  0  0  0  0  0  0  0  0  0
   -0.0346    0.6711    1.2540 H   0  0  0  0  0  0  0  0  0  0  0  0
    0.6728   -0.0607   -0.6920 C   0  0  0  0  0  0  0  0  0  0  0  0
    0.2758   -0.0627   -1.7131 H   0  0  0  0  0  0  0  0  0  0  0  0
    1.5947    0.5279   -0.7034 H   0  0  0  0  0  0  0  0  0  0  0  0
    1.0778   -1.5041   -0.3303 C   0  0  0  0  0  0  0  0  0  0  0  0
    0.1934   -2.1431   -0.2935 H   0  0  0  0  0  0  0  0  0  0  0  0
    1.9964   -2.0628   -1.4238 C   0  0  0  0  0  0  0  0  0  0  0  0
    2.9097   -1.4653   -1.5066 H   0  0  0  0  0  0  0  0  0  0  0  0
    2.2770   -3.0954   -1.1932 H   0  0  0  0  0  0  0  0  0  0  0  0
    1.4868   -2.0561   -2.3924 H   0  0  0  0  0  0  0  0  0  0  0  0
    1.8092   -1.5618    1.0185 C   0  0  0  0  0  0  0  0  0  0  0  0
    1.1670   -1.2083    1.8294 H   0  0  0  0  0  0  0  0  0  0  0  0
    2.1006   -2.5918    1.2462 H   0  0  0  0  0  0  0  0  0  0  0  0
    2.7110   -0.9424    0.9961 H   0  0  0  0  0  0  0  0  0  0  0  0
   -0.5067    2.1157   -0.2885 C   0  0  0  0  0  0  0  0  0  0  0  0
   -1.6169    2.6016   -0.4833 O   0  0  0  0  0  0  0  0  0  0  0  0
    0.6016    2.8788   -0.6171 N   0  0  0  0  0  0  0  0  0  0  0  0
    1.5173    2.4761   -0.4416 H   0  0  0  0  0  0  0  0  0  0  0  0
    0.5195    4.2433   -1.1251 C   0  0  0  0  0  0  0  0  0  0  0  0
    0.0541    4.9006   -0.3833 H   0  0  0  0  0  0  0  0  0  0  0  0
    1.5206    4.6251   -1.3467 H   0  0  0  0  0  0  0  0  0  0  0  0
   -0.0725    4.2754   -2.0458 H   0  0  0  0  0  0  0  0  0  0  0  0
  1  2  1  0  0  0  0
  2  3  1  0  0  0  0
  2  4  1  0  0  0  0
  2  5  1  0  0  0  0
  5  6  2  0  0  0  0
  5  7  1  0  0  0  0
  7  8  1  0  0  0  0
  7  9  1  0  0  0  0
  9 10  1  0  0  0  0
  9 11  1  0  0  0  0
  9 24  1  0  0  0  0
 11 12  1  0  0  0  0
 11 13  1  0  0  0  0
 11 14  1  0  0  0  0
 14 15  1  0  0  0  0
 14 16  1  0  0  0  0
 14 20  1  0  0  0  0
 16 17  1  0  0  0  0
 16 18  1  0  0  0  0
 16 19  1  0  0  0  0
 20 21  1  0  0  0  0
 20 22  1  0  0  0  0
 20 23  1  0  0  0  0
 24 25  2  0  0  0  0
 24 26  1  0  0  0  0
 26 27  1  0  0  0  0
 26 28  1  0  0  0  0
 28 29  1  0  0  0  0
 28 30  1  0  0  0  0
 28 31  1  0  0  0  0
M  END
$$$$

  -OEChem-01062216083D

 31 30  0     1  0  0  0  0  0999 V2000
   -3.6800   -2.6201    0.9443 H   0  0  0  0  0  0  0  0  0  0  0  0
   -3.5187   -1.6639    0.4386 C   0  0  0  0  0  0  0  0  0  0  0  0
   -4.2532   -0.9425    0.8051 H   0  0  0  0  0  0  0  0  0  0  0  0
   -3.6610   -1.8056   -0.6354 H   0  0  0  0  0  0  0  0  0  0  0  0
   -2.1150   -1.1576    0.7123 C   0  0  0  0  0  0  0  0  0  0  0  0
   -1.4176   -1.7375    1.5275 O   0  0  0  0  0  0  0  0  0  0  0  0
   -1.6948    0.0144    0.1182 N   0  0  0  0  0  0  0  0  0  0  0  0
   -2.4123    0.5563   -0.3622 H   0  0  0  0  0  0  0  0  0  0  0  0
   -0.3631    0.6459    0.1971 C   0  0  1  0  0  0  0  0  0  0  0  0
   -0.0214    0.6688    1.2362 H   0  0  0  0  0  0  0  0  0  0  0  0
    0.6903   -0.0757   -0.6999 C   0  0  0  0  0  0  0  0  0  0  0  0
    0.3033   -0.0802   -1.7247 H   0  0  0  0  0  0  0  0  0  0  0  0
    1.6157    0.5075   -0.7004 H   0  0  0  0  0  0  0  0  0  0  0  0
    1.0912   -1.5178   -0.3294 C   0  0  0  0  0  0  0  0  0  0  0  0
    0.2057   -2.1553   -0.2971 H   0  0  0  0  0  0  0  0  0  0  0  0
    2.0141   -2.0839   -1.4151 C   0  0  0  0  0  0  0  0  0  0  0  0
    2.9291   -1.4887   -1.4963 H   0  0  0  0  0  0  0  0  0  0  0  0
    2.2914   -3.1157   -1.1773 H   0  0  0  0  0  0  0  0  0  0  0  0
    1.5092   -2.0813   -2.3861 H   0  0  0  0  0  0  0  0  0  0  0  0
    1.8142   -1.5709    1.0243 C   0  0  0  0  0  0  0  0  0  0  0  0
    1.1672   -1.2132    1.8296 H   0  0  0  0  0  0  0  0  0  0  0  0
    2.1030   -2.6003    1.2575 H   0  0  0  0  0  0  0  0  0  0  0  0
    2.7170   -0.9526    1.0053 H   0  0  0  0  0  0  0  0  0  0  0  0
   -0.5012    2.1133   -0.3022 C   0  0  0  0  0  0  0  0  0  0  0  0
   -1.5922    2.6714   -0.2425 O   0  0  0  0  0  0  0  0  0  0  0  0
    0.5327    2.7956   -0.9236 N   0  0  0  0  0  0  0  0  0  0  0  0
    1.4354    2.3339   -0.9751 H   0  0  0  0  0  0  0  0  0  0  0  0
    0.4091    4.1529   -1.4428 C   0  0  0  0  0  0  0  0  0  0  0  0
    0.1816    4.8532   -0.6324 H   0  0  0  0  0  0  0  0  0  0  0  0
    1.3458    4.4630   -1.9162 H   0  0  0  0  0  0  0  0  0  0  0  0
   -0.3889    4.2074   -2.1909 H   0  0  0  0  0  0  0  0  0  0  0  0
  1  2  1  0  0  0  0
  2  3  1  0  0  0  0
  2  4  1  0  0  0  0
  2  5  1  0  0  0  0
  5  6  2  0  0  0  0
  5  7  1  0  0  0  0
  7  8  1  0  0  0  0
  7  9  1  0  0  0  0
  9 10  1  0  0  0  0
  9 11  1  0  0  0  0
  9 24  1  0  0  0  0
 11 12  1  0  0  0  0
 11 13  1  0  0  0  0
 11 14  1  0  0  0  0
 14 15  1  0  0  0  0
 14 16  1  0  0  0  0
 14 20  1  0  0  0  0
 16 17  1  0  0  0  0
 16 18  1  0  0  0  0
 16 19  1  0  0  0  0
 20 21  1  0  0  0  0
 20 22  1  0  0  0  0
 20 23  1  0  0  0  0
 24 25  2  0  0  0  0
 24 26  1  0  0  0  0
 26 27  1  0  0  0  0
 26 28  1  0  0  0  0
 28 29  1  0  0  0  0
 28 30  1  0  0  0  0
 28 31  1  0  0  0  0
M  END
$$$$

  -OEChem-01062216083D

 31 30  0     1  0  0  0  0  0999 V2000
   -3.7162   -2.5760    0.9677 H   0  0  0  0  0  0  0  0  0  0  0  0
   -3.5393   -1.6293    0.4497 C   0  0  0  0  0  0  0  0  0  0  0  0
   -4.2488   -0.8859    0.8213 H   0  0  0  0  0  0  0  0  0  0  0  0
   -3.7039   -1.7778   -0.6202 H   0  0  0  0  0  0  0  0  0  0  0  0
   -2.1189   -1.1558    0.6942 C   0  0  0  0  0  0  0  0  0  0  0  0
   -1.4151   -1.7601    1.4852 O   0  0  0  0  0  0  0  0  0  0  0  0
   -1.6930    0.0161    0.1036 N   0  0  0  0  0  0  0  0  0  0  0  0
   -2.4182    0.5784   -0.3391 H   0  0  0  0  0  0  0  0  0  0  0  0
   -0.3560    0.6368    0.1793 C   0  0  1  0  0  0  0  0  0  0  0  0
   -0.0173    0.6617    1.2195 H   0  0  0  0  0  0  0  0  0  0  0  0
    0.7063   -0.0859   -0.7060 C   0  0  0  0  0  0  0  0  0  0  0  0
    0.3280   -0.0960   -1.7340 H   0  0  0  0  0  0  0  0  0  0  0  0
    1.6279    0.5047   -0.6963 H   0  0  0  0  0  0  0  0  0  0  0  0
    1.1101   -1.5262   -0.3315 C   0  0  0  0  0  0  0  0  0  0  0  0
    0.2270   -2.1672   -0.3069 H   0  0  0  0  0  0  0  0  0  0  0  0
    2.0434   -2.0899   -1.4098 C   0  0  0  0  0  0  0  0  0  0  0  0
    2.9561   -1.4906   -1.4866 H   0  0  0  0  0  0  0  0  0  0  0  0
    2.3241   -3.1197   -1.1676 H   0  0  0  0  0  0  0  0  0  0  0  0
    1.5449   -2.0925   -2.3842 H   0  0  0  0  0  0  0  0  0  0  0  0
    1.8209   -1.5753    1.0287 C   0  0  0  0  0  0  0  0  0  0  0  0
    1.1653   -1.2171    1.8268 H   0  0  0  0  0  0  0  0  0  0  0  0
    2.1096   -2.6036    1.2672 H   0  0  0  0  0  0  0  0  0  0  0  0
    2.7224   -0.9550    1.0171 H   0  0  0  0  0  0  0  0  0  0  0  0
   -0.4983    2.1049   -0.3138 C   0  0  0  0  0  0  0  0  0  0  0  0
   -1.5052    2.7369   -0.0146 O   0  0  0  0  0  0  0  0  0  0  0  0
    0.3907    2.7000   -1.1953 N   0  0  0  0  0  0  0  0  0  0  0  0
    1.2056    2.1629   -1.4751 H   0  0  0  0  0  0  0  0  0  0  0  0
    0.2225    4.0481   -1.7254 C   0  0  0  0  0  0  0  0  0  0  0  0
    0.2357    4.7829   -0.9137 H   0  0  0  0  0  0  0  0  0  0  0  0
    1.0339    4.2851   -2.4200 H   0  0  0  0  0  0  0  0  0  0  0  0
   -0.7276    4.1332   -2.2633 H   0  0  0  0  0  0  0  0  0  0  0  0
  1  2  1  0  0  0  0
  2  3  1  0  0  0  0
  2  4  1  0  0  0  0
  2  5  1  0  0  0  0
  5  6  2  0  0  0  0
  5  7  1  0  0  0  0
  7  8  1  0  0  0  0
  7  9  1  0  0  0  0
  9 10  1  0  0  0  0
  9 11  1  0  0  0  0
  9 24  1  0  0  0  0
 11 12  1  0  0  0  0
 11 13  1  0  0  0  0
 11 14  1  0  0  0  0
 14 15  1  0  0  0  0
 14 16  1  0  0  0  0
 14 20  1  0  0  0  0
 16 17  1  0  0  0  0
 16 18  1  0  0  0  0
 16 19  1  0  0  0  0
 20 21  1  0  0  0  0
 20 22  1  0  0  0  0
 20 23  1  0  0  0  0
 24 25  2  0  0  0  0
 24 26  1  0  0  0  0
 26 27  1  0  0  0  0
 26 28  1  0  0  0  0
 28 29  1  0  0  0  0
 28 30  1  0  0  0  0
 28 31  1  0  0  0  0
M  END
$$$$

  -OEChem-01062216083D

 31 30  0     1  0  0  0  0  0999 V2000
   -3.7038   -2.5876    0.9808 H   0  0  0  0  0  0  0  0  0  0  0  0
   -3.5379   -1.6399    0.4606 C   0  0  0  0  0  0  0  0  0  0  0  0
   -4.2539   -0.9034    0.8333 H   0  0  0  0  0  0  0  0  0  0  0  0
   -3.7040   -1.7924   -0.6084 H   0  0  0  0  0  0  0  0  0  0  0  0
   -2.1215   -1.1516    0.7002 C   0  0  0  0  0  0  0  0  0  0  0  0
   -1.4118   -1.7461    1.4930 O   0  0  0  0  0  0  0  0  0  0  0  0
   -1.7048    0.0185    0.0987 N   0  0  0  0  0  0  0  0  0  0  0  0
   -2.4329    0.5633   -0.3586 H   0  0  0  0  0  0  0  0  0  0  0  0
   -0.3664    0.6381    0.1602 C   0  0  1  0  0  0  0  0  0  0  0  0
   -0.0243    0.6698    1.1994 H   0  0  0  0  0  0  0  0  0  0  0  0
    0.6970   -0.0890   -0.7186 C   0  0  0  0  0  0  0  0  0  0  0  0
    0.3137   -0.1194   -1.7442 H   0  0  0  0  0  0  0  0  0  0  0  0
    1.6115    0.5138   -0.7212 H   0  0  0  0  0  0  0  0  0  0  0  0
    1.1089   -1.5235   -0.3315 C   0  0  0  0  0  0  0  0  0  0  0  0
    0.2292   -2.1691   -0.2987 H   0  0  0  0  0  0  0  0  0  0  0  0
    2.0428   -2.0912   -1.4073 C   0  0  0  0  0  0  0  0  0  0  0  0
    2.9509   -1.4860   -1.4929 H   0  0  0  0  0  0  0  0  0  0  0  0
    2.3319   -3.1167   -1.1562 H   0  0  0  0  0  0  0  0  0  0  0  0
    1.5412   -2.1069   -2.3798 H   0  0  0  0  0  0  0  0  0  0  0  0
    1.8228   -1.5567    1.0275 C   0  0  0  0  0  0  0  0  0  0  0  0
    1.1652   -1.1993    1.8244 H   0  0  0  0  0  0  0  0  0  0  0  0
    2.1219   -2.5805    1.2726 H   0  0  0  0  0  0  0  0  0  0  0  0
    2.7183   -0.9277    1.0103 H   0  0  0  0  0  0  0  0  0  0  0  0
   -0.5039    2.1031   -0.3356 C   0  0  0  0  0  0  0  0  0  0  0  0
   -1.3589    2.8186    0.1702 O   0  0  0  0  0  0  0  0  0  0  0  0
    0.1810    2.6007   -1.4336 N   0  0  0  0  0  0  0  0  0  0  0  0
    0.8617    1.9921   -1.8779 H   0  0  0  0  0  0  0  0  0  0  0  0
    0.0069    3.9545   -1.9474 C   0  0  0  0  0  0  0  0  0  0  0  0
    0.2815    4.6910   -1.1848 H   0  0  0  0  0  0  0  0  0  0  0  0
    0.6423    4.1113   -2.8244 H   0  0  0  0  0  0  0  0  0  0  0  0
   -1.0345    4.1226   -2.2415 H   0  0  0  0  0  0  0  0  0  0  0  0
  1  2  1  0  0  0  0
  2  3  1  0  0  0  0
  2  4  1  0  0  0  0
  2  5  1  0  0  0  0
  5  6  2  0  0  0  0
  5  7  1  0  0  0  0
  7  8  1  0  0  0  0
  7  9  1  0  0  0  0
  9 10  1  0  0  0  0
  9 11  1  0  0  0  0
  9 24  1  0  0  0  0
 11 12  1  0  0  0  0
 11 13  1  0  0  0  0
 11 14  1  0  0  0  0
 14 15  1  0  0  0  0
 14 16  1  0  0  0  0
 14 20  1  0  0  0  0
 16 17  1  0  0  0  0
 16 18  1  0  0  0  0
 16 19  1  0  0  0  0
 20 21  1  0  0  0  0
 20 22  1  0  0  0  0
 20 23  1  0  0  0  0
 24 25  2  0  0  0  0
 24 26  1  0  0  0  0
 26 27  1  0  0  0  0
 26 28  1  0  0  0  0
 28 29  1  0  0  0  0
 28 30  1  0  0  0  0
 28 31  1  0  0  0  0
M  END
$$$$

  -OEChem-01062216083D

 31 30  0     1  0  0  0  0  0999 V2000
   -3.6924   -2.6041    1.0020 H   0  0  0  0  0  0  0  0  0  0  0  0
   -3.5368   -1.6594    0.4733 C   0  0  0  0  0  0  0  0  0  0  0  0
   -4.2608   -0.9276    0.8398 H   0  0  0  0  0  0  0  0  0  0  0  0
   -3.7012   -1.8233   -0.5942 H   0  0  0  0  0  0  0  0  0  0  0  0
   -2.1258   -1.1541    0.7094 C   0  0  0  0  0  0  0  0  0  0  0  0
   -1.4097   -1.7360    1.5055 O   0  0  0  0  0  0  0  0  0  0  0  0
   -1.7212    0.0163    0.0996 N   0  0  0  0  0  0  0  0  0  0  0  0
   -2.4481    0.5319   -0.3904 H   0  0  0  0  0  0  0  0  0  0  0  0
   -0.3833    0.6392    0.1466 C   0  0  1  0  0  0  0  0  0  0  0  0
   -0.0358    0.6737    1.1841 H   0  0  0  0  0  0  0  0  0  0  0  0
    0.6815   -0.0857   -0.7315 C   0  0  0  0  0  0  0  0  0  0  0  0
    0.2919   -0.1344   -1.7536 H   0  0  0  0  0  0  0  0  0  0  0  0
    1.5873    0.5304   -0.7493 H   0  0  0  0  0  0  0  0  0  0  0  0
    1.1036   -1.5147   -0.3347 C   0  0  0  0  0  0  0  0  0  0  0  0
    0.2277   -2.1648   -0.2915 H   0  0  0  0  0  0  0  0  0  0  0  0
    2.0376   -2.0870   -1.4080 C   0  0  0  0  0  0  0  0  0  0  0  0
    2.9422   -1.4775   -1.5015 H   0  0  0  0  0  0  0  0  0  0  0  0
    2.3333   -3.1084   -1.1479 H   0  0  0  0  0  0  0  0  0  0  0  0
    1.5337   -2.1150   -2.3789 H   0  0  0  0  0  0  0  0  0  0  0  0
    1.8249   -1.5320    1.0206 C   0  0  0  0  0  0  0  0  0  0  0  0
    1.1693   -1.1734    1.8186 H   0  0  0  0  0  0  0  0  0  0  0  0
    2.1328   -2.5517    1.2720 H   0  0  0  0  0  0  0  0  0  0  0  0
    2.7158   -0.8967    0.9932 H   0  0  0  0  0  0  0  0  0  0  0  0
   -0.5155    2.1021   -0.3484 C   0  0  0  0  0  0  0  0  0  0  0  0
   -1.1502    2.8999    0.3276 O   0  0  0  0  0  0  0  0  0  0  0  0
   -0.0875    2.5123   -1.6013 N   0  0  0  0  0  0  0  0  0  0  0  0
    0.4192    1.8386   -2.1673 H   0  0  0  0  0  0  0  0  0  0  0  0
   -0.2544    3.8709   -2.1042 C   0  0  0  0  0  0  0  0  0  0  0  0
    0.2654    4.5846   -1.4564 H   0  0  0  0  0  0  0  0  0  0  0  0
    0.1598    3.9544   -3.1135 H   0  0  0  0  0  0  0  0  0  0  0  0
   -1.3156    4.1383   -2.1434 H   0  0  0  0  0  0  0  0  0  0  0  0
  1  2  1  0  0  0  0
  2  3  1  0  0  0  0
  2  4  1  0  0  0  0
  2  5  1  0  0  0  0
  5  6  2  0  0  0  0
  5  7  1  0  0  0  0
  7  8  1  0  0  0  0
  7  9  1  0  0  0  0
  9 10  1  0  0  0  0
  9 11  1  0  0  0  0
  9 24  1  0  0  0  0
 11 12  1  0  0  0  0
 11 13  1  0  0  0  0
 11 14  1  0  0  0  0
 14 15  1  0  0  0  0
 14 16  1  0  0  0  0
 14 20  1  0  0  0  0
 16 17  1  0  0  0  0
 16 18  1  0  0  0  0
 16 19  1  0  0  0  0
 20 21  1  0  0  0  0
 20 22  1  0  0  0  0
 20 23  1  0  0  0  0
 24 25  2  0  0  0  0
 24 26  1  0  0  0  0
 26 27  1  0  0  0  0
 26 28  1  0  0  0  0
 28 29  1  0  0  0  0
 28 30  1  0  0  0  0
 28 31  1  0  0  0  0
M  END
$$$$

  -OEChem-01062216083D

 31 30  0     1  0  0  0  0  0999 V2000
   -3.6658   -2.6404    1.0124 H   0  0  0  0  0  0  0  0  0  0  0  0
   -3.5280   -1.6928    0.4840 C   0  0  0  0  0  0  0  0  0  0  0  0
   -4.2709   -0.9774    0.8451 H   0  0  0  0  0  0  0  0  0  0  0  0
   -3.6812   -1.8614   -0.5846 H   0  0  0  0  0  0  0  0  0  0  0  0
   -2.1303   -1.1562    0.7301 C   0  0  0  0  0  0  0  0  0  0  0  0
   -1.4093   -1.7190    1.5350 O   0  0  0  0  0  0  0  0  0  0  0  0
   -1.7401    0.0149    0.1111 N   0  0  0  0  0  0  0  0  0  0  0  0
   -2.4611    0.4928   -0.4227 H   0  0  0  0  0  0  0  0  0  0  0  0
   -0.4041    0.6433    0.1468 C   0  0  1  0  0  0  0  0  0  0  0  0
   -0.0502    0.6774    1.1825 H   0  0  0  0  0  0  0  0  0  0  0  0
    0.6590   -0.0747   -0.7373 C   0  0  0  0  0  0  0  0  0  0  0  0
    0.2649   -0.1307   -1.7569 H   0  0  0  0  0  0  0  0  0  0  0  0
    1.5586    0.5504   -0.7649 H   0  0  0  0  0  0  0  0  0  0  0  0
    1.0897   -1.5005   -0.3387 C   0  0  0  0  0  0  0  0  0  0  0  0
    0.2171   -2.1544   -0.2862 H   0  0  0  0  0  0  0  0  0  0  0  0
    2.0204   -2.0711   -1.4155 C   0  0  0  0  0  0  0  0  0  0  0  0
    2.9213   -1.4571   -1.5149 H   0  0  0  0  0  0  0  0  0  0  0  0
    2.3225   -3.0903   -1.1543 H   0  0  0  0  0  0  0  0  0  0  0  0
    1.5119   -2.1039   -2.3840 H   0  0  0  0  0  0  0  0  0  0  0  0
    1.8213   -1.5092    1.0109 C   0  0  0  0  0  0  0  0  0  0  0  0
    1.1707   -1.1518    1.8134 H   0  0  0  0  0  0  0  0  0  0  0  0
    2.1376   -2.5262    1.2629 H   0  0  0  0  0  0  0  0  0  0  0  0
    2.7078   -0.8686    0.9738 H   0  0  0  0  0  0  0  0  0  0  0  0
   -0.5301    2.1037   -0.3492 C   0  0  0  0  0  0  0  0  0  0  0  0
   -0.8793    2.9751    0.4338 O   0  0  0  0  0  0  0  0  0  0  0  0
   -0.3923    2.4406   -1.6863 N   0  0  0  0  0  0  0  0  0  0  0  0
   -0.1030    1.7075   -2.3265 H   0  0  0  0  0  0  0  0  0  0  0  0
   -0.5395    3.8004   -2.1920 C   0  0  0  0  0  0  0  0  0  0  0  0
    0.1907    4.4662   -1.7199 H   0  0  0  0  0  0  0  0  0  0  0  0
   -0.3773    3.8211   -3.2739 H   0  0  0  0  0  0  0  0  0  0  0  0
   -1.5461    4.1795   -1.9866 H   0  0  0  0  0  0  0  0  0  0  0  0
  1  2  1  0  0  0  0
  2  3  1  0  0  0  0
  2  4  1  0  0  0  0
  2  5  1  0  0  0  0
  5  6  2  0  0  0  0
  5  7  1  0  0  0  0
  7  8  1  0  0  0  0
  7  9  1  0  0  0  0
  9 10  1  0  0  0  0
  9 11  1  0  0  0  0
  9 24  1  0  0  0  0
 11 12  1  0  0  0  0
 11 13  1  0  0  0  0
 11 14  1  0  0  0  0
 14 15  1  0  0  0  0
 14 16  1  0  0  0  0
 14 20  1  0  0  0  0
 16 17  1  0  0  0  0
 16 18  1  0  0  0  0
 16 19  1  0  0  0  0
 20 21  1  0  0  0  0
 20 22  1  0  0  0  0
 20 23  1  0  0  0  0
 24 25  2  0  0  0  0
 24 26  1  0  0  0  0
 26 27  1  0  0  0  0
 26 28  1  0  0  0  0
 28 29  1  0  0  0  0
 28 30  1  0  0  0  0
 28 31  1  0  0  0  0
M  END
$$$$

  -OEChem-01062216083D

 31 30  0     1  0  0  0  0  0999 V2000
   -3.6620   -2.6605    1.0368 H   0  0  0  0  0  0  0  0  0  0  0  0
   -3.5306   -1.7159    0.5011 C   0  0  0  0  0  0  0  0  0  0  0  0
   -4.2800   -1.0037    0.8550 H   0  0  0  0  0  0  0  0  0  0  0  0
   -3.6811   -1.8943   -0.5662 H   0  0  0  0  0  0  0  0  0  0  0  0
   -2.1378   -1.1659    0.7460 C   0  0  0  0  0  0  0  0  0  0  0  0
   -1.4104   -1.7211    1.5500 O   0  0  0  0  0  0  0  0  0  0  0  0
   -1.7578    0.0066    0.1230 N   0  0  0  0  0  0  0  0  0  0  0  0
   -2.4781    0.4678   -0.4256 H   0  0  0  0  0  0  0  0  0  0  0  0
   -0.4246    0.6422    0.1581 C   0  0  1  0  0  0  0  0  0  0  0  0
   -0.0683    0.6739    1.1932 H   0  0  0  0  0  0  0  0  0  0  0  0
    0.6408   -0.0573   -0.7353 C   0  0  0  0  0  0  0  0  0  0  0  0
    0.2490   -0.1040   -1.7559 H   0  0  0  0  0  0  0  0  0  0  0  0
    1.5354    0.5752   -0.7570 H   0  0  0  0  0  0  0  0  0  0  0  0
    1.0808   -1.4835   -0.3480 C   0  0  0  0  0  0  0  0  0  0  0  0
    0.2112   -2.1421   -0.2963 H   0  0  0  0  0  0  0  0  0  0  0  0
    2.0133   -2.0400   -1.4308 C   0  0  0  0  0  0  0  0  0  0  0  0
    2.9108   -1.4205   -1.5259 H   0  0  0  0  0  0  0  0  0  0  0  0
    2.3208   -3.0599   -1.1792 H   0  0  0  0  0  0  0  0  0  0  0  0
    1.5036   -2.0667   -2.3988 H   0  0  0  0  0  0  0  0  0  0  0  0
    1.8171   -1.4972    0.9996 C   0  0  0  0  0  0  0  0  0  0  0  0
    1.1681   -1.1469    1.8064 H   0  0  0  0  0  0  0  0  0  0  0  0
    2.1377   -2.5144    1.2451 H   0  0  0  0  0  0  0  0  0  0  0  0
    2.7012   -0.8531    0.9632 H   0  0  0  0  0  0  0  0  0  0  0  0
   -0.5510    2.0990   -0.3395 C   0  0  0  0  0  0  0  0  0  0  0  0
   -0.5873    3.0183    0.4650 O   0  0  0  0  0  0  0  0  0  0  0  0
   -0.7169    2.3847   -1.6848 N   0  0  0  0  0  0  0  0  0  0  0  0
   -0.6479    1.6110   -2.3388 H   0  0  0  0  0  0  0  0  0  0  0  0
   -0.8415    3.7407   -2.2063 C   0  0  0  0  0  0  0  0  0  0  0  0
    0.0464    4.3308   -1.9557 H   0  0  0  0  0  0  0  0  0  0  0  0
   -0.9463    3.7190   -3.2952 H   0  0  0  0  0  0  0  0  0  0  0  0
   -1.7232    4.2343   -1.7842 H   0  0  0  0  0  0  0  0  0  0  0  0
  1  2  1  0  0  0  0
  2  3  1  0  0  0  0
  2  4  1  0  0  0  0
  2  5  1  0  0  0  0
  5  6  2  0  0  0  0
  5  7  1  0  0  0  0
  7  8  1  0  0  0  0
  7  9  1  0  0  0  0
  9 10  1  0  0  0  0
  9 11  1  0  0  0  0
  9 24  1  0  0  0  0
 11 12  1  0  0  0  0
 11 13  1  0  0  0  0
 11 14  1  0  0  0  0
 14 15  1  0  0  0  0
 14 16  1  0  0  0  0
 14 20  1  0  0  0  0
 16 17  1  0  0  0  0
 16 18  1  0  0  0  0
 16 19  1  0  0  0  0
 20 21  1  0  0  0  0
 20 22  1  0  0  0  0
 20 23  1  0  0  0  0
 24 25  2  0  0  0  0
 24 26  1  0  0  0  0
 26 27  1  0  0  0  0
 26 28  1  0  0  0  0
 28 29  1  0  0  0  0
 28 30  1  0  0  0  0
 28 31  1  0  0  0  0
M  END
$$$$

  -OEChem-01062216083D

 31 30  0     1  0  0  0  0  0999 V2000
   -3.6615   -2.6813    1.0652 H   0  0  0  0  0  0  0  0  0  0  0  0
   -3.5348   -1.7404    0.5222 C   0  0  0  0  0  0  0  0  0  0  0  0
   -4.2878   -1.0294    0.8708 H   0  0  0  0  0  0  0  0  0  0  0  0
   -3.6838   -1.9273   -0.5439 H   0  0  0  0  0  0  0  0  0  0  0  0
   -2.1446   -1.1822    0.7626 C   0  0  0  0  0  0  0  0  0  0  0  0
   -1.4107   -1.7321    1.5642 O   0  0  0  0  0  0  0  0  0  0  0  0
   -1.7743   -0.0072    0.1383 N   0  0  0  0  0  0  0  0  0  0  0  0
   -2.5000    0.4507   -0.4056 H   0  0  0  0  0  0  0  0  0  0  0  0
   -0.4462    0.6398    0.1802 C   0  0  1  0  0  0  0  0  0  0  0  0
   -0.0892    0.6685    1.2153 H   0  0  0  0  0  0  0  0  0  0  0  0
    0.6209   -0.0372   -0.7255 C   0  0  0  0  0  0  0  0  0  0  0  0
    0.2289   -0.0661   -1.7471 H   0  0  0  0  0  0  0  0  0  0  0  0
    1.5117    0.6015   -0.7377 H   0  0  0  0  0  0  0  0  0  0  0  0
    1.0707   -1.4656   -0.3581 C   0  0  0  0  0  0  0  0  0  0  0  0
    0.2049   -2.1296   -0.3122 H   0  0  0  0  0  0  0  0  0  0  0  0
    2.0045   -2.0011   -1.4506 C   0  0  0  0  0  0  0  0  0  0  0  0
    2.8958   -1.3721   -1.5414 H   0  0  0  0  0  0  0  0  0  0  0  0
    2.3226   -3.0209   -1.2121 H   0  0  0  0  0  0  0  0  0  0  0  0
    1.4925   -2.0214   -2.4175 H   0  0  0  0  0  0  0  0  0  0  0  0
    1.8103   -1.4931    0.9875 C   0  0  0  0  0  0  0  0  0  0  0  0
    1.1622   -1.1551    1.8003 H   0  0  0  0  0  0  0  0  0  0  0  0
    2.1358   -2.5118    1.2195 H   0  0  0  0  0  0  0  0  0  0  0  0
    2.6915   -0.8448    0.9571 H   0  0  0  0  0  0  0  0  0  0  0  0
   -0.5749    2.0936   -0.3196 C   0  0  0  0  0  0  0  0  0  0  0  0
   -0.3061    3.0275    0.4212 O   0  0  0  0  0  0  0  0  0  0  0  0
   -1.0349    2.3585   -1.5991 N   0  0  0  0  0  0  0  0  0  0  0  0
   -1.1546    1.5664   -2.2229 H   0  0  0  0  0  0  0  0  0  0  0  0
   -1.1319    3.7066   -2.1462 C   0  0  0  0  0  0  0  0  0  0  0  0
   -0.1499    4.1913   -2.1478 H   0  0  0  0  0  0  0  0  0  0  0  0
   -1.5027    3.6725   -3.1750 H   0  0  0  0  0  0  0  0  0  0  0  0
   -1.8225    4.3126   -1.5503 H   0  0  0  0  0  0  0  0  0  0  0  0
  1  2  1  0  0  0  0
  2  3  1  0  0  0  0
  2  4  1  0  0  0  0
  2  5  1  0  0  0  0
  5  6  2  0  0  0  0
  5  7  1  0  0  0  0
  7  8  1  0  0  0  0
  7  9  1  0  0  0  0
  9 10  1  0  0  0  0
  9 11  1  0  0  0  0
  9 24  1  0  0  0  0
 11 12  1  0  0  0  0
 11 13  1  0  0  0  0
 11 14  1  0  0  0  0
 14 15  1  0  0  0  0
 14 16  1  0  0  0  0
 14 20  1  0  0  0  0
 16 17  1  0  0  0  0
 16 18  1  0  0  0  0
 16 19  1  0  0  0  0
 20 21  1  0  0  0  0
 20 22  1  0  0  0  0
 20 23  1  0  0  0  0
 24 25  2  0  0  0  0
 24 26  1  0  0  0  0
 26 27  1  0  0  0  0
 26 28  1  0  0  0  0
 28 29  1  0  0  0  0
 28 30  1  0  0  0  0
 28 31  1  0  0  0  0
M  END
$$$$

  -OEChem-01062216083D

 31 30  0     1  0  0  0  0  0999 V2000
   -3.6435   -2.7159    1.0716 H   0  0  0  0  0  0  0  0  0  0  0  0
   -3.5282   -1.7695    0.5354 C   0  0  0  0  0  0  0  0  0  0  0  0
   -4.2899   -1.0702    0.8885 H   0  0  0  0  0  0  0  0  0  0  0  0
   -3.6747   -1.9515   -0.5318 H   0  0  0  0  0  0  0  0  0  0  0  0
   -2.1449   -1.1960    0.7801 C   0  0  0  0  0  0  0  0  0  0  0  0
   -1.4086   -1.7370    1.5852 O   0  0  0  0  0  0  0  0  0  0  0  0
   -1.7832   -0.0195    0.1532 N   0  0  0  0  0  0  0  0  0  0  0  0
   -2.5170    0.4404   -0.3769 H   0  0  0  0  0  0  0  0  0  0  0  0
   -0.4601    0.6402    0.2021 C   0  0  1  0  0  0  0  0  0  0  0  0
   -0.1017    0.6667    1.2367 H   0  0  0  0  0  0  0  0  0  0  0  0
    0.6032   -0.0248   -0.7148 C   0  0  0  0  0  0  0  0  0  0  0  0
    0.2059   -0.0400   -1.7349 H   0  0  0  0  0  0  0  0  0  0  0  0
    1.4932    0.6150   -0.7241 H   0  0  0  0  0  0  0  0  0  0  0  0
    1.0578   -1.4552   -0.3614 C   0  0  0  0  0  0  0  0  0  0  0  0
    0.1936   -2.1215   -0.3154 H   0  0  0  0  0  0  0  0  0  0  0  0
    1.9871   -1.9807   -1.4621 C   0  0  0  0  0  0  0  0  0  0  0  0
    2.8776   -1.3504   -1.5530 H   0  0  0  0  0  0  0  0  0  0  0  0
    2.3070   -3.0022   -1.2334 H   0  0  0  0  0  0  0  0  0  0  0  0
    1.4691   -1.9935   -2.4258 H   0  0  0  0  0  0  0  0  0  0  0  0
    1.8051   -1.4910    0.9796 C   0  0  0  0  0  0  0  0  0  0  0  0
    1.1610   -1.1599    1.7983 H   0  0  0  0  0  0  0  0  0  0  0  0
    2.1334   -2.5109    1.2025 H   0  0  0  0  0  0  0  0  0  0  0  0
    2.6853   -0.8411    0.9490 H   0  0  0  0  0  0  0  0  0  0  0  0
   -0.5822    2.0930   -0.3012 C   0  0  0  0  0  0  0  0  0  0  0  0
   -0.0568    3.0076    0.3162 O   0  0  0  0  0  0  0  0  0  0  0  0
   -1.3064    2.3774   -1.4477 N   0  0  0  0  0  0  0  0  0  0  0  0
   -1.5872    1.5893   -2.0224 H   0  0  0  0  0  0  0  0  0  0  0  0
   -1.4094    3.7209   -2.0047 C   0  0  0  0  0  0  0  0  0  0  0  0
   -0.4166    4.1107   -2.2529 H   0  0  0  0  0  0  0  0  0  0  0  0
   -2.0146    3.7075   -2.9162 H   0  0  0  0  0  0  0  0  0  0  0  0
   -1.8838    4.3973   -1.2858 H   0  0  0  0  0  0  0  0  0  0  0  0
  1  2  1  0  0  0  0
  2  3  1  0  0  0  0
  2  4  1  0  0  0  0
  2  5  1  0  0  0  0
  5  6  2  0  0  0  0
  5  7  1  0  0  0  0
  7  8  1  0  0  0  0
  7  9  1  0  0  0  0
  9 10  1  0  0  0  0
  9 11  1  0  0  0  0
  9 24  1  0  0  0  0
 11 12  1  0  0  0  0
 11 13  1  0  0  0  0
 11 14  1  0  0  0  0
 14 15  1  0  0  0  0
 14 16  1  0  0  0  0
 14 20  1  0  0  0  0
 16 17  1  0  0  0  0
 16 18  1  0  0  0  0
 16 19  1  0  0  0  0
 20 21  1  0  0  0  0
 20 22  1  0  0  0  0
 20 23  1  0  0  0  0
 24 25  2  0  0  0  0
 24 26  1  0  0  0  0
 26 27  1  0  0  0  0
 26 28  1  0  0  0  0
 28 29  1  0  0  0  0
 28 30  1  0  0  0  0
 28 31  1  0  0  0  0
M  END
$$$$

  -OEChem-01062216083D

 31 30  0     1  0  0  0  0  0999 V2000
   -3.6120   -2.7701    1.0929 H   0  0  0  0  0  0  0  0  0  0  0  0
   -3.5126   -1.8261    0.5495 C   0  0  0  0  0  0  0  0  0  0  0  0
   -4.2915   -1.1404    0.8917 H   0  0  0  0  0  0  0  0  0  0  0  0
   -3.6477   -2.0206   -0.5170 H   0  0  0  0  0  0  0  0  0  0  0  0
   -2.1429   -1.2222    0.7980 C   0  0  0  0  0  0  0  0  0  0  0  0
   -1.4029   -1.7392    1.6153 O   0  0  0  0  0  0  0  0  0  0  0  0
   -1.8003   -0.0427    0.1653 N   0  0  0  0  0  0  0  0  0  0  0  0
   -2.5405    0.3976   -0.3702 H   0  0  0  0  0  0  0  0  0  0  0  0
   -0.4854    0.6366    0.2159 C   0  0  1  0  0  0  0  0  0  0  0  0
   -0.1255    0.6626    1.2500 H   0  0  0  0  0  0  0  0  0  0  0  0
    0.5759   -0.0240   -0.7075 C   0  0  0  0  0  0  0  0  0  0  0  0
    0.1707   -0.0399   -1.7245 H   0  0  0  0  0  0  0  0  0  0  0  0
    1.4636    0.6191   -0.7241 H   0  0  0  0  0  0  0  0  0  0  0  0
    1.0431   -1.4514   -0.3580 C   0  0  0  0  0  0  0  0  0  0  0  0
    0.1849   -2.1248   -0.3047 H   0  0  0  0  0  0  0  0  0  0  0  0
    1.9674   -1.9686   -1.4668 C   0  0  0  0  0  0  0  0  0  0  0  0
    2.8497   -1.3283   -1.5666 H   0  0  0  0  0  0  0  0  0  0  0  0
    2.3007   -2.9863   -1.2402 H   0  0  0  0  0  0  0  0  0  0  0  0
    1.4406   -1.9873   -2.4257 H   0  0  0  0  0  0  0  0  0  0  0  0
    1.8029   -1.4795    0.9763 C   0  0  0  0  0  0  0  0  0  0  0  0
    1.1631   -1.1536    1.8003 H   0  0  0  0  0  0  0  0  0  0  0  0
    2.1437   -2.4957    1.1966 H   0  0  0  0  0  0  0  0  0  0  0  0
    2.6764   -0.8211    0.9377 H   0  0  0  0  0  0  0  0  0  0  0  0
   -0.5932    2.0923   -0.2891 C   0  0  0  0  0  0  0  0  0  0  0  0
    0.1451    2.9533    0.1675 O   0  0  0  0  0  0  0  0  0  0  0  0
   -1.5320    2.4504   -1.2441 N   0  0  0  0  0  0  0  0  0  0  0  0
   -1.9849    1.6966   -1.7487 H   0  0  0  0  0  0  0  0  0  0  0  0
   -1.6205    3.8001   -1.7898 C   0  0  0  0  0  0  0  0  0  0  0  0
   -0.6793    4.0816   -2.2739 H   0  0  0  0  0  0  0  0  0  0  0  0
   -2.4231    3.8571   -2.5312 H   0  0  0  0  0  0  0  0  0  0  0  0
   -1.8356    4.5206   -0.9935 H   0  0  0  0  0  0  0  0  0  0  0  0
  1  2  1  0  0  0  0
  2  3  1  0  0  0  0
  2  4  1  0  0  0  0
  2  5  1  0  0  0  0
  5  6  2  0  0  0  0
  5  7  1  0  0  0  0
  7  8  1  0  0  0  0
  7  9  1  0  0  0  0
  9 10  1  0  0  0  0
  9 11  1  0  0  0  0
  9 24  1  0  0  0  0
 11 12  1  0  0  0  0
 11 13  1  0  0  0  0
 11 14  1  0  0  0  0
 14 15  1  0  0  0  0
 14 16  1  0  0  0  0
 14 20  1  0  0  0  0
 16 17  1  0  0  0  0
 16 18  1  0  0  0  0
 16 19  1  0  0  0  0
 20 21  1  0  0  0  0
 20 22  1  0  0  0  0
 20 23  1  0  0  0  0
 24 25  2  0  0  0  0
 24 26  1  0  0  0  0
 26 27  1  0  0  0  0
 26 28  1  0  0  0  0
 28 29  1  0  0  0  0
 28 30  1  0  0  0  0
 28 31  1  0  0  0  0
M  END
$$$$

  -OEChem-01062216083D

 31 30  0     1  0  0  0  0  0999 V2000
   -3.3730   -2.8798    1.0466 H   0  0  0  0  0  0  0  0  0  0  0  0
   -3.3159   -1.9658    0.4484 C   0  0  0  0  0  0  0  0  0  0  0  0
   -4.2299   -1.3873    0.6024 H   0  0  0  0  0  0  0  0  0  0  0  0
   -3.2385   -2.2420   -0.6058 H   0  0  0  0  0  0  0  0  0  0  0  0
   -2.1077   -1.1470    0.8631 C   0  0  0  0  0  0  0  0  0  0  0  0
   -1.4444   -1.4972    1.8228 O   0  0  0  0  0  0  0  0  0  0  0  0
   -1.8148    0.0235    0.1905 N   0  0  0  0  0  0  0  0  0  0  0  0
   -2.3742    0.1594   -0.6441 H   0  0  0  0  0  0  0  0  0  0  0  0
   -0.4892    0.6855    0.1993 C   0  0  1  0  0  0  0  0  0  0  0  0
   -0.1070    0.7237    1.2246 H   0  0  0  0  0  0  0  0  0  0  0  0
    0.5309   -0.0415   -0.7233 C   0  0  0  0  0  0  0  0  0  0  0  0
    0.1015   -0.0812   -1.7297 H   0  0  0  0  0  0  0  0  0  0  0  0
    1.4389    0.5690   -0.7871 H   0  0  0  0  0  0  0  0  0  0  0  0
    0.9653   -1.4684   -0.3239 C   0  0  0  0  0  0  0  0  0  0  0  0
    0.0926   -2.1159   -0.2173 H   0  0  0  0  0  0  0  0  0  0  0  0
    1.8464   -2.0567   -1.4323 C   0  0  0  0  0  0  0  0  0  0  0  0
    2.7444   -1.4476   -1.5773 H   0  0  0  0  0  0  0  0  0  0  0  0
    2.1551   -3.0743   -1.1733 H   0  0  0  0  0  0  0  0  0  0  0  0
    1.2964   -2.0966   -2.3775 H   0  0  0  0  0  0  0  0  0  0  0  0
    1.7611   -1.4638    0.9898 C   0  0  0  0  0  0  0  0  0  0  0  0
    1.1563   -1.0836    1.8167 H   0  0  0  0  0  0  0  0  0  0  0  0
    2.0770   -2.4800    1.2443 H   0  0  0  0  0  0  0  0  0  0  0  0
    2.6527   -0.8353    0.8988 H   0  0  0  0  0  0  0  0  0  0  0  0
   -0.5711    2.1440   -0.3148 C   0  0  0  0  0  0  0  0  0  0  0  0
    0.3929    2.8886   -0.2002 O   0  0  0  0  0  0  0  0  0  0  0  0
   -1.6844    2.6074   -0.9976 N   0  0  0  0  0  0  0  0  0  0  0  0
   -2.5277    2.0510   -0.9251 H   0  0  0  0  0  0  0  0  0  0  0  0
   -1.8029    3.9810   -1.4741 C   0  0  0  0  0  0  0  0  0  0  0  0
   -0.9840    4.2211   -2.1606 H   0  0  0  0  0  0  0  0  0  0  0  0
   -2.7484    4.1158   -2.0079 H   0  0  0  0  0  0  0  0  0  0  0  0
   -1.7748    4.6826   -0.6336 H   0  0  0  0  0  0  0  0  0  0  0  0
  1  2  1  0  0  0  0
  2  3  1  0  0  0  0
  2  4  1  0  0  0  0
  2  5  1  0  0  0  0
  5  6  2  0  0  0  0
  5  7  1  0  0  0  0
  7  8  1  0  0  0  0
  7  9  1  0  0  0  0
  9 10  1  0  0  0  0
  9 11  1  0  0  0  0
  9 24  1  0  0  0  0
 11 12  1  0  0  0  0
 11 13  1  0  0  0  0
 11 14  1  0  0  0  0
 14 15  1  0  0  0  0
 14 16  1  0  0  0  0
 14 20  1  0  0  0  0
 16 17  1  0  0  0  0
 16 18  1  0  0  0  0
 16 19  1  0  0  0  0
 20 21  1  0  0  0  0
 20 22  1  0  0  0  0
 20 23  1  0  0  0  0
 24 25  2  0  0  0  0
 24 26  1  0  0  0  0
 26 27  1  0  0  0  0
 26 28  1  0  0  0  0
 28 29  1  0  0  0  0
 28 30  1  0  0  0  0
 28 31  1  0  0  0  0
M  END
$$$$

  -OEChem-01062216083D

 31 30  0     1  0  0  0  0  0999 V2000
   -3.3929   -2.8490    1.0486 H   0  0  0  0  0  0  0  0  0  0  0  0
   -3.3040   -1.9564    0.4227 C   0  0  0  0  0  0  0  0  0  0  0  0
   -4.2158   -1.3633    0.5251 H   0  0  0  0  0  0  0  0  0  0  0  0
   -3.1937   -2.2685   -0.6186 H   0  0  0  0  0  0  0  0  0  0  0  0
   -2.1001   -1.1379    0.8505 C   0  0  0  0  0  0  0  0  0  0  0  0
   -1.4479   -1.4843    1.8194 O   0  0  0  0  0  0  0  0  0  0  0  0
   -1.8010    0.0341    0.1838 N   0  0  0  0  0  0  0  0  0  0  0  0
   -2.3548    0.1759   -0.6554 H   0  0  0  0  0  0  0  0  0  0  0  0
   -0.4717    0.6896    0.1906 C   0  0  1  0  0  0  0  0  0  0  0  0
   -0.0876    0.7299    1.2150 H   0  0  0  0  0  0  0  0  0  0  0  0
    0.5442   -0.0503   -0.7299 C   0  0  0  0  0  0  0  0  0  0  0  0
    0.1139   -0.0909   -1.7359 H   0  0  0  0  0  0  0  0  0  0  0  0
    1.4584    0.5499   -0.7979 H   0  0  0  0  0  0  0  0  0  0  0  0
    0.9690   -1.4782   -0.3231 C   0  0  0  0  0  0  0  0  0  0  0  0
    0.0919   -2.1190   -0.2135 H   0  0  0  0  0  0  0  0  0  0  0  0
    1.8457   -2.0800   -1.4276 C   0  0  0  0  0  0  0  0  0  0  0  0
    2.7489   -1.4794   -1.5754 H   0  0  0  0  0  0  0  0  0  0  0  0
    2.1455   -3.0987   -1.1626 H   0  0  0  0  0  0  0  0  0  0  0  0
    1.2957   -2.1206   -2.3729 H   0  0  0  0  0  0  0  0  0  0  0  0
    1.7637   -1.4711    0.9912 C   0  0  0  0  0  0  0  0  0  0  0  0
    1.1587   -1.0865    1.8161 H   0  0  0  0  0  0  0  0  0  0  0  0
    2.0774   -2.4870    1.2501 H   0  0  0  0  0  0  0  0  0  0  0  0
    2.6567   -0.8449    0.8983 H   0  0  0  0  0  0  0  0  0  0  0  0
   -0.5725    2.1502   -0.3196 C   0  0  0  0  0  0  0  0  0  0  0  0
    0.4291    2.8424   -0.4432 O   0  0  0  0  0  0  0  0  0  0  0  0
   -1.7921    2.6822   -0.7064 N   0  0  0  0  0  0  0  0  0  0  0  0
   -2.6156    2.1809   -0.3900 H   0  0  0  0  0  0  0  0  0  0  0  0
   -1.9493    4.0705   -1.1257 C   0  0  0  0  0  0  0  0  0  0  0  0
   -1.3144    4.2843   -1.9921 H   0  0  0  0  0  0  0  0  0  0  0  0
   -2.9889    4.2650   -1.4061 H   0  0  0  0  0  0  0  0  0  0  0  0
   -1.6754    4.7505   -0.3121 H   0  0  0  0  0  0  0  0  0  0  0  0
  1  2  1  0  0  0  0
  2  3  1  0  0  0  0
  2  4  1  0  0  0  0
  2  5  1  0  0  0  0
  5  6  2  0  0  0  0
  5  7  1  0  0  0  0
  7  8  1  0  0  0  0
  7  9  1  0  0  0  0
  9 10  1  0  0  0  0
  9 11  1  0  0  0  0
  9 24  1  0  0  0  0
 11 12  1  0  0  0  0
 11 13  1  0  0  0  0
 11 14  1  0  0  0  0
 14 15  1  0  0  0  0
 14 16  1  0  0  0  0
 14 20  1  0  0  0  0
 16 17  1  0  0  0  0
 16 18  1  0  0  0  0
 16 19  1  0  0  0  0
 20 21  1  0  0  0  0
 20 22  1  0  0  0  0
 20 23  1  0  0  0  0
 24 25  2  0  0  0  0
 24 26  1  0  0  0  0
 26 27  1  0  0  0  0
 26 28  1  0  0  0  0
 28 29  1  0  0  0  0
 28 30  1  0  0  0  0
 28 31  1  0  0  0  0
M  END
$$$$

  -OEChem-01062216083D

 31 30  0     1  0  0  0  0  0999 V2000
   -3.3737   -2.8578    0.9911 H   0  0  0  0  0  0  0  0  0  0  0  0
   -3.3070   -1.9357    0.4066 C   0  0  0  0  0  0  0  0  0  0  0  0
   -4.2185   -1.3536    0.5619 H   0  0  0  0  0  0  0  0  0  0  0  0
   -3.2236   -2.1972   -0.6510 H   0  0  0  0  0  0  0  0  0  0  0  0
   -2.0963   -1.1303    0.8391 C   0  0  0  0  0  0  0  0  0  0  0  0
   -1.4477   -1.4865    1.8069 O   0  0  0  0  0  0  0  0  0  0  0  0
   -1.7875    0.0441    0.1816 N   0  0  0  0  0  0  0  0  0  0  0  0
   -2.3538    0.2155   -0.6445 H   0  0  0  0  0  0  0  0  0  0  0  0
   -0.4554    0.6926    0.1899 C   0  0  1  0  0  0  0  0  0  0  0  0
   -0.0714    0.7312    1.2139 H   0  0  0  0  0  0  0  0  0  0  0  0
    0.5581   -0.0552   -0.7285 C   0  0  0  0  0  0  0  0  0  0  0  0
    0.1306   -0.0917   -1.7359 H   0  0  0  0  0  0  0  0  0  0  0  0
    1.4778    0.5367   -0.7915 H   0  0  0  0  0  0  0  0  0  0  0  0
    0.9750   -1.4851   -0.3205 C   0  0  0  0  0  0  0  0  0  0  0  0
    0.0949   -2.1219   -0.2129 H   0  0  0  0  0  0  0  0  0  0  0  0
    1.8497   -2.0906   -1.4248 C   0  0  0  0  0  0  0  0  0  0  0  0
    2.7553   -1.4936   -1.5733 H   0  0  0  0  0  0  0  0  0  0  0  0
    2.1456   -3.1107   -1.1598 H   0  0  0  0  0  0  0  0  0  0  0  0
    1.2997   -2.1293   -2.3703 H   0  0  0  0  0  0  0  0  0  0  0  0
    1.7678   -1.4837    0.9948 C   0  0  0  0  0  0  0  0  0  0  0  0
    1.1635   -1.0974    1.8192 H   0  0  0  0  0  0  0  0  0  0  0  0
    2.0756   -2.5017    1.2524 H   0  0  0  0  0  0  0  0  0  0  0  0
    2.6645   -0.8627    0.9044 H   0  0  0  0  0  0  0  0  0  0  0  0
   -0.5736    2.1558   -0.3144 C   0  0  0  0  0  0  0  0  0  0  0  0
    0.4048    2.7909   -0.6854 O   0  0  0  0  0  0  0  0  0  0  0  0
   -1.8157    2.7639   -0.3911 N   0  0  0  0  0  0  0  0  0  0  0  0
   -2.5736    2.2921    0.0933 H   0  0  0  0  0  0  0  0  0  0  0  0
   -1.9961    4.1589   -0.7771 C   0  0  0  0  0  0  0  0  0  0  0  0
   -1.5819    4.3377   -1.7751 H   0  0  0  0  0  0  0  0  0  0  0  0
   -3.0604    4.4117   -0.7970 H   0  0  0  0  0  0  0  0  0  0  0  0
   -1.4944    4.8219   -0.0644 H   0  0  0  0  0  0  0  0  0  0  0  0
  1  2  1  0  0  0  0
  2  3  1  0  0  0  0
  2  4  1  0  0  0  0
  2  5  1  0  0  0  0
  5  6  2  0  0  0  0
  5  7  1  0  0  0  0
  7  8  1  0  0  0  0
  7  9  1  0  0  0  0
  9 10  1  0  0  0  0
  9 11  1  0  0  0  0
  9 24  1  0  0  0  0
 11 12  1  0  0  0  0
 11 13  1  0  0  0  0
 11 14  1  0  0  0  0
 14 15  1  0  0  0  0
 14 16  1  0  0  0  0
 14 20  1  0  0  0  0
 16 17  1  0  0  0  0
 16 18  1  0  0  0  0
 16 19  1  0  0  0  0
 20 21  1  0  0  0  0
 20 22  1  0  0  0  0
 20 23  1  0  0  0  0
 24 25  2  0  0  0  0
 24 26  1  0  0  0  0
 26 27  1  0  0  0  0
 26 28  1  0  0  0  0
 28 29  1  0  0  0  0
 28 30  1  0  0  0  0
 28 31  1  0  0  0  0
M  END
$$$$

  -OEChem-01062216083D

 31 30  0     1  0  0  0  0  0999 V2000
   -3.4173   -2.8175    0.9780 H   0  0  0  0  0  0  0  0  0  0  0  0
   -3.3316   -1.8958    0.3956 C   0  0  0  0  0  0  0  0  0  0  0  0
   -4.2254   -1.2898    0.5612 H   0  0  0  0  0  0  0  0  0  0  0  0
   -3.2651   -2.1554   -0.6637 H   0  0  0  0  0  0  0  0  0  0  0  0
   -2.0962   -1.1247    0.8198 C   0  0  0  0  0  0  0  0  0  0  0  0
   -1.4467   -1.5020    1.7791 O   0  0  0  0  0  0  0  0  0  0  0  0
   -1.7726    0.0522    0.1751 N   0  0  0  0  0  0  0  0  0  0  0  0
   -2.3564    0.2622   -0.6304 H   0  0  0  0  0  0  0  0  0  0  0  0
   -0.4366    0.6905    0.1839 C   0  0  1  0  0  0  0  0  0  0  0  0
   -0.0529    0.7263    1.2081 H   0  0  0  0  0  0  0  0  0  0  0  0
    0.5788   -0.0601   -0.7299 C   0  0  0  0  0  0  0  0  0  0  0  0
    0.1559   -0.0952   -1.7394 H   0  0  0  0  0  0  0  0  0  0  0  0
    1.5000    0.5298   -0.7876 H   0  0  0  0  0  0  0  0  0  0  0  0
    0.9898   -1.4911   -0.3206 C   0  0  0  0  0  0  0  0  0  0  0  0
    0.1069   -2.1252   -0.2174 H   0  0  0  0  0  0  0  0  0  0  0  0
    1.8677   -2.0981   -1.4216 C   0  0  0  0  0  0  0  0  0  0  0  0
    2.7739   -1.5015   -1.5686 H   0  0  0  0  0  0  0  0  0  0  0  0
    2.1628   -3.1177   -1.1543 H   0  0  0  0  0  0  0  0  0  0  0  0
    1.3202   -2.1381   -2.3683 H   0  0  0  0  0  0  0  0  0  0  0  0
    1.7768   -1.4933    0.9983 C   0  0  0  0  0  0  0  0  0  0  0  0
    1.1690   -1.1087    1.8211 H   0  0  0  0  0  0  0  0  0  0  0  0
    2.0826   -2.5124    1.2544 H   0  0  0  0  0  0  0  0  0  0  0  0
    2.6743   -0.8726    0.9130 H   0  0  0  0  0  0  0  0  0  0  0  0
   -0.5717    2.1556   -0.3101 C   0  0  0  0  0  0  0  0  0  0  0  0
    0.3153    2.7279   -0.9301 O   0  0  0  0  0  0  0  0  0  0  0  0
   -1.7520    2.8403   -0.0770 N   0  0  0  0  0  0  0  0  0  0  0  0
   -2.4191    2.3902    0.5436 H   0  0  0  0  0  0  0  0  0  0  0  0
   -1.9512    4.2410   -0.4304 C   0  0  0  0  0  0  0  0  0  0  0  0
   -1.8136    4.3881   -1.5068 H   0  0  0  0  0  0  0  0  0  0  0  0
   -2.9649    4.5571   -0.1668 H   0  0  0  0  0  0  0  0  0  0  0  0
   -1.2385    4.8765    0.1058 H   0  0  0  0  0  0  0  0  0  0  0  0
  1  2  1  0  0  0  0
  2  3  1  0  0  0  0
  2  4  1  0  0  0  0
  2  5  1  0  0  0  0
  5  6  2  0  0  0  0
  5  7  1  0  0  0  0
  7  8  1  0  0  0  0
  7  9  1  0  0  0  0
  9 10  1  0  0  0  0
  9 11  1  0  0  0  0
  9 24  1  0  0  0  0
 11 12  1  0  0  0  0
 11 13  1  0  0  0  0
 11 14  1  0  0  0  0
 14 15  1  0  0  0  0
 14 16  1  0  0  0  0
 14 20  1  0  0  0  0
 16 17  1  0  0  0  0
 16 18  1  0  0  0  0
 16 19  1  0  0  0  0
 20 21  1  0  0  0  0
 20 22  1  0  0  0  0
 20 23  1  0  0  0  0
 24 25  2  0  0  0  0
 24 26  1  0  0  0  0
 26 27  1  0  0  0  0
 26 28  1  0  0  0  0
 28 29  1  0  0  0  0
 28 30  1  0  0  0  0
 28 31  1  0  0  0  0
M  END
$$$$

  -OEChem-01062216083D

 31 30  0     1  0  0  0  0  0999 V2000
   -3.4084   -2.8159    0.9252 H   0  0  0  0  0  0  0  0  0  0  0  0
   -3.3422   -1.8655    0.3881 C   0  0  0  0  0  0  0  0  0  0  0  0
   -4.2321   -1.2719    0.6102 H   0  0  0  0  0  0  0  0  0  0  0  0
   -3.3066   -2.0716   -0.6843 H   0  0  0  0  0  0  0  0  0  0  0  0
   -2.0966   -1.1121    0.8143 C   0  0  0  0  0  0  0  0  0  0  0  0
   -1.4476   -1.5053    1.7678 O   0  0  0  0  0  0  0  0  0  0  0  0
   -1.7607    0.0667    0.1801 N   0  0  0  0  0  0  0  0  0  0  0  0
   -2.3521    0.3037   -0.6124 H   0  0  0  0  0  0  0  0  0  0  0  0
   -0.4199    0.6908    0.1923 C   0  0  1  0  0  0  0  0  0  0  0  0
   -0.0354    0.7186    1.2164 H   0  0  0  0  0  0  0  0  0  0  0  0
    0.5950   -0.0587   -0.7224 C   0  0  0  0  0  0  0  0  0  0  0  0
    0.1748   -0.0868   -1.7333 H   0  0  0  0  0  0  0  0  0  0  0  0
    1.5167    0.5318   -0.7729 H   0  0  0  0  0  0  0  0  0  0  0  0
    0.9973   -1.4944   -0.3217 C   0  0  0  0  0  0  0  0  0  0  0  0
    0.1099   -2.1236   -0.2281 H   0  0  0  0  0  0  0  0  0  0  0  0
    1.8765   -2.0979   -1.4236 C   0  0  0  0  0  0  0  0  0  0  0  0
    2.7886   -1.5076   -1.5585 H   0  0  0  0  0  0  0  0  0  0  0  0
    2.1612   -3.1225   -1.1647 H   0  0  0  0  0  0  0  0  0  0  0  0
    1.3351   -2.1234   -2.3744 H   0  0  0  0  0  0  0  0  0  0  0  0
    1.7763   -1.5126    1.0014 C   0  0  0  0  0  0  0  0  0  0  0  0
    1.1669   -1.1289    1.8235 H   0  0  0  0  0  0  0  0  0  0  0  0
    2.0720   -2.5361    1.2519 H   0  0  0  0  0  0  0  0  0  0  0  0
    2.6792   -0.8988    0.9255 H   0  0  0  0  0  0  0  0  0  0  0  0
   -0.5596    2.1579   -0.2906 C   0  0  0  0  0  0  0  0  0  0  0  0
    0.1660    2.6512   -1.1449 O   0  0  0  0  0  0  0  0  0  0  0  0
   -1.5909    2.9272    0.2180 N   0  0  0  0  0  0  0  0  0  0  0  0
   -2.1468    2.5124    0.9611 H   0  0  0  0  0  0  0  0  0  0  0  0
   -1.8133    4.3227   -0.1408 C   0  0  0  0  0  0  0  0  0  0  0  0
   -1.9686    4.4214   -1.2203 H   0  0  0  0  0  0  0  0  0  0  0  0
   -2.7005    4.7074    0.3714 H   0  0  0  0  0  0  0  0  0  0  0  0
   -0.9523    4.9342    0.1490 H   0  0  0  0  0  0  0  0  0  0  0  0
  1  2  1  0  0  0  0
  2  3  1  0  0  0  0
  2  4  1  0  0  0  0
  2  5  1  0  0  0  0
  5  6  2  0  0  0  0
  5  7  1  0  0  0  0
  7  8  1  0  0  0  0
  7  9  1  0  0  0  0
  9 10  1  0  0  0  0
  9 11  1  0  0  0  0
  9 24  1  0  0  0  0
 11 12  1  0  0  0  0
 11 13  1  0  0  0  0
 11 14  1  0  0  0  0
 14 15  1  0  0  0  0
 14 16  1  0  0  0  0
 14 20  1  0  0  0  0
 16 17  1  0  0  0  0
 16 18  1  0  0  0  0
 16 19  1  0  0  0  0
 20 21  1  0  0  0  0
 20 22  1  0  0  0  0
 20 23  1  0  0  0  0
 24 25  2  0  0  0  0
 24 26  1  0  0  0  0
 26 27  1  0  0  0  0
 26 28  1  0  0  0  0
 28 29  1  0  0  0  0
 28 30  1  0  0  0  0
 28 31  1  0  0  0  0
M  END
$$$$

  -OEChem-01062216083D

 31 30  0     1  0  0  0  0  0999 V2000
   -3.4309   -2.7948    0.9214 H   0  0  0  0  0  0  0  0  0  0  0  0
   -3.3515   -1.8469    0.3814 C   0  0  0  0  0  0  0  0  0  0  0  0
   -4.2349   -1.2417    0.5988 H   0  0  0  0  0  0  0  0  0  0  0  0
   -3.3147   -2.0564   -0.6904 H   0  0  0  0  0  0  0  0  0  0  0  0
   -2.0977   -1.1076    0.8085 C   0  0  0  0  0  0  0  0  0  0  0  0
   -1.4479   -1.5140    1.7563 O   0  0  0  0  0  0  0  0  0  0  0  0
   -1.7541    0.0736    0.1836 N   0  0  0  0  0  0  0  0  0  0  0  0
   -2.3463    0.3252   -0.6041 H   0  0  0  0  0  0  0  0  0  0  0  0
   -0.4113    0.6890    0.2002 C   0  0  1  0  0  0  0  0  0  0  0  0
   -0.0264    0.7070    1.2244 H   0  0  0  0  0  0  0  0  0  0  0  0
    0.6038   -0.0566   -0.7157 C   0  0  0  0  0  0  0  0  0  0  0  0
    0.1834   -0.0832   -1.7267 H   0  0  0  0  0  0  0  0  0  0  0  0
    1.5231    0.5377   -0.7646 H   0  0  0  0  0  0  0  0  0  0  0  0
    1.0012   -1.4958   -0.3226 C   0  0  0  0  0  0  0  0  0  0  0  0
    0.1115   -2.1230   -0.2359 H   0  0  0  0  0  0  0  0  0  0  0  0
    1.8819   -2.0949   -1.4253 C   0  0  0  0  0  0  0  0  0  0  0  0
    2.7964   -1.5069   -1.5538 H   0  0  0  0  0  0  0  0  0  0  0  0
    2.1617   -3.1224   -1.1727 H   0  0  0  0  0  0  0  0  0  0  0  0
    1.3426   -2.1121   -2.3775 H   0  0  0  0  0  0  0  0  0  0  0  0
    1.7771   -1.5244    1.0023 C   0  0  0  0  0  0  0  0  0  0  0  0
    1.1658   -1.1460    1.8253 H   0  0  0  0  0  0  0  0  0  0  0  0
    2.0706   -2.5500    1.2463 H   0  0  0  0  0  0  0  0  0  0  0  0
    2.6813   -0.9115    0.9334 H   0  0  0  0  0  0  0  0  0  0  0  0
   -0.5465    2.1580   -0.2717 C   0  0  0  0  0  0  0  0  0  0  0  0
   -0.0312    2.5764   -1.3011 O   0  0  0  0  0  0  0  0  0  0  0  0
   -1.3553    3.0121    0.4553 N   0  0  0  0  0  0  0  0  0  0  0  0
   -1.7838    2.6374    1.2976 H   0  0  0  0  0  0  0  0  0  0  0  0
   -1.5880    4.4063    0.0982 C   0  0  0  0  0  0  0  0  0  0  0  0
   -2.0351    4.4778   -0.8989 H   0  0  0  0  0  0  0  0  0  0  0  0
   -2.2700    4.8713    0.8164 H   0  0  0  0  0  0  0  0  0  0  0  0
   -0.6463    4.9651    0.1030 H   0  0  0  0  0  0  0  0  0  0  0  0
  1  2  1  0  0  0  0
  2  3  1  0  0  0  0
  2  4  1  0  0  0  0
  2  5  1  0  0  0  0
  5  6  2  0  0  0  0
  5  7  1  0  0  0  0
  7  8  1  0  0  0  0
  7  9  1  0  0  0  0
  9 10  1  0  0  0  0
  9 11  1  0  0  0  0
  9 24  1  0  0  0  0
 11 12  1  0  0  0  0
 11 13  1  0  0  0  0
 11 14  1  0  0  0  0
 14 15  1  0  0  0  0
 14 16  1  0  0  0  0
 14 20  1  0  0  0  0
 16 17  1  0  0  0  0
 16 18  1  0  0  0  0
 16 19  1  0  0  0  0
 20 21  1  0  0  0  0
 20 22  1  0  0  0  0
 20 23  1  0  0  0  0
 24 25  2  0  0  0  0
 24 26  1  0  0  0  0
 26 27  1  0  0  0  0
 26 28  1  0  0  0  0
 28 29  1  0  0  0  0
 28 30  1  0  0  0  0
 28 31  1  0  0  0  0
M  END
$$$$

  -OEChem-01062216083D

 31 30  0     1  0  0  0  0  0999 V2000
   -3.4506   -2.7807    0.9123 H   0  0  0  0  0  0  0  0  0  0  0  0
   -3.3631   -1.8309    0.3772 C   0  0  0  0  0  0  0  0  0  0  0  0
   -4.2402   -1.2184    0.5996 H   0  0  0  0  0  0  0  0  0  0  0  0
   -3.3306   -2.0352   -0.6957 H   0  0  0  0  0  0  0  0  0  0  0  0
   -2.1019   -1.1054    0.8057 C   0  0  0  0  0  0  0  0  0  0  0  0
   -1.4517   -1.5248    1.7480 O   0  0  0  0  0  0  0  0  0  0  0  0
   -1.7494    0.0761    0.1872 N   0  0  0  0  0  0  0  0  0  0  0  0
   -2.3414    0.3416   -0.5964 H   0  0  0  0  0  0  0  0  0  0  0  0
   -0.4053    0.6847    0.2097 C   0  0  1  0  0  0  0  0  0  0  0  0
   -0.0215    0.6925    1.2341 H   0  0  0  0  0  0  0  0  0  0  0  0
    0.6118   -0.0534   -0.7089 C   0  0  0  0  0  0  0  0  0  0  0  0
    0.1934   -0.0763   -1.7211 H   0  0  0  0  0  0  0  0  0  0  0  0
    1.5289    0.5445   -0.7544 H   0  0  0  0  0  0  0  0  0  0  0  0
    1.0049   -1.4959   -0.3245 C   0  0  0  0  0  0  0  0  0  0  0  0
    0.1129   -2.1207   -0.2443 H   0  0  0  0  0  0  0  0  0  0  0  0
    1.8891   -2.0903   -1.4272 C   0  0  0  0  0  0  0  0  0  0  0  0
    2.8067   -1.5053   -1.5464 H   0  0  0  0  0  0  0  0  0  0  0  0
    2.1636   -3.1209   -1.1808 H   0  0  0  0  0  0  0  0  0  0  0  0
    1.3559   -2.0984   -2.3829 H   0  0  0  0  0  0  0  0  0  0  0  0
    1.7767   -1.5351    1.0028 C   0  0  0  0  0  0  0  0  0  0  0  0
    1.1653   -1.1592    1.8269 H   0  0  0  0  0  0  0  0  0  0  0  0
    2.0657   -2.5632    1.2417 H   0  0  0  0  0  0  0  0  0  0  0  0
    2.6836   -0.9256    0.9397 H   0  0  0  0  0  0  0  0  0  0  0  0
   -0.5300    2.1543   -0.2559 C   0  0  0  0  0  0  0  0  0  0  0  0
   -0.2708    2.5026   -1.4014 O   0  0  0  0  0  0  0  0  0  0  0  0
   -1.0633    3.0854    0.6160 N   0  0  0  0  0  0  0  0  0  0  0  0
   -1.3338    2.7557    1.5387 H   0  0  0  0  0  0  0  0  0  0  0  0
   -1.3013    4.4798    0.2633 C   0  0  0  0  0  0  0  0  0  0  0  0
   -2.0009    4.5492   -0.5762 H   0  0  0  0  0  0  0  0  0  0  0  0
   -1.7289    5.0173    1.1152 H   0  0  0  0  0  0  0  0  0  0  0  0
   -0.3631    4.9691   -0.0184 H   0  0  0  0  0  0  0  0  0  0  0  0
  1  2  1  0  0  0  0
  2  3  1  0  0  0  0
  2  4  1  0  0  0  0
  2  5  1  0  0  0  0
  5  6  2  0  0  0  0
  5  7  1  0  0  0  0
  7  8  1  0  0  0  0
  7  9  1  0  0  0  0
  9 10  1  0  0  0  0
  9 11  1  0  0  0  0
  9 24  1  0  0  0  0
 11 12  1  0  0  0  0
 11 13  1  0  0  0  0
 11 14  1  0  0  0  0
 14 15  1  0  0  0  0
 14 16  1  0  0  0  0
 14 20  1  0  0  0  0
 16 17  1  0  0  0  0
 16 18  1  0  0  0  0
 16 19  1  0  0  0  0
 20 21  1  0  0  0  0
 20 22  1  0  0  0  0
 20 23  1  0  0  0  0
 24 25  2  0  0  0  0
 24 26  1  0  0  0  0
 26 27  1  0  0  0  0
 26 28  1  0  0  0  0
 28 29  1  0  0  0  0
 28 30  1  0  0  0  0
 28 31  1  0  0  0  0
M  END
$$$$

  -OEChem-01062216083D

 31 30  0     1  0  0  0  0  0999 V2000
   -3.4965   -2.7462    0.9337 H   0  0  0  0  0  0  0  0  0  0  0  0
   -3.3786   -1.8133    0.3753 C   0  0  0  0  0  0  0  0  0  0  0  0
   -4.2444   -1.1751    0.5677 H   0  0  0  0  0  0  0  0  0  0  0  0
   -3.3343   -2.0458   -0.6915 H   0  0  0  0  0  0  0  0  0  0  0  0
   -2.1074   -1.1054    0.8039 C   0  0  0  0  0  0  0  0  0  0  0  0
   -1.4576   -1.5382    1.7406 O   0  0  0  0  0  0  0  0  0  0  0  0
   -1.7432    0.0745    0.1894 N   0  0  0  0  0  0  0  0  0  0  0  0
   -2.3328    0.3543   -0.5914 H   0  0  0  0  0  0  0  0  0  0  0  0
   -0.3987    0.6782    0.2213 C   0  0  1  0  0  0  0  0  0  0  0  0
   -0.0198    0.6770    1.2476 H   0  0  0  0  0  0  0  0  0  0  0  0
    0.6213   -0.0495   -0.7002 C   0  0  0  0  0  0  0  0  0  0  0  0
    0.2071   -0.0643   -1.7144 H   0  0  0  0  0  0  0  0  0  0  0  0
    1.5378    0.5498   -0.7366 H   0  0  0  0  0  0  0  0  0  0  0  0
    1.0101   -1.4962   -0.3273 C   0  0  0  0  0  0  0  0  0  0  0  0
    0.1166   -2.1203   -0.2567 H   0  0  0  0  0  0  0  0  0  0  0  0
    1.8988   -2.0813   -1.4315 C   0  0  0  0  0  0  0  0  0  0  0  0
    2.8111   -1.4881   -1.5511 H   0  0  0  0  0  0  0  0  0  0  0  0
    2.1826   -3.1097   -1.1870 H   0  0  0  0  0  0  0  0  0  0  0  0
    1.3636   -2.0929   -2.3861 H   0  0  0  0  0  0  0  0  0  0  0  0
    1.7752   -1.5483    1.0032 C   0  0  0  0  0  0  0  0  0  0  0  0
    1.1561   -1.1879    1.8283 H   0  0  0  0  0  0  0  0  0  0  0  0
    2.0695   -2.5777    1.2299 H   0  0  0  0  0  0  0  0  0  0  0  0
    2.6783   -0.9319    0.9536 H   0  0  0  0  0  0  0  0  0  0  0  0
   -0.5120    2.1467   -0.2443 C   0  0  0  0  0  0  0  0  0  0  0  0
   -0.5305    2.4398   -1.4338 O   0  0  0  0  0  0  0  0  0  0  0  0
   -0.7433    3.1377    0.6917 N   0  0  0  0  0  0  0  0  0  0  0  0
   -0.8231    2.8515    1.6637 H   0  0  0  0  0  0  0  0  0  0  0  0
   -0.9773    4.5341    0.3448 C   0  0  0  0  0  0  0  0  0  0  0  0
   -1.8826    4.6315   -0.2635 H   0  0  0  0  0  0  0  0  0  0  0  0
   -1.1034    5.1330    1.2518 H   0  0  0  0  0  0  0  0  0  0  0  0
   -0.1287    4.9363   -0.2185 H   0  0  0  0  0  0  0  0  0  0  0  0
  1  2  1  0  0  0  0
  2  3  1  0  0  0  0
  2  4  1  0  0  0  0
  2  5  1  0  0  0  0
  5  6  2  0  0  0  0
  5  7  1  0  0  0  0
  7  8  1  0  0  0  0
  7  9  1  0  0  0  0
  9 10  1  0  0  0  0
  9 11  1  0  0  0  0
  9 24  1  0  0  0  0
 11 12  1  0  0  0  0
 11 13  1  0  0  0  0
 11 14  1  0  0  0  0
 14 15  1  0  0  0  0
 14 16  1  0  0  0  0
 14 20  1  0  0  0  0
 16 17  1  0  0  0  0
 16 18  1  0  0  0  0
 16 19  1  0  0  0  0
 20 21  1  0  0  0  0
 20 22  1  0  0  0  0
 20 23  1  0  0  0  0
 24 25  2  0  0  0  0
 24 26  1  0  0  0  0
 26 27  1  0  0  0  0
 26 28  1  0  0  0  0
 28 29  1  0  0  0  0
 28 30  1  0  0  0  0
 28 31  1  0  0  0  0
M  END
$$$$

  -OEChem-01062216083D

 31 30  0     1  0  0  0  0  0999 V2000
   -3.5273   -2.7311    0.9328 H   0  0  0  0  0  0  0  0  0  0  0  0
   -3.4041   -1.7928    0.3848 C   0  0  0  0  0  0  0  0  0  0  0  0
   -4.2559   -1.1435    0.6003 H   0  0  0  0  0  0  0  0  0  0  0  0
   -3.3822   -2.0117   -0.6855 H   0  0  0  0  0  0  0  0  0  0  0  0
   -2.1145   -1.1108    0.8003 C   0  0  0  0  0  0  0  0  0  0  0  0
   -1.4577   -1.5649    1.7222 O   0  0  0  0  0  0  0  0  0  0  0  0
   -1.7374    0.0654    0.1868 N   0  0  0  0  0  0  0  0  0  0  0  0
   -2.3318    0.3696   -0.5819 H   0  0  0  0  0  0  0  0  0  0  0  0
   -0.3941    0.6689    0.2293 C   0  0  1  0  0  0  0  0  0  0  0  0
   -0.0239    0.6648    1.2587 H   0  0  0  0  0  0  0  0  0  0  0  0
    0.6308   -0.0465   -0.6930 C   0  0  0  0  0  0  0  0  0  0  0  0
    0.2214   -0.0518   -1.7091 H   0  0  0  0  0  0  0  0  0  0  0  0
    1.5467    0.5540   -0.7190 H   0  0  0  0  0  0  0  0  0  0  0  0
    1.0187   -1.4953   -0.3300 C   0  0  0  0  0  0  0  0  0  0  0  0
    0.1245   -2.1198   -0.2694 H   0  0  0  0  0  0  0  0  0  0  0  0
    1.9143   -2.0704   -1.4335 C   0  0  0  0  0  0  0  0  0  0  0  0
    2.8290   -1.4785   -1.5389 H   0  0  0  0  0  0  0  0  0  0  0  0
    2.1931   -3.1024   -1.1983 H   0  0  0  0  0  0  0  0  0  0  0  0
    1.3867   -2.0697   -2.3924 H   0  0  0  0  0  0  0  0  0  0  0  0
    1.7768   -1.5567    1.0040 C   0  0  0  0  0  0  0  0  0  0  0  0
    1.1541   -1.2006    1.8283 H   0  0  0  0  0  0  0  0  0  0  0  0
    2.0685   -2.5879    1.2255 H   0  0  0  0  0  0  0  0  0  0  0  0
    2.6809   -0.9413    0.9628 H   0  0  0  0  0  0  0  0  0  0  0  0
   -0.4989    2.1339   -0.2437 C   0  0  0  0  0  0  0  0  0  0  0  0
   -0.7784    2.3945   -1.4082 O   0  0  0  0  0  0  0  0  0  0  0  0
   -0.4253    3.1625    0.6772 N   0  0  0  0  0  0  0  0  0  0  0  0
   -0.2975    2.9087    1.6529 H   0  0  0  0  0  0  0  0  0  0  0  0
   -0.6365    4.5637    0.3348 C   0  0  0  0  0  0  0  0  0  0  0  0
   -1.6511    4.7159   -0.0478 H   0  0  0  0  0  0  0  0  0  0  0  0
   -0.5018    5.1930    1.2197 H   0  0  0  0  0  0  0  0  0  0  0  0
    0.0804    4.8843   -0.4285 H   0  0  0  0  0  0  0  0  0  0  0  0
  1  2  1  0  0  0  0
  2  3  1  0  0  0  0
  2  4  1  0  0  0  0
  2  5  1  0  0  0  0
  5  6  2  0  0  0  0
  5  7  1  0  0  0  0
  7  8  1  0  0  0  0
  7  9  1  0  0  0  0
  9 10  1  0  0  0  0
  9 11  1  0  0  0  0
  9 24  1  0  0  0  0
 11 12  1  0  0  0  0
 11 13  1  0  0  0  0
 11 14  1  0  0  0  0
 14 15  1  0  0  0  0
 14 16  1  0  0  0  0
 14 20  1  0  0  0  0
 16 17  1  0  0  0  0
 16 18  1  0  0  0  0
 16 19  1  0  0  0  0
 20 21  1  0  0  0  0
 20 22  1  0  0  0  0
 20 23  1  0  0  0  0
 24 25  2  0  0  0  0
 24 26  1  0  0  0  0
 26 27  1  0  0  0  0
 26 28  1  0  0  0  0
 28 29  1  0  0  0  0
 28 30  1  0  0  0  0
 28 31  1  0  0  0  0
M  END
$$$$

  -OEChem-01062216083D

 31 30  0     1  0  0  0  0  0999 V2000
   -3.5617   -2.7182    0.9414 H   0  0  0  0  0  0  0  0  0  0  0  0
   -3.4300   -1.7795    0.3961 C   0  0  0  0  0  0  0  0  0  0  0  0
   -4.2672   -1.1165    0.6272 H   0  0  0  0  0  0  0  0  0  0  0  0
   -3.4279   -1.9932   -0.6754 H   0  0  0  0  0  0  0  0  0  0  0  0
   -2.1231   -1.1213    0.7961 C   0  0  0  0  0  0  0  0  0  0  0  0
   -1.4601   -1.5921    1.7053 O   0  0  0  0  0  0  0  0  0  0  0  0
   -1.7359    0.0515    0.1829 N   0  0  0  0  0  0  0  0  0  0  0  0
   -2.3410    0.3839   -0.5662 H   0  0  0  0  0  0  0  0  0  0  0  0
   -0.3956    0.6603    0.2344 C   0  0  1  0  0  0  0  0  0  0  0  0
   -0.0334    0.6574    1.2666 H   0  0  0  0  0  0  0  0  0  0  0  0
    0.6353   -0.0436   -0.6875 C   0  0  0  0  0  0  0  0  0  0  0  0
    0.2287   -0.0423   -1.7048 H   0  0  0  0  0  0  0  0  0  0  0  0
    1.5492    0.5600   -0.7065 H   0  0  0  0  0  0  0  0  0  0  0  0
    1.0273   -1.4926   -0.3314 C   0  0  0  0  0  0  0  0  0  0  0  0
    0.1349   -2.1206   -0.2776 H   0  0  0  0  0  0  0  0  0  0  0  0
    1.9298   -2.0560   -1.4353 C   0  0  0  0  0  0  0  0  0  0  0  0
    2.8421   -1.4591   -1.5335 H   0  0  0  0  0  0  0  0  0  0  0  0
    2.2127   -3.0882   -1.2064 H   0  0  0  0  0  0  0  0  0  0  0  0
    1.4056   -2.0509   -2.3961 H   0  0  0  0  0  0  0  0  0  0  0  0
    1.7802   -1.5589    1.0057 C   0  0  0  0  0  0  0  0  0  0  0  0
    1.1520   -1.2114    1.8297 H   0  0  0  0  0  0  0  0  0  0  0  0
    2.0762   -2.5900    1.2221 H   0  0  0  0  0  0  0  0  0  0  0  0
    2.6813   -0.9387    0.9723 H   0  0  0  0  0  0  0  0  0  0  0  0
   -0.4967    2.1218   -0.2477 C   0  0  0  0  0  0  0  0  0  0  0  0
   -0.9995    2.3760   -1.3366 O   0  0  0  0  0  0  0  0  0  0  0  0
   -0.1312    3.1604    0.5888 N   0  0  0  0  0  0  0  0  0  0  0  0
    0.2042    2.9202    1.5174 H   0  0  0  0  0  0  0  0  0  0  0  0
   -0.2940    4.5662    0.2390 C   0  0  0  0  0  0  0  0  0  0  0  0
   -1.3517    4.8019    0.0818 H   0  0  0  0  0  0  0  0  0  0  0  0
    0.0867    5.2026    1.0436 H   0  0  0  0  0  0  0  0  0  0  0  0
    0.2594    4.8001   -0.6767 H   0  0  0  0  0  0  0  0  0  0  0  0
  1  2  1  0  0  0  0
  2  3  1  0  0  0  0
  2  4  1  0  0  0  0
  2  5  1  0  0  0  0
  5  6  2  0  0  0  0
  5  7  1  0  0  0  0
  7  8  1  0  0  0  0
  7  9  1  0  0  0  0
  9 10  1  0  0  0  0
  9 11  1  0  0  0  0
  9 24  1  0  0  0  0
 11 12  1  0  0  0  0
 11 13  1  0  0  0  0
 11 14  1  0  0  0  0
 14 15  1  0  0  0  0
 14 16  1  0  0  0  0
 14 20  1  0  0  0  0
 16 17  1  0  0  0  0
 16 18  1  0  0  0  0
 16 19  1  0  0  0  0
 20 21  1  0  0  0  0
 20 22  1  0  0  0  0
 20 23  1  0  0  0  0
 24 25  2  0  0  0  0
 24 26  1  0  0  0  0
 26 27  1  0  0  0  0
 26 28  1  0  0  0  0
 28 29  1  0  0  0  0
 28 30  1  0  0  0  0
 28 31  1  0  0  0  0
M  END
$$$$

  -OEChem-01062216083D

 31 30  0     1  0  0  0  0  0999 V2000
   -3.5806   -2.7194    0.9413 H   0  0  0  0  0  0  0  0  0  0  0  0
   -3.4560   -1.7695    0.4138 C   0  0  0  0  0  0  0  0  0  0  0  0
   -4.2776   -1.1030    0.6874 H   0  0  0  0  0  0  0  0  0  0  0  0
   -3.4907   -1.9579   -0.6619 H   0  0  0  0  0  0  0  0  0  0  0  0
   -2.1296   -1.1350    0.7868 C   0  0  0  0  0  0  0  0  0  0  0  0
   -1.4554   -1.6222    1.6790 O   0  0  0  0  0  0  0  0  0  0  0  0
   -1.7385    0.0359    0.1729 N   0  0  0  0  0  0  0  0  0  0  0  0
   -2.3603    0.3984   -0.5488 H   0  0  0  0  0  0  0  0  0  0  0  0
   -0.4030    0.6542    0.2319 C   0  0  1  0  0  0  0  0  0  0  0  0
   -0.0491    0.6565    1.2669 H   0  0  0  0  0  0  0  0  0  0  0  0
    0.6373   -0.0380   -0.6872 C   0  0  0  0  0  0  0  0  0  0  0  0
    0.2337   -0.0355   -1.7057 H   0  0  0  0  0  0  0  0  0  0  0  0
    1.5477    0.5715   -0.7005 H   0  0  0  0  0  0  0  0  0  0  0  0
    1.0382   -1.4851   -0.3340 C   0  0  0  0  0  0  0  0  0  0  0  0
    0.1491   -2.1185   -0.2886 H   0  0  0  0  0  0  0  0  0  0  0  0
    1.9510   -2.0405   -1.4337 C   0  0  0  0  0  0  0  0  0  0  0  0
    2.8635   -1.4418   -1.5198 H   0  0  0  0  0  0  0  0  0  0  0  0
    2.2335   -3.0736   -1.2080 H   0  0  0  0  0  0  0  0  0  0  0  0
    1.4359   -2.0305   -2.3992 H   0  0  0  0  0  0  0  0  0  0  0  0
    1.7810   -1.5525    1.0084 C   0  0  0  0  0  0  0  0  0  0  0  0
    1.1474   -1.2029    1.8274 H   0  0  0  0  0  0  0  0  0  0  0  0
    2.0719   -2.5845    1.2271 H   0  0  0  0  0  0  0  0  0  0  0  0
    2.6842   -0.9350    0.9818 H   0  0  0  0  0  0  0  0  0  0  0  0
   -0.5036    2.1129   -0.2588 C   0  0  0  0  0  0  0  0  0  0  0  0
   -1.1966    2.3865   -1.2332 O   0  0  0  0  0  0  0  0  0  0  0  0
    0.1269    3.1292    0.4351 N   0  0  0  0  0  0  0  0  0  0  0  0
    0.6497    2.8766    1.2690 H   0  0  0  0  0  0  0  0  0  0  0  0
    0.0234    4.5355    0.0654 C   0  0  0  0  0  0  0  0  0  0  0  0
   -1.0177    4.8705    0.1190 H   0  0  0  0  0  0  0  0  0  0  0  0
    0.6199    5.1500    0.7465 H   0  0  0  0  0  0  0  0  0  0  0  0
    0.3924    4.6920   -0.9537 H   0  0  0  0  0  0  0  0  0  0  0  0
  1  2  1  0  0  0  0
  2  3  1  0  0  0  0
  2  4  1  0  0  0  0
  2  5  1  0  0  0  0
  5  6  2  0  0  0  0
  5  7  1  0  0  0  0
  7  8  1  0  0  0  0
  7  9  1  0  0  0  0
  9 10  1  0  0  0  0
  9 11  1  0  0  0  0
  9 24  1  0  0  0  0
 11 12  1  0  0  0  0
 11 13  1  0  0  0  0
 11 14  1  0  0  0  0
 14 15  1  0  0  0  0
 14 16  1  0  0  0  0
 14 20  1  0  0  0  0
 16 17  1  0  0  0  0
 16 18  1  0  0  0  0
 16 19  1  0  0  0  0
 20 21  1  0  0  0  0
 20 22  1  0  0  0  0
 20 23  1  0  0  0  0
 24 25  2  0  0  0  0
 24 26  1  0  0  0  0
 26 27  1  0  0  0  0
 26 28  1  0  0  0  0
 28 29  1  0  0  0  0
 28 30  1  0  0  0  0
 28 31  1  0  0  0  0
M  END
$$$$

  -OEChem-01062216083D

 31 30  0     1  0  0  0  0  0999 V2000
   -3.6091   -2.7104    0.9500 H   0  0  0  0  0  0  0  0  0  0  0  0
   -3.4775   -1.7601    0.4251 C   0  0  0  0  0  0  0  0  0  0  0  0
   -4.2824   -1.0812    0.7166 H   0  0  0  0  0  0  0  0  0  0  0  0
   -3.5352   -1.9420   -0.6508 H   0  0  0  0  0  0  0  0  0  0  0  0
   -2.1339   -1.1498    0.7769 C   0  0  0  0  0  0  0  0  0  0  0  0
   -1.4502   -1.6547    1.6520 O   0  0  0  0  0  0  0  0  0  0  0  0
   -1.7387    0.0207    0.1648 N   0  0  0  0  0  0  0  0  0  0  0  0
   -2.3819    0.4186   -0.5191 H   0  0  0  0  0  0  0  0  0  0  0  0
   -0.4089    0.6512    0.2320 C   0  0  1  0  0  0  0  0  0  0  0  0
   -0.0618    0.6592    1.2694 H   0  0  0  0  0  0  0  0  0  0  0  0
    0.6379   -0.0346   -0.6855 C   0  0  0  0  0  0  0  0  0  0  0  0
    0.2368   -0.0316   -1.7051 H   0  0  0  0  0  0  0  0  0  0  0  0
    1.5458    0.5781   -0.6961 H   0  0  0  0  0  0  0  0  0  0  0  0
    1.0473   -1.4795   -0.3341 C   0  0  0  0  0  0  0  0  0  0  0  0
    0.1624   -2.1188   -0.2922 H   0  0  0  0  0  0  0  0  0  0  0  0
    1.9658   -2.0271   -1.4333 C   0  0  0  0  0  0  0  0  0  0  0  0
    2.8759   -1.4244   -1.5151 H   0  0  0  0  0  0  0  0  0  0  0  0
    2.2517   -3.0597   -1.2099 H   0  0  0  0  0  0  0  0  0  0  0  0
    1.4537   -2.0169   -2.4005 H   0  0  0  0  0  0  0  0  0  0  0  0
    1.7877   -1.5435    1.0096 C   0  0  0  0  0  0  0  0  0  0  0  0
    1.1512   -1.1965    1.8274 H   0  0  0  0  0  0  0  0  0  0  0  0
    2.0829   -2.5742    1.2291 H   0  0  0  0  0  0  0  0  0  0  0  0
    2.6879   -0.9218    0.9841 H   0  0  0  0  0  0  0  0  0  0  0  0
   -0.5112    2.1087   -0.2658 C   0  0  0  0  0  0  0  0  0  0  0  0
   -1.3593    2.4196   -1.0960 O   0  0  0  0  0  0  0  0  0  0  0  0
    0.3403    3.0786    0.2310 N   0  0  0  0  0  0  0  0  0  0  0  0
    1.0105    2.7985    0.9413 H   0  0  0  0  0  0  0  0  0  0  0  0
    0.2871    4.4771   -0.1775 C   0  0  0  0  0  0  0  0  0  0  0  0
   -0.6809    4.9162    0.0863 H   0  0  0  0  0  0  0  0  0  0  0  0
    1.0747    5.0479    0.3240 H   0  0  0  0  0  0  0  0  0  0  0  0
    0.4324    4.5665   -1.2594 H   0  0  0  0  0  0  0  0  0  0  0  0
  1  2  1  0  0  0  0
  2  3  1  0  0  0  0
  2  4  1  0  0  0  0
  2  5  1  0  0  0  0
  5  6  2  0  0  0  0
  5  7  1  0  0  0  0
  7  8  1  0  0  0  0
  7  9  1  0  0  0  0
  9 10  1  0  0  0  0
  9 11  1  0  0  0  0
  9 24  1  0  0  0  0
 11 12  1  0  0  0  0
 11 13  1  0  0  0  0
 11 14  1  0  0  0  0
 14 15  1  0  0  0  0
 14 16  1  0  0  0  0
 14 20  1  0  0  0  0
 16 17  1  0  0  0  0
 16 18  1  0  0  0  0
 16 19  1  0  0  0  0
 20 21  1  0  0  0  0
 20 22  1  0  0  0  0
 20 23  1  0  0  0  0
 24 25  2  0  0  0  0
 24 26  1  0  0  0  0
 26 27  1  0  0  0  0
 26 28  1  0  0  0  0
 28 29  1  0  0  0  0
 28 30  1  0  0  0  0
 28 31  1  0  0  0  0
M  END
$$$$

  -OEChem-01062216083D

 31 30  0     1  0  0  0  0  0999 V2000
   -3.6241   -2.7013    0.9408 H   0  0  0  0  0  0  0  0  0  0  0  0
   -3.4901   -1.7431    0.4310 C   0  0  0  0  0  0  0  0  0  0  0  0
   -4.2788   -1.0585    0.7526 H   0  0  0  0  0  0  0  0  0  0  0  0
   -3.5729   -1.9035   -0.6466 H   0  0  0  0  0  0  0  0  0  0  0  0
   -2.1308   -1.1579    0.7642 C   0  0  0  0  0  0  0  0  0  0  0  0
   -1.4426   -1.6797    1.6257 O   0  0  0  0  0  0  0  0  0  0  0  0
   -1.7299    0.0120    0.1547 N   0  0  0  0  0  0  0  0  0  0  0  0
   -2.3949    0.4475   -0.4844 H   0  0  0  0  0  0  0  0  0  0  0  0
   -0.4043    0.6517    0.2281 C   0  0  1  0  0  0  0  0  0  0  0  0
   -0.0594    0.6659    1.2661 H   0  0  0  0  0  0  0  0  0  0  0  0
    0.6445   -0.0379   -0.6874 C   0  0  0  0  0  0  0  0  0  0  0  0
    0.2432   -0.0380   -1.7069 H   0  0  0  0  0  0  0  0  0  0  0  0
    1.5541    0.5716   -0.7008 H   0  0  0  0  0  0  0  0  0  0  0  0
    1.0566   -1.4813   -0.3332 C   0  0  0  0  0  0  0  0  0  0  0  0
    0.1735   -2.1231   -0.2927 H   0  0  0  0  0  0  0  0  0  0  0  0
    1.9757   -2.0299   -1.4308 C   0  0  0  0  0  0  0  0  0  0  0  0
    2.8849   -1.4261   -1.5146 H   0  0  0  0  0  0  0  0  0  0  0  0
    2.2633   -3.0617   -1.2054 H   0  0  0  0  0  0  0  0  0  0  0  0
    1.4618   -2.0221   -2.3971 H   0  0  0  0  0  0  0  0  0  0  0  0
    1.7949   -1.5410    1.0121 C   0  0  0  0  0  0  0  0  0  0  0  0
    1.1539   -1.1965    1.8277 H   0  0  0  0  0  0  0  0  0  0  0  0
    2.0950   -2.5701    1.2330 H   0  0  0  0  0  0  0  0  0  0  0  0
    2.6923   -0.9151    0.9895 H   0  0  0  0  0  0  0  0  0  0  0  0
   -0.5131    2.1094   -0.2761 C   0  0  0  0  0  0  0  0  0  0  0  0
   -1.4901    2.4716   -0.9247 O   0  0  0  0  0  0  0  0  0  0  0  0
    0.5010    3.0165   -0.0252 N   0  0  0  0  0  0  0  0  0  0  0  0
    1.2891    2.6997    0.5323 H   0  0  0  0  0  0  0  0  0  0  0  0
    0.4615    4.4052   -0.4673 C   0  0  0  0  0  0  0  0  0  0  0  0
   -0.3831    4.9295   -0.0076 H   0  0  0  0  0  0  0  0  0  0  0  0
    1.3847    4.9191   -0.1827 H   0  0  0  0  0  0  0  0  0  0  0  0
    0.3589    4.4584   -1.5564 H   0  0  0  0  0  0  0  0  0  0  0  0
  1  2  1  0  0  0  0
  2  3  1  0  0  0  0
  2  4  1  0  0  0  0
  2  5  1  0  0  0  0
  5  6  2  0  0  0  0
  5  7  1  0  0  0  0
  7  8  1  0  0  0  0
  7  9  1  0  0  0  0
  9 10  1  0  0  0  0
  9 11  1  0  0  0  0
  9 24  1  0  0  0  0
 11 12  1  0  0  0  0
 11 13  1  0  0  0  0
 11 14  1  0  0  0  0
 14 15  1  0  0  0  0
 14 16  1  0  0  0  0
 14 20  1  0  0  0  0
 16 17  1  0  0  0  0
 16 18  1  0  0  0  0
 16 19  1  0  0  0  0
 20 21  1  0  0  0  0
 20 22  1  0  0  0  0
 20 23  1  0  0  0  0
 24 25  2  0  0  0  0
 24 26  1  0  0  0  0
 26 27  1  0  0  0  0
 26 28  1  0  0  0  0
 28 29  1  0  0  0  0
 28 30  1  0  0  0  0
 28 31  1  0  0  0  0
M  END
$$$$

  -OEChem-01062216083D

 31 30  0     1  0  0  0  0  0999 V2000
   -3.5820   -2.6865    1.0014 H   0  0  0  0  0  0  0  0  0  0  0  0
   -3.4663   -1.7305    0.4832 C   0  0  0  0  0  0  0  0  0  0  0  0
   -4.1763   -1.0137    0.9026 H   0  0  0  0  0  0  0  0  0  0  0  0
   -3.6883   -1.8756   -0.5769 H   0  0  0  0  0  0  0  0  0  0  0  0
   -2.0500   -1.2131    0.6490 C   0  0  0  0  0  0  0  0  0  0  0  0
   -1.2575   -1.8301    1.3417 O   0  0  0  0  0  0  0  0  0  0  0  0
   -1.6915   -0.0223    0.0529 N   0  0  0  0  0  0  0  0  0  0  0  0
   -2.4437    0.5284   -0.3602 H   0  0  0  0  0  0  0  0  0  0  0  0
   -0.3822    0.6450    0.1528 C   0  0  1  0  0  0  0  0  0  0  0  0
    0.0760    0.4335    1.1236 H   0  0  0  0  0  0  0  0  0  0  0  0
    0.5463    0.1844   -1.0016 C   0  0  0  0  0  0  0  0  0  0  0  0
    0.0283    0.3838   -1.9463 H   0  0  0  0  0  0  0  0  0  0  0  0
    1.4555    0.7936   -0.9976 H   0  0  0  0  0  0  0  0  0  0  0  0
    0.9745   -1.2978   -0.9820 C   0  0  0  0  0  0  0  0  0  0  0  0
    0.0902   -1.9405   -0.9536 H   0  0  0  0  0  0  0  0  0  0  0  0
    1.7563   -1.6158   -2.2624 C   0  0  0  0  0  0  0  0  0  0  0  0
    2.6574   -0.9980   -2.3312 H   0  0  0  0  0  0  0  0  0  0  0  0
    2.0551   -2.6688   -2.2742 H   0  0  0  0  0  0  0  0  0  0  0  0
    1.1371   -1.4275   -3.1451 H   0  0  0  0  0  0  0  0  0  0  0  0
    1.8698   -1.6111    0.2266 C   0  0  0  0  0  0  0  0  0  0  0  0
    1.3393   -1.4423    1.1668 H   0  0  0  0  0  0  0  0  0  0  0  0
    2.1817   -2.6598    0.2032 H   0  0  0  0  0  0  0  0  0  0  0  0
    2.7654   -0.9822    0.2175 H   0  0  0  0  0  0  0  0  0  0  0  0
   -0.5622    2.1783    0.0405 C   0  0  0  0  0  0  0  0  0  0  0  0
   -1.6731    2.6589   -0.1617 O   0  0  0  0  0  0  0  0  0  0  0  0
    0.5288    3.0272    0.1080 N   0  0  0  0  0  0  0  0  0  0  0  0
    1.4367    2.6115    0.2949 H   0  0  0  0  0  0  0  0  0  0  0  0
    0.4256    4.4777    0.0027 C   0  0  0  0  0  0  0  0  0  0  0  0
   -0.1796    4.8786    0.8225 H   0  0  0  0  0  0  0  0  0  0  0  0
    1.4198    4.9322    0.0519 H   0  0  0  0  0  0  0  0  0  0  0  0
   -0.0367    4.7619   -0.9485 H   0  0  0  0  0  0  0  0  0  0  0  0
  1  2  1  0  0  0  0
  2  3  1  0  0  0  0
  2  4  1  0  0  0  0
  2  5  1  0  0  0  0
  5  6  2  0  0  0  0
  5  7  1  0  0  0  0
  7  8  1  0  0  0  0
  7  9  1  0  0  0  0
  9 10  1  0  0  0  0
  9 11  1  0  0  0  0
  9 24  1  0  0  0  0
 11 12  1  0  0  0  0
 11 13  1  0  0  0  0
 11 14  1  0  0  0  0
 14 15  1  0  0  0  0
 14 16  1  0  0  0  0
 14 20  1  0  0  0  0
 16 17  1  0  0  0  0
 16 18  1  0  0  0  0
 16 19  1  0  0  0  0
 20 21  1  0  0  0  0
 20 22  1  0  0  0  0
 20 23  1  0  0  0  0
 24 25  2  0  0  0  0
 24 26  1  0  0  0  0
 26 27  1  0  0  0  0
 26 28  1  0  0  0  0
 28 29  1  0  0  0  0
 28 30  1  0  0  0  0
 28 31  1  0  0  0  0
M  END
$$$$

  -OEChem-01062216083D

 31 30  0     1  0  0  0  0  0999 V2000
   -3.5941   -2.6577    1.0172 H   0  0  0  0  0  0  0  0  0  0  0  0
   -3.4721   -1.7052    0.4943 C   0  0  0  0  0  0  0  0  0  0  0  0
   -4.1601   -0.9747    0.9268 H   0  0  0  0  0  0  0  0  0  0  0  0
   -3.7185   -1.8481   -0.5605 H   0  0  0  0  0  0  0  0  0  0  0  0
   -2.0437   -1.2128    0.6286 C   0  0  0  0  0  0  0  0  0  0  0  0
   -1.2467   -1.8488    1.2984 O   0  0  0  0  0  0  0  0  0  0  0  0
   -1.6829   -0.0199    0.0374 N   0  0  0  0  0  0  0  0  0  0  0  0
   -2.4459    0.5582   -0.3136 H   0  0  0  0  0  0  0  0  0  0  0  0
   -0.3713    0.6439    0.1432 C   0  0  1  0  0  0  0  0  0  0  0  0
    0.0842    0.4335    1.1153 H   0  0  0  0  0  0  0  0  0  0  0  0
    0.5607    0.1727   -1.0077 C   0  0  0  0  0  0  0  0  0  0  0  0
    0.0500    0.3746   -1.9555 H   0  0  0  0  0  0  0  0  0  0  0  0
    1.4771    0.7702   -0.9993 H   0  0  0  0  0  0  0  0  0  0  0  0
    0.9840   -1.3111   -0.9852 C   0  0  0  0  0  0  0  0  0  0  0  0
    0.0974   -1.9508   -0.9610 H   0  0  0  0  0  0  0  0  0  0  0  0
    1.7685   -1.6330   -2.2629 C   0  0  0  0  0  0  0  0  0  0  0  0
    2.6746   -1.0223   -2.3278 H   0  0  0  0  0  0  0  0  0  0  0  0
    2.0595   -2.6880   -2.2747 H   0  0  0  0  0  0  0  0  0  0  0  0
    1.1538   -1.4387   -3.1474 H   0  0  0  0  0  0  0  0  0  0  0  0
    1.8748   -1.6274    0.2261 C   0  0  0  0  0  0  0  0  0  0  0  0
    1.3438   -1.4515    1.1647 H   0  0  0  0  0  0  0  0  0  0  0  0
    2.1794   -2.6784    0.2062 H   0  0  0  0  0  0  0  0  0  0  0  0
    2.7752   -1.0054    0.2172 H   0  0  0  0  0  0  0  0  0  0  0  0
   -0.5626    2.1797    0.0356 C   0  0  0  0  0  0  0  0  0  0  0  0
   -1.6903    2.6619    0.0776 O   0  0  0  0  0  0  0  0  0  0  0  0
    0.5046    3.0298   -0.2004 N   0  0  0  0  0  0  0  0  0  0  0  0
    1.4343    2.6213   -0.2199 H   0  0  0  0  0  0  0  0  0  0  0  0
    0.3673    4.4748   -0.3401 C   0  0  0  0  0  0  0  0  0  0  0  0
   -0.0195    4.9136    0.5856 H   0  0  0  0  0  0  0  0  0  0  0  0
    1.3391    4.9274   -0.5591 H   0  0  0  0  0  0  0  0  0  0  0  0
   -0.3179    4.7184   -1.1589 H   0  0  0  0  0  0  0  0  0  0  0  0
  1  2  1  0  0  0  0
  2  3  1  0  0  0  0
  2  4  1  0  0  0  0
  2  5  1  0  0  0  0
  5  6  2  0  0  0  0
  5  7  1  0  0  0  0
  7  8  1  0  0  0  0
  7  9  1  0  0  0  0
  9 10  1  0  0  0  0
  9 11  1  0  0  0  0
  9 24  1  0  0  0  0
 11 12  1  0  0  0  0
 11 13  1  0  0  0  0
 11 14  1  0  0  0  0
 14 15  1  0  0  0  0
 14 16  1  0  0  0  0
 14 20  1  0  0  0  0
 16 17  1  0  0  0  0
 16 18  1  0  0  0  0
 16 19  1  0  0  0  0
 20 21  1  0  0  0  0
 20 22  1  0  0  0  0
 20 23  1  0  0  0  0
 24 25  2  0  0  0  0
 24 26  1  0  0  0  0
 26 27  1  0  0  0  0
 26 28  1  0  0  0  0
 28 29  1  0  0  0  0
 28 30  1  0  0  0  0
 28 31  1  0  0  0  0
M  END
$$$$

  -OEChem-01062216083D

 31 30  0     1  0  0  0  0  0999 V2000
   -3.6033   -2.6310    1.0331 H   0  0  0  0  0  0  0  0  0  0  0  0
   -3.4784   -1.6808    0.5064 C   0  0  0  0  0  0  0  0  0  0  0  0
   -4.1481   -0.9406    0.9509 H   0  0  0  0  0  0  0  0  0  0  0  0
   -3.7472   -1.8218   -0.5431 H   0  0  0  0  0  0  0  0  0  0  0  0
   -2.0407   -1.2084    0.6128 C   0  0  0  0  0  0  0  0  0  0  0  0
   -1.2393   -1.8609    1.2607 O   0  0  0  0  0  0  0  0  0  0  0  0
   -1.6789   -0.0145    0.0232 N   0  0  0  0  0  0  0  0  0  0  0  0
   -2.4479    0.5784   -0.2860 H   0  0  0  0  0  0  0  0  0  0  0  0
   -0.3625    0.6423    0.1258 C   0  0  1  0  0  0  0  0  0  0  0  0
    0.0917    0.4339    1.0992 H   0  0  0  0  0  0  0  0  0  0  0  0
    0.5742    0.1600   -1.0183 C   0  0  0  0  0  0  0  0  0  0  0  0
    0.0714    0.3615   -1.9705 H   0  0  0  0  0  0  0  0  0  0  0  0
    1.4956    0.7494   -1.0024 H   0  0  0  0  0  0  0  0  0  0  0  0
    0.9937   -1.3244   -0.9877 C   0  0  0  0  0  0  0  0  0  0  0  0
    0.1063   -1.9625   -0.9657 H   0  0  0  0  0  0  0  0  0  0  0  0
    1.7832   -1.6532   -2.2606 C   0  0  0  0  0  0  0  0  0  0  0  0
    2.6897   -1.0429   -2.3248 H   0  0  0  0  0  0  0  0  0  0  0  0
    2.0737   -2.7086   -2.2657 H   0  0  0  0  0  0  0  0  0  0  0  0
    1.1721   -1.4637   -3.1487 H   0  0  0  0  0  0  0  0  0  0  0  0
    1.8781   -1.6367    0.2293 C   0  0  0  0  0  0  0  0  0  0  0  0
    1.3450   -1.4512    1.1649 H   0  0  0  0  0  0  0  0  0  0  0  0
    2.1765   -2.6896    0.2182 H   0  0  0  0  0  0  0  0  0  0  0  0
    2.7815   -1.0192    0.2193 H   0  0  0  0  0  0  0  0  0  0  0  0
   -0.5618    2.1792    0.0237 C   0  0  0  0  0  0  0  0  0  0  0  0
   -1.6457    2.6691    0.3229 O   0  0  0  0  0  0  0  0  0  0  0  0
    0.4032    3.0203   -0.5062 N   0  0  0  0  0  0  0  0  0  0  0  0
    1.2976    2.6104   -0.7570 H   0  0  0  0  0  0  0  0  0  0  0  0
    0.2241    4.4599   -0.6557 C   0  0  0  0  0  0  0  0  0  0  0  0
    0.0773    4.9308    0.3220 H   0  0  0  0  0  0  0  0  0  0  0  0
    1.1074    4.9038   -1.1246 H   0  0  0  0  0  0  0  0  0  0  0  0
   -0.6452    4.6761   -1.2859 H   0  0  0  0  0  0  0  0  0  0  0  0
  1  2  1  0  0  0  0
  2  3  1  0  0  0  0
  2  4  1  0  0  0  0
  2  5  1  0  0  0  0
  5  6  2  0  0  0  0
  5  7  1  0  0  0  0
  7  8  1  0  0  0  0
  7  9  1  0  0  0  0
  9 10  1  0  0  0  0
  9 11  1  0  0  0  0
  9 24  1  0  0  0  0
 11 12  1  0  0  0  0
 11 13  1  0  0  0  0
 11 14  1  0  0  0  0
 14 15  1  0  0  0  0
 14 16  1  0  0  0  0
 14 20  1  0  0  0  0
 16 17  1  0  0  0  0
 16 18  1  0  0  0  0
 16 19  1  0  0  0  0
 20 21  1  0  0  0  0
 20 22  1  0  0  0  0
 20 23  1  0  0  0  0
 24 25  2  0  0  0  0
 24 26  1  0  0  0  0
 26 27  1  0  0  0  0
 26 28  1  0  0  0  0
 28 29  1  0  0  0  0
 28 30  1  0  0  0  0
 28 31  1  0  0  0  0
M  END
$$$$

  -OEChem-01062216083D

 31 30  0     1  0  0  0  0  0999 V2000
   -3.6181   -2.6044    1.0579 H   0  0  0  0  0  0  0  0  0  0  0  0
   -3.4903   -1.6581    0.5248 C   0  0  0  0  0  0  0  0  0  0  0  0
   -4.1397   -0.9068    0.9809 H   0  0  0  0  0  0  0  0  0  0  0  0
   -3.7831   -1.7991   -0.5183 H   0  0  0  0  0  0  0  0  0  0  0  0
   -2.0442   -1.2057    0.5997 C   0  0  0  0  0  0  0  0  0  0  0  0
   -1.2384   -1.8736    1.2256 O   0  0  0  0  0  0  0  0  0  0  0  0
   -1.6830   -0.0108    0.0113 N   0  0  0  0  0  0  0  0  0  0  0  0
   -2.4558    0.5895   -0.2709 H   0  0  0  0  0  0  0  0  0  0  0  0
   -0.3621    0.6379    0.1075 C   0  0  1  0  0  0  0  0  0  0  0  0
    0.0897    0.4306    1.0824 H   0  0  0  0  0  0  0  0  0  0  0  0
    0.5839    0.1516   -1.0270 C   0  0  0  0  0  0  0  0  0  0  0  0
    0.0899    0.3490   -1.9845 H   0  0  0  0  0  0  0  0  0  0  0  0
    1.5038    0.7439   -0.9992 H   0  0  0  0  0  0  0  0  0  0  0  0
    1.0066   -1.3317   -0.9915 C   0  0  0  0  0  0  0  0  0  0  0  0
    0.1205   -1.9720   -0.9758 H   0  0  0  0  0  0  0  0  0  0  0  0
    1.8061   -1.6591   -2.2588 C   0  0  0  0  0  0  0  0  0  0  0  0
    2.7095   -1.0439   -2.3185 H   0  0  0  0  0  0  0  0  0  0  0  0
    2.1031   -2.7126   -2.2600 H   0  0  0  0  0  0  0  0  0  0  0  0
    1.1997   -1.4748   -3.1511 H   0  0  0  0  0  0  0  0  0  0  0  0
    1.8827   -1.6406    0.2325 C   0  0  0  0  0  0  0  0  0  0  0  0
    1.3420   -1.4556    1.1639 H   0  0  0  0  0  0  0  0  0  0  0  0
    2.1847   -2.6925    0.2249 H   0  0  0  0  0  0  0  0  0  0  0  0
    2.7845   -1.0206    0.2291 H   0  0  0  0  0  0  0  0  0  0  0  0
   -0.5643    2.1745    0.0125 C   0  0  0  0  0  0  0  0  0  0  0  0
   -1.5399    2.6818    0.5537 O   0  0  0  0  0  0  0  0  0  0  0  0
    0.2308    2.9900   -0.7768 N   0  0  0  0  0  0  0  0  0  0  0  0
    1.0172    2.5603   -1.2538 H   0  0  0  0  0  0  0  0  0  0  0  0
    0.0124    4.4235   -0.9337 C   0  0  0  0  0  0  0  0  0  0  0  0
    0.1071    4.9331    0.0310 H   0  0  0  0  0  0  0  0  0  0  0  0
    0.7514    4.8451   -1.6218 H   0  0  0  0  0  0  0  0  0  0  0  0
   -0.9863    4.6180   -1.3388 H   0  0  0  0  0  0  0  0  0  0  0  0
  1  2  1  0  0  0  0
  2  3  1  0  0  0  0
  2  4  1  0  0  0  0
  2  5  1  0  0  0  0
  5  6  2  0  0  0  0
  5  7  1  0  0  0  0
  7  8  1  0  0  0  0
  7  9  1  0  0  0  0
  9 10  1  0  0  0  0
  9 11  1  0  0  0  0
  9 24  1  0  0  0  0
 11 12  1  0  0  0  0
 11 13  1  0  0  0  0
 11 14  1  0  0  0  0
 14 15  1  0  0  0  0
 14 16  1  0  0  0  0
 14 20  1  0  0  0  0
 16 17  1  0  0  0  0
 16 18  1  0  0  0  0
 16 19  1  0  0  0  0
 20 21  1  0  0  0  0
 20 22  1  0  0  0  0
 20 23  1  0  0  0  0
 24 25  2  0  0  0  0
 24 26  1  0  0  0  0
 26 27  1  0  0  0  0
 26 28  1  0  0  0  0
 28 29  1  0  0  0  0
 28 30  1  0  0  0  0
 28 31  1  0  0  0  0
M  END
$$$$

  -OEChem-01062216083D

 31 30  0     1  0  0  0  0  0999 V2000
   -3.6122   -2.6106    1.0696 H   0  0  0  0  0  0  0  0  0  0  0  0
   -3.4913   -1.6649    0.5338 C   0  0  0  0  0  0  0  0  0  0  0  0
   -4.1440   -0.9166    0.9900 H   0  0  0  0  0  0  0  0  0  0  0  0
   -3.7860   -1.8103   -0.5080 H   0  0  0  0  0  0  0  0  0  0  0  0
   -2.0475   -1.2045    0.6037 C   0  0  0  0  0  0  0  0  0  0  0  0
   -1.2360   -1.8696    1.2247 O   0  0  0  0  0  0  0  0  0  0  0  0
   -1.6939   -0.0096    0.0097 N   0  0  0  0  0  0  0  0  0  0  0  0
   -2.4699    0.5777   -0.2873 H   0  0  0  0  0  0  0  0  0  0  0  0
   -0.3729    0.6404    0.0942 C   0  0  1  0  0  0  0  0  0  0  0  0
    0.0814    0.4376    1.0690 H   0  0  0  0  0  0  0  0  0  0  0  0
    0.5766    0.1517   -1.0353 C   0  0  0  0  0  0  0  0  0  0  0  0
    0.0805    0.3335   -1.9946 H   0  0  0  0  0  0  0  0  0  0  0  0
    1.4891    0.7566   -1.0117 H   0  0  0  0  0  0  0  0  0  0  0  0
    1.0080   -1.3287   -0.9909 C   0  0  0  0  0  0  0  0  0  0  0  0
    0.1254   -1.9738   -0.9718 H   0  0  0  0  0  0  0  0  0  0  0  0
    1.8107   -1.6589   -2.2554 C   0  0  0  0  0  0  0  0  0  0  0  0
    2.7088   -1.0361   -2.3193 H   0  0  0  0  0  0  0  0  0  0  0  0
    2.1170   -2.7098   -2.2482 H   0  0  0  0  0  0  0  0  0  0  0  0
    1.2034   -1.4873   -3.1494 H   0  0  0  0  0  0  0  0  0  0  0  0
    1.8854   -1.6257    0.2350 C   0  0  0  0  0  0  0  0  0  0  0  0
    1.3418   -1.4426    1.1649 H   0  0  0  0  0  0  0  0  0  0  0  0
    2.1970   -2.6749    0.2313 H   0  0  0  0  0  0  0  0  0  0  0  0
    2.7815   -0.9975    0.2304 H   0  0  0  0  0  0  0  0  0  0  0  0
   -0.5729    2.1749   -0.0008 C   0  0  0  0  0  0  0  0  0  0  0  0
   -1.3778    2.7153    0.7467 O   0  0  0  0  0  0  0  0  0  0  0  0
   -0.0034    2.9445   -1.0027 N   0  0  0  0  0  0  0  0  0  0  0  0
    0.6312    2.4819   -1.6462 H   0  0  0  0  0  0  0  0  0  0  0  0
   -0.2354    4.3766   -1.1507 C   0  0  0  0  0  0  0  0  0  0  0  0
    0.1096    4.9140   -0.2612 H   0  0  0  0  0  0  0  0  0  0  0  0
    0.3089    4.7598   -2.0191 H   0  0  0  0  0  0  0  0  0  0  0  0
   -1.3017    4.5802   -1.2944 H   0  0  0  0  0  0  0  0  0  0  0  0
  1  2  1  0  0  0  0
  2  3  1  0  0  0  0
  2  4  1  0  0  0  0
  2  5  1  0  0  0  0
  5  6  2  0  0  0  0
  5  7  1  0  0  0  0
  7  8  1  0  0  0  0
  7  9  1  0  0  0  0
  9 10  1  0  0  0  0
  9 11  1  0  0  0  0
  9 24  1  0  0  0  0
 11 12  1  0  0  0  0
 11 13  1  0  0  0  0
 11 14  1  0  0  0  0
 14 15  1  0  0  0  0
 14 16  1  0  0  0  0
 14 20  1  0  0  0  0
 16 17  1  0  0  0  0
 16 18  1  0  0  0  0
 16 19  1  0  0  0  0
 20 21  1  0  0  0  0
 20 22  1  0  0  0  0
 20 23  1  0  0  0  0
 24 25  2  0  0  0  0
 24 26  1  0  0  0  0
 26 27  1  0  0  0  0
 26 28  1  0  0  0  0
 28 29  1  0  0  0  0
 28 30  1  0  0  0  0
 28 31  1  0  0  0  0
M  END
$$$$

  -OEChem-01062216083D

 31 30  0     1  0  0  0  0  0999 V2000
   -3.5854   -2.6503    1.0620 H   0  0  0  0  0  0  0  0  0  0  0  0
   -3.4797   -1.7008    0.5294 C   0  0  0  0  0  0  0  0  0  0  0  0
   -4.1564   -0.9692    0.9777 H   0  0  0  0  0  0  0  0  0  0  0  0
   -3.7567   -1.8516   -0.5166 H   0  0  0  0  0  0  0  0  0  0  0  0
   -2.0482   -1.2064    0.6214 C   0  0  0  0  0  0  0  0  0  0  0  0
   -1.2333   -1.8497    1.2602 O   0  0  0  0  0  0  0  0  0  0  0  0
   -1.7076   -0.0110    0.0198 N   0  0  0  0  0  0  0  0  0  0  0  0
   -2.4841    0.5437   -0.3305 H   0  0  0  0  0  0  0  0  0  0  0  0
   -0.3899    0.6483    0.0905 C   0  0  1  0  0  0  0  0  0  0  0  0
    0.0710    0.4501    1.0637 H   0  0  0  0  0  0  0  0  0  0  0  0
    0.5553    0.1586   -1.0413 C   0  0  0  0  0  0  0  0  0  0  0  0
    0.0503    0.3224   -1.9989 H   0  0  0  0  0  0  0  0  0  0  0  0
    1.4592    0.7774   -1.0315 H   0  0  0  0  0  0  0  0  0  0  0  0
    0.9960   -1.3187   -0.9862 C   0  0  0  0  0  0  0  0  0  0  0  0
    0.1179   -1.9692   -0.9540 H   0  0  0  0  0  0  0  0  0  0  0  0
    1.7928   -1.6565   -2.2521 C   0  0  0  0  0  0  0  0  0  0  0  0
    2.6842   -1.0259   -2.3304 H   0  0  0  0  0  0  0  0  0  0  0  0
    2.1090   -2.7043   -2.2338 H   0  0  0  0  0  0  0  0  0  0  0  0
    1.1769   -1.5021   -3.1435 H   0  0  0  0  0  0  0  0  0  0  0  0
    1.8842   -1.5977    0.2362 C   0  0  0  0  0  0  0  0  0  0  0  0
    1.3448   -1.4121    1.1682 H   0  0  0  0  0  0  0  0  0  0  0  0
    2.2059   -2.6438    0.2389 H   0  0  0  0  0  0  0  0  0  0  0  0
    2.7743   -0.9609    0.2209 H   0  0  0  0  0  0  0  0  0  0  0  0
   -0.5830    2.1813   -0.0071 C   0  0  0  0  0  0  0  0  0  0  0  0
   -1.1480    2.7697    0.9041 O   0  0  0  0  0  0  0  0  0  0  0  0
   -0.2843    2.8949   -1.1568 N   0  0  0  0  0  0  0  0  0  0  0  0
    0.1627    2.3921   -1.9174 H   0  0  0  0  0  0  0  0  0  0  0  0
   -0.5090    4.3294   -1.2955 C   0  0  0  0  0  0  0  0  0  0  0  0
    0.0707    4.8815   -0.5483 H   0  0  0  0  0  0  0  0  0  0  0  0
   -0.2011    4.6663   -2.2901 H   0  0  0  0  0  0  0  0  0  0  0  0
   -1.5701    4.5667   -1.1642 H   0  0  0  0  0  0  0  0  0  0  0  0
  1  2  1  0  0  0  0
  2  3  1  0  0  0  0
  2  4  1  0  0  0  0
  2  5  1  0  0  0  0
  5  6  2  0  0  0  0
  5  7  1  0  0  0  0
  7  8  1  0  0  0  0
  7  9  1  0  0  0  0
  9 10  1  0  0  0  0
  9 11  1  0  0  0  0
  9 24  1  0  0  0  0
 11 12  1  0  0  0  0
 11 13  1  0  0  0  0
 11 14  1  0  0  0  0
 14 15  1  0  0  0  0
 14 16  1  0  0  0  0
 14 20  1  0  0  0  0
 16 17  1  0  0  0  0
 16 18  1  0  0  0  0
 16 19  1  0  0  0  0
 20 21  1  0  0  0  0
 20 22  1  0  0  0  0
 20 23  1  0  0  0  0
 24 25  2  0  0  0  0
 24 26  1  0  0  0  0
 26 27  1  0  0  0  0
 26 28  1  0  0  0  0
 28 29  1  0  0  0  0
 28 30  1  0  0  0  0
 28 31  1  0  0  0  0
M  END
$$$$

  -OEChem-01062216083D

 31 30  0     1  0  0  0  0  0999 V2000
   -3.5755   -2.6782    1.0685 H   0  0  0  0  0  0  0  0  0  0  0  0
   -3.4776   -1.7290    0.5339 C   0  0  0  0  0  0  0  0  0  0  0  0
   -4.1699   -1.0063    0.9726 H   0  0  0  0  0  0  0  0  0  0  0  0
   -3.7405   -1.8874   -0.5146 H   0  0  0  0  0  0  0  0  0  0  0  0
   -2.0542   -1.2139    0.6391 C   0  0  0  0  0  0  0  0  0  0  0  0
   -1.2353   -1.8452    1.2843 O   0  0  0  0  0  0  0  0  0  0  0  0
   -1.7237   -0.0175    0.0332 N   0  0  0  0  0  0  0  0  0  0  0  0
   -2.4984    0.5093   -0.3605 H   0  0  0  0  0  0  0  0  0  0  0  0
   -0.4087    0.6491    0.0939 C   0  0  1  0  0  0  0  0  0  0  0  0
    0.0592    0.4516    1.0640 H   0  0  0  0  0  0  0  0  0  0  0  0
    0.5363    0.1698   -1.0412 C   0  0  0  0  0  0  0  0  0  0  0  0
    0.0278    0.3261   -1.9978 H   0  0  0  0  0  0  0  0  0  0  0  0
    1.4322    0.8006   -1.0358 H   0  0  0  0  0  0  0  0  0  0  0  0
    0.9883   -1.3042   -0.9861 C   0  0  0  0  0  0  0  0  0  0  0  0
    0.1148   -1.9609   -0.9491 H   0  0  0  0  0  0  0  0  0  0  0  0
    1.7844   -1.6377   -2.2539 C   0  0  0  0  0  0  0  0  0  0  0  0
    2.6712   -1.0011   -2.3350 H   0  0  0  0  0  0  0  0  0  0  0  0
    2.1083   -2.6831   -2.2357 H   0  0  0  0  0  0  0  0  0  0  0  0
    1.1656   -1.4882   -3.1439 H   0  0  0  0  0  0  0  0  0  0  0  0
    1.8830   -1.5751    0.2336 C   0  0  0  0  0  0  0  0  0  0  0  0
    1.3457   -1.3948    1.1679 H   0  0  0  0  0  0  0  0  0  0  0  0
    2.2145   -2.6182    0.2351 H   0  0  0  0  0  0  0  0  0  0  0  0
    2.7670   -0.9301    0.2150 H   0  0  0  0  0  0  0  0  0  0  0  0
   -0.5994    2.1798   -0.0045 C   0  0  0  0  0  0  0  0  0  0  0  0
   -0.8726    2.8206    1.0000 O   0  0  0  0  0  0  0  0  0  0  0  0
   -0.6020    2.8350   -1.2249 N   0  0  0  0  0  0  0  0  0  0  0  0
   -0.3759    2.2888   -2.0504 H   0  0  0  0  0  0  0  0  0  0  0  0
   -0.8096    4.2714   -1.3647 C   0  0  0  0  0  0  0  0  0  0  0  0
   -0.0361    4.8245   -0.8215 H   0  0  0  0  0  0  0  0  0  0  0  0
   -0.7643    4.5590   -2.4194 H   0  0  0  0  0  0  0  0  0  0  0  0
   -1.7903    4.5572   -0.9704 H   0  0  0  0  0  0  0  0  0  0  0  0
  1  2  1  0  0  0  0
  2  3  1  0  0  0  0
  2  4  1  0  0  0  0
  2  5  1  0  0  0  0
  5  6  2  0  0  0  0
  5  7  1  0  0  0  0
  7  8  1  0  0  0  0
  7  9  1  0  0  0  0
  9 10  1  0  0  0  0
  9 11  1  0  0  0  0
  9 24  1  0  0  0  0
 11 12  1  0  0  0  0
 11 13  1  0  0  0  0
 11 14  1  0  0  0  0
 14 15  1  0  0  0  0
 14 16  1  0  0  0  0
 14 20  1  0  0  0  0
 16 17  1  0  0  0  0
 16 18  1  0  0  0  0
 16 19  1  0  0  0  0
 20 21  1  0  0  0  0
 20 22  1  0  0  0  0
 20 23  1  0  0  0  0
 24 25  2  0  0  0  0
 24 26  1  0  0  0  0
 26 27  1  0  0  0  0
 26 28  1  0  0  0  0
 28 29  1  0  0  0  0
 28 30  1  0  0  0  0
 28 31  1  0  0  0  0
M  END
$$$$

  -OEChem-01062216083D

 31 30  0     1  0  0  0  0  0999 V2000
   -3.5595   -2.7115    1.0710 H   0  0  0  0  0  0  0  0  0  0  0  0
   -3.4712   -1.7608    0.5371 C   0  0  0  0  0  0  0  0  0  0  0  0
   -4.1804   -1.0496    0.9673 H   0  0  0  0  0  0  0  0  0  0  0  0
   -3.7198   -1.9235   -0.5142 H   0  0  0  0  0  0  0  0  0  0  0  0
   -2.0577   -1.2228    0.6593 C   0  0  0  0  0  0  0  0  0  0  0  0
   -1.2373   -1.8396    1.3160 O   0  0  0  0  0  0  0  0  0  0  0  0
   -1.7353   -0.0255    0.0503 N   0  0  0  0  0  0  0  0  0  0  0  0
   -2.5072    0.4799   -0.3749 H   0  0  0  0  0  0  0  0  0  0  0  0
   -0.4235    0.6486    0.1110 C   0  0  1  0  0  0  0  0  0  0  0  0
    0.0491    0.4487    1.0785 H   0  0  0  0  0  0  0  0  0  0  0  0
    0.5184    0.1861   -1.0312 C   0  0  0  0  0  0  0  0  0  0  0  0
    0.0086    0.3503   -1.9857 H   0  0  0  0  0  0  0  0  0  0  0  0
    1.4105    0.8226   -1.0226 H   0  0  0  0  0  0  0  0  0  0  0  0
    0.9761   -1.2865   -0.9866 C   0  0  0  0  0  0  0  0  0  0  0  0
    0.1050   -1.9465   -0.9502 H   0  0  0  0  0  0  0  0  0  0  0  0
    1.7690   -1.6080   -2.2595 C   0  0  0  0  0  0  0  0  0  0  0  0
    2.6561   -0.9710   -2.3362 H   0  0  0  0  0  0  0  0  0  0  0  0
    2.0923   -2.6538   -2.2525 H   0  0  0  0  0  0  0  0  0  0  0  0
    1.1483   -1.4492   -3.1468 H   0  0  0  0  0  0  0  0  0  0  0  0
    1.8757   -1.5626    0.2280 C   0  0  0  0  0  0  0  0  0  0  0  0
    1.3403   -1.3936    1.1654 H   0  0  0  0  0  0  0  0  0  0  0  0
    2.2126   -2.6037    0.2193 H   0  0  0  0  0  0  0  0  0  0  0  0
    2.7557   -0.9121    0.2125 H   0  0  0  0  0  0  0  0  0  0  0  0
   -0.6147    2.1769    0.0098 C   0  0  0  0  0  0  0  0  0  0  0  0
   -0.5754    2.8692    1.0160 O   0  0  0  0  0  0  0  0  0  0  0  0
   -0.9213    2.7757   -1.2007 N   0  0  0  0  0  0  0  0  0  0  0  0
   -0.9109    2.1879   -2.0285 H   0  0  0  0  0  0  0  0  0  0  0  0
   -1.1167    4.2121   -1.3573 C   0  0  0  0  0  0  0  0  0  0  0  0
   -0.2125    4.7563   -1.0646 H   0  0  0  0  0  0  0  0  0  0  0  0
   -1.3416    4.4511   -2.4010 H   0  0  0  0  0  0  0  0  0  0  0  0
   -1.9512    4.5558   -0.7370 H   0  0  0  0  0  0  0  0  0  0  0  0
  1  2  1  0  0  0  0
  2  3  1  0  0  0  0
  2  4  1  0  0  0  0
  2  5  1  0  0  0  0
  5  6  2  0  0  0  0
  5  7  1  0  0  0  0
  7  8  1  0  0  0  0
  7  9  1  0  0  0  0
  9 10  1  0  0  0  0
  9 11  1  0  0  0  0
  9 24  1  0  0  0  0
 11 12  1  0  0  0  0
 11 13  1  0  0  0  0
 11 14  1  0  0  0  0
 14 15  1  0  0  0  0
 14 16  1  0  0  0  0
 14 20  1  0  0  0  0
 16 17  1  0  0  0  0
 16 18  1  0  0  0  0
 16 19  1  0  0  0  0
 20 21  1  0  0  0  0
 20 22  1  0  0  0  0
 20 23  1  0  0  0  0
 24 25  2  0  0  0  0
 24 26  1  0  0  0  0
 26 27  1  0  0  0  0
 26 28  1  0  0  0  0
 28 29  1  0  0  0  0
 28 30  1  0  0  0  0
 28 31  1  0  0  0  0
M  END
$$$$

  -OEChem-01062216083D

 31 30  0     1  0  0  0  0  0999 V2000
   -3.5609   -2.7363    1.0882 H   0  0  0  0  0  0  0  0  0  0  0  0
   -3.4758   -1.7874    0.5511 C   0  0  0  0  0  0  0  0  0  0  0  0
   -4.1879   -1.0774    0.9787 H   0  0  0  0  0  0  0  0  0  0  0  0
   -3.7227   -1.9556   -0.4998 H   0  0  0  0  0  0  0  0  0  0  0  0
   -2.0645   -1.2435    0.6718 C   0  0  0  0  0  0  0  0  0  0  0  0
   -1.2407   -1.8562    1.3277 O   0  0  0  0  0  0  0  0  0  0  0  0
   -1.7493   -0.0434    0.0642 N   0  0  0  0  0  0  0  0  0  0  0  0
   -2.5252    0.4597   -0.3558 H   0  0  0  0  0  0  0  0  0  0  0  0
   -0.4420    0.6399    0.1335 C   0  0  1  0  0  0  0  0  0  0  0  0
    0.0315    0.4368    1.0999 H   0  0  0  0  0  0  0  0  0  0  0  0
    0.5011    0.2022   -1.0154 C   0  0  0  0  0  0  0  0  0  0  0  0
   -0.0088    0.3822   -1.9668 H   0  0  0  0  0  0  0  0  0  0  0  0
    1.3894    0.8436   -0.9959 H   0  0  0  0  0  0  0  0  0  0  0  0
    0.9685   -1.2678   -0.9914 C   0  0  0  0  0  0  0  0  0  0  0  0
    0.1012   -1.9335   -0.9622 H   0  0  0  0  0  0  0  0  0  0  0  0
    1.7626   -1.5674   -2.2688 C   0  0  0  0  0  0  0  0  0  0  0  0
    2.6452   -0.9235   -2.3380 H   0  0  0  0  0  0  0  0  0  0  0  0
    2.0926   -2.6109   -2.2756 H   0  0  0  0  0  0  0  0  0  0  0  0
    1.1400   -1.4010   -3.1531 H   0  0  0  0  0  0  0  0  0  0  0  0
    1.8709   -1.5539    0.2189 C   0  0  0  0  0  0  0  0  0  0  0  0
    1.3352   -1.3997    1.1587 H   0  0  0  0  0  0  0  0  0  0  0  0
    2.2147   -2.5926    0.1971 H   0  0  0  0  0  0  0  0  0  0  0  0
    2.7471   -0.8980    0.2109 H   0  0  0  0  0  0  0  0  0  0  0  0
   -0.6359    2.1661    0.0320 C   0  0  0  0  0  0  0  0  0  0  0  0
   -0.2987    2.8974    0.9513 O   0  0  0  0  0  0  0  0  0  0  0  0
   -1.2307    2.7208   -1.0890 N   0  0  0  0  0  0  0  0  0  0  0  0
   -1.4064    2.1030   -1.8752 H   0  0  0  0  0  0  0  0  0  0  0  0
   -1.4016    4.1571   -1.2711 C   0  0  0  0  0  0  0  0  0  0  0  0
   -0.4308    4.6638   -1.2558 H   0  0  0  0  0  0  0  0  0  0  0  0
   -1.8843    4.3620   -2.2315 H   0  0  0  0  0  0  0  0  0  0  0  0
   -2.0281    4.5719   -0.4744 H   0  0  0  0  0  0  0  0  0  0  0  0
  1  2  1  0  0  0  0
  2  3  1  0  0  0  0
  2  4  1  0  0  0  0
  2  5  1  0  0  0  0
  5  6  2  0  0  0  0
  5  7  1  0  0  0  0
  7  8  1  0  0  0  0
  7  9  1  0  0  0  0
  9 10  1  0  0  0  0
  9 11  1  0  0  0  0
  9 24  1  0  0  0  0
 11 12  1  0  0  0  0
 11 13  1  0  0  0  0
 11 14  1  0  0  0  0
 14 15  1  0  0  0  0
 14 16  1  0  0  0  0
 14 20  1  0  0  0  0
 16 17  1  0  0  0  0
 16 18  1  0  0  0  0
 16 19  1  0  0  0  0
 20 21  1  0  0  0  0
 20 22  1  0  0  0  0
 20 23  1  0  0  0  0
 24 25  2  0  0  0  0
 24 26  1  0  0  0  0
 26 27  1  0  0  0  0
 26 28  1  0  0  0  0
 28 29  1  0  0  0  0
 28 30  1  0  0  0  0
 28 31  1  0  0  0  0
M  END
$$$$

  -OEChem-01062216083D

 31 30  0     1  0  0  0  0  0999 V2000
   -3.5447   -2.7766    1.0957 H   0  0  0  0  0  0  0  0  0  0  0  0
   -3.4696   -1.8274    0.5578 C   0  0  0  0  0  0  0  0  0  0  0  0
   -4.1934   -1.1266    0.9806 H   0  0  0  0  0  0  0  0  0  0  0  0
   -3.7090   -2.0006   -0.4939 H   0  0  0  0  0  0  0  0  0  0  0  0
   -2.0661   -1.2651    0.6854 C   0  0  0  0  0  0  0  0  0  0  0  0
   -1.2394   -1.8640    1.3502 O   0  0  0  0  0  0  0  0  0  0  0  0
   -1.7621   -0.0622    0.0772 N   0  0  0  0  0  0  0  0  0  0  0  0
   -2.5434    0.4339   -0.3397 H   0  0  0  0  0  0  0  0  0  0  0  0
   -0.4601    0.6330    0.1545 C   0  0  1  0  0  0  0  0  0  0  0  0
    0.0147    0.4270    1.1197 H   0  0  0  0  0  0  0  0  0  0  0  0
    0.4808    0.2111   -1.0007 C   0  0  0  0  0  0  0  0  0  0  0  0
   -0.0340    0.4005   -1.9482 H   0  0  0  0  0  0  0  0  0  0  0  0
    1.3662    0.8564   -0.9784 H   0  0  0  0  0  0  0  0  0  0  0  0
    0.9565   -1.2565   -0.9905 C   0  0  0  0  0  0  0  0  0  0  0  0
    0.0935   -1.9277   -0.9634 H   0  0  0  0  0  0  0  0  0  0  0  0
    1.7478   -1.5400   -2.2733 C   0  0  0  0  0  0  0  0  0  0  0  0
    2.6261   -0.8899   -2.3397 H   0  0  0  0  0  0  0  0  0  0  0  0
    2.0846   -2.5814   -2.2905 H   0  0  0  0  0  0  0  0  0  0  0  0
    1.1212   -1.3697   -3.1541 H   0  0  0  0  0  0  0  0  0  0  0  0
    1.8653   -1.5468    0.2139 C   0  0  0  0  0  0  0  0  0  0  0  0
    1.3319   -1.4042    1.1568 H   0  0  0  0  0  0  0  0  0  0  0  0
    2.2163   -2.5829    0.1819 H   0  0  0  0  0  0  0  0  0  0  0  0
    2.7369   -0.8847    0.2084 H   0  0  0  0  0  0  0  0  0  0  0  0
   -0.6469    2.1598    0.0526 C   0  0  0  0  0  0  0  0  0  0  0  0
   -0.0557    2.9079    0.8171 O   0  0  0  0  0  0  0  0  0  0  0  0
   -1.4922    2.6987   -0.9035 N   0  0  0  0  0  0  0  0  0  0  0  0
   -1.8314    2.0708   -1.6247 H   0  0  0  0  0  0  0  0  0  0  0  0
   -1.6498    4.1352   -1.0980 C   0  0  0  0  0  0  0  0  0  0  0  0
   -0.6900    4.5950   -1.3566 H   0  0  0  0  0  0  0  0  0  0  0  0
   -2.3584    4.3320   -1.9082 H   0  0  0  0  0  0  0  0  0  0  0  0
   -2.0307    4.6052   -0.1851 H   0  0  0  0  0  0  0  0  0  0  0  0
  1  2  1  0  0  0  0
  2  3  1  0  0  0  0
  2  4  1  0  0  0  0
  2  5  1  0  0  0  0
  5  6  2  0  0  0  0
  5  7  1  0  0  0  0
  7  8  1  0  0  0  0
  7  9  1  0  0  0  0
  9 10  1  0  0  0  0
  9 11  1  0  0  0  0
  9 24  1  0  0  0  0
 11 12  1  0  0  0  0
 11 13  1  0  0  0  0
 11 14  1  0  0  0  0
 14 15  1  0  0  0  0
 14 16  1  0  0  0  0
 14 20  1  0  0  0  0
 16 17  1  0  0  0  0
 16 18  1  0  0  0  0
 16 19  1  0  0  0  0
 20 21  1  0  0  0  0
 20 22  1  0  0  0  0
 20 23  1  0  0  0  0
 24 25  2  0  0  0  0
 24 26  1  0  0  0  0
 26 27  1  0  0  0  0
 26 28  1  0  0  0  0
 28 29  1  0  0  0  0
 28 30  1  0  0  0  0
 28 31  1  0  0  0  0
M  END
$$$$

  -OEChem-01062216083D

 31 30  0     1  0  0  0  0  0999 V2000
   -3.4055   -2.8921    1.0379 H   0  0  0  0  0  0  0  0  0  0  0  0
   -3.3508   -1.9647    0.4607 C   0  0  0  0  0  0  0  0  0  0  0  0
   -4.2010   -1.3334    0.7299 H   0  0  0  0  0  0  0  0  0  0  0  0
   -3.4076   -2.2097   -0.6025 H   0  0  0  0  0  0  0  0  0  0  0  0
   -2.0515   -1.2402    0.7596 C   0  0  0  0  0  0  0  0  0  0  0  0
   -1.2726   -1.7126    1.5685 O   0  0  0  0  0  0  0  0  0  0  0  0
   -1.7832   -0.0406    0.1283 N   0  0  0  0  0  0  0  0  0  0  0  0
   -2.4504    0.2343   -0.5829 H   0  0  0  0  0  0  0  0  0  0  0  0
   -0.4822    0.6633    0.1732 C   0  0  1  0  0  0  0  0  0  0  0  0
    0.0121    0.4647    1.1302 H   0  0  0  0  0  0  0  0  0  0  0  0
    0.4270    0.2108   -0.9951 C   0  0  0  0  0  0  0  0  0  0  0  0
   -0.1101    0.3846   -1.9331 H   0  0  0  0  0  0  0  0  0  0  0  0
    1.3175    0.8498   -1.0105 H   0  0  0  0  0  0  0  0  0  0  0  0
    0.8964   -1.2592   -0.9591 C   0  0  0  0  0  0  0  0  0  0  0  0
    0.0323   -1.9264   -0.8946 H   0  0  0  0  0  0  0  0  0  0  0  0
    1.6534   -1.5758   -2.2545 C   0  0  0  0  0  0  0  0  0  0  0  0
    2.5278   -0.9258   -2.3618 H   0  0  0  0  0  0  0  0  0  0  0  0
    1.9925   -2.6164   -2.2534 H   0  0  0  0  0  0  0  0  0  0  0  0
    1.0030   -1.4298   -3.1223 H   0  0  0  0  0  0  0  0  0  0  0  0
    1.8300   -1.5260    0.2314 C   0  0  0  0  0  0  0  0  0  0  0  0
    1.3122   -1.3746    1.1815 H   0  0  0  0  0  0  0  0  0  0  0  0
    2.1884   -2.5596    0.2076 H   0  0  0  0  0  0  0  0  0  0  0  0
    2.6960   -0.8573    0.2004 H   0  0  0  0  0  0  0  0  0  0  0  0
   -0.6304    2.1972    0.0657 C   0  0  0  0  0  0  0  0  0  0  0  0
    0.2341    2.9246    0.5336 O   0  0  0  0  0  0  0  0  0  0  0  0
   -1.6756    2.7764   -0.6358 N   0  0  0  0  0  0  0  0  0  0  0  0
   -2.3660    2.1633   -1.0508 H   0  0  0  0  0  0  0  0  0  0  0  0
   -1.8129    4.2166   -0.8188 C   0  0  0  0  0  0  0  0  0  0  0  0
   -0.9779    4.6077   -1.4097 H   0  0  0  0  0  0  0  0  0  0  0  0
   -2.7459    4.4448   -1.3429 H   0  0  0  0  0  0  0  0  0  0  0  0
   -1.8288    4.7269    0.1502 H   0  0  0  0  0  0  0  0  0  0  0  0
  1  2  1  0  0  0  0
  2  3  1  0  0  0  0
  2  4  1  0  0  0  0
  2  5  1  0  0  0  0
  5  6  2  0  0  0  0
  5  7  1  0  0  0  0
  7  8  1  0  0  0  0
  7  9  1  0  0  0  0
  9 10  1  0  0  0  0
  9 11  1  0  0  0  0
  9 24  1  0  0  0  0
 11 12  1  0  0  0  0
 11 13  1  0  0  0  0
 11 14  1  0  0  0  0
 14 15  1  0  0  0  0
 14 16  1  0  0  0  0
 14 20  1  0  0  0  0
 16 17  1  0  0  0  0
 16 18  1  0  0  0  0
 16 19  1  0  0  0  0
 20 21  1  0  0  0  0
 20 22  1  0  0  0  0
 20 23  1  0  0  0  0
 24 25  2  0  0  0  0
 24 26  1  0  0  0  0
 26 27  1  0  0  0  0
 26 28  1  0  0  0  0
 28 29  1  0  0  0  0
 28 30  1  0  0  0  0
 28 31  1  0  0  0  0
M  END
$$$$

  -OEChem-01062216083D

 31 30  0     1  0  0  0  0  0999 V2000
   -3.2946   -2.9331    0.9635 H   0  0  0  0  0  0  0  0  0  0  0  0
   -3.2702   -1.9944    0.4026 C   0  0  0  0  0  0  0  0  0  0  0  0
   -4.1712   -1.4221    0.6366 H   0  0  0  0  0  0  0  0  0  0  0  0
   -3.2573   -2.2244   -0.6654 H   0  0  0  0  0  0  0  0  0  0  0  0
   -2.0357   -1.1958    0.7766 C   0  0  0  0  0  0  0  0  0  0  0  0
   -1.2985   -1.6038    1.6566 O   0  0  0  0  0  0  0  0  0  0  0  0
   -1.7773   -0.0021    0.1299 N   0  0  0  0  0  0  0  0  0  0  0  0
   -2.3659    0.1755   -0.6775 H   0  0  0  0  0  0  0  0  0  0  0  0
   -0.4691    0.6892    0.1646 C   0  0  1  0  0  0  0  0  0  0  0  0
    0.0307    0.4983    1.1196 H   0  0  0  0  0  0  0  0  0  0  0  0
    0.4243    0.2059   -1.0056 C   0  0  0  0  0  0  0  0  0  0  0  0
   -0.1166    0.3772   -1.9420 H   0  0  0  0  0  0  0  0  0  0  0  0
    1.3263    0.8275   -1.0377 H   0  0  0  0  0  0  0  0  0  0  0  0
    0.8706   -1.2713   -0.9509 C   0  0  0  0  0  0  0  0  0  0  0  0
   -0.0033   -1.9235   -0.8724 H   0  0  0  0  0  0  0  0  0  0  0  0
    1.6126   -1.6200   -2.2466 C   0  0  0  0  0  0  0  0  0  0  0  0
    2.5027   -0.9935   -2.3635 H   0  0  0  0  0  0  0  0  0  0  0  0
    1.9250   -2.6689   -2.2368 H   0  0  0  0  0  0  0  0  0  0  0  0
    0.9626   -1.4656   -3.1133 H   0  0  0  0  0  0  0  0  0  0  0  0
    1.8057   -1.5391    0.2375 C   0  0  0  0  0  0  0  0  0  0  0  0
    1.2964   -1.3645    1.1883 H   0  0  0  0  0  0  0  0  0  0  0  0
    2.1443   -2.5796    0.2259 H   0  0  0  0  0  0  0  0  0  0  0  0
    2.6841   -0.8878    0.1918 H   0  0  0  0  0  0  0  0  0  0  0  0
   -0.6160    2.2240    0.0488 C   0  0  0  0  0  0  0  0  0  0  0  0
    0.3544    2.9475    0.2256 O   0  0  0  0  0  0  0  0  0  0  0  0
   -1.8044    2.7974   -0.3726 N   0  0  0  0  0  0  0  0  0  0  0  0
   -2.6264    2.2049   -0.3418 H   0  0  0  0  0  0  0  0  0  0  0  0
   -1.9924    4.2397   -0.4777 C   0  0  0  0  0  0  0  0  0  0  0  0
   -1.2608    4.6728   -1.1684 H   0  0  0  0  0  0  0  0  0  0  0  0
   -2.9947    4.4642   -0.8548 H   0  0  0  0  0  0  0  0  0  0  0  0
   -1.8751    4.7136    0.5025 H   0  0  0  0  0  0  0  0  0  0  0  0
  1  2  1  0  0  0  0
  2  3  1  0  0  0  0
  2  4  1  0  0  0  0
  2  5  1  0  0  0  0
  5  6  2  0  0  0  0
  5  7  1  0  0  0  0
  7  8  1  0  0  0  0
  7  9  1  0  0  0  0
  9 10  1  0  0  0  0
  9 11  1  0  0  0  0
  9 24  1  0  0  0  0
 11 12  1  0  0  0  0
 11 13  1  0  0  0  0
 11 14  1  0  0  0  0
 14 15  1  0  0  0  0
 14 16  1  0  0  0  0
 14 20  1  0  0  0  0
 16 17  1  0  0  0  0
 16 18  1  0  0  0  0
 16 19  1  0  0  0  0
 20 21  1  0  0  0  0
 20 22  1  0  0  0  0
 20 23  1  0  0  0  0
 24 25  2  0  0  0  0
 24 26  1  0  0  0  0
 26 27  1  0  0  0  0
 26 28  1  0  0  0  0
 28 29  1  0  0  0  0
 28 30  1  0  0  0  0
 28 31  1  0  0  0  0
M  END
$$$$

  -OEChem-01062216083D

 31 30  0     1  0  0  0  0  0999 V2000
   -3.2804   -2.9371    0.9176 H   0  0  0  0  0  0  0  0  0  0  0  0
   -3.2697   -1.9807    0.3868 C   0  0  0  0  0  0  0  0  0  0  0  0
   -4.1671   -1.4188    0.6562 H   0  0  0  0  0  0  0  0  0  0  0  0
   -3.2777   -2.1771   -0.6879 H   0  0  0  0  0  0  0  0  0  0  0  0
   -2.0306   -1.1905    0.7629 C   0  0  0  0  0  0  0  0  0  0  0  0
   -1.2969   -1.6043    1.6430 O   0  0  0  0  0  0  0  0  0  0  0  0
   -1.7651    0.0061    0.1248 N   0  0  0  0  0  0  0  0  0  0  0  0
   -2.3595    0.2044   -0.6746 H   0  0  0  0  0  0  0  0  0  0  0  0
   -0.4545    0.6933    0.1619 C   0  0  1  0  0  0  0  0  0  0  0  0
    0.0452    0.5008    1.1166 H   0  0  0  0  0  0  0  0  0  0  0  0
    0.4363    0.2021   -1.0090 C   0  0  0  0  0  0  0  0  0  0  0  0
   -0.1036    0.3766   -1.9454 H   0  0  0  0  0  0  0  0  0  0  0  0
    1.3440    0.8146   -1.0438 H   0  0  0  0  0  0  0  0  0  0  0  0
    0.8740   -1.2778   -0.9514 C   0  0  0  0  0  0  0  0  0  0  0  0
   -0.0033   -1.9252   -0.8717 H   0  0  0  0  0  0  0  0  0  0  0  0
    1.6133   -1.6342   -2.2464 C   0  0  0  0  0  0  0  0  0  0  0  0
    2.5038   -1.0089   -2.3686 H   0  0  0  0  0  0  0  0  0  0  0  0
    1.9252   -2.6833   -2.2311 H   0  0  0  0  0  0  0  0  0  0  0  0
    0.9614   -1.4843   -3.1126 H   0  0  0  0  0  0  0  0  0  0  0  0
    1.8083   -1.5485    0.2373 C   0  0  0  0  0  0  0  0  0  0  0  0
    1.2985   -1.3766    1.1883 H   0  0  0  0  0  0  0  0  0  0  0  0
    2.1465   -2.5892    0.2233 H   0  0  0  0  0  0  0  0  0  0  0  0
    2.6870   -0.8972    0.1937 H   0  0  0  0  0  0  0  0  0  0  0  0
   -0.6141    2.2294    0.0544 C   0  0  0  0  0  0  0  0  0  0  0  0
    0.3675    2.9575   -0.0088 O   0  0  0  0  0  0  0  0  0  0  0  0
   -1.8708    2.8001   -0.0575 N   0  0  0  0  0  0  0  0  0  0  0  0
   -2.6549    2.2019    0.1821 H   0  0  0  0  0  0  0  0  0  0  0  0
   -2.0859    4.2413   -0.1179 C   0  0  0  0  0  0  0  0  0  0  0  0
   -1.5463    4.6744   -0.9667 H   0  0  0  0  0  0  0  0  0  0  0  0
   -3.1508    4.4600   -0.2410 H   0  0  0  0  0  0  0  0  0  0  0  0
   -1.7361    4.7201    0.8026 H   0  0  0  0  0  0  0  0  0  0  0  0
  1  2  1  0  0  0  0
  2  3  1  0  0  0  0
  2  4  1  0  0  0  0
  2  5  1  0  0  0  0
  5  6  2  0  0  0  0
  5  7  1  0  0  0  0
  7  8  1  0  0  0  0
  7  9  1  0  0  0  0
  9 10  1  0  0  0  0
  9 11  1  0  0  0  0
  9 24  1  0  0  0  0
 11 12  1  0  0  0  0
 11 13  1  0  0  0  0
 11 14  1  0  0  0  0
 14 15  1  0  0  0  0
 14 16  1  0  0  0  0
 14 20  1  0  0  0  0
 16 17  1  0  0  0  0
 16 18  1  0  0  0  0
 16 19  1  0  0  0  0
 20 21  1  0  0  0  0
 20 22  1  0  0  0  0
 20 23  1  0  0  0  0
 24 25  2  0  0  0  0
 24 26  1  0  0  0  0
 26 27  1  0  0  0  0
 26 28  1  0  0  0  0
 28 29  1  0  0  0  0
 28 30  1  0  0  0  0
 28 31  1  0  0  0  0
M  END
$$$$

  -OEChem-01062216083D

 31 30  0     1  0  0  0  0  0999 V2000
   -3.3079   -2.9083    0.9013 H   0  0  0  0  0  0  0  0  0  0  0  0
   -3.2863   -1.9473    0.3795 C   0  0  0  0  0  0  0  0  0  0  0  0
   -4.1693   -1.3710    0.6657 H   0  0  0  0  0  0  0  0  0  0  0  0
   -3.3123   -2.1328   -0.6969 H   0  0  0  0  0  0  0  0  0  0  0  0
   -2.0274   -1.1841    0.7458 C   0  0  0  0  0  0  0  0  0  0  0  0
   -1.2925   -1.6137    1.6174 O   0  0  0  0  0  0  0  0  0  0  0  0
   -1.7501    0.0147    0.1179 N   0  0  0  0  0  0  0  0  0  0  0  0
   -2.3633    0.2488   -0.6580 H   0  0  0  0  0  0  0  0  0  0  0  0
   -0.4368    0.6959    0.1536 C   0  0  1  0  0  0  0  0  0  0  0  0
    0.0615    0.5025    1.1087 H   0  0  0  0  0  0  0  0  0  0  0  0
    0.4541    0.1964   -1.0155 C   0  0  0  0  0  0  0  0  0  0  0  0
   -0.0834    0.3714   -1.9533 H   0  0  0  0  0  0  0  0  0  0  0  0
    1.3662    0.8023   -1.0502 H   0  0  0  0  0  0  0  0  0  0  0  0
    0.8862   -1.2851   -0.9536 C   0  0  0  0  0  0  0  0  0  0  0  0
    0.0065   -1.9292   -0.8740 H   0  0  0  0  0  0  0  0  0  0  0  0
    1.6254   -1.6473   -2.2471 C   0  0  0  0  0  0  0  0  0  0  0  0
    2.5193   -1.0270   -2.3691 H   0  0  0  0  0  0  0  0  0  0  0  0
    1.9314   -2.6979   -2.2299 H   0  0  0  0  0  0  0  0  0  0  0  0
    0.9756   -1.4950   -3.1145 H   0  0  0  0  0  0  0  0  0  0  0  0
    1.8175   -1.5569    0.2372 C   0  0  0  0  0  0  0  0  0  0  0  0
    1.3076   -1.3779    1.1868 H   0  0  0  0  0  0  0  0  0  0  0  0
    2.1494   -2.5997    0.2272 H   0  0  0  0  0  0  0  0  0  0  0  0
    2.7002   -0.9114    0.1922 H   0  0  0  0  0  0  0  0  0  0  0  0
   -0.6125    2.2325    0.0552 C   0  0  0  0  0  0  0  0  0  0  0  0
    0.3178    2.9654   -0.2535 O   0  0  0  0  0  0  0  0  0  0  0  0
   -1.8577    2.7999    0.2644 N   0  0  0  0  0  0  0  0  0  0  0  0
   -2.5631    2.1916    0.6695 H   0  0  0  0  0  0  0  0  0  0  0  0
   -2.0923    4.2391    0.2550 C   0  0  0  0  0  0  0  0  0  0  0  0
   -1.7972    4.6696   -0.7078 H   0  0  0  0  0  0  0  0  0  0  0  0
   -3.1540    4.4502    0.4141 H   0  0  0  0  0  0  0  0  0  0  0  0
   -1.5175    4.7264    1.0495 H   0  0  0  0  0  0  0  0  0  0  0  0
  1  2  1  0  0  0  0
  2  3  1  0  0  0  0
  2  4  1  0  0  0  0
  2  5  1  0  0  0  0
  5  6  2  0  0  0  0
  5  7  1  0  0  0  0
  7  8  1  0  0  0  0
  7  9  1  0  0  0  0
  9 10  1  0  0  0  0
  9 11  1  0  0  0  0
  9 24  1  0  0  0  0
 11 12  1  0  0  0  0
 11 13  1  0  0  0  0
 11 14  1  0  0  0  0
 14 15  1  0  0  0  0
 14 16  1  0  0  0  0
 14 20  1  0  0  0  0
 16 17  1  0  0  0  0
 16 18  1  0  0  0  0
 16 19  1  0  0  0  0
 20 21  1  0  0  0  0
 20 22  1  0  0  0  0
 20 23  1  0  0  0  0
 24 25  2  0  0  0  0
 24 26  1  0  0  0  0
 26 27  1  0  0  0  0
 26 28  1  0  0  0  0
 28 29  1  0  0  0  0
 28 30  1  0  0  0  0
 28 31  1  0  0  0  0
M  END
$$$$

  -OEChem-01062216083D

 31 30  0     1  0  0  0  0  0999 V2000
   -3.3317   -2.8744    0.9070 H   0  0  0  0  0  0  0  0  0  0  0  0
   -3.2895   -1.9233    0.3686 C   0  0  0  0  0  0  0  0  0  0  0  0
   -4.1681   -1.3298    0.6322 H   0  0  0  0  0  0  0  0  0  0  0  0
   -3.3031   -2.1274   -0.7048 H   0  0  0  0  0  0  0  0  0  0  0  0
   -2.0246   -1.1718    0.7375 C   0  0  0  0  0  0  0  0  0  0  0  0
   -1.2907   -1.6114    1.6052 O   0  0  0  0  0  0  0  0  0  0  0  0
   -1.7394    0.0291    0.1182 N   0  0  0  0  0  0  0  0  0  0  0  0
   -2.3655    0.2894   -0.6393 H   0  0  0  0  0  0  0  0  0  0  0  0
   -0.4223    0.7004    0.1509 C   0  0  1  0  0  0  0  0  0  0  0  0
    0.0776    0.5036    1.1043 H   0  0  0  0  0  0  0  0  0  0  0  0
    0.4662    0.1942   -1.0178 C   0  0  0  0  0  0  0  0  0  0  0  0
   -0.0714    0.3712   -1.9551 H   0  0  0  0  0  0  0  0  0  0  0  0
    1.3816    0.7951   -1.0532 H   0  0  0  0  0  0  0  0  0  0  0  0
    0.8903   -1.2899   -0.9553 C   0  0  0  0  0  0  0  0  0  0  0  0
    0.0069   -1.9290   -0.8758 H   0  0  0  0  0  0  0  0  0  0  0  0
    1.6278   -1.6569   -2.2488 C   0  0  0  0  0  0  0  0  0  0  0  0
    2.5259   -1.0426   -2.3700 H   0  0  0  0  0  0  0  0  0  0  0  0
    1.9267   -2.7096   -2.2324 H   0  0  0  0  0  0  0  0  0  0  0  0
    0.9795   -1.4998   -3.1164 H   0  0  0  0  0  0  0  0  0  0  0  0
    1.8198   -1.5655    0.2362 C   0  0  0  0  0  0  0  0  0  0  0  0
    1.3124   -1.3785    1.1856 H   0  0  0  0  0  0  0  0  0  0  0  0
    2.1420   -2.6112    0.2308 H   0  0  0  0  0  0  0  0  0  0  0  0
    2.7080   -0.9279    0.1876 H   0  0  0  0  0  0  0  0  0  0  0  0
   -0.6082    2.2363    0.0639 C   0  0  0  0  0  0  0  0  0  0  0  0
    0.2087    2.9623   -0.4876 O   0  0  0  0  0  0  0  0  0  0  0  0
   -1.7555    2.8107    0.5825 N   0  0  0  0  0  0  0  0  0  0  0  0
   -2.3619    2.2000    1.1229 H   0  0  0  0  0  0  0  0  0  0  0  0
   -1.9975    4.2483    0.6033 C   0  0  0  0  0  0  0  0  0  0  0  0
   -1.9788    4.6545   -0.4136 H   0  0  0  0  0  0  0  0  0  0  0  0
   -2.9777    4.4605    1.0409 H   0  0  0  0  0  0  0  0  0  0  0  0
   -1.2330    4.7566    1.2005 H   0  0  0  0  0  0  0  0  0  0  0  0
  1  2  1  0  0  0  0
  2  3  1  0  0  0  0
  2  4  1  0  0  0  0
  2  5  1  0  0  0  0
  5  6  2  0  0  0  0
  5  7  1  0  0  0  0
  7  8  1  0  0  0  0
  7  9  1  0  0  0  0
  9 10  1  0  0  0  0
  9 11  1  0  0  0  0
  9 24  1  0  0  0  0
 11 12  1  0  0  0  0
 11 13  1  0  0  0  0
 11 14  1  0  0  0  0
 14 15  1  0  0  0  0
 14 16  1  0  0  0  0
 14 20  1  0  0  0  0
 16 17  1  0  0  0  0
 16 18  1  0  0  0  0
 16 19  1  0  0  0  0
 20 21  1  0  0  0  0
 20 22  1  0  0  0  0
 20 23  1  0  0  0  0
 24 25  2  0  0  0  0
 24 26  1  0  0  0  0
 26 27  1  0  0  0  0
 26 28  1  0  0  0  0
 28 29  1  0  0  0  0
 28 30  1  0  0  0  0
 28 31  1  0  0  0  0
M  END
$$$$

  -OEChem-01062216083D

 31 30  0     1  0  0  0  0  0999 V2000
   -3.3575   -2.8446    0.8914 H   0  0  0  0  0  0  0  0  0  0  0  0
   -3.3092   -1.8833    0.3721 C   0  0  0  0  0  0  0  0  0  0  0  0
   -4.1715   -1.2802    0.6662 H   0  0  0  0  0  0  0  0  0  0  0  0
   -3.3488   -2.0645   -0.7047 H   0  0  0  0  0  0  0  0  0  0  0  0
   -2.0243   -1.1606    0.7294 C   0  0  0  0  0  0  0  0  0  0  0  0
   -1.2890   -1.6185    1.5867 O   0  0  0  0  0  0  0  0  0  0  0  0
   -1.7252    0.0412    0.1196 N   0  0  0  0  0  0  0  0  0  0  0  0
   -2.3627    0.3319   -0.6170 H   0  0  0  0  0  0  0  0  0  0  0  0
   -0.4033    0.6996    0.1529 C   0  0  1  0  0  0  0  0  0  0  0  0
    0.0964    0.4959    1.1046 H   0  0  0  0  0  0  0  0  0  0  0  0
    0.4854    0.1939   -1.0156 C   0  0  0  0  0  0  0  0  0  0  0  0
   -0.0480    0.3774   -1.9544 H   0  0  0  0  0  0  0  0  0  0  0  0
    1.4026    0.7928   -1.0436 H   0  0  0  0  0  0  0  0  0  0  0  0
    0.9002   -1.2928   -0.9588 C   0  0  0  0  0  0  0  0  0  0  0  0
    0.0120   -1.9258   -0.8843 H   0  0  0  0  0  0  0  0  0  0  0  0
    1.6389   -1.6594   -2.2514 C   0  0  0  0  0  0  0  0  0  0  0  0
    2.5414   -1.0508   -2.3680 H   0  0  0  0  0  0  0  0  0  0  0  0
    1.9302   -2.7143   -2.2376 H   0  0  0  0  0  0  0  0  0  0  0  0
    0.9938   -1.4950   -3.1200 H   0  0  0  0  0  0  0  0  0  0  0  0
    1.8259   -1.5801    0.2328 C   0  0  0  0  0  0  0  0  0  0  0  0
    1.3176   -1.3955    1.1822 H   0  0  0  0  0  0  0  0  0  0  0  0
    2.1427   -2.6275    0.2220 H   0  0  0  0  0  0  0  0  0  0  0  0
    2.7180   -0.9474    0.1893 H   0  0  0  0  0  0  0  0  0  0  0  0
   -0.5939    2.2343    0.0766 C   0  0  0  0  0  0  0  0  0  0  0  0
    0.0447    2.9416   -0.6924 O   0  0  0  0  0  0  0  0  0  0  0  0
   -1.5657    2.8234    0.8651 N   0  0  0  0  0  0  0  0  0  0  0  0
   -2.0508    2.2177    1.5218 H   0  0  0  0  0  0  0  0  0  0  0  0
   -1.8276    4.2571    0.8924 C   0  0  0  0  0  0  0  0  0  0  0  0
   -2.1035    4.6157   -0.1048 H   0  0  0  0  0  0  0  0  0  0  0  0
   -2.6514    4.4775    1.5780 H   0  0  0  0  0  0  0  0  0  0  0  0
   -0.9399    4.8022    1.2300 H   0  0  0  0  0  0  0  0  0  0  0  0
  1  2  1  0  0  0  0
  2  3  1  0  0  0  0
  2  4  1  0  0  0  0
  2  5  1  0  0  0  0
  5  6  2  0  0  0  0
  5  7  1  0  0  0  0
  7  8  1  0  0  0  0
  7  9  1  0  0  0  0
  9 10  1  0  0  0  0
  9 11  1  0  0  0  0
  9 24  1  0  0  0  0
 11 12  1  0  0  0  0
 11 13  1  0  0  0  0
 11 14  1  0  0  0  0
 14 15  1  0  0  0  0
 14 16  1  0  0  0  0
 14 20  1  0  0  0  0
 16 17  1  0  0  0  0
 16 18  1  0  0  0  0
 16 19  1  0  0  0  0
 20 21  1  0  0  0  0
 20 22  1  0  0  0  0
 20 23  1  0  0  0  0
 24 25  2  0  0  0  0
 24 26  1  0  0  0  0
 26 27  1  0  0  0  0
 26 28  1  0  0  0  0
 28 29  1  0  0  0  0
 28 30  1  0  0  0  0
 28 31  1  0  0  0  0
M  END
$$$$

  -OEChem-01062216083D

 31 30  0     1  0  0  0  0  0999 V2000
   -3.3802   -2.8208    0.8935 H   0  0  0  0  0  0  0  0  0  0  0  0
   -3.3235   -1.8579    0.3782 C   0  0  0  0  0  0  0  0  0  0  0  0
   -4.1751   -1.2448    0.6826 H   0  0  0  0  0  0  0  0  0  0  0  0
   -3.3747   -2.0332   -0.6990 H   0  0  0  0  0  0  0  0  0  0  0  0
   -2.0259   -1.1543    0.7276 C   0  0  0  0  0  0  0  0  0  0  0  0
   -1.2888   -1.6262    1.5763 O   0  0  0  0  0  0  0  0  0  0  0  0
   -1.7168    0.0475    0.1234 N   0  0  0  0  0  0  0  0  0  0  0  0
   -2.3593    0.3573   -0.6014 H   0  0  0  0  0  0  0  0  0  0  0  0
   -0.3915    0.6954    0.1589 C   0  0  1  0  0  0  0  0  0  0  0  0
    0.1087    0.4839    1.1086 H   0  0  0  0  0  0  0  0  0  0  0  0
    0.4980    0.1943   -1.0101 C   0  0  0  0  0  0  0  0  0  0  0  0
   -0.0345    0.3818   -1.9486 H   0  0  0  0  0  0  0  0  0  0  0  0
    1.4138    0.7952   -1.0337 H   0  0  0  0  0  0  0  0  0  0  0  0
    0.9069   -1.2940   -0.9629 C   0  0  0  0  0  0  0  0  0  0  0  0
    0.0153   -1.9232   -0.8951 H   0  0  0  0  0  0  0  0  0  0  0  0
    1.6479   -1.6542   -2.2563 C   0  0  0  0  0  0  0  0  0  0  0  0
    2.5546   -1.0503   -2.3649 H   0  0  0  0  0  0  0  0  0  0  0  0
    1.9327   -2.7111   -2.2509 H   0  0  0  0  0  0  0  0  0  0  0  0
    1.0066   -1.4780   -3.1255 H   0  0  0  0  0  0  0  0  0  0  0  0
    1.8276   -1.5942    0.2293 C   0  0  0  0  0  0  0  0  0  0  0  0
    1.3156   -1.4172    1.1780 H   0  0  0  0  0  0  0  0  0  0  0  0
    2.1419   -2.6423    0.2105 H   0  0  0  0  0  0  0  0  0  0  0  0
    2.7214   -0.9634    0.1952 H   0  0  0  0  0  0  0  0  0  0  0  0
   -0.5794    2.2290    0.0888 C   0  0  0  0  0  0  0  0  0  0  0  0
   -0.1623    2.9017   -0.8458 O   0  0  0  0  0  0  0  0  0  0  0  0
   -1.3099    2.8528    1.0833 N   0  0  0  0  0  0  0  0  0  0  0  0
   -1.6559    2.2670    1.8388 H   0  0  0  0  0  0  0  0  0  0  0  0
   -1.5781    4.2852    1.1131 C   0  0  0  0  0  0  0  0  0  0  0  0
   -2.1244    4.5918    0.2150 H   0  0  0  0  0  0  0  0  0  0  0  0
   -2.1836    4.5384    1.9887 H   0  0  0  0  0  0  0  0  0  0  0  0
   -0.6408    4.8488    1.1657 H   0  0  0  0  0  0  0  0  0  0  0  0
  1  2  1  0  0  0  0
  2  3  1  0  0  0  0
  2  4  1  0  0  0  0
  2  5  1  0  0  0  0
  5  6  2  0  0  0  0
  5  7  1  0  0  0  0
  7  8  1  0  0  0  0
  7  9  1  0  0  0  0
  9 10  1  0  0  0  0
  9 11  1  0  0  0  0
  9 24  1  0  0  0  0
 11 12  1  0  0  0  0
 11 13  1  0  0  0  0
 11 14  1  0  0  0  0
 14 15  1  0  0  0  0
 14 16  1  0  0  0  0
 14 20  1  0  0  0  0
 16 17  1  0  0  0  0
 16 18  1  0  0  0  0
 16 19  1  0  0  0  0
 20 21  1  0  0  0  0
 20 22  1  0  0  0  0
 20 23  1  0  0  0  0
 24 25  2  0  0  0  0
 24 26  1  0  0  0  0
 26 27  1  0  0  0  0
 26 28  1  0  0  0  0
 28 29  1  0  0  0  0
 28 30  1  0  0  0  0
 28 31  1  0  0  0  0
M  END
$$$$

  -OEChem-01062216083D

 31 30  0     1  0  0  0  0  0999 V2000
   -3.4029   -2.8010    0.9011 H   0  0  0  0  0  0  0  0  0  0  0  0
   -3.3351   -1.8420    0.3797 C   0  0  0  0  0  0  0  0  0  0  0  0
   -4.1793   -1.2169    0.6804 H   0  0  0  0  0  0  0  0  0  0  0  0
   -3.3882   -2.0232   -0.6965 H   0  0  0  0  0  0  0  0  0  0  0  0
   -2.0294   -1.1517    0.7251 C   0  0  0  0  0  0  0  0  0  0  0  0
   -1.2903   -1.6366    1.5651 O   0  0  0  0  0  0  0  0  0  0  0  0
   -1.7112    0.0499    0.1254 N   0  0  0  0  0  0  0  0  0  0  0  0
   -2.3546    0.3747   -0.5922 H   0  0  0  0  0  0  0  0  0  0  0  0
   -0.3842    0.6905    0.1653 C   0  0  1  0  0  0  0  0  0  0  0  0
    0.1145    0.4689    1.1132 H   0  0  0  0  0  0  0  0  0  0  0  0
    0.5060    0.1953   -1.0042 C   0  0  0  0  0  0  0  0  0  0  0  0
   -0.0259    0.3861   -1.9427 H   0  0  0  0  0  0  0  0  0  0  0  0
    1.4208    0.7980   -1.0240 H   0  0  0  0  0  0  0  0  0  0  0  0
    0.9097   -1.2946   -0.9647 C   0  0  0  0  0  0  0  0  0  0  0  0
    0.0158   -1.9213   -0.9015 H   0  0  0  0  0  0  0  0  0  0  0  0
    1.6526   -1.6492   -2.2583 C   0  0  0  0  0  0  0  0  0  0  0  0
    2.5601   -1.0458   -2.3619 H   0  0  0  0  0  0  0  0  0  0  0  0
    1.9364   -2.7062   -2.2579 H   0  0  0  0  0  0  0  0  0  0  0  0
    1.0132   -1.4677   -3.1277 H   0  0  0  0  0  0  0  0  0  0  0  0
    1.8286   -1.6048    0.2266 C   0  0  0  0  0  0  0  0  0  0  0  0
    1.3174   -1.4315    1.1766 H   0  0  0  0  0  0  0  0  0  0  0  0
    2.1388   -2.6540    0.2018 H   0  0  0  0  0  0  0  0  0  0  0  0
    2.7248   -0.9772    0.1961 H   0  0  0  0  0  0  0  0  0  0  0  0
   -0.5610    2.2238    0.0987 C   0  0  0  0  0  0  0  0  0  0  0  0
   -0.4044    2.8513   -0.9415 O   0  0  0  0  0  0  0  0  0  0  0  0
   -1.0042    2.8943    1.2237 N   0  0  0  0  0  0  0  0  0  0  0  0
   -1.1826    2.3377    2.0556 H   0  0  0  0  0  0  0  0  0  0  0  0
   -1.2734    4.3265    1.2569 C   0  0  0  0  0  0  0  0  0  0  0  0
   -2.0530    4.5869    0.5334 H   0  0  0  0  0  0  0  0  0  0  0  0
   -1.6132    4.6239    2.2535 H   0  0  0  0  0  0  0  0  0  0  0  0
   -0.3667    4.8922    1.0179 H   0  0  0  0  0  0  0  0  0  0  0  0
  1  2  1  0  0  0  0
  2  3  1  0  0  0  0
  2  4  1  0  0  0  0
  2  5  1  0  0  0  0
  5  6  2  0  0  0  0
  5  7  1  0  0  0  0
  7  8  1  0  0  0  0
  7  9  1  0  0  0  0
  9 10  1  0  0  0  0
  9 11  1  0  0  0  0
  9 24  1  0  0  0  0
 11 12  1  0  0  0  0
 11 13  1  0  0  0  0
 11 14  1  0  0  0  0
 14 15  1  0  0  0  0
 14 16  1  0  0  0  0
 14 20  1  0  0  0  0
 16 17  1  0  0  0  0
 16 18  1  0  0  0  0
 16 19  1  0  0  0  0
 20 21  1  0  0  0  0
 20 22  1  0  0  0  0
 20 23  1  0  0  0  0
 24 25  2  0  0  0  0
 24 26  1  0  0  0  0
 26 27  1  0  0  0  0
 26 28  1  0  0  0  0
 28 29  1  0  0  0  0
 28 30  1  0  0  0  0
 28 31  1  0  0  0  0
M  END
$$$$

  -OEChem-01062216083D

 31 30  0     1  0  0  0  0  0999 V2000
   -3.4300   -2.7832    0.9071 H   0  0  0  0  0  0  0  0  0  0  0  0
   -3.3528   -1.8226    0.3900 C   0  0  0  0  0  0  0  0  0  0  0  0
   -4.1844   -1.1863    0.7020 H   0  0  0  0  0  0  0  0  0  0  0  0
   -3.4198   -1.9973   -0.6865 H   0  0  0  0  0  0  0  0  0  0  0  0
   -2.0335   -1.1533    0.7256 C   0  0  0  0  0  0  0  0  0  0  0  0
   -1.2925   -1.6539    1.5551 O   0  0  0  0  0  0  0  0  0  0  0  0
   -1.7038    0.0452    0.1269 N   0  0  0  0  0  0  0  0  0  0  0  0
   -2.3527    0.3919   -0.5757 H   0  0  0  0  0  0  0  0  0  0  0  0
   -0.3760    0.6808    0.1729 C   0  0  1  0  0  0  0  0  0  0  0  0
    0.1191    0.4525    1.1212 H   0  0  0  0  0  0  0  0  0  0  0  0
    0.5167    0.1965   -0.9980 C   0  0  0  0  0  0  0  0  0  0  0  0
   -0.0121    0.3945   -1.9366 H   0  0  0  0  0  0  0  0  0  0  0  0
    1.4310    0.8000   -1.0103 H   0  0  0  0  0  0  0  0  0  0  0  0
    0.9172   -1.2943   -0.9695 C   0  0  0  0  0  0  0  0  0  0  0  0
    0.0211   -1.9187   -0.9154 H   0  0  0  0  0  0  0  0  0  0  0  0
    1.6641   -1.6402   -2.2633 C   0  0  0  0  0  0  0  0  0  0  0  0
    2.5765   -1.0424   -2.3565 H   0  0  0  0  0  0  0  0  0  0  0  0
    1.9398   -2.6994   -2.2726 H   0  0  0  0  0  0  0  0  0  0  0  0
    1.0306   -1.4453   -3.1344 H   0  0  0  0  0  0  0  0  0  0  0  0
    1.8294   -1.6172    0.2237 C   0  0  0  0  0  0  0  0  0  0  0  0
    1.3139   -1.4499    1.1722 H   0  0  0  0  0  0  0  0  0  0  0  0
    2.1361   -2.6672    0.1919 H   0  0  0  0  0  0  0  0  0  0  0  0
    2.7279   -0.9925    0.2031 H   0  0  0  0  0  0  0  0  0  0  0  0
   -0.5434    2.2135    0.1020 C   0  0  0  0  0  0  0  0  0  0  0  0
   -0.6612    2.7917   -0.9717 O   0  0  0  0  0  0  0  0  0  0  0  0
   -0.6808    2.9360    1.2726 N   0  0  0  0  0  0  0  0  0  0  0  0
   -0.6661    2.4154    2.1457 H   0  0  0  0  0  0  0  0  0  0  0  0
   -0.9438    4.3693    1.3073 C   0  0  0  0  0  0  0  0  0  0  0  0
   -1.8901    4.5980    0.8058 H   0  0  0  0  0  0  0  0  0  0  0  0
   -1.0083    4.7166    2.3430 H   0  0  0  0  0  0  0  0  0  0  0  0
   -0.1387    4.9187    0.8082 H   0  0  0  0  0  0  0  0  0  0  0  0
  1  2  1  0  0  0  0
  2  3  1  0  0  0  0
  2  4  1  0  0  0  0
  2  5  1  0  0  0  0
  5  6  2  0  0  0  0
  5  7  1  0  0  0  0
  7  8  1  0  0  0  0
  7  9  1  0  0  0  0
  9 10  1  0  0  0  0
  9 11  1  0  0  0  0
  9 24  1  0  0  0  0
 11 12  1  0  0  0  0
 11 13  1  0  0  0  0
 11 14  1  0  0  0  0
 14 15  1  0  0  0  0
 14 16  1  0  0  0  0
 14 20  1  0  0  0  0
 16 17  1  0  0  0  0
 16 18  1  0  0  0  0
 16 19  1  0  0  0  0
 20 21  1  0  0  0  0
 20 22  1  0  0  0  0
 20 23  1  0  0  0  0
 24 25  2  0  0  0  0
 24 26  1  0  0  0  0
 26 27  1  0  0  0  0
 26 28  1  0  0  0  0
 28 29  1  0  0  0  0
 28 30  1  0  0  0  0
 28 31  1  0  0  0  0
M  END
$$$$

  -OEChem-01062216083D

 31 30  0     1  0  0  0  0  0999 V2000
   -3.4693   -2.7572    0.9273 H   0  0  0  0  0  0  0  0  0  0  0  0
   -3.3786   -1.7999    0.4064 C   0  0  0  0  0  0  0  0  0  0  0  0
   -4.1898   -1.1435    0.7302 H   0  0  0  0  0  0  0  0  0  0  0  0
   -3.4669   -1.9750   -0.6685 H   0  0  0  0  0  0  0  0  0  0  0  0
   -2.0393   -1.1600    0.7188 C   0  0  0  0  0  0  0  0  0  0  0  0
   -1.2899   -1.6829    1.5270 O   0  0  0  0  0  0  0  0  0  0  0  0
   -1.6981    0.0353    0.1207 N   0  0  0  0  0  0  0  0  0  0  0  0
   -2.3589    0.4138   -0.5547 H   0  0  0  0  0  0  0  0  0  0  0  0
   -0.3710    0.6694    0.1749 C   0  0  1  0  0  0  0  0  0  0  0  0
    0.1168    0.4370    1.1259 H   0  0  0  0  0  0  0  0  0  0  0  0
    0.5271    0.1960   -0.9942 C   0  0  0  0  0  0  0  0  0  0  0  0
    0.0016    0.4007   -1.9332 H   0  0  0  0  0  0  0  0  0  0  0  0
    1.4408    0.8001   -0.9981 H   0  0  0  0  0  0  0  0  0  0  0  0
    0.9279   -1.2948   -0.9738 C   0  0  0  0  0  0  0  0  0  0  0  0
    0.0313   -1.9196   -0.9267 H   0  0  0  0  0  0  0  0  0  0  0  0
    1.6817   -1.6323   -2.2658 C   0  0  0  0  0  0  0  0  0  0  0  0
    2.5934   -1.0323   -2.3513 H   0  0  0  0  0  0  0  0  0  0  0  0
    1.9599   -2.6908   -2.2799 H   0  0  0  0  0  0  0  0  0  0  0  0
    1.0516   -1.4336   -3.1383 H   0  0  0  0  0  0  0  0  0  0  0  0
    1.8353   -1.6251    0.2207 C   0  0  0  0  0  0  0  0  0  0  0  0
    1.3167   -1.4633    1.1686 H   0  0  0  0  0  0  0  0  0  0  0  0
    2.1413   -2.6752    0.1834 H   0  0  0  0  0  0  0  0  0  0  0  0
    2.7342   -1.0009    0.2067 H   0  0  0  0  0  0  0  0  0  0  0  0
   -0.5340    2.2009    0.0971 C   0  0  0  0  0  0  0  0  0  0  0  0
   -0.9134    2.7340   -0.9390 O   0  0  0  0  0  0  0  0  0  0  0  0
   -0.3694    2.9720    1.2329 N   0  0  0  0  0  0  0  0  0  0  0  0
   -0.1468    2.4884    2.0986 H   0  0  0  0  0  0  0  0  0  0  0  0
   -0.6085    4.4095    1.2686 C   0  0  0  0  0  0  0  0  0  0  0  0
   -1.6511    4.6309    1.0178 H   0  0  0  0  0  0  0  0  0  0  0  0
   -0.4021    4.8022    2.2689 H   0  0  0  0  0  0  0  0  0  0  0  0
    0.0431    4.9241    0.5547 H   0  0  0  0  0  0  0  0  0  0  0  0
  1  2  1  0  0  0  0
  2  3  1  0  0  0  0
  2  4  1  0  0  0  0
  2  5  1  0  0  0  0
  5  6  2  0  0  0  0
  5  7  1  0  0  0  0
  7  8  1  0  0  0  0
  7  9  1  0  0  0  0
  9 10  1  0  0  0  0
  9 11  1  0  0  0  0
  9 24  1  0  0  0  0
 11 12  1  0  0  0  0
 11 13  1  0  0  0  0
 11 14  1  0  0  0  0
 14 15  1  0  0  0  0
 14 16  1  0  0  0  0
 14 20  1  0  0  0  0
 16 17  1  0  0  0  0
 16 18  1  0  0  0  0
 16 19  1  0  0  0  0
 20 21  1  0  0  0  0
 20 22  1  0  0  0  0
 20 23  1  0  0  0  0
 24 25  2  0  0  0  0
 24 26  1  0  0  0  0
 26 27  1  0  0  0  0
 26 28  1  0  0  0  0
 28 29  1  0  0  0  0
 28 30  1  0  0  0  0
 28 31  1  0  0  0  0
M  END
$$$$

  -OEChem-01062216083D

 31 30  0     1  0  0  0  0  0999 V2000
   -3.5051   -2.7436    0.9315 H   0  0  0  0  0  0  0  0  0  0  0  0
   -3.4114   -1.7758    0.4313 C   0  0  0  0  0  0  0  0  0  0  0  0
   -4.1949   -1.1101    0.8011 H   0  0  0  0  0  0  0  0  0  0  0  0
   -3.5431   -1.9216   -0.6436 H   0  0  0  0  0  0  0  0  0  0  0  0
   -2.0473   -1.1736    0.7100 C   0  0  0  0  0  0  0  0  0  0  0  0
   -1.2898   -1.7217    1.4938 O   0  0  0  0  0  0  0  0  0  0  0  0
   -1.6933    0.0175    0.1115 N   0  0  0  0  0  0  0  0  0  0  0  0
   -2.3700    0.4348   -0.5251 H   0  0  0  0  0  0  0  0  0  0  0  0
   -0.3689    0.6555    0.1766 C   0  0  1  0  0  0  0  0  0  0  0  0
    0.1104    0.4242    1.1321 H   0  0  0  0  0  0  0  0  0  0  0  0
    0.5361    0.1934   -0.9901 C   0  0  0  0  0  0  0  0  0  0  0  0
    0.0124    0.4027   -1.9294 H   0  0  0  0  0  0  0  0  0  0  0  0
    1.4476    0.8007   -0.9873 H   0  0  0  0  0  0  0  0  0  0  0  0
    0.9418   -1.2955   -0.9775 C   0  0  0  0  0  0  0  0  0  0  0  0
    0.0473   -1.9241   -0.9381 H   0  0  0  0  0  0  0  0  0  0  0  0
    1.7029   -1.6198   -2.2684 C   0  0  0  0  0  0  0  0  0  0  0  0
    2.6123   -1.0153   -2.3451 H   0  0  0  0  0  0  0  0  0  0  0  0
    1.9851   -2.6770   -2.2891 H   0  0  0  0  0  0  0  0  0  0  0  0
    1.0760   -1.4169   -3.1422 H   0  0  0  0  0  0  0  0  0  0  0  0
    1.8464   -1.6282    0.2188 C   0  0  0  0  0  0  0  0  0  0  0  0
    1.3230   -1.4745    1.1655 H   0  0  0  0  0  0  0  0  0  0  0  0
    2.1583   -2.6764    0.1769 H   0  0  0  0  0  0  0  0  0  0  0  0
    2.7422   -0.9994    0.2123 H   0  0  0  0  0  0  0  0  0  0  0  0
   -0.5318    2.1856    0.0863 C   0  0  0  0  0  0  0  0  0  0  0  0
   -1.1296    2.6843   -0.8605 O   0  0  0  0  0  0  0  0  0  0  0  0
   -0.0888    2.9979    1.1138 N   0  0  0  0  0  0  0  0  0  0  0  0
    0.3302    2.5463    1.9220 H   0  0  0  0  0  0  0  0  0  0  0  0
   -0.2884    4.4417    1.1356 C   0  0  0  0  0  0  0  0  0  0  0  0
   -1.3565    4.6817    1.1102 H   0  0  0  0  0  0  0  0  0  0  0  0
    0.1402    4.8687    2.0473 H   0  0  0  0  0  0  0  0  0  0  0  0
    0.1985    4.9087    0.2731 H   0  0  0  0  0  0  0  0  0  0  0  0
  1  2  1  0  0  0  0
  2  3  1  0  0  0  0
  2  4  1  0  0  0  0
  2  5  1  0  0  0  0
  5  6  2  0  0  0  0
  5  7  1  0  0  0  0
  7  8  1  0  0  0  0
  7  9  1  0  0  0  0
  9 10  1  0  0  0  0
  9 11  1  0  0  0  0
  9 24  1  0  0  0  0
 11 12  1  0  0  0  0
 11 13  1  0  0  0  0
 11 14  1  0  0  0  0
 14 15  1  0  0  0  0
 14 16  1  0  0  0  0
 14 20  1  0  0  0  0
 16 17  1  0  0  0  0
 16 18  1  0  0  0  0
 16 19  1  0  0  0  0
 20 21  1  0  0  0  0
 20 22  1  0  0  0  0
 20 23  1  0  0  0  0
 24 25  2  0  0  0  0
 24 26  1  0  0  0  0
 26 27  1  0  0  0  0
 26 28  1  0  0  0  0
 28 29  1  0  0  0  0
 28 30  1  0  0  0  0
 28 31  1  0  0  0  0
M  END
$$$$

  -OEChem-01062216083D

 31 30  0     1  0  0  0  0  0999 V2000
   -3.5323   -2.7290    0.9491 H   0  0  0  0  0  0  0  0  0  0  0  0
   -3.4303   -1.7632    0.4463 C   0  0  0  0  0  0  0  0  0  0  0  0
   -4.1960   -1.0836    0.8282 H   0  0  0  0  0  0  0  0  0  0  0  0
   -3.5822   -1.9072   -0.6261 H   0  0  0  0  0  0  0  0  0  0  0  0
   -2.0518   -1.1839    0.7008 C   0  0  0  0  0  0  0  0  0  0  0  0
   -1.2857   -1.7501    1.4632 O   0  0  0  0  0  0  0  0  0  0  0  0
   -1.6930    0.0047    0.1008 N   0  0  0  0  0  0  0  0  0  0  0  0
   -2.3881    0.4573   -0.4909 H   0  0  0  0  0  0  0  0  0  0  0  0
   -0.3723    0.6491    0.1736 C   0  0  1  0  0  0  0  0  0  0  0  0
    0.0998    0.4223    1.1339 H   0  0  0  0  0  0  0  0  0  0  0  0
    0.5389    0.1933   -0.9899 C   0  0  0  0  0  0  0  0  0  0  0  0
    0.0174    0.4036   -1.9301 H   0  0  0  0  0  0  0  0  0  0  0  0
    1.4486    0.8033   -0.9821 H   0  0  0  0  0  0  0  0  0  0  0  0
    0.9511   -1.2939   -0.9790 C   0  0  0  0  0  0  0  0  0  0  0  0
    0.0588   -1.9259   -0.9448 H   0  0  0  0  0  0  0  0  0  0  0  0
    1.7188   -1.6137   -2.2672 C   0  0  0  0  0  0  0  0  0  0  0  0
    2.6269   -1.0066   -2.3390 H   0  0  0  0  0  0  0  0  0  0  0  0
    2.0044   -2.6700   -2.2883 H   0  0  0  0  0  0  0  0  0  0  0  0
    1.0950   -1.4114   -3.1434 H   0  0  0  0  0  0  0  0  0  0  0  0
    1.8516   -1.6263    0.2204 C   0  0  0  0  0  0  0  0  0  0  0  0
    1.3236   -1.4754    1.1650 H   0  0  0  0  0  0  0  0  0  0  0  0
    2.1663   -2.6737    0.1779 H   0  0  0  0  0  0  0  0  0  0  0  0
    2.7458   -0.9953    0.2188 H   0  0  0  0  0  0  0  0  0  0  0  0
   -0.5359    2.1790    0.0731 C   0  0  0  0  0  0  0  0  0  0  0  0
   -1.3212    2.6589   -0.7374 O   0  0  0  0  0  0  0  0  0  0  0  0
    0.1558    3.0170    0.9283 N   0  0  0  0  0  0  0  0  0  0  0  0
    0.7518    2.5864    1.6297 H   0  0  0  0  0  0  0  0  0  0  0  0
   -0.0033    4.4661    0.9295 C   0  0  0  0  0  0  0  0  0  0  0  0
   -1.0395    4.7373    1.1572 H   0  0  0  0  0  0  0  0  0  0  0  0
    0.6466    4.9177    1.6850 H   0  0  0  0  0  0  0  0  0  0  0  0
    0.2631    4.8815   -0.0481 H   0  0  0  0  0  0  0  0  0  0  0  0
  1  2  1  0  0  0  0
  2  3  1  0  0  0  0
  2  4  1  0  0  0  0
  2  5  1  0  0  0  0
  5  6  2  0  0  0  0
  5  7  1  0  0  0  0
  7  8  1  0  0  0  0
  7  9  1  0  0  0  0
  9 10  1  0  0  0  0
  9 11  1  0  0  0  0
  9 24  1  0  0  0  0
 11 12  1  0  0  0  0
 11 13  1  0  0  0  0
 11 14  1  0  0  0  0
 14 15  1  0  0  0  0
 14 16  1  0  0  0  0
 14 20  1  0  0  0  0
 16 17  1  0  0  0  0
 16 18  1  0  0  0  0
 16 19  1  0  0  0  0
 20 21  1  0  0  0  0
 20 22  1  0  0  0  0
 20 23  1  0  0  0  0
 24 25  2  0  0  0  0
 24 26  1  0  0  0  0
 26 27  1  0  0  0  0
 26 28  1  0  0  0  0
 28 29  1  0  0  0  0
 28 30  1  0  0  0  0
 28 31  1  0  0  0  0
M  END
$$$$

  -OEChem-01062216083D

 31 30  0     1  0  0  0  0  0999 V2000
   -3.5561   -2.7158    0.9706 H   0  0  0  0  0  0  0  0  0  0  0  0
   -3.4481   -1.7540    0.4614 C   0  0  0  0  0  0  0  0  0  0  0  0
   -4.1948   -1.0602    0.8552 H   0  0  0  0  0  0  0  0  0  0  0  0
   -3.6234   -1.8999   -0.6072 H   0  0  0  0  0  0  0  0  0  0  0  0
   -2.0554   -1.1965    0.6854 C   0  0  0  0  0  0  0  0  0  0  0  0
   -1.2786   -1.7804    1.4232 O   0  0  0  0  0  0  0  0  0  0  0  0
   -1.6950   -0.0087    0.0852 N   0  0  0  0  0  0  0  0  0  0  0  0
   -2.4113    0.4803   -0.4501 H   0  0  0  0  0  0  0  0  0  0  0  0
   -0.3795    0.6456    0.1671 C   0  0  1  0  0  0  0  0  0  0  0  0
    0.0866    0.4253    1.1318 H   0  0  0  0  0  0  0  0  0  0  0  0
    0.5393    0.1932   -0.9925 C   0  0  0  0  0  0  0  0  0  0  0  0
    0.0193    0.3998   -1.9345 H   0  0  0  0  0  0  0  0  0  0  0  0
    1.4462    0.8072   -0.9836 H   0  0  0  0  0  0  0  0  0  0  0  0
    0.9604   -1.2915   -0.9794 C   0  0  0  0  0  0  0  0  0  0  0  0
    0.0719   -1.9286   -0.9486 H   0  0  0  0  0  0  0  0  0  0  0  0
    1.7350   -1.6081   -2.2641 C   0  0  0  0  0  0  0  0  0  0  0  0
    2.6410   -0.9973   -2.3317 H   0  0  0  0  0  0  0  0  0  0  0  0
    2.0250   -2.6634   -2.2836 H   0  0  0  0  0  0  0  0  0  0  0  0
    1.1140   -1.4085   -3.1430 H   0  0  0  0  0  0  0  0  0  0  0  0
    1.8583   -1.6174    0.2235 C   0  0  0  0  0  0  0  0  0  0  0  0
    1.3273   -1.4645    1.1661 H   0  0  0  0  0  0  0  0  0  0  0  0
    2.1756   -2.6641    0.1851 H   0  0  0  0  0  0  0  0  0  0  0  0
    2.7508   -0.9842    0.2219 H   0  0  0  0  0  0  0  0  0  0  0  0
   -0.5463    2.1756    0.0585 C   0  0  0  0  0  0  0  0  0  0  0  0
   -1.4806    2.6502   -0.5792 O   0  0  0  0  0  0  0  0  0  0  0  0
    0.3458    3.0238    0.6889 N   0  0  0  0  0  0  0  0  0  0  0  0
    1.0845    2.6023    1.2446 H   0  0  0  0  0  0  0  0  0  0  0  0
    0.2258    4.4765    0.6589 C   0  0  0  0  0  0  0  0  0  0  0  0
   -0.7146    4.7929    1.1223 H   0  0  0  0  0  0  0  0  0  0  0  0
    1.0538    4.9362    1.2073 H   0  0  0  0  0  0  0  0  0  0  0  0
    0.2505    4.8419   -0.3731 H   0  0  0  0  0  0  0  0  0  0  0  0
  1  2  1  0  0  0  0
  2  3  1  0  0  0  0
  2  4  1  0  0  0  0
  2  5  1  0  0  0  0
  5  6  2  0  0  0  0
  5  7  1  0  0  0  0
  7  8  1  0  0  0  0
  7  9  1  0  0  0  0
  9 10  1  0  0  0  0
  9 11  1  0  0  0  0
  9 24  1  0  0  0  0
 11 12  1  0  0  0  0
 11 13  1  0  0  0  0
 11 14  1  0  0  0  0
 14 15  1  0  0  0  0
 14 16  1  0  0  0  0
 14 20  1  0  0  0  0
 16 17  1  0  0  0  0
 16 18  1  0  0  0  0
 16 19  1  0  0  0  0
 20 21  1  0  0  0  0
 20 22  1  0  0  0  0
 20 23  1  0  0  0  0
 24 25  2  0  0  0  0
 24 26  1  0  0  0  0
 26 27  1  0  0  0  0
 26 28  1  0  0  0  0
 28 29  1  0  0  0  0
 28 30  1  0  0  0  0
 28 31  1  0  0  0  0
M  END
$$$$

  -OEChem-01062216083D

 31 30  0     1  0  0  0  0  0999 V2000
   -3.5741   -2.7022    0.9903 H   0  0  0  0  0  0  0  0  0  0  0  0
   -3.4615   -1.7444    0.4749 C   0  0  0  0  0  0  0  0  0  0  0  0
   -4.1885   -1.0372    0.8812 H   0  0  0  0  0  0  0  0  0  0  0  0
   -3.6616   -1.8916   -0.5891 H   0  0  0  0  0  0  0  0  0  0  0  0
   -2.0556   -1.2084    0.6671 C   0  0  0  0  0  0  0  0  0  0  0  0
   -1.2693   -1.8094    1.3808 O   0  0  0  0  0  0  0  0  0  0  0  0
   -1.6962   -0.0193    0.0685 N   0  0  0  0  0  0  0  0  0  0  0  0
   -2.4327    0.5037   -0.4040 H   0  0  0  0  0  0  0  0  0  0  0  0
   -0.3852    0.6441    0.1604 C   0  0  1  0  0  0  0  0  0  0  0  0
    0.0756    0.4286    1.1288 H   0  0  0  0  0  0  0  0  0  0  0  0
    0.5404    0.1915   -0.9958 C   0  0  0  0  0  0  0  0  0  0  0  0
    0.0216    0.3937   -1.9393 H   0  0  0  0  0  0  0  0  0  0  0  0
    1.4461    0.8067   -0.9878 H   0  0  0  0  0  0  0  0  0  0  0  0
    0.9688   -1.2910   -0.9806 C   0  0  0  0  0  0  0  0  0  0  0  0
    0.0834   -1.9326   -0.9525 H   0  0  0  0  0  0  0  0  0  0  0  0
    1.7492   -1.6053   -2.2625 C   0  0  0  0  0  0  0  0  0  0  0  0
    2.6527   -0.9909   -2.3278 H   0  0  0  0  0  0  0  0  0  0  0  0
    2.0436   -2.6594   -2.2798 H   0  0  0  0  0  0  0  0  0  0  0  0
    1.1306   -1.4095   -3.1438 H   0  0  0  0  0  0  0  0  0  0  0  0
    1.8651   -1.6104    0.2256 C   0  0  0  0  0  0  0  0  0  0  0  0
    1.3327   -1.4528    1.1668 H   0  0  0  0  0  0  0  0  0  0  0  0
    2.1829   -2.6573    0.1930 H   0  0  0  0  0  0  0  0  0  0  0  0
    2.7575   -0.9769    0.2224 H   0  0  0  0  0  0  0  0  0  0  0  0
   -0.5572    2.1754    0.0481 C   0  0  0  0  0  0  0  0  0  0  0  0
   -1.6014    2.6523   -0.3854 O   0  0  0  0  0  0  0  0  0  0  0  0
    0.4725    3.0246    0.4115 N   0  0  0  0  0  0  0  0  0  0  0  0
    1.3155    2.6058    0.7936 H   0  0  0  0  0  0  0  0  0  0  0  0
    0.3754    4.4776    0.3409 C   0  0  0  0  0  0  0  0  0  0  0  0
   -0.4164    4.8413    1.0043 H   0  0  0  0  0  0  0  0  0  0  0  0
    1.3211    4.9354    0.6469 H   0  0  0  0  0  0  0  0  0  0  0  0
    0.1527    4.7977   -0.6825 H   0  0  0  0  0  0  0  0  0  0  0  0
  1  2  1  0  0  0  0
  2  3  1  0  0  0  0
  2  4  1  0  0  0  0
  2  5  1  0  0  0  0
  5  6  2  0  0  0  0
  5  7  1  0  0  0  0
  7  8  1  0  0  0  0
  7  9  1  0  0  0  0
  9 10  1  0  0  0  0
  9 11  1  0  0  0  0
  9 24  1  0  0  0  0
 11 12  1  0  0  0  0
 11 13  1  0  0  0  0
 11 14  1  0  0  0  0
 14 15  1  0  0  0  0
 14 16  1  0  0  0  0
 14 20  1  0  0  0  0
 16 17  1  0  0  0  0
 16 18  1  0  0  0  0
 16 19  1  0  0  0  0
 20 21  1  0  0  0  0
 20 22  1  0  0  0  0
 20 23  1  0  0  0  0
 24 25  2  0  0  0  0
 24 26  1  0  0  0  0
 26 27  1  0  0  0  0
 26 28  1  0  0  0  0
 28 29  1  0  0  0  0
 28 30  1  0  0  0  0
 28 31  1  0  0  0  0
M  END
$$$$

  -OEChem-01062216083D

 31 30  0     1  0  0  0  0  0999 V2000
   -3.5207   -2.6728    1.0629 H   0  0  0  0  0  0  0  0  0  0  0  0
   -3.4351   -1.7205    0.5320 C   0  0  0  0  0  0  0  0  0  0  0  0
   -4.0834   -0.9869    1.0175 H   0  0  0  0  0  0  0  0  0  0  0  0
   -3.7641   -1.8614   -0.5004 H   0  0  0  0  0  0  0  0  0  0  0  0
   -1.9977   -1.2362    0.5542 C   0  0  0  0  0  0  0  0  0  0  0  0
   -1.1393   -1.9120    1.0984 O   0  0  0  0  0  0  0  0  0  0  0  0
   -1.6801   -0.0276   -0.0301 N   0  0  0  0  0  0  0  0  0  0  0  0
   -2.4677    0.5683   -0.2821 H   0  0  0  0  0  0  0  0  0  0  0  0
   -0.3782    0.6491    0.0936 C   0  0  1  0  0  0  0  0  0  0  0  0
    0.1941    0.2345    0.9287 H   0  0  0  0  0  0  0  0  0  0  0  0
    0.4039    0.4830   -1.2305 C   0  0  0  0  0  0  0  0  0  0  0  0
   -0.2188    0.8691   -2.0450 H   0  0  0  0  0  0  0  0  0  0  0  0
    1.3091    1.0972   -1.1957 H   0  0  0  0  0  0  0  0  0  0  0  0
    0.8207   -0.9658   -1.5634 C   0  0  0  0  0  0  0  0  0  0  0  0
   -0.0618   -1.6134   -1.5619 H   0  0  0  0  0  0  0  0  0  0  0  0
    1.4476   -1.0023   -2.9623 C   0  0  0  0  0  0  0  0  0  0  0  0
    2.3397   -0.3695   -3.0052 H   0  0  0  0  0  0  0  0  0  0  0  0
    1.7345   -2.0254   -3.2251 H   0  0  0  0  0  0  0  0  0  0  0  0
    0.7320   -0.6462   -3.7100 H   0  0  0  0  0  0  0  0  0  0  0  0
    1.8439   -1.5115   -0.5558 C   0  0  0  0  0  0  0  0  0  0  0  0
    1.4136   -1.5798    0.4463 H   0  0  0  0  0  0  0  0  0  0  0  0
    2.1646   -2.5160   -0.8490 H   0  0  0  0  0  0  0  0  0  0  0  0
    2.7257   -0.8650   -0.5115 H   0  0  0  0  0  0  0  0  0  0  0  0
   -0.5770    2.1543    0.3867 C   0  0  0  0  0  0  0  0  0  0  0  0
   -1.7055    2.6344    0.4258 O   0  0  0  0  0  0  0  0  0  0  0  0
    0.5122    2.9929    0.5449 N   0  0  0  0  0  0  0  0  0  0  0  0
    1.4363    2.5713    0.5305 H   0  0  0  0  0  0  0  0  0  0  0  0
    0.3931    4.4226    0.8047 C   0  0  0  0  0  0  0  0  0  0  0  0
   -0.1240    4.5975    1.7540 H   0  0  0  0  0  0  0  0  0  0  0  0
    1.3853    4.8808    0.8609 H   0  0  0  0  0  0  0  0  0  0  0  0
   -0.1678    4.9129    0.0020 H   0  0  0  0  0  0  0  0  0  0  0  0
  1  2  1  0  0  0  0
  2  3  1  0  0  0  0
  2  4  1  0  0  0  0
  2  5  1  0  0  0  0
  5  6  2  0  0  0  0
  5  7  1  0  0  0  0
  7  8  1  0  0  0  0
  7  9  1  0  0  0  0
  9 10  1  0  0  0  0
  9 11  1  0  0  0  0
  9 24  1  0  0  0  0
 11 12  1  0  0  0  0
 11 13  1  0  0  0  0
 11 14  1  0  0  0  0
 14 15  1  0  0  0  0
 14 16  1  0  0  0  0
 14 20  1  0  0  0  0
 16 17  1  0  0  0  0
 16 18  1  0  0  0  0
 16 19  1  0  0  0  0
 20 21  1  0  0  0  0
 20 22  1  0  0  0  0
 20 23  1  0  0  0  0
 24 25  2  0  0  0  0
 24 26  1  0  0  0  0
 26 27  1  0  0  0  0
 26 28  1  0  0  0  0
 28 29  1  0  0  0  0
 28 30  1  0  0  0  0
 28 31  1  0  0  0  0
M  END
$$$$

  -OEChem-01062216083D

 31 30  0     1  0  0  0  0  0999 V2000
   -3.5203   -2.6489    1.0820 H   0  0  0  0  0  0  0  0  0  0  0  0
   -3.4348   -1.6987    0.5474 C   0  0  0  0  0  0  0  0  0  0  0  0
   -4.0604   -0.9556    1.0480 H   0  0  0  0  0  0  0  0  0  0  0  0
   -3.7917   -1.8365   -0.4760 H   0  0  0  0  0  0  0  0  0  0  0  0
   -1.9909   -1.2339    0.5328 C   0  0  0  0  0  0  0  0  0  0  0  0
   -1.1279   -1.9262    1.0479 O   0  0  0  0  0  0  0  0  0  0  0  0
   -1.6758   -0.0229   -0.0485 N   0  0  0  0  0  0  0  0  0  0  0  0
   -2.4678    0.5860   -0.2492 H   0  0  0  0  0  0  0  0  0  0  0  0
   -0.3720    0.6509    0.0807 C   0  0  1  0  0  0  0  0  0  0  0  0
    0.1978    0.2377    0.9182 H   0  0  0  0  0  0  0  0  0  0  0  0
    0.4140    0.4732   -1.2423 C   0  0  0  0  0  0  0  0  0  0  0  0
   -0.2036    0.8598   -2.0604 H   0  0  0  0  0  0  0  0  0  0  0  0
    1.3252    1.0777   -1.2091 H   0  0  0  0  0  0  0  0  0  0  0  0
    0.8265   -0.9783   -1.5685 C   0  0  0  0  0  0  0  0  0  0  0  0
   -0.0579   -1.6231   -1.5665 H   0  0  0  0  0  0  0  0  0  0  0  0
    1.4566   -1.0226   -2.9659 C   0  0  0  0  0  0  0  0  0  0  0  0
    2.3528   -0.3955   -3.0088 H   0  0  0  0  0  0  0  0  0  0  0  0
    1.7376   -2.0484   -3.2250 H   0  0  0  0  0  0  0  0  0  0  0  0
    0.7452   -0.6647   -3.7166 H   0  0  0  0  0  0  0  0  0  0  0  0
    1.8471   -1.5234   -0.5576 C   0  0  0  0  0  0  0  0  0  0  0  0
    1.4181   -1.5810    0.4455 H   0  0  0  0  0  0  0  0  0  0  0  0
    2.1604   -2.5323   -0.8436 H   0  0  0  0  0  0  0  0  0  0  0  0
    2.7337   -0.8830   -0.5187 H   0  0  0  0  0  0  0  0  0  0  0  0
   -0.5810    2.1566    0.3801 C   0  0  0  0  0  0  0  0  0  0  0  0
   -1.6991    2.5787    0.6575 O   0  0  0  0  0  0  0  0  0  0  0  0
    0.4527    3.0679    0.2482 N   0  0  0  0  0  0  0  0  0  0  0  0
    1.3759    2.7031    0.0331 H   0  0  0  0  0  0  0  0  0  0  0  0
    0.2979    4.4984    0.4842 C   0  0  0  0  0  0  0  0  0  0  0  0
    0.0078    4.6855    1.5234 H   0  0  0  0  0  0  0  0  0  0  0  0
    1.2404    5.0184    0.2884 H   0  0  0  0  0  0  0  0  0  0  0  0
   -0.4693    4.9155   -0.1765 H   0  0  0  0  0  0  0  0  0  0  0  0
  1  2  1  0  0  0  0
  2  3  1  0  0  0  0
  2  4  1  0  0  0  0
  2  5  1  0  0  0  0
  5  6  2  0  0  0  0
  5  7  1  0  0  0  0
  7  8  1  0  0  0  0
  7  9  1  0  0  0  0
  9 10  1  0  0  0  0
  9 11  1  0  0  0  0
  9 24  1  0  0  0  0
 11 12  1  0  0  0  0
 11 13  1  0  0  0  0
 11 14  1  0  0  0  0
 14 15  1  0  0  0  0
 14 16  1  0  0  0  0
 14 20  1  0  0  0  0
 16 17  1  0  0  0  0
 16 18  1  0  0  0  0
 16 19  1  0  0  0  0
 20 21  1  0  0  0  0
 20 22  1  0  0  0  0
 20 23  1  0  0  0  0
 24 25  2  0  0  0  0
 24 26  1  0  0  0  0
 26 27  1  0  0  0  0
 26 28  1  0  0  0  0
 28 29  1  0  0  0  0
 28 30  1  0  0  0  0
 28 31  1  0  0  0  0
M  END
$$$$

  -OEChem-01062216083D

 31 30  0     1  0  0  0  0  0999 V2000
   -3.5237   -2.6216    1.1067 H   0  0  0  0  0  0  0  0  0  0  0  0
   -3.4399   -1.6729    0.5692 C   0  0  0  0  0  0  0  0  0  0  0  0
   -4.0394   -0.9210    1.0883 H   0  0  0  0  0  0  0  0  0  0  0  0
   -3.8295   -1.8046   -0.4431 H   0  0  0  0  0  0  0  0  0  0  0  0
   -1.9899   -1.2303    0.5121 C   0  0  0  0  0  0  0  0  0  0  0  0
   -1.1231   -1.9411    0.9941 O   0  0  0  0  0  0  0  0  0  0  0  0
   -1.6769   -0.0168   -0.0658 N   0  0  0  0  0  0  0  0  0  0  0  0
   -2.4714    0.6001   -0.2261 H   0  0  0  0  0  0  0  0  0  0  0  0
   -0.3691    0.6511    0.0621 C   0  0  1  0  0  0  0  0  0  0  0  0
    0.1968    0.2378    0.9023 H   0  0  0  0  0  0  0  0  0  0  0  0
    0.4255    0.4622   -1.2557 C   0  0  0  0  0  0  0  0  0  0  0  0
   -0.1834    0.8485   -2.0803 H   0  0  0  0  0  0  0  0  0  0  0  0
    1.3418    1.0583   -1.2164 H   0  0  0  0  0  0  0  0  0  0  0  0
    0.8363   -0.9913   -1.5747 C   0  0  0  0  0  0  0  0  0  0  0  0
   -0.0494   -1.6344   -1.5754 H   0  0  0  0  0  0  0  0  0  0  0  0
    1.4747   -1.0414   -2.9683 C   0  0  0  0  0  0  0  0  0  0  0  0
    2.3710   -0.4143   -3.0090 H   0  0  0  0  0  0  0  0  0  0  0  0
    1.7580   -2.0684   -3.2204 H   0  0  0  0  0  0  0  0  0  0  0  0
    0.7672   -0.6872   -3.7245 H   0  0  0  0  0  0  0  0  0  0  0  0
    1.8525   -1.5346   -0.5579 C   0  0  0  0  0  0  0  0  0  0  0  0
    1.4231   -1.5812    0.4456 H   0  0  0  0  0  0  0  0  0  0  0  0
    2.1595   -2.5479   -0.8351 H   0  0  0  0  0  0  0  0  0  0  0  0
    2.7433   -0.8996   -0.5239 H   0  0  0  0  0  0  0  0  0  0  0  0
   -0.5850    2.1558    0.3710 C   0  0  0  0  0  0  0  0  0  0  0  0
   -1.6327    2.5237    0.8914 O   0  0  0  0  0  0  0  0  0  0  0  0
    0.3161    3.1268   -0.0328 N   0  0  0  0  0  0  0  0  0  0  0  0
    1.1778    2.8155   -0.4705 H   0  0  0  0  0  0  0  0  0  0  0  0
    0.1172    4.5540    0.1923 C   0  0  0  0  0  0  0  0  0  0  0  0
    0.0658    4.7689    1.2648 H   0  0  0  0  0  0  0  0  0  0  0  0
    0.9476    5.1237   -0.2356 H   0  0  0  0  0  0  0  0  0  0  0  0
   -0.8117    4.8913   -0.2796 H   0  0  0  0  0  0  0  0  0  0  0  0
  1  2  1  0  0  0  0
  2  3  1  0  0  0  0
  2  4  1  0  0  0  0
  2  5  1  0  0  0  0
  5  6  2  0  0  0  0
  5  7  1  0  0  0  0
  7  8  1  0  0  0  0
  7  9  1  0  0  0  0
  9 10  1  0  0  0  0
  9 11  1  0  0  0  0
  9 24  1  0  0  0  0
 11 12  1  0  0  0  0
 11 13  1  0  0  0  0
 11 14  1  0  0  0  0
 14 15  1  0  0  0  0
 14 16  1  0  0  0  0
 14 20  1  0  0  0  0
 16 17  1  0  0  0  0
 16 18  1  0  0  0  0
 16 19  1  0  0  0  0
 20 21  1  0  0  0  0
 20 22  1  0  0  0  0
 20 23  1  0  0  0  0
 24 25  2  0  0  0  0
 24 26  1  0  0  0  0
 26 27  1  0  0  0  0
 26 28  1  0  0  0  0
 28 29  1  0  0  0  0
 28 30  1  0  0  0  0
 28 31  1  0  0  0  0
M  END
$$$$

  -OEChem-01062216083D

 31 30  0     1  0  0  0  0  0999 V2000
   -3.5152   -2.6236    1.1068 H   0  0  0  0  0  0  0  0  0  0  0  0
   -3.4374   -1.6724    0.5727 C   0  0  0  0  0  0  0  0  0  0  0  0
   -4.0363   -0.9244    1.0981 H   0  0  0  0  0  0  0  0  0  0  0  0
   -3.8318   -1.8024   -0.4379 H   0  0  0  0  0  0  0  0  0  0  0  0
   -1.9891   -1.2247    0.5104 C   0  0  0  0  0  0  0  0  0  0  0  0
   -1.1189   -1.9349    0.9867 O   0  0  0  0  0  0  0  0  0  0  0  0
   -1.6817   -0.0103   -0.0698 N   0  0  0  0  0  0  0  0  0  0  0  0
   -2.4796    0.5996   -0.2340 H   0  0  0  0  0  0  0  0  0  0  0  0
   -0.3724    0.6570    0.0494 C   0  0  1  0  0  0  0  0  0  0  0  0
    0.1946    0.2473    0.8907 H   0  0  0  0  0  0  0  0  0  0  0  0
    0.4254    0.4579   -1.2650 C   0  0  0  0  0  0  0  0  0  0  0  0
   -0.1806    0.8375   -2.0947 H   0  0  0  0  0  0  0  0  0  0  0  0
    1.3418    1.0548   -1.2232 H   0  0  0  0  0  0  0  0  0  0  0  0
    0.8382   -0.9974   -1.5729 C   0  0  0  0  0  0  0  0  0  0  0  0
   -0.0462   -1.6420   -1.5705 H   0  0  0  0  0  0  0  0  0  0  0  0
    1.4794   -1.0550   -2.9646 C   0  0  0  0  0  0  0  0  0  0  0  0
    2.3715   -0.4221   -3.0082 H   0  0  0  0  0  0  0  0  0  0  0  0
    1.7695   -2.0819   -3.2082 H   0  0  0  0  0  0  0  0  0  0  0  0
    0.7712   -0.7118   -3.7252 H   0  0  0  0  0  0  0  0  0  0  0  0
    1.8537   -1.5324   -0.5511 C   0  0  0  0  0  0  0  0  0  0  0  0
    1.4238   -1.5727    0.4525 H   0  0  0  0  0  0  0  0  0  0  0  0
    2.1625   -2.5470   -0.8214 H   0  0  0  0  0  0  0  0  0  0  0  0
    2.7434   -0.8960   -0.5201 H   0  0  0  0  0  0  0  0  0  0  0  0
   -0.5895    2.1605    0.3610 C   0  0  0  0  0  0  0  0  0  0  0  0
   -1.5029    2.4921    1.1073 O   0  0  0  0  0  0  0  0  0  0  0  0
    0.1155    3.1630   -0.2851 N   0  0  0  0  0  0  0  0  0  0  0  0
    0.8513    2.8820   -0.9257 H   0  0  0  0  0  0  0  0  0  0  0  0
   -0.1139    4.5854   -0.0579 C   0  0  0  0  0  0  0  0  0  0  0  0
    0.0852    4.8429    0.9877 H   0  0  0  0  0  0  0  0  0  0  0  0
    0.5483    5.1813   -0.6932 H   0  0  0  0  0  0  0  0  0  0  0  0
   -1.1496    4.8506   -0.2954 H   0  0  0  0  0  0  0  0  0  0  0  0
  1  2  1  0  0  0  0
  2  3  1  0  0  0  0
  2  4  1  0  0  0  0
  2  5  1  0  0  0  0
  5  6  2  0  0  0  0
  5  7  1  0  0  0  0
  7  8  1  0  0  0  0
  7  9  1  0  0  0  0
  9 10  1  0  0  0  0
  9 11  1  0  0  0  0
  9 24  1  0  0  0  0
 11 12  1  0  0  0  0
 11 13  1  0  0  0  0
 11 14  1  0  0  0  0
 14 15  1  0  0  0  0
 14 16  1  0  0  0  0
 14 20  1  0  0  0  0
 16 17  1  0  0  0  0
 16 18  1  0  0  0  0
 16 19  1  0  0  0  0
 20 21  1  0  0  0  0
 20 22  1  0  0  0  0
 20 23  1  0  0  0  0
 24 25  2  0  0  0  0
 24 26  1  0  0  0  0
 26 27  1  0  0  0  0
 26 28  1  0  0  0  0
 28 29  1  0  0  0  0
 28 30  1  0  0  0  0
 28 31  1  0  0  0  0
M  END
$$$$

  -OEChem-01062216083D

 31 30  0     1  0  0  0  0  0999 V2000
   -3.5057   -2.6380    1.1077 H   0  0  0  0  0  0  0  0  0  0  0  0
   -3.4349   -1.6867    0.5727 C   0  0  0  0  0  0  0  0  0  0  0  0
   -4.0446   -0.9448    1.0942 H   0  0  0  0  0  0  0  0  0  0  0  0
   -3.8219   -1.8215   -0.4400 H   0  0  0  0  0  0  0  0  0  0  0  0
   -1.9910   -1.2249    0.5174 C   0  0  0  0  0  0  0  0  0  0  0  0
   -1.1168   -1.9293    0.9945 O   0  0  0  0  0  0  0  0  0  0  0  0
   -1.6918   -0.0098   -0.0667 N   0  0  0  0  0  0  0  0  0  0  0  0
   -2.4936    0.5851   -0.2593 H   0  0  0  0  0  0  0  0  0  0  0  0
   -0.3840    0.6623    0.0417 C   0  0  1  0  0  0  0  0  0  0  0  0
    0.1859    0.2566    0.8833 H   0  0  0  0  0  0  0  0  0  0  0  0
    0.4159    0.4601   -1.2697 C   0  0  0  0  0  0  0  0  0  0  0  0
   -0.1926    0.8261   -2.1034 H   0  0  0  0  0  0  0  0  0  0  0  0
    1.3257    1.0681   -1.2279 H   0  0  0  0  0  0  0  0  0  0  0  0
    0.8372   -0.9943   -1.5687 C   0  0  0  0  0  0  0  0  0  0  0  0
   -0.0439   -1.6438   -1.5632 H   0  0  0  0  0  0  0  0  0  0  0  0
    1.4801   -1.0559   -2.9593 C   0  0  0  0  0  0  0  0  0  0  0  0
    2.3684   -0.4179   -3.0056 H   0  0  0  0  0  0  0  0  0  0  0  0
    1.7769   -2.0825   -3.1961 H   0  0  0  0  0  0  0  0  0  0  0  0
    0.7705   -0.7218   -3.7224 H   0  0  0  0  0  0  0  0  0  0  0  0
    1.8553   -1.5175   -0.5434 C   0  0  0  0  0  0  0  0  0  0  0  0
    1.4235   -1.5578    0.4593 H   0  0  0  0  0  0  0  0  0  0  0  0
    2.1727   -2.5306   -0.8090 H   0  0  0  0  0  0  0  0  0  0  0  0
    2.7398   -0.8736   -0.5131 H   0  0  0  0  0  0  0  0  0  0  0  0
   -0.5988    2.1643    0.3527 C   0  0  0  0  0  0  0  0  0  0  0  0
   -1.3173    2.4829    1.2909 O   0  0  0  0  0  0  0  0  0  0  0  0
   -0.1423    3.1680   -0.4863 N   0  0  0  0  0  0  0  0  0  0  0  0
    0.4257    2.8926   -1.2816 H   0  0  0  0  0  0  0  0  0  0  0  0
   -0.3851    4.5870   -0.2519 C   0  0  0  0  0  0  0  0  0  0  0  0
    0.0594    4.8997    0.6989 H   0  0  0  0  0  0  0  0  0  0  0  0
    0.0590    5.1842   -1.0540 H   0  0  0  0  0  0  0  0  0  0  0  0
   -1.4602    4.7931   -0.2231 H   0  0  0  0  0  0  0  0  0  0  0  0
  1  2  1  0  0  0  0
  2  3  1  0  0  0  0
  2  4  1  0  0  0  0
  2  5  1  0  0  0  0
  5  6  2  0  0  0  0
  5  7  1  0  0  0  0
  7  8  1  0  0  0  0
  7  9  1  0  0  0  0
  9 10  1  0  0  0  0
  9 11  1  0  0  0  0
  9 24  1  0  0  0  0
 11 12  1  0  0  0  0
 11 13  1  0  0  0  0
 11 14  1  0  0  0  0
 14 15  1  0  0  0  0
 14 16  1  0  0  0  0
 14 20  1  0  0  0  0
 16 17  1  0  0  0  0
 16 18  1  0  0  0  0
 16 19  1  0  0  0  0
 20 21  1  0  0  0  0
 20 22  1  0  0  0  0
 20 23  1  0  0  0  0
 24 25  2  0  0  0  0
 24 26  1  0  0  0  0
 26 27  1  0  0  0  0
 26 28  1  0  0  0  0
 28 29  1  0  0  0  0
 28 30  1  0  0  0  0
 28 31  1  0  0  0  0
M  END
$$$$

  -OEChem-01062216083D

 31 30  0     1  0  0  0  0  0999 V2000
   -3.5006   -2.6645    1.0870 H   0  0  0  0  0  0  0  0  0  0  0  0
   -3.4344   -1.7031    0.5698 C   0  0  0  0  0  0  0  0  0  0  0  0
   -4.0521   -0.9751    1.1014 H   0  0  0  0  0  0  0  0  0  0  0  0
   -3.8155   -1.8231   -0.4470 H   0  0  0  0  0  0  0  0  0  0  0  0
   -1.9939   -1.2288    0.5309 C   0  0  0  0  0  0  0  0  0  0  0  0
   -1.1180   -1.9253    1.0158 O   0  0  0  0  0  0  0  0  0  0  0  0
   -1.6998   -0.0135   -0.0552 N   0  0  0  0  0  0  0  0  0  0  0  0
   -2.5039    0.5639   -0.2852 H   0  0  0  0  0  0  0  0  0  0  0  0
   -0.3947    0.6649    0.0443 C   0  0  1  0  0  0  0  0  0  0  0  0
    0.1802    0.2621    0.8842 H   0  0  0  0  0  0  0  0  0  0  0  0
    0.4043    0.4653   -1.2675 C   0  0  0  0  0  0  0  0  0  0  0  0
   -0.2089    0.8203   -2.1024 H   0  0  0  0  0  0  0  0  0  0  0  0
    1.3061    1.0861   -1.2288 H   0  0  0  0  0  0  0  0  0  0  0  0
    0.8346   -0.9872   -1.5642 C   0  0  0  0  0  0  0  0  0  0  0  0
   -0.0417   -1.6431   -1.5549 H   0  0  0  0  0  0  0  0  0  0  0  0
    1.4759   -1.0473   -2.9559 C   0  0  0  0  0  0  0  0  0  0  0  0
    2.3587   -0.4019   -3.0045 H   0  0  0  0  0  0  0  0  0  0  0  0
    1.7810   -2.0718   -3.1914 H   0  0  0  0  0  0  0  0  0  0  0  0
    0.7630   -0.7205   -3.7190 H   0  0  0  0  0  0  0  0  0  0  0  0
    1.8581   -1.5006   -0.5391 C   0  0  0  0  0  0  0  0  0  0  0  0
    1.4277   -1.5434    0.4642 H   0  0  0  0  0  0  0  0  0  0  0  0
    2.1841   -2.5113   -0.8038 H   0  0  0  0  0  0  0  0  0  0  0  0
    2.7369   -0.8489   -0.5106 H   0  0  0  0  0  0  0  0  0  0  0  0
   -0.6070    2.1654    0.3536 C   0  0  0  0  0  0  0  0  0  0  0  0
   -1.0808    2.4949    1.4319 O   0  0  0  0  0  0  0  0  0  0  0  0
   -0.4368    3.1434   -0.6127 N   0  0  0  0  0  0  0  0  0  0  0  0
   -0.0617    2.8543   -1.5109 H   0  0  0  0  0  0  0  0  0  0  0  0
   -0.6939    4.5597   -0.3789 C   0  0  0  0  0  0  0  0  0  0  0  0
   -0.0485    4.9389    0.4203 H   0  0  0  0  0  0  0  0  0  0  0  0
   -0.4942    5.1355   -1.2876 H   0  0  0  0  0  0  0  0  0  0  0  0
   -1.7390    4.7183   -0.0927 H   0  0  0  0  0  0  0  0  0  0  0  0
  1  2  1  0  0  0  0
  2  3  1  0  0  0  0
  2  4  1  0  0  0  0
  2  5  1  0  0  0  0
  5  6  2  0  0  0  0
  5  7  1  0  0  0  0
  7  8  1  0  0  0  0
  7  9  1  0  0  0  0
  9 10  1  0  0  0  0
  9 11  1  0  0  0  0
  9 24  1  0  0  0  0
 11 12  1  0  0  0  0
 11 13  1  0  0  0  0
 11 14  1  0  0  0  0
 14 15  1  0  0  0  0
 14 16  1  0  0  0  0
 14 20  1  0  0  0  0
 16 17  1  0  0  0  0
 16 18  1  0  0  0  0
 16 19  1  0  0  0  0
 20 21  1  0  0  0  0
 20 22  1  0  0  0  0
 20 23  1  0  0  0  0
 24 25  2  0  0  0  0
 24 26  1  0  0  0  0
 26 27  1  0  0  0  0
 26 28  1  0  0  0  0
 28 29  1  0  0  0  0
 28 30  1  0  0  0  0
 28 31  1  0  0  0  0
M  END
$$$$

  -OEChem-01062216083D

 31 30  0     1  0  0  0  0  0999 V2000
   -3.4894   -2.6974    1.0964 H   0  0  0  0  0  0  0  0  0  0  0  0
   -3.4311   -1.7442    0.5633 C   0  0  0  0  0  0  0  0  0  0  0  0
   -4.0766   -1.0207    1.0671 H   0  0  0  0  0  0  0  0  0  0  0  0
   -3.7852   -1.8911   -0.4597 H   0  0  0  0  0  0  0  0  0  0  0  0
   -2.0000   -1.2407    0.5494 C   0  0  0  0  0  0  0  0  0  0  0  0
   -1.1208   -1.9177    1.0546 O   0  0  0  0  0  0  0  0  0  0  0  0
   -1.7164   -0.0243   -0.0411 N   0  0  0  0  0  0  0  0  0  0  0  0
   -2.5219    0.5285   -0.3198 H   0  0  0  0  0  0  0  0  0  0  0  0
   -0.4160    0.6651    0.0511 C   0  0  1  0  0  0  0  0  0  0  0  0
    0.1655    0.2655    0.8884 H   0  0  0  0  0  0  0  0  0  0  0  0
    0.3828    0.4771   -1.2613 C   0  0  0  0  0  0  0  0  0  0  0  0
   -0.2334    0.8250   -2.0965 H   0  0  0  0  0  0  0  0  0  0  0  0
    1.2757    1.1108   -1.2219 H   0  0  0  0  0  0  0  0  0  0  0  0
    0.8262   -0.9711   -1.5587 C   0  0  0  0  0  0  0  0  0  0  0  0
   -0.0447   -1.6341   -1.5493 H   0  0  0  0  0  0  0  0  0  0  0  0
    1.4668   -1.0247   -2.9510 C   0  0  0  0  0  0  0  0  0  0  0  0
    2.3433   -0.3706   -3.0010 H   0  0  0  0  0  0  0  0  0  0  0  0
    1.7818   -2.0461   -3.1868 H   0  0  0  0  0  0  0  0  0  0  0  0
    0.7499   -0.7050   -3.7136 H   0  0  0  0  0  0  0  0  0  0  0  0
    1.8537   -1.4769   -0.5342 C   0  0  0  0  0  0  0  0  0  0  0  0
    1.4205   -1.5324    0.4672 H   0  0  0  0  0  0  0  0  0  0  0  0
    2.1945   -2.4811   -0.8044 H   0  0  0  0  0  0  0  0  0  0  0  0
    2.7233   -0.8135   -0.4982 H   0  0  0  0  0  0  0  0  0  0  0  0
   -0.6274    2.1645    0.3562 C   0  0  0  0  0  0  0  0  0  0  0  0
   -0.7959    2.5329    1.5096 O   0  0  0  0  0  0  0  0  0  0  0  0
   -0.7655    3.0940   -0.6613 N   0  0  0  0  0  0  0  0  0  0  0  0
   -0.6157    2.7726   -1.6127 H   0  0  0  0  0  0  0  0  0  0  0  0
   -0.9914    4.5149   -0.4245 C   0  0  0  0  0  0  0  0  0  0  0  0
   -0.1610    4.9446    0.1456 H   0  0  0  0  0  0  0  0  0  0  0  0
   -1.0708    5.0490   -1.3762 H   0  0  0  0  0  0  0  0  0  0  0  0
   -1.9198    4.6678    0.1357 H   0  0  0  0  0  0  0  0  0  0  0  0
  1  2  1  0  0  0  0
  2  3  1  0  0  0  0
  2  4  1  0  0  0  0
  2  5  1  0  0  0  0
  5  6  2  0  0  0  0
  5  7  1  0  0  0  0
  7  8  1  0  0  0  0
  7  9  1  0  0  0  0
  9 10  1  0  0  0  0
  9 11  1  0  0  0  0
  9 24  1  0  0  0  0
 11 12  1  0  0  0  0
 11 13  1  0  0  0  0
 11 14  1  0  0  0  0
 14 15  1  0  0  0  0
 14 16  1  0  0  0  0
 14 20  1  0  0  0  0
 16 17  1  0  0  0  0
 16 18  1  0  0  0  0
 16 19  1  0  0  0  0
 20 21  1  0  0  0  0
 20 22  1  0  0  0  0
 20 23  1  0  0  0  0
 24 25  2  0  0  0  0
 24 26  1  0  0  0  0
 26 27  1  0  0  0  0
 26 28  1  0  0  0  0
 28 29  1  0  0  0  0
 28 30  1  0  0  0  0
 28 31  1  0  0  0  0
M  END
$$$$

  -OEChem-01062216083D

 31 30  0     1  0  0  0  0  0999 V2000
   -3.4796   -2.7346    1.0844 H   0  0  0  0  0  0  0  0  0  0  0  0
   -3.4253   -1.7805    0.5523 C   0  0  0  0  0  0  0  0  0  0  0  0
   -4.0951   -1.0683    1.0401 H   0  0  0  0  0  0  0  0  0  0  0  0
   -3.7526   -1.9337   -0.4787 H   0  0  0  0  0  0  0  0  0  0  0  0
   -2.0032   -1.2522    0.5717 C   0  0  0  0  0  0  0  0  0  0  0  0
   -1.1253   -1.9122    1.1005 O   0  0  0  0  0  0  0  0  0  0  0  0
   -1.7246   -0.0350   -0.0198 N   0  0  0  0  0  0  0  0  0  0  0  0
   -2.5283    0.4979   -0.3386 H   0  0  0  0  0  0  0  0  0  0  0  0
   -0.4277    0.6623    0.0705 C   0  0  1  0  0  0  0  0  0  0  0  0
    0.1599    0.2622    0.9035 H   0  0  0  0  0  0  0  0  0  0  0  0
    0.3653    0.4904   -1.2459 C   0  0  0  0  0  0  0  0  0  0  0  0
   -0.2548    0.8422   -2.0763 H   0  0  0  0  0  0  0  0  0  0  0  0
    1.2537    1.1301   -1.2052 H   0  0  0  0  0  0  0  0  0  0  0  0
    0.8150   -0.9542   -1.5534 C   0  0  0  0  0  0  0  0  0  0  0  0
   -0.0530   -1.6213   -1.5444 H   0  0  0  0  0  0  0  0  0  0  0  0
    1.4502   -0.9975   -2.9487 C   0  0  0  0  0  0  0  0  0  0  0  0
    2.3273   -0.3442   -2.9961 H   0  0  0  0  0  0  0  0  0  0  0  0
    1.7637   -2.0172   -3.1937 H   0  0  0  0  0  0  0  0  0  0  0  0
    0.7313   -0.6707   -3.7062 H   0  0  0  0  0  0  0  0  0  0  0  0
    1.8474   -1.4620   -0.5344 C   0  0  0  0  0  0  0  0  0  0  0  0
    1.4158   -1.5299    0.4672 H   0  0  0  0  0  0  0  0  0  0  0  0
    2.1958   -2.4612   -0.8141 H   0  0  0  0  0  0  0  0  0  0  0  0
    2.7119   -0.7922   -0.4934 H   0  0  0  0  0  0  0  0  0  0  0  0
   -0.6397    2.1603    0.3730 C   0  0  0  0  0  0  0  0  0  0  0  0
   -0.4926    2.5879    1.5084 O   0  0  0  0  0  0  0  0  0  0  0  0
   -1.0830    3.0242   -0.6143 N   0  0  0  0  0  0  0  0  0  0  0  0
   -1.1516    2.6584   -1.5588 H   0  0  0  0  0  0  0  0  0  0  0  0
   -1.2948    4.4498   -0.3930 C   0  0  0  0  0  0  0  0  0  0  0  0
   -0.3612    4.9327   -0.0855 H   0  0  0  0  0  0  0  0  0  0  0  0
   -1.6450    4.9273   -1.3131 H   0  0  0  0  0  0  0  0  0  0  0  0
   -2.0474    4.6096    0.3865 H   0  0  0  0  0  0  0  0  0  0  0  0
  1  2  1  0  0  0  0
  2  3  1  0  0  0  0
  2  4  1  0  0  0  0
  2  5  1  0  0  0  0
  5  6  2  0  0  0  0
  5  7  1  0  0  0  0
  7  8  1  0  0  0  0
  7  9  1  0  0  0  0
  9 10  1  0  0  0  0
  9 11  1  0  0  0  0
  9 24  1  0  0  0  0
 11 12  1  0  0  0  0
 11 13  1  0  0  0  0
 11 14  1  0  0  0  0
 14 15  1  0  0  0  0
 14 16  1  0  0  0  0
 14 20  1  0  0  0  0
 16 17  1  0  0  0  0
 16 18  1  0  0  0  0
 16 19  1  0  0  0  0
 20 21  1  0  0  0  0
 20 22  1  0  0  0  0
 20 23  1  0  0  0  0
 24 25  2  0  0  0  0
 24 26  1  0  0  0  0
 26 27  1  0  0  0  0
 26 28  1  0  0  0  0
 28 29  1  0  0  0  0
 28 30  1  0  0  0  0
 28 31  1  0  0  0  0
M  END
$$$$

  -OEChem-01062216083D

 31 30  0     1  0  0  0  0  0999 V2000
   -3.4772   -2.7680    1.0851 H   0  0  0  0  0  0  0  0  0  0  0  0
   -3.4263   -1.8136    0.5531 C   0  0  0  0  0  0  0  0  0  0  0  0
   -4.1067   -1.1071    1.0344 H   0  0  0  0  0  0  0  0  0  0  0  0
   -3.7425   -1.9702   -0.4809 H   0  0  0  0  0  0  0  0  0  0  0  0
   -2.0089   -1.2734    0.5863 C   0  0  0  0  0  0  0  0  0  0  0  0
   -1.1320   -1.9227    1.1290 O   0  0  0  0  0  0  0  0  0  0  0  0
   -1.7346   -0.0543   -0.0035 N   0  0  0  0  0  0  0  0  0  0  0  0
   -2.5388    0.4690   -0.3353 H   0  0  0  0  0  0  0  0  0  0  0  0
   -0.4413    0.6504    0.0943 C   0  0  1  0  0  0  0  0  0  0  0  0
    0.1487    0.2475    0.9241 H   0  0  0  0  0  0  0  0  0  0  0  0
    0.3495    0.5018   -1.2245 C   0  0  0  0  0  0  0  0  0  0  0  0
   -0.2730    0.8655   -2.0481 H   0  0  0  0  0  0  0  0  0  0  0  0
    1.2350    1.1452   -1.1748 H   0  0  0  0  0  0  0  0  0  0  0  0
    0.8067   -0.9361   -1.5513 C   0  0  0  0  0  0  0  0  0  0  0  0
   -0.0576   -1.6077   -1.5496 H   0  0  0  0  0  0  0  0  0  0  0  0
    1.4399   -0.9587   -2.9478 C   0  0  0  0  0  0  0  0  0  0  0  0
    2.3150   -0.3020   -2.9879 H   0  0  0  0  0  0  0  0  0  0  0  0
    1.7559   -1.9742   -3.2068 H   0  0  0  0  0  0  0  0  0  0  0  0
    0.7187   -0.6239   -3.6997 H   0  0  0  0  0  0  0  0  0  0  0  0
    1.8417   -1.4511   -0.5393 C   0  0  0  0  0  0  0  0  0  0  0  0
    1.4087   -1.5371    0.4602 H   0  0  0  0  0  0  0  0  0  0  0  0
    2.1981   -2.4432   -0.8332 H   0  0  0  0  0  0  0  0  0  0  0  0
    2.7011   -0.7753   -0.4871 H   0  0  0  0  0  0  0  0  0  0  0  0
   -0.6545    2.1472    0.3959 C   0  0  0  0  0  0  0  0  0  0  0  0
   -0.2133    2.6445    1.4213 O   0  0  0  0  0  0  0  0  0  0  0  0
   -1.3758    2.9392   -0.4819 N   0  0  0  0  0  0  0  0  0  0  0  0
   -1.6342    2.5283   -1.3733 H   0  0  0  0  0  0  0  0  0  0  0  0
   -1.5681    4.3713   -0.2856 C   0  0  0  0  0  0  0  0  0  0  0  0
   -0.6029    4.8882   -0.2636 H   0  0  0  0  0  0  0  0  0  0  0  0
   -2.1661    4.7881   -1.1016 H   0  0  0  0  0  0  0  0  0  0  0  0
   -2.0911    4.5621    0.6574 H   0  0  0  0  0  0  0  0  0  0  0  0
  1  2  1  0  0  0  0
  2  3  1  0  0  0  0
  2  4  1  0  0  0  0
  2  5  1  0  0  0  0
  5  6  2  0  0  0  0
  5  7  1  0  0  0  0
  7  8  1  0  0  0  0
  7  9  1  0  0  0  0
  9 10  1  0  0  0  0
  9 11  1  0  0  0  0
  9 24  1  0  0  0  0
 11 12  1  0  0  0  0
 11 13  1  0  0  0  0
 11 14  1  0  0  0  0
 14 15  1  0  0  0  0
 14 16  1  0  0  0  0
 14 20  1  0  0  0  0
 16 17  1  0  0  0  0
 16 18  1  0  0  0  0
 16 19  1  0  0  0  0
 20 21  1  0  0  0  0
 20 22  1  0  0  0  0
 20 23  1  0  0  0  0
 24 25  2  0  0  0  0
 24 26  1  0  0  0  0
 26 27  1  0  0  0  0
 26 28  1  0  0  0  0
 28 29  1  0  0  0  0
 28 30  1  0  0  0  0
 28 31  1  0  0  0  0
M  END
$$$$

  -OEChem-01062216083D

 31 30  0     1  0  0  0  0  0999 V2000
   -3.4546   -2.8251    1.0554 H   0  0  0  0  0  0  0  0  0  0  0  0
   -3.4106   -1.8676    0.5284 C   0  0  0  0  0  0  0  0  0  0  0  0
   -4.1256   -1.1814    0.9883 H   0  0  0  0  0  0  0  0  0  0  0  0
   -3.6874   -2.0287   -0.5161 H   0  0  0  0  0  0  0  0  0  0  0  0
   -2.0096   -1.2909    0.6107 C   0  0  0  0  0  0  0  0  0  0  0  0
   -1.1382   -1.9121    1.1936 O   0  0  0  0  0  0  0  0  0  0  0  0
   -1.7430   -0.0704    0.0199 N   0  0  0  0  0  0  0  0  0  0  0  0
   -2.5412    0.4215   -0.3670 H   0  0  0  0  0  0  0  0  0  0  0  0
   -0.4539    0.6452    0.1179 C   0  0  1  0  0  0  0  0  0  0  0  0
    0.1422    0.2423    0.9434 H   0  0  0  0  0  0  0  0  0  0  0  0
    0.3271    0.5075   -1.2067 C   0  0  0  0  0  0  0  0  0  0  0  0
   -0.3028    0.8750   -2.0231 H   0  0  0  0  0  0  0  0  0  0  0  0
    1.2106    1.1544   -1.1604 H   0  0  0  0  0  0  0  0  0  0  0  0
    0.7898   -0.9266   -1.5416 C   0  0  0  0  0  0  0  0  0  0  0  0
   -0.0706   -1.6033   -1.5362 H   0  0  0  0  0  0  0  0  0  0  0  0
    1.4125   -0.9404   -2.9426 C   0  0  0  0  0  0  0  0  0  0  0  0
    2.2800   -0.2742   -2.9879 H   0  0  0  0  0  0  0  0  0  0  0  0
    1.7369   -1.9520   -3.2056 H   0  0  0  0  0  0  0  0  0  0  0  0
    0.6822   -0.6123   -3.6884 H   0  0  0  0  0  0  0  0  0  0  0  0
    1.8337   -1.4388   -0.5375 C   0  0  0  0  0  0  0  0  0  0  0  0
    1.4057   -1.5319    0.4636 H   0  0  0  0  0  0  0  0  0  0  0  0
    2.1953   -2.4272   -0.8373 H   0  0  0  0  0  0  0  0  0  0  0  0
    2.6885   -0.7570   -0.4870 H   0  0  0  0  0  0  0  0  0  0  0  0
   -0.6552    2.1442    0.4175 C   0  0  0  0  0  0  0  0  0  0  0  0
    0.0368    2.7061    1.2537 O   0  0  0  0  0  0  0  0  0  0  0  0
   -1.6102    2.8760   -0.2695 N   0  0  0  0  0  0  0  0  0  0  0  0
   -2.0539    2.4287   -1.0641 H   0  0  0  0  0  0  0  0  0  0  0  0
   -1.7882    4.3118   -0.0861 C   0  0  0  0  0  0  0  0  0  0  0  0
   -0.8692    4.8484   -0.3449 H   0  0  0  0  0  0  0  0  0  0  0  0
   -2.5961    4.6782   -0.7267 H   0  0  0  0  0  0  0  0  0  0  0  0
   -2.0454    4.5354    0.9547 H   0  0  0  0  0  0  0  0  0  0  0  0
  1  2  1  0  0  0  0
  2  3  1  0  0  0  0
  2  4  1  0  0  0  0
  2  5  1  0  0  0  0
  5  6  2  0  0  0  0
  5  7  1  0  0  0  0
  7  8  1  0  0  0  0
  7  9  1  0  0  0  0
  9 10  1  0  0  0  0
  9 11  1  0  0  0  0
  9 24  1  0  0  0  0
 11 12  1  0  0  0  0
 11 13  1  0  0  0  0
 11 14  1  0  0  0  0
 14 15  1  0  0  0  0
 14 16  1  0  0  0  0
 14 20  1  0  0  0  0
 16 17  1  0  0  0  0
 16 18  1  0  0  0  0
 16 19  1  0  0  0  0
 20 21  1  0  0  0  0
 20 22  1  0  0  0  0
 20 23  1  0  0  0  0
 24 25  2  0  0  0  0
 24 26  1  0  0  0  0
 26 27  1  0  0  0  0
 26 28  1  0  0  0  0
 28 29  1  0  0  0  0
 28 30  1  0  0  0  0
 28 31  1  0  0  0  0
M  END
$$$$

  -OEChem-01062216083D

 31 30  0     1  0  0  0  0  0999 V2000
   -3.2916   -2.9441    0.9087 H   0  0  0  0  0  0  0  0  0  0  0  0
   -3.2808   -1.9845    0.3840 C   0  0  0  0  0  0  0  0  0  0  0  0
   -4.1452   -1.3989    0.7061 H   0  0  0  0  0  0  0  0  0  0  0  0
   -3.3531   -2.1717   -0.6899 H   0  0  0  0  0  0  0  0  0  0  0  0
   -1.9994   -1.2343    0.6968 C   0  0  0  0  0  0  0  0  0  0  0  0
   -1.2011   -1.7119    1.4841 O   0  0  0  0  0  0  0  0  0  0  0  0
   -1.7544   -0.0224    0.0784 N   0  0  0  0  0  0  0  0  0  0  0  0
   -2.3968    0.2261   -0.6659 H   0  0  0  0  0  0  0  0  0  0  0  0
   -0.4598    0.6888    0.1391 C   0  0  1  0  0  0  0  0  0  0  0  0
    0.1540    0.2954    0.9556 H   0  0  0  0  0  0  0  0  0  0  0  0
    0.2862    0.5141   -1.2011 C   0  0  0  0  0  0  0  0  0  0  0  0
   -0.3591    0.8738   -2.0092 H   0  0  0  0  0  0  0  0  0  0  0  0
    1.1780    1.1512   -1.1919 H   0  0  0  0  0  0  0  0  0  0  0  0
    0.7267   -0.9336   -1.5110 C   0  0  0  0  0  0  0  0  0  0  0  0
   -0.1423   -1.5979   -1.4758 H   0  0  0  0  0  0  0  0  0  0  0  0
    1.3155   -0.9893   -2.9256 C   0  0  0  0  0  0  0  0  0  0  0  0
    2.1931   -0.3396   -3.0052 H   0  0  0  0  0  0  0  0  0  0  0  0
    1.6173   -2.0119   -3.1729 H   0  0  0  0  0  0  0  0  0  0  0  0
    0.5744   -0.6645   -3.6622 H   0  0  0  0  0  0  0  0  0  0  0  0
    1.7768   -1.4418   -0.5127 C   0  0  0  0  0  0  0  0  0  0  0  0
    1.3534   -1.5293    0.4914 H   0  0  0  0  0  0  0  0  0  0  0  0
    2.1354   -2.4321   -0.8100 H   0  0  0  0  0  0  0  0  0  0  0  0
    2.6327   -0.7607   -0.4716 H   0  0  0  0  0  0  0  0  0  0  0  0
   -0.6207    2.1975    0.4241 C   0  0  0  0  0  0  0  0  0  0  0  0
    0.3097    2.8287    0.9054 O   0  0  0  0  0  0  0  0  0  0  0  0
   -1.7480    2.8861    0.0084 N   0  0  0  0  0  0  0  0  0  0  0  0
   -2.5344    2.3352   -0.3149 H   0  0  0  0  0  0  0  0  0  0  0  0
   -1.9319    4.3166    0.2232 C   0  0  0  0  0  0  0  0  0  0  0  0
   -1.1179    4.8815   -0.2434 H   0  0  0  0  0  0  0  0  0  0  0  0
   -2.8770    4.6476   -0.2177 H   0  0  0  0  0  0  0  0  0  0  0  0
   -1.9496    4.5439    1.2943 H   0  0  0  0  0  0  0  0  0  0  0  0
  1  2  1  0  0  0  0
  2  3  1  0  0  0  0
  2  4  1  0  0  0  0
  2  5  1  0  0  0  0
  5  6  2  0  0  0  0
  5  7  1  0  0  0  0
  7  8  1  0  0  0  0
  7  9  1  0  0  0  0
  9 10  1  0  0  0  0
  9 11  1  0  0  0  0
  9 24  1  0  0  0  0
 11 12  1  0  0  0  0
 11 13  1  0  0  0  0
 11 14  1  0  0  0  0
 14 15  1  0  0  0  0
 14 16  1  0  0  0  0
 14 20  1  0  0  0  0
 16 17  1  0  0  0  0
 16 18  1  0  0  0  0
 16 19  1  0  0  0  0
 20 21  1  0  0  0  0
 20 22  1  0  0  0  0
 20 23  1  0  0  0  0
 24 25  2  0  0  0  0
 24 26  1  0  0  0  0
 26 27  1  0  0  0  0
 26 28  1  0  0  0  0
 28 29  1  0  0  0  0
 28 30  1  0  0  0  0
 28 31  1  0  0  0  0
M  END
$$$$

  -OEChem-01062216083D

 31 30  0     1  0  0  0  0  0999 V2000
   -3.2687   -2.9518    0.8682 H   0  0  0  0  0  0  0  0  0  0  0  0
   -3.2627   -1.9863    0.3540 C   0  0  0  0  0  0  0  0  0  0  0  0
   -4.1384   -1.4143    0.6700 H   0  0  0  0  0  0  0  0  0  0  0  0
   -3.3183   -2.1631   -0.7228 H   0  0  0  0  0  0  0  0  0  0  0  0
   -1.9961   -1.2229    0.6921 C   0  0  0  0  0  0  0  0  0  0  0  0
   -1.2151   -1.6829    1.5065 O   0  0  0  0  0  0  0  0  0  0  0  0
   -1.7489   -0.0111    0.0750 N   0  0  0  0  0  0  0  0  0  0  0  0
   -2.3697    0.2221   -0.6937 H   0  0  0  0  0  0  0  0  0  0  0  0
   -0.4520    0.6964    0.1378 C   0  0  1  0  0  0  0  0  0  0  0  0
    0.1617    0.3032    0.9542 H   0  0  0  0  0  0  0  0  0  0  0  0
    0.2900    0.5113   -1.2045 C   0  0  0  0  0  0  0  0  0  0  0  0
   -0.3561    0.8718   -2.0118 H   0  0  0  0  0  0  0  0  0  0  0  0
    1.1862    1.1420   -1.2031 H   0  0  0  0  0  0  0  0  0  0  0  0
    0.7220   -0.9402   -1.5090 C   0  0  0  0  0  0  0  0  0  0  0  0
   -0.1499   -1.6001   -1.4691 H   0  0  0  0  0  0  0  0  0  0  0  0
    1.3064   -1.0041   -2.9248 C   0  0  0  0  0  0  0  0  0  0  0  0
    2.1866   -0.3584   -3.0089 H   0  0  0  0  0  0  0  0  0  0  0  0
    1.6029   -2.0288   -3.1698 H   0  0  0  0  0  0  0  0  0  0  0  0
    0.5642   -0.6785   -3.6603 H   0  0  0  0  0  0  0  0  0  0  0  0
    1.7730   -1.4495   -0.5119 C   0  0  0  0  0  0  0  0  0  0  0  0
    1.3526   -1.5314    0.4939 H   0  0  0  0  0  0  0  0  0  0  0  0
    2.1263   -2.4425   -0.8065 H   0  0  0  0  0  0  0  0  0  0  0  0
    2.6321   -0.7722   -0.4765 H   0  0  0  0  0  0  0  0  0  0  0  0
   -0.6160    2.2056    0.4253 C   0  0  0  0  0  0  0  0  0  0  0  0
    0.3668    2.8965    0.6564 O   0  0  0  0  0  0  0  0  0  0  0  0
   -1.8485    2.8223    0.2923 N   0  0  0  0  0  0  0  0  0  0  0  0
   -2.6556    2.2101    0.2468 H   0  0  0  0  0  0  0  0  0  0  0  0
   -2.0604    4.2394    0.5624 C   0  0  0  0  0  0  0  0  0  0  0  0
   -1.4160    4.8525   -0.0765 H   0  0  0  0  0  0  0  0  0  0  0  0
   -3.1010    4.5109    0.3614 H   0  0  0  0  0  0  0  0  0  0  0  0
   -1.8371    4.4673    1.6099 H   0  0  0  0  0  0  0  0  0  0  0  0
  1  2  1  0  0  0  0
  2  3  1  0  0  0  0
  2  4  1  0  0  0  0
  2  5  1  0  0  0  0
  5  6  2  0  0  0  0
  5  7  1  0  0  0  0
  7  8  1  0  0  0  0
  7  9  1  0  0  0  0
  9 10  1  0  0  0  0
  9 11  1  0  0  0  0
  9 24  1  0  0  0  0
 11 12  1  0  0  0  0
 11 13  1  0  0  0  0
 11 14  1  0  0  0  0
 14 15  1  0  0  0  0
 14 16  1  0  0  0  0
 14 20  1  0  0  0  0
 16 17  1  0  0  0  0
 16 18  1  0  0  0  0
 16 19  1  0  0  0  0
 20 21  1  0  0  0  0
 20 22  1  0  0  0  0
 20 23  1  0  0  0  0
 24 25  2  0  0  0  0
 24 26  1  0  0  0  0
 26 27  1  0  0  0  0
 26 28  1  0  0  0  0
 28 29  1  0  0  0  0
 28 30  1  0  0  0  0
 28 31  1  0  0  0  0
M  END
$$$$

  -OEChem-01062216083D

 31 30  0     1  0  0  0  0  0999 V2000
   -3.2633   -2.9443    0.8463 H   0  0  0  0  0  0  0  0  0  0  0  0
   -3.2544   -1.9777    0.3343 C   0  0  0  0  0  0  0  0  0  0  0  0
   -4.1324   -1.4067    0.6452 H   0  0  0  0  0  0  0  0  0  0  0  0
   -3.3020   -2.1517   -0.7434 H   0  0  0  0  0  0  0  0  0  0  0  0
   -1.9900   -1.2151    0.6819 C   0  0  0  0  0  0  0  0  0  0  0  0
   -1.2143   -1.6748    1.5016 O   0  0  0  0  0  0  0  0  0  0  0  0
   -1.7389   -0.0010    0.0717 N   0  0  0  0  0  0  0  0  0  0  0  0
   -2.3676    0.2508   -0.6854 H   0  0  0  0  0  0  0  0  0  0  0  0
   -0.4402    0.7035    0.1350 C   0  0  1  0  0  0  0  0  0  0  0  0
    0.1736    0.3096    0.9508 H   0  0  0  0  0  0  0  0  0  0  0  0
    0.2972    0.5098   -1.2102 C   0  0  0  0  0  0  0  0  0  0  0  0
   -0.3493    0.8710   -2.0166 H   0  0  0  0  0  0  0  0  0  0  0  0
    1.1979    1.1337   -1.2158 H   0  0  0  0  0  0  0  0  0  0  0  0
    0.7213   -0.9451   -1.5098 C   0  0  0  0  0  0  0  0  0  0  0  0
   -0.1536   -1.6008   -1.4653 H   0  0  0  0  0  0  0  0  0  0  0  0
    1.3010   -1.0179   -2.9270 C   0  0  0  0  0  0  0  0  0  0  0  0
    2.1845   -0.3775   -3.0162 H   0  0  0  0  0  0  0  0  0  0  0  0
    1.5907   -2.0454   -3.1686 H   0  0  0  0  0  0  0  0  0  0  0  0
    0.5585   -0.6912   -3.6615 H   0  0  0  0  0  0  0  0  0  0  0  0
    1.7717   -1.4563   -0.5132 C   0  0  0  0  0  0  0  0  0  0  0  0
    1.3530   -1.5322    0.4938 H   0  0  0  0  0  0  0  0  0  0  0  0
    2.1187   -2.4524   -0.8048 H   0  0  0  0  0  0  0  0  0  0  0  0
    2.6346   -0.7834   -0.4824 H   0  0  0  0  0  0  0  0  0  0  0  0
   -0.6125    2.2117    0.4313 C   0  0  0  0  0  0  0  0  0  0  0  0
    0.3551    2.9607    0.4333 O   0  0  0  0  0  0  0  0  0  0  0  0
   -1.8744    2.7538    0.6047 N   0  0  0  0  0  0  0  0  0  0  0  0
   -2.6298    2.0911    0.7479 H   0  0  0  0  0  0  0  0  0  0  0  0
   -2.1022    4.1579    0.9253 C   0  0  0  0  0  0  0  0  0  0  0  0
   -1.6712    4.8027    0.1521 H   0  0  0  0  0  0  0  0  0  0  0  0
   -3.1753    4.3632    0.9842 H   0  0  0  0  0  0  0  0  0  0  0  0
   -1.6463    4.4099    1.8885 H   0  0  0  0  0  0  0  0  0  0  0  0
  1  2  1  0  0  0  0
  2  3  1  0  0  0  0
  2  4  1  0  0  0  0
  2  5  1  0  0  0  0
  5  6  2  0  0  0  0
  5  7  1  0  0  0  0
  7  8  1  0  0  0  0
  7  9  1  0  0  0  0
  9 10  1  0  0  0  0
  9 11  1  0  0  0  0
  9 24  1  0  0  0  0
 11 12  1  0  0  0  0
 11 13  1  0  0  0  0
 11 14  1  0  0  0  0
 14 15  1  0  0  0  0
 14 16  1  0  0  0  0
 14 20  1  0  0  0  0
 16 17  1  0  0  0  0
 16 18  1  0  0  0  0
 16 19  1  0  0  0  0
 20 21  1  0  0  0  0
 20 22  1  0  0  0  0
 20 23  1  0  0  0  0
 24 25  2  0  0  0  0
 24 26  1  0  0  0  0
 26 27  1  0  0  0  0
 26 28  1  0  0  0  0
 28 29  1  0  0  0  0
 28 30  1  0  0  0  0
 28 31  1  0  0  0  0
M  END
$$$$

  -OEChem-01062216083D

 31 30  0     1  0  0  0  0  0999 V2000
   -3.2783   -2.9222    0.8345 H   0  0  0  0  0  0  0  0  0  0  0  0
   -3.2633   -1.9518    0.3299 C   0  0  0  0  0  0  0  0  0  0  0  0
   -4.1318   -1.3731    0.6530 H   0  0  0  0  0  0  0  0  0  0  0  0
   -3.3232   -2.1167   -0.7485 H   0  0  0  0  0  0  0  0  0  0  0  0
   -1.9865   -1.2068    0.6703 C   0  0  0  0  0  0  0  0  0  0  0  0
   -1.2093   -1.6778    1.4822 O   0  0  0  0  0  0  0  0  0  0  0  0
   -1.7277    0.0095    0.0686 N   0  0  0  0  0  0  0  0  0  0  0  0
   -2.3740    0.2913   -0.6633 H   0  0  0  0  0  0  0  0  0  0  0  0
   -0.4266    0.7089    0.1300 C   0  0  1  0  0  0  0  0  0  0  0  0
    0.1866    0.3130    0.9451 H   0  0  0  0  0  0  0  0  0  0  0  0
    0.3096    0.5072   -1.2164 C   0  0  0  0  0  0  0  0  0  0  0  0
   -0.3361    0.8697   -2.0231 H   0  0  0  0  0  0  0  0  0  0  0  0
    1.2147    1.1246   -1.2258 H   0  0  0  0  0  0  0  0  0  0  0  0
    0.7277   -0.9503   -1.5129 C   0  0  0  0  0  0  0  0  0  0  0  0
   -0.1494   -1.6026   -1.4662 H   0  0  0  0  0  0  0  0  0  0  0  0
    1.3056   -1.0291   -2.9307 C   0  0  0  0  0  0  0  0  0  0  0  0
    2.1932   -0.3948   -3.0226 H   0  0  0  0  0  0  0  0  0  0  0  0
    1.5885   -2.0589   -3.1706 H   0  0  0  0  0  0  0  0  0  0  0  0
    0.5645   -0.6988   -3.6652 H   0  0  0  0  0  0  0  0  0  0  0  0
    1.7772   -1.4628   -0.5160 C   0  0  0  0  0  0  0  0  0  0  0  0
    1.3582   -1.5372    0.4909 H   0  0  0  0  0  0  0  0  0  0  0  0
    2.1223   -2.4596   -0.8070 H   0  0  0  0  0  0  0  0  0  0  0  0
    2.6413   -0.7917   -0.4854 H   0  0  0  0  0  0  0  0  0  0  0  0
   -0.6091    2.2153    0.4365 C   0  0  0  0  0  0  0  0  0  0  0  0
    0.2825    3.0228    0.2109 O   0  0  0  0  0  0  0  0  0  0  0  0
   -1.8199    2.6826    0.9166 N   0  0  0  0  0  0  0  0  0  0  0  0
   -2.4888    1.9769    1.2105 H   0  0  0  0  0  0  0  0  0  0  0  0
   -2.0545    4.0745    1.2819 C   0  0  0  0  0  0  0  0  0  0  0  0
   -1.8764    4.7310    0.4237 H   0  0  0  0  0  0  0  0  0  0  0  0
   -3.0896    4.2104    1.6093 H   0  0  0  0  0  0  0  0  0  0  0  0
   -1.3891    4.3734    2.0987 H   0  0  0  0  0  0  0  0  0  0  0  0
  1  2  1  0  0  0  0
  2  3  1  0  0  0  0
  2  4  1  0  0  0  0
  2  5  1  0  0  0  0
  5  6  2  0  0  0  0
  5  7  1  0  0  0  0
  7  8  1  0  0  0  0
  7  9  1  0  0  0  0
  9 10  1  0  0  0  0
  9 11  1  0  0  0  0
  9 24  1  0  0  0  0
 11 12  1  0  0  0  0
 11 13  1  0  0  0  0
 11 14  1  0  0  0  0
 14 15  1  0  0  0  0
 14 16  1  0  0  0  0
 14 20  1  0  0  0  0
 16 17  1  0  0  0  0
 16 18  1  0  0  0  0
 16 19  1  0  0  0  0
 20 21  1  0  0  0  0
 20 22  1  0  0  0  0
 20 23  1  0  0  0  0
 24 25  2  0  0  0  0
 24 26  1  0  0  0  0
 26 27  1  0  0  0  0
 26 28  1  0  0  0  0
 28 29  1  0  0  0  0
 28 30  1  0  0  0  0
 28 31  1  0  0  0  0
M  END
$$$$

  -OEChem-01062216083D

 31 30  0     1  0  0  0  0  0999 V2000
   -3.3022   -2.8886    0.8385 H   0  0  0  0  0  0  0  0  0  0  0  0
   -3.2752   -1.9193    0.3324 C   0  0  0  0  0  0  0  0  0  0  0  0
   -4.1316   -1.3260    0.6615 H   0  0  0  0  0  0  0  0  0  0  0  0
   -3.3465   -2.0849   -0.7453 H   0  0  0  0  0  0  0  0  0  0  0  0
   -1.9838   -1.1943    0.6613 C   0  0  0  0  0  0  0  0  0  0  0  0
   -1.2050   -1.6774    1.4648 O   0  0  0  0  0  0  0  0  0  0  0  0
   -1.7155    0.0234    0.0675 N   0  0  0  0  0  0  0  0  0  0  0  0
   -2.3778    0.3353   -0.6376 H   0  0  0  0  0  0  0  0  0  0  0  0
   -0.4104    0.7137    0.1257 C   0  0  1  0  0  0  0  0  0  0  0  0
    0.2022    0.3142    0.9390 H   0  0  0  0  0  0  0  0  0  0  0  0
    0.3250    0.5066   -1.2207 C   0  0  0  0  0  0  0  0  0  0  0  0
   -0.3176    0.8739   -2.0276 H   0  0  0  0  0  0  0  0  0  0  0  0
    1.2344    1.1176   -1.2284 H   0  0  0  0  0  0  0  0  0  0  0  0
    0.7345   -0.9535   -1.5168 C   0  0  0  0  0  0  0  0  0  0  0  0
   -0.1468   -1.6001   -1.4701 H   0  0  0  0  0  0  0  0  0  0  0  0
    1.3119   -1.0354   -2.9345 C   0  0  0  0  0  0  0  0  0  0  0  0
    2.2033   -0.4065   -3.0265 H   0  0  0  0  0  0  0  0  0  0  0  0
    1.5881   -2.0669   -3.1747 H   0  0  0  0  0  0  0  0  0  0  0  0
    0.5726   -0.7002   -3.6686 H   0  0  0  0  0  0  0  0  0  0  0  0
    1.7815   -1.4731   -0.5206 C   0  0  0  0  0  0  0  0  0  0  0  0
    1.3644   -1.5420    0.4874 H   0  0  0  0  0  0  0  0  0  0  0  0
    2.1176   -2.4734   -0.8105 H   0  0  0  0  0  0  0  0  0  0  0  0
    2.6516   -0.8097   -0.4933 H   0  0  0  0  0  0  0  0  0  0  0  0
   -0.6012    2.2169    0.4434 C   0  0  0  0  0  0  0  0  0  0  0  0
    0.1496    3.0740   -0.0042 O   0  0  0  0  0  0  0  0  0  0  0  0
   -1.6810    2.6173    1.2097 N   0  0  0  0  0  0  0  0  0  0  0  0
   -2.2282    1.8773    1.6406 H   0  0  0  0  0  0  0  0  0  0  0  0
   -1.9224    3.9999    1.6035 C   0  0  0  0  0  0  0  0  0  0  0  0
   -2.0266    4.6378    0.7195 H   0  0  0  0  0  0  0  0  0  0  0  0
   -2.8440    4.0704    2.1890 H   0  0  0  0  0  0  0  0  0  0  0  0
   -1.0937    4.3750    2.2132 H   0  0  0  0  0  0  0  0  0  0  0  0
  1  2  1  0  0  0  0
  2  3  1  0  0  0  0
  2  4  1  0  0  0  0
  2  5  1  0  0  0  0
  5  6  2  0  0  0  0
  5  7  1  0  0  0  0
  7  8  1  0  0  0  0
  7  9  1  0  0  0  0
  9 10  1  0  0  0  0
  9 11  1  0  0  0  0
  9 24  1  0  0  0  0
 11 12  1  0  0  0  0
 11 13  1  0  0  0  0
 11 14  1  0  0  0  0
 14 15  1  0  0  0  0
 14 16  1  0  0  0  0
 14 20  1  0  0  0  0
 16 17  1  0  0  0  0
 16 18  1  0  0  0  0
 16 19  1  0  0  0  0
 20 21  1  0  0  0  0
 20 22  1  0  0  0  0
 20 23  1  0  0  0  0
 24 25  2  0  0  0  0
 24 26  1  0  0  0  0
 26 27  1  0  0  0  0
 26 28  1  0  0  0  0
 28 29  1  0  0  0  0
 28 30  1  0  0  0  0
 28 31  1  0  0  0  0
M  END
$$$$

  -OEChem-01062216083D

 31 30  0     1  0  0  0  0  0999 V2000
   -3.3251   -2.8560    0.8498 H   0  0  0  0  0  0  0  0  0  0  0  0
   -3.2876   -1.8872    0.3432 C   0  0  0  0  0  0  0  0  0  0  0  0
   -4.1313   -1.2801    0.6799 H   0  0  0  0  0  0  0  0  0  0  0  0
   -3.3718   -2.0517   -0.7337 H   0  0  0  0  0  0  0  0  0  0  0  0
   -1.9819   -1.1823    0.6597 C   0  0  0  0  0  0  0  0  0  0  0  0
   -1.2020   -1.6774    1.4554 O   0  0  0  0  0  0  0  0  0  0  0  0
   -1.7030    0.0352    0.0715 N   0  0  0  0  0  0  0  0  0  0  0  0
   -2.3742    0.3702   -0.6145 H   0  0  0  0  0  0  0  0  0  0  0  0
   -0.3932    0.7134    0.1268 C   0  0  1  0  0  0  0  0  0  0  0  0
    0.2200    0.3085    0.9371 H   0  0  0  0  0  0  0  0  0  0  0  0
    0.3411    0.5068   -1.2200 C   0  0  0  0  0  0  0  0  0  0  0  0
   -0.2995    0.8808   -2.0256 H   0  0  0  0  0  0  0  0  0  0  0  0
    1.2529    1.1144   -1.2236 H   0  0  0  0  0  0  0  0  0  0  0  0
    0.7407   -0.9547   -1.5220 C   0  0  0  0  0  0  0  0  0  0  0  0
   -0.1453   -1.5951   -1.4780 H   0  0  0  0  0  0  0  0  0  0  0  0
    1.3180   -1.0350   -2.9399 C   0  0  0  0  0  0  0  0  0  0  0  0
    2.2149   -0.4136   -3.0287 H   0  0  0  0  0  0  0  0  0  0  0  0
    1.5849   -2.0676   -3.1853 H   0  0  0  0  0  0  0  0  0  0  0  0
    0.5819   -0.6898   -3.6726 H   0  0  0  0  0  0  0  0  0  0  0  0
    1.7838   -1.4856   -0.5277 C   0  0  0  0  0  0  0  0  0  0  0  0
    1.3659   -1.5562    0.4799 H   0  0  0  0  0  0  0  0  0  0  0  0
    2.1129   -2.4871   -0.8215 H   0  0  0  0  0  0  0  0  0  0  0  0
    2.6585   -0.8284   -0.4973 H   0  0  0  0  0  0  0  0  0  0  0  0
   -0.5876    2.2131    0.4527 C   0  0  0  0  0  0  0  0  0  0  0  0
   -0.0326    3.0984   -0.1857 O   0  0  0  0  0  0  0  0  0  0  0  0
   -1.4632    2.5706    1.4615 N   0  0  0  0  0  0  0  0  0  0  0  0
   -1.8740    1.8125    2.0000 H   0  0  0  0  0  0  0  0  0  0  0  0
   -1.7138    3.9486    1.8652 C   0  0  0  0  0  0  0  0  0  0  0  0
   -2.1014    4.5306    1.0224 H   0  0  0  0  0  0  0  0  0  0  0  0
   -2.4520    3.9776    2.6724 H   0  0  0  0  0  0  0  0  0  0  0  0
   -0.7906    4.4171    2.2223 H   0  0  0  0  0  0  0  0  0  0  0  0
  1  2  1  0  0  0  0
  2  3  1  0  0  0  0
  2  4  1  0  0  0  0
  2  5  1  0  0  0  0
  5  6  2  0  0  0  0
  5  7  1  0  0  0  0
  7  8  1  0  0  0  0
  7  9  1  0  0  0  0
  9 10  1  0  0  0  0
  9 11  1  0  0  0  0
  9 24  1  0  0  0  0
 11 12  1  0  0  0  0
 11 13  1  0  0  0  0
 11 14  1  0  0  0  0
 14 15  1  0  0  0  0
 14 16  1  0  0  0  0
 14 20  1  0  0  0  0
 16 17  1  0  0  0  0
 16 18  1  0  0  0  0
 16 19  1  0  0  0  0
 20 21  1  0  0  0  0
 20 22  1  0  0  0  0
 20 23  1  0  0  0  0
 24 25  2  0  0  0  0
 24 26  1  0  0  0  0
 26 27  1  0  0  0  0
 26 28  1  0  0  0  0
 28 29  1  0  0  0  0
 28 30  1  0  0  0  0
 28 31  1  0  0  0  0
M  END
$$$$

  -OEChem-01062216083D

 31 30  0     1  0  0  0  0  0999 V2000
   -3.3452   -2.8270    0.8641 H   0  0  0  0  0  0  0  0  0  0  0  0
   -3.2988   -1.8590    0.3570 C   0  0  0  0  0  0  0  0  0  0  0  0
   -4.1306   -1.2401    0.7018 H   0  0  0  0  0  0  0  0  0  0  0  0
   -3.3953   -2.0218   -0.7192 H   0  0  0  0  0  0  0  0  0  0  0  0
   -1.9805   -1.1727    0.6610 C   0  0  0  0  0  0  0  0  0  0  0  0
   -1.1984   -1.6794    1.4477 O   0  0  0  0  0  0  0  0  0  0  0  0
   -1.6923    0.0434    0.0752 N   0  0  0  0  0  0  0  0  0  0  0  0
   -2.3697    0.3969   -0.5954 H   0  0  0  0  0  0  0  0  0  0  0  0
   -0.3785    0.7103    0.1295 C   0  0  1  0  0  0  0  0  0  0  0  0
    0.2348    0.2989    0.9363 H   0  0  0  0  0  0  0  0  0  0  0  0
    0.3551    0.5061   -1.2172 C   0  0  0  0  0  0  0  0  0  0  0  0
   -0.2842    0.8847   -2.0219 H   0  0  0  0  0  0  0  0  0  0  0  0
    1.2675    1.1128   -1.2167 H   0  0  0  0  0  0  0  0  0  0  0  0
    0.7461   -0.9561   -1.5268 C   0  0  0  0  0  0  0  0  0  0  0  0
   -0.1439   -1.5913   -1.4864 H   0  0  0  0  0  0  0  0  0  0  0  0
    1.3237   -1.0315   -2.9449 C   0  0  0  0  0  0  0  0  0  0  0  0
    2.2247   -0.4153   -3.0289 H   0  0  0  0  0  0  0  0  0  0  0  0
    1.5842   -2.0642   -3.1968 H   0  0  0  0  0  0  0  0  0  0  0  0
    0.5904   -0.6767   -3.6757 H   0  0  0  0  0  0  0  0  0  0  0  0
    1.7860   -1.4987   -0.5355 C   0  0  0  0  0  0  0  0  0  0  0  0
    1.3682   -1.5709    0.4720 H   0  0  0  0  0  0  0  0  0  0  0  0
    2.1079   -2.5011   -0.8342 H   0  0  0  0  0  0  0  0  0  0  0  0
    2.6652   -0.8477   -0.5028 H   0  0  0  0  0  0  0  0  0  0  0  0
   -0.5702    2.2078    0.4589 C   0  0  0  0  0  0  0  0  0  0  0  0
   -0.2513    3.0951   -0.3227 O   0  0  0  0  0  0  0  0  0  0  0  0
   -1.1847    2.5526    1.6482 N   0  0  0  0  0  0  0  0  0  0  0  0
   -1.4438    1.7915    2.2708 H   0  0  0  0  0  0  0  0  0  0  0  0
   -1.4438    3.9272    2.0571 C   0  0  0  0  0  0  0  0  0  0  0  0
   -2.0887    4.4291    1.3282 H   0  0  0  0  0  0  0  0  0  0  0  0
   -1.9445    3.9439    3.0299 H   0  0  0  0  0  0  0  0  0  0  0  0
   -0.5051    4.4847    2.1411 H   0  0  0  0  0  0  0  0  0  0  0  0
  1  2  1  0  0  0  0
  2  3  1  0  0  0  0
  2  4  1  0  0  0  0
  2  5  1  0  0  0  0
  5  6  2  0  0  0  0
  5  7  1  0  0  0  0
  7  8  1  0  0  0  0
  7  9  1  0  0  0  0
  9 10  1  0  0  0  0
  9 11  1  0  0  0  0
  9 24  1  0  0  0  0
 11 12  1  0  0  0  0
 11 13  1  0  0  0  0
 11 14  1  0  0  0  0
 14 15  1  0  0  0  0
 14 16  1  0  0  0  0
 14 20  1  0  0  0  0
 16 17  1  0  0  0  0
 16 18  1  0  0  0  0
 16 19  1  0  0  0  0
 20 21  1  0  0  0  0
 20 22  1  0  0  0  0
 20 23  1  0  0  0  0
 24 25  2  0  0  0  0
 24 26  1  0  0  0  0
 26 27  1  0  0  0  0
 26 28  1  0  0  0  0
 28 29  1  0  0  0  0
 28 30  1  0  0  0  0
 28 31  1  0  0  0  0
M  END
$$$$

  -OEChem-01062216083D

 31 30  0     1  0  0  0  0  0999 V2000
   -3.3720   -2.8013    0.8812 H   0  0  0  0  0  0  0  0  0  0  0  0
   -3.3166   -1.8325    0.3767 C   0  0  0  0  0  0  0  0  0  0  0  0
   -4.1308   -1.1999    0.7385 H   0  0  0  0  0  0  0  0  0  0  0  0
   -3.4349   -1.9892   -0.6982 H   0  0  0  0  0  0  0  0  0  0  0  0
   -1.9811   -1.1714    0.6602 C   0  0  0  0  0  0  0  0  0  0  0  0
   -1.1927   -1.6962    1.4291 O   0  0  0  0  0  0  0  0  0  0  0  0
   -1.6826    0.0425    0.0759 N   0  0  0  0  0  0  0  0  0  0  0  0
   -2.3681    0.4193   -0.5738 H   0  0  0  0  0  0  0  0  0  0  0  0
   -0.3669    0.7016    0.1318 C   0  0  1  0  0  0  0  0  0  0  0  0
    0.2453    0.2840    0.9361 H   0  0  0  0  0  0  0  0  0  0  0  0
    0.3680    0.5039   -1.2146 C   0  0  0  0  0  0  0  0  0  0  0  0
   -0.2717    0.8843   -2.0183 H   0  0  0  0  0  0  0  0  0  0  0  0
    1.2791    1.1126   -1.2114 H   0  0  0  0  0  0  0  0  0  0  0  0
    0.7541   -0.9570   -1.5325 C   0  0  0  0  0  0  0  0  0  0  0  0
   -0.1383   -1.5892   -1.4961 H   0  0  0  0  0  0  0  0  0  0  0  0
    1.3338   -1.0255   -2.9500 C   0  0  0  0  0  0  0  0  0  0  0  0
    2.2378   -0.4132   -3.0283 H   0  0  0  0  0  0  0  0  0  0  0  0
    1.5900   -2.0577   -3.2086 H   0  0  0  0  0  0  0  0  0  0  0  0
    0.6036   -0.6616   -3.6794 H   0  0  0  0  0  0  0  0  0  0  0  0
    1.7917   -1.5072   -0.5433 C   0  0  0  0  0  0  0  0  0  0  0  0
    1.3736   -1.5809    0.4640 H   0  0  0  0  0  0  0  0  0  0  0  0
    2.1096   -2.5098   -0.8457 H   0  0  0  0  0  0  0  0  0  0  0  0
    2.6735   -0.8598   -0.5086 H   0  0  0  0  0  0  0  0  0  0  0  0
   -0.5533    2.1980    0.4604 C   0  0  0  0  0  0  0  0  0  0  0  0
   -0.4936    3.0632   -0.4046 O   0  0  0  0  0  0  0  0  0  0  0  0
   -0.8716    2.5616    1.7553 N   0  0  0  0  0  0  0  0  0  0  0  0
   -0.9669    1.8127    2.4368 H   0  0  0  0  0  0  0  0  0  0  0  0
   -1.1312    3.9352    2.1672 C   0  0  0  0  0  0  0  0  0  0  0  0
   -1.9806    4.3473    1.6125 H   0  0  0  0  0  0  0  0  0  0  0  0
   -1.3647    3.9717    3.2355 H   0  0  0  0  0  0  0  0  0  0  0  0
   -0.2523    4.5619    1.9835 H   0  0  0  0  0  0  0  0  0  0  0  0
  1  2  1  0  0  0  0
  2  3  1  0  0  0  0
  2  4  1  0  0  0  0
  2  5  1  0  0  0  0
  5  6  2  0  0  0  0
  5  7  1  0  0  0  0
  7  8  1  0  0  0  0
  7  9  1  0  0  0  0
  9 10  1  0  0  0  0
  9 11  1  0  0  0  0
  9 24  1  0  0  0  0
 11 12  1  0  0  0  0
 11 13  1  0  0  0  0
 11 14  1  0  0  0  0
 14 15  1  0  0  0  0
 14 16  1  0  0  0  0
 14 20  1  0  0  0  0
 16 17  1  0  0  0  0
 16 18  1  0  0  0  0
 16 19  1  0  0  0  0
 20 21  1  0  0  0  0
 20 22  1  0  0  0  0
 20 23  1  0  0  0  0
 24 25  2  0  0  0  0
 24 26  1  0  0  0  0
 26 27  1  0  0  0  0
 26 28  1  0  0  0  0
 28 29  1  0  0  0  0
 28 30  1  0  0  0  0
 28 31  1  0  0  0  0
M  END
$$$$

  -OEChem-01062216083D

 31 30  0     1  0  0  0  0  0999 V2000
   -3.4019   -2.7785    0.9050 H   0  0  0  0  0  0  0  0  0  0  0  0
   -3.3364   -1.8115    0.3982 C   0  0  0  0  0  0  0  0  0  0  0  0
   -4.1316   -1.1626    0.7731 H   0  0  0  0  0  0  0  0  0  0  0  0
   -3.4766   -1.9668   -0.6743 H   0  0  0  0  0  0  0  0  0  0  0  0
   -1.9836   -1.1761    0.6575 C   0  0  0  0  0  0  0  0  0  0  0  0
   -1.1865   -1.7231    1.4022 O   0  0  0  0  0  0  0  0  0  0  0  0
   -1.6752    0.0352    0.0730 N   0  0  0  0  0  0  0  0  0  0  0  0
   -2.3731    0.4427   -0.5445 H   0  0  0  0  0  0  0  0  0  0  0  0
   -0.3587    0.6899    0.1336 C   0  0  1  0  0  0  0  0  0  0  0  0
    0.2500    0.2663    0.9372 H   0  0  0  0  0  0  0  0  0  0  0  0
    0.3794    0.5015   -1.2114 C   0  0  0  0  0  0  0  0  0  0  0  0
   -0.2582    0.8871   -2.0144 H   0  0  0  0  0  0  0  0  0  0  0  0
    1.2898    1.1107   -1.2015 H   0  0  0  0  0  0  0  0  0  0  0  0
    0.7640   -0.9575   -1.5391 C   0  0  0  0  0  0  0  0  0  0  0  0
   -0.1302   -1.5877   -1.5099 H   0  0  0  0  0  0  0  0  0  0  0  0
    1.3478   -1.0164   -2.9554 C   0  0  0  0  0  0  0  0  0  0  0  0
    2.2544   -0.4069   -3.0261 H   0  0  0  0  0  0  0  0  0  0  0  0
    1.6006   -2.0475   -3.2215 H   0  0  0  0  0  0  0  0  0  0  0  0
    0.6210   -0.6440   -3.6840 H   0  0  0  0  0  0  0  0  0  0  0  0
    1.7973   -1.5179   -0.5512 C   0  0  0  0  0  0  0  0  0  0  0  0
    1.3762   -1.5983    0.4541 H   0  0  0  0  0  0  0  0  0  0  0  0
    2.1127   -2.5192   -0.8602 H   0  0  0  0  0  0  0  0  0  0  0  0
    2.6810   -0.8736   -0.5092 H   0  0  0  0  0  0  0  0  0  0  0  0
   -0.5382    2.1871    0.4571 C   0  0  0  0  0  0  0  0  0  0  0  0
   -0.7512    3.0072   -0.4276 O   0  0  0  0  0  0  0  0  0  0  0  0
   -0.5483    2.5987    1.7767 N   0  0  0  0  0  0  0  0  0  0  0  0
   -0.4563    1.8787    2.4888 H   0  0  0  0  0  0  0  0  0  0  0  0
   -0.7994    3.9739    2.1884 C   0  0  0  0  0  0  0  0  0  0  0  0
   -1.7918    4.2975    1.8576 H   0  0  0  0  0  0  0  0  0  0  0  0
   -0.7539    4.0564    3.2785 H   0  0  0  0  0  0  0  0  0  0  0  0
   -0.0478    4.6448    1.7595 H   0  0  0  0  0  0  0  0  0  0  0  0
  1  2  1  0  0  0  0
  2  3  1  0  0  0  0
  2  4  1  0  0  0  0
  2  5  1  0  0  0  0
  5  6  2  0  0  0  0
  5  7  1  0  0  0  0
  7  8  1  0  0  0  0
  7  9  1  0  0  0  0
  9 10  1  0  0  0  0
  9 11  1  0  0  0  0
  9 24  1  0  0  0  0
 11 12  1  0  0  0  0
 11 13  1  0  0  0  0
 11 14  1  0  0  0  0
 14 15  1  0  0  0  0
 14 16  1  0  0  0  0
 14 20  1  0  0  0  0
 16 17  1  0  0  0  0
 16 18  1  0  0  0  0
 16 19  1  0  0  0  0
 20 21  1  0  0  0  0
 20 22  1  0  0  0  0
 20 23  1  0  0  0  0
 24 25  2  0  0  0  0
 24 26  1  0  0  0  0
 26 27  1  0  0  0  0
 26 28  1  0  0  0  0
 28 29  1  0  0  0  0
 28 30  1  0  0  0  0
 28 31  1  0  0  0  0
M  END
$$$$

  -OEChem-01062216083D

 31 30  0     1  0  0  0  0  0999 V2000
   -3.4411   -2.7581    0.9322 H   0  0  0  0  0  0  0  0  0  0  0  0
   -3.3687   -1.7881    0.4325 C   0  0  0  0  0  0  0  0  0  0  0  0
   -4.1306   -1.1222    0.8447 H   0  0  0  0  0  0  0  0  0  0  0  0
   -3.5539   -1.9277   -0.6353 H   0  0  0  0  0  0  0  0  0  0  0  0
   -1.9901   -1.1918    0.6450 C   0  0  0  0  0  0  0  0  0  0  0  0
   -1.1795   -1.7699    1.3506 O   0  0  0  0  0  0  0  0  0  0  0  0
   -1.6717    0.0171    0.0614 N   0  0  0  0  0  0  0  0  0  0  0  0
   -2.3897    0.4683   -0.5011 H   0  0  0  0  0  0  0  0  0  0  0  0
   -0.3566    0.6724    0.1315 C   0  0  1  0  0  0  0  0  0  0  0  0
    0.2457    0.2445    0.9377 H   0  0  0  0  0  0  0  0  0  0  0  0
    0.3896    0.4982   -1.2098 C   0  0  0  0  0  0  0  0  0  0  0  0
   -0.2441    0.8897   -2.0132 H   0  0  0  0  0  0  0  0  0  0  0  0
    1.2988    1.1090   -1.1885 H   0  0  0  0  0  0  0  0  0  0  0  0
    0.7790   -0.9574   -1.5474 C   0  0  0  0  0  0  0  0  0  0  0  0
   -0.1137   -1.5903   -1.5273 H   0  0  0  0  0  0  0  0  0  0  0  0
    1.3717   -1.0046   -2.9606 C   0  0  0  0  0  0  0  0  0  0  0  0
    2.2725   -0.3856   -3.0238 H   0  0  0  0  0  0  0  0  0  0  0  0
    1.6357   -2.0321   -3.2299 H   0  0  0  0  0  0  0  0  0  0  0  0
    0.6448   -0.6370   -3.6915 H   0  0  0  0  0  0  0  0  0  0  0  0
    1.8097   -1.5219   -0.5589 C   0  0  0  0  0  0  0  0  0  0  0  0
    1.3834   -1.6150    0.4431 H   0  0  0  0  0  0  0  0  0  0  0  0
    2.1322   -2.5184   -0.8759 H   0  0  0  0  0  0  0  0  0  0  0  0
    2.6894   -0.8728   -0.5056 H   0  0  0  0  0  0  0  0  0  0  0  0
   -0.5362    2.1702    0.4477 C   0  0  0  0  0  0  0  0  0  0  0  0
   -1.0025    2.9316   -0.3914 O   0  0  0  0  0  0  0  0  0  0  0  0
   -0.2531    2.6480    1.7136 N   0  0  0  0  0  0  0  0  0  0  0  0
    0.0474    1.9729    2.4117 H   0  0  0  0  0  0  0  0  0  0  0  0
   -0.4698    4.0322    2.1159 C   0  0  0  0  0  0  0  0  0  0  0  0
   -1.5252    4.3031    2.0073 H   0  0  0  0  0  0  0  0  0  0  0  0
   -0.1833    4.1706    3.1628 H   0  0  0  0  0  0  0  0  0  0  0  0
    0.1329    4.7081    1.5002 H   0  0  0  0  0  0  0  0  0  0  0  0
  1  2  1  0  0  0  0
  2  3  1  0  0  0  0
  2  4  1  0  0  0  0
  2  5  1  0  0  0  0
  5  6  2  0  0  0  0
  5  7  1  0  0  0  0
  7  8  1  0  0  0  0
  7  9  1  0  0  0  0
  9 10  1  0  0  0  0
  9 11  1  0  0  0  0
  9 24  1  0  0  0  0
 11 12  1  0  0  0  0
 11 13  1  0  0  0  0
 11 14  1  0  0  0  0
 14 15  1  0  0  0  0
 14 16  1  0  0  0  0
 14 20  1  0  0  0  0
 16 17  1  0  0  0  0
 16 18  1  0  0  0  0
 16 19  1  0  0  0  0
 20 21  1  0  0  0  0
 20 22  1  0  0  0  0
 20 23  1  0  0  0  0
 24 25  2  0  0  0  0
 24 26  1  0  0  0  0
 26 27  1  0  0  0  0
 26 28  1  0  0  0  0
 28 29  1  0  0  0  0
 28 30  1  0  0  0  0
 28 31  1  0  0  0  0
M  END
$$$$

  -OEChem-01062216083D

 31 30  0     1  0  0  0  0  0999 V2000
   -3.4652   -2.7415    0.9539 H   0  0  0  0  0  0  0  0  0  0  0  0
   -3.3861   -1.7735    0.4512 C   0  0  0  0  0  0  0  0  0  0  0  0
   -4.1296   -1.0941    0.8750 H   0  0  0  0  0  0  0  0  0  0  0  0
   -3.5932   -1.9119   -0.6127 H   0  0  0  0  0  0  0  0  0  0  0  0
   -1.9942   -1.2000    0.6377 C   0  0  0  0  0  0  0  0  0  0  0  0
   -1.1764   -1.7984    1.3180 O   0  0  0  0  0  0  0  0  0  0  0  0
   -1.6690    0.0057    0.0516 N   0  0  0  0  0  0  0  0  0  0  0  0
   -2.4016    0.4909   -0.4624 H   0  0  0  0  0  0  0  0  0  0  0  0
   -0.3554    0.6623    0.1293 C   0  0  1  0  0  0  0  0  0  0  0  0
    0.2404    0.2336    0.9399 H   0  0  0  0  0  0  0  0  0  0  0  0
    0.3954    0.4958   -1.2090 C   0  0  0  0  0  0  0  0  0  0  0  0
   -0.2375    0.8907   -2.0116 H   0  0  0  0  0  0  0  0  0  0  0  0
    1.3034    1.1077   -1.1829 H   0  0  0  0  0  0  0  0  0  0  0  0
    0.7879   -0.9579   -1.5518 C   0  0  0  0  0  0  0  0  0  0  0  0
   -0.1043   -1.5917   -1.5378 H   0  0  0  0  0  0  0  0  0  0  0  0
    1.3859   -0.9991   -2.9630 C   0  0  0  0  0  0  0  0  0  0  0  0
    2.2857   -0.3784   -3.0211 H   0  0  0  0  0  0  0  0  0  0  0  0
    1.6532   -2.0253   -3.2341 H   0  0  0  0  0  0  0  0  0  0  0  0
    0.6612   -0.6309   -3.6960 H   0  0  0  0  0  0  0  0  0  0  0  0
    1.8150   -1.5263   -0.5616 C   0  0  0  0  0  0  0  0  0  0  0  0
    1.3849   -1.6227    0.4384 H   0  0  0  0  0  0  0  0  0  0  0  0
    2.1386   -2.5217   -0.8811 H   0  0  0  0  0  0  0  0  0  0  0  0
    2.6947   -0.8780   -0.5024 H   0  0  0  0  0  0  0  0  0  0  0  0
   -0.5337    2.1621    0.4354 C   0  0  0  0  0  0  0  0  0  0  0  0
   -1.2223    2.8605   -0.2995 O   0  0  0  0  0  0  0  0  0  0  0  0
    0.0191    2.7142    1.5764 N   0  0  0  0  0  0  0  0  0  0  0  0
    0.5173    2.0906    2.2055 H   0  0  0  0  0  0  0  0  0  0  0  0
   -0.1679    4.1066    1.9651 C   0  0  0  0  0  0  0  0  0  0  0  0
   -1.2311    4.3254    2.1100 H   0  0  0  0  0  0  0  0  0  0  0  0
    0.3578    4.3112    2.9028 H   0  0  0  0  0  0  0  0  0  0  0  0
    0.2286    4.7754    1.1940 H   0  0  0  0  0  0  0  0  0  0  0  0
  1  2  1  0  0  0  0
  2  3  1  0  0  0  0
  2  4  1  0  0  0  0
  2  5  1  0  0  0  0
  5  6  2  0  0  0  0
  5  7  1  0  0  0  0
  7  8  1  0  0  0  0
  7  9  1  0  0  0  0
  9 10  1  0  0  0  0
  9 11  1  0  0  0  0
  9 24  1  0  0  0  0
 11 12  1  0  0  0  0
 11 13  1  0  0  0  0
 11 14  1  0  0  0  0
 14 15  1  0  0  0  0
 14 16  1  0  0  0  0
 14 20  1  0  0  0  0
 16 17  1  0  0  0  0
 16 18  1  0  0  0  0
 16 19  1  0  0  0  0
 20 21  1  0  0  0  0
 20 22  1  0  0  0  0
 20 23  1  0  0  0  0
 24 25  2  0  0  0  0
 24 26  1  0  0  0  0
 26 27  1  0  0  0  0
 26 28  1  0  0  0  0
 28 29  1  0  0  0  0
 28 30  1  0  0  0  0
 28 31  1  0  0  0  0
M  END
$$$$

  -OEChem-01062216083D

 31 30  0     1  0  0  0  0  0999 V2000
   -3.5027   -2.7110    1.0015 H   0  0  0  0  0  0  0  0  0  0  0  0
   -3.4130   -1.7519    0.4838 C   0  0  0  0  0  0  0  0  0  0  0  0
   -4.1252   -1.0475    0.9204 H   0  0  0  0  0  0  0  0  0  0  0  0
   -3.6549   -1.8975   -0.5717 H   0  0  0  0  0  0  0  0  0  0  0  0
   -2.0013   -1.2135    0.6202 C   0  0  0  0  0  0  0  0  0  0  0  0
   -1.1712   -1.8388    1.2602 O   0  0  0  0  0  0  0  0  0  0  0  0
   -1.6715   -0.0101    0.0323 N   0  0  0  0  0  0  0  0  0  0  0  0
   -2.4237    0.5183   -0.4064 H   0  0  0  0  0  0  0  0  0  0  0  0
   -0.3604    0.6504    0.1203 C   0  0  1  0  0  0  0  0  0  0  0  0
    0.2267    0.2248    0.9389 H   0  0  0  0  0  0  0  0  0  0  0  0
    0.4019    0.4919   -1.2116 C   0  0  0  0  0  0  0  0  0  0  0  0
   -0.2277    0.8872   -2.0164 H   0  0  0  0  0  0  0  0  0  0  0  0
    1.3073    1.1073   -1.1770 H   0  0  0  0  0  0  0  0  0  0  0  0
    0.8035   -0.9581   -1.5576 C   0  0  0  0  0  0  0  0  0  0  0  0
   -0.0862   -1.5959   -1.5524 H   0  0  0  0  0  0  0  0  0  0  0  0
    1.4132   -0.9894   -2.9643 C   0  0  0  0  0  0  0  0  0  0  0  0
    2.3144   -0.3695   -3.0101 H   0  0  0  0  0  0  0  0  0  0  0  0
    1.6818   -2.0137   -3.2415 H   0  0  0  0  0  0  0  0  0  0  0  0
    0.6951   -0.6142   -3.7001 H   0  0  0  0  0  0  0  0  0  0  0  0
    1.8274   -1.5251   -0.5632 C   0  0  0  0  0  0  0  0  0  0  0  0
    1.3967   -1.6143    0.4372 H   0  0  0  0  0  0  0  0  0  0  0  0
    2.1472   -2.5235   -0.8772 H   0  0  0  0  0  0  0  0  0  0  0  0
    2.7096   -0.8800   -0.5070 H   0  0  0  0  0  0  0  0  0  0  0  0
   -0.5424    2.1518    0.4168 C   0  0  0  0  0  0  0  0  0  0  0  0
   -1.4093    2.7907   -0.1693 O   0  0  0  0  0  0  0  0  0  0  0  0
    0.2370    2.7780    1.3720 N   0  0  0  0  0  0  0  0  0  0  0  0
    0.9045    2.2070    1.8828 H   0  0  0  0  0  0  0  0  0  0  0  0
    0.0820    4.1805    1.7380 C   0  0  0  0  0  0  0  0  0  0  0  0
   -0.9198    4.3636    2.1406 H   0  0  0  0  0  0  0  0  0  0  0  0
    0.8170    4.4555    2.5005 H   0  0  0  0  0  0  0  0  0  0  0  0
    0.2340    4.8232    0.8645 H   0  0  0  0  0  0  0  0  0  0  0  0
  1  2  1  0  0  0  0
  2  3  1  0  0  0  0
  2  4  1  0  0  0  0
  2  5  1  0  0  0  0
  5  6  2  0  0  0  0
  5  7  1  0  0  0  0
  7  8  1  0  0  0  0
  7  9  1  0  0  0  0
  9 10  1  0  0  0  0
  9 11  1  0  0  0  0
  9 24  1  0  0  0  0
 11 12  1  0  0  0  0
 11 13  1  0  0  0  0
 11 14  1  0  0  0  0
 14 15  1  0  0  0  0
 14 16  1  0  0  0  0
 14 20  1  0  0  0  0
 16 17  1  0  0  0  0
 16 18  1  0  0  0  0
 16 19  1  0  0  0  0
 20 21  1  0  0  0  0
 20 22  1  0  0  0  0
 20 23  1  0  0  0  0
 24 25  2  0  0  0  0
 24 26  1  0  0  0  0
 26 27  1  0  0  0  0
 26 28  1  0  0  0  0
 28 29  1  0  0  0  0
 28 30  1  0  0  0  0
 28 31  1  0  0  0  0
M  END
$$$$

  -OEChem-01062216083D

 31 30  0     1  0  0  0  0  0999 V2000
   -3.5190   -2.6956    1.0314 H   0  0  0  0  0  0  0  0  0  0  0  0
   -3.4288   -1.7400    0.5073 C   0  0  0  0  0  0  0  0  0  0  0  0
   -4.1147   -1.0219    0.9632 H   0  0  0  0  0  0  0  0  0  0  0  0
   -3.7061   -1.8847   -0.5396 H   0  0  0  0  0  0  0  0  0  0  0  0
   -2.0044   -1.2261    0.5982 C   0  0  0  0  0  0  0  0  0  0  0  0
   -1.1629   -1.8715    1.2025 O   0  0  0  0  0  0  0  0  0  0  0  0
   -1.6773   -0.0222    0.0100 N   0  0  0  0  0  0  0  0  0  0  0  0
   -2.4447    0.5363   -0.3611 H   0  0  0  0  0  0  0  0  0  0  0  0
   -0.3703    0.6457    0.1105 C   0  0  1  0  0  0  0  0  0  0  0  0
    0.2101    0.2242    0.9363 H   0  0  0  0  0  0  0  0  0  0  0  0
    0.4019    0.4906   -1.2165 C   0  0  0  0  0  0  0  0  0  0  0  0
   -0.2242    0.8838   -2.0250 H   0  0  0  0  0  0  0  0  0  0  0  0
    1.3049    1.1091   -1.1761 H   0  0  0  0  0  0  0  0  0  0  0  0
    0.8132   -0.9571   -1.5604 C   0  0  0  0  0  0  0  0  0  0  0  0
   -0.0728   -1.6000   -1.5602 H   0  0  0  0  0  0  0  0  0  0  0  0
    1.4324   -0.9854   -2.9629 C   0  0  0  0  0  0  0  0  0  0  0  0
    2.3287   -0.3583   -3.0045 H   0  0  0  0  0  0  0  0  0  0  0  0
    1.7110   -2.0079   -3.2367 H   0  0  0  0  0  0  0  0  0  0  0  0
    0.7157   -0.6175   -3.7038 H   0  0  0  0  0  0  0  0  0  0  0  0
    1.8348   -1.5169   -0.5592 C   0  0  0  0  0  0  0  0  0  0  0  0
    1.4012   -1.6027    0.4401 H   0  0  0  0  0  0  0  0  0  0  0  0
    2.1585   -2.5159   -0.8673 H   0  0  0  0  0  0  0  0  0  0  0  0
    2.7152   -0.8694   -0.5022 H   0  0  0  0  0  0  0  0  0  0  0  0
   -0.5567    2.1487    0.4017 C   0  0  0  0  0  0  0  0  0  0  0  0
   -1.5572    2.7341    0.0006 O   0  0  0  0  0  0  0  0  0  0  0  0
    0.3965    2.8450    1.1219 N   0  0  0  0  0  0  0  0  0  0  0  0
    1.1936    2.3233    1.4755 H   0  0  0  0  0  0  0  0  0  0  0  0
    0.2740    4.2590    1.4542 C   0  0  0  0  0  0  0  0  0  0  0  0
   -0.6100    4.4311    2.0772 H   0  0  0  0  0  0  0  0  0  0  0  0
    1.1571    4.5953    2.0057 H   0  0  0  0  0  0  0  0  0  0  0  0
    0.1864    4.8605    0.5433 H   0  0  0  0  0  0  0  0  0  0  0  0
  1  2  1  0  0  0  0
  2  3  1  0  0  0  0
  2  4  1  0  0  0  0
  2  5  1  0  0  0  0
  5  6  2  0  0  0  0
  5  7  1  0  0  0  0
  7  8  1  0  0  0  0
  7  9  1  0  0  0  0
  9 10  1  0  0  0  0
  9 11  1  0  0  0  0
  9 24  1  0  0  0  0
 11 12  1  0  0  0  0
 11 13  1  0  0  0  0
 11 14  1  0  0  0  0
 14 15  1  0  0  0  0
 14 16  1  0  0  0  0
 14 20  1  0  0  0  0
 16 17  1  0  0  0  0
 16 18  1  0  0  0  0
 16 19  1  0  0  0  0
 20 21  1  0  0  0  0
 20 22  1  0  0  0  0
 20 23  1  0  0  0  0
 24 25  2  0  0  0  0
 24 26  1  0  0  0  0
 26 27  1  0  0  0  0
 26 28  1  0  0  0  0
 28 29  1  0  0  0  0
 28 30  1  0  0  0  0
 28 31  1  0  0  0  0
M  END
$$$$

  -OEChem-01062216083D

 31 30  0     1  0  0  0  0  0999 V2000
   -3.5259   -2.6831    1.0535 H   0  0  0  0  0  0  0  0  0  0  0  0
   -3.4371   -1.7301    0.5245 C   0  0  0  0  0  0  0  0  0  0  0  0
   -4.1001   -1.0017    0.9974 H   0  0  0  0  0  0  0  0  0  0  0  0
   -3.7452   -1.8731   -0.5140 H   0  0  0  0  0  0  0  0  0  0  0  0
   -2.0039   -1.2352    0.5747 C   0  0  0  0  0  0  0  0  0  0  0  0
   -1.1527   -1.8979    1.1457 O   0  0  0  0  0  0  0  0  0  0  0  0
   -1.6812   -0.0293   -0.0120 N   0  0  0  0  0  0  0  0  0  0  0  0
   -2.4607    0.5523   -0.3172 H   0  0  0  0  0  0  0  0  0  0  0  0
   -0.3778    0.6449    0.1019 C   0  0  1  0  0  0  0  0  0  0  0  0
    0.1973    0.2279    0.9338 H   0  0  0  0  0  0  0  0  0  0  0  0
    0.4019    0.4885   -1.2221 C   0  0  0  0  0  0  0  0  0  0  0  0
   -0.2221    0.8780   -2.0340 H   0  0  0  0  0  0  0  0  0  0  0  0
    1.3041    1.1076   -1.1815 H   0  0  0  0  0  0  0  0  0  0  0  0
    0.8194   -0.9582   -1.5621 C   0  0  0  0  0  0  0  0  0  0  0  0
   -0.0638   -1.6049   -1.5638 H   0  0  0  0  0  0  0  0  0  0  0  0
    1.4452   -0.9871   -2.9616 C   0  0  0  0  0  0  0  0  0  0  0  0
    2.3386   -0.3559   -3.0007 H   0  0  0  0  0  0  0  0  0  0  0  0
    1.7297   -2.0091   -3.2309 H   0  0  0  0  0  0  0  0  0  0  0  0
    0.7300   -0.6245   -3.7065 H   0  0  0  0  0  0  0  0  0  0  0  0
    1.8411   -1.5109   -0.5569 C   0  0  0  0  0  0  0  0  0  0  0  0
    1.4073   -1.5914    0.4428 H   0  0  0  0  0  0  0  0  0  0  0  0
    2.1662   -2.5112   -0.8591 H   0  0  0  0  0  0  0  0  0  0  0  0
    2.7207   -0.8620   -0.5032 H   0  0  0  0  0  0  0  0  0  0  0  0
   -0.5700    2.1490    0.3917 C   0  0  0  0  0  0  0  0  0  0  0  0
   -1.6584    2.6825    0.2016 O   0  0  0  0  0  0  0  0  0  0  0  0
    0.4901    2.9153    0.8410 N   0  0  0  0  0  0  0  0  0  0  0  0
    1.3717    2.4422    1.0175 H   0  0  0  0  0  0  0  0  0  0  0  0
    0.3821    4.3393    1.1336 C   0  0  0  0  0  0  0  0  0  0  0  0
   -0.3369    4.5111    1.9415 H   0  0  0  0  0  0  0  0  0  0  0  0
    1.3532    4.7363    1.4443 H   0  0  0  0  0  0  0  0  0  0  0  0
    0.0527    4.8891    0.2457 H   0  0  0  0  0  0  0  0  0  0  0  0
  1  2  1  0  0  0  0
  2  3  1  0  0  0  0
  2  4  1  0  0  0  0
  2  5  1  0  0  0  0
  5  6  2  0  0  0  0
  5  7  1  0  0  0  0
  7  8  1  0  0  0  0
  7  9  1  0  0  0  0
  9 10  1  0  0  0  0
  9 11  1  0  0  0  0
  9 24  1  0  0  0  0
 11 12  1  0  0  0  0
 11 13  1  0  0  0  0
 11 14  1  0  0  0  0
 14 15  1  0  0  0  0
 14 16  1  0  0  0  0
 14 20  1  0  0  0  0
 16 17  1  0  0  0  0
 16 18  1  0  0  0  0
 16 19  1  0  0  0  0
 20 21  1  0  0  0  0
 20 22  1  0  0  0  0
 20 23  1  0  0  0  0
 24 25  2  0  0  0  0
 24 26  1  0  0  0  0
 26 27  1  0  0  0  0
 26 28  1  0  0  0  0
 28 29  1  0  0  0  0
 28 30  1  0  0  0  0
 28 31  1  0  0  0  0
M  END
$$$$

  -OEChem-01062216083D

 31 30  0     1  0  0  0  0  0999 V2000
   -3.4612   -2.6620    1.1136 H   0  0  0  0  0  0  0  0  0  0  0  0
   -3.4043   -1.7105    0.5777 C   0  0  0  0  0  0  0  0  0  0  0  0
   -4.0081   -0.9709    1.1092 H   0  0  0  0  0  0  0  0  0  0  0  0
   -3.8091   -1.8471   -0.4279 H   0  0  0  0  0  0  0  0  0  0  0  0
   -1.9640   -1.2413    0.4961 C   0  0  0  0  0  0  0  0  0  0  0  0
   -1.0709   -1.9482    0.9366 O   0  0  0  0  0  0  0  0  0  0  0  0
   -1.6790   -0.0215   -0.0827 N   0  0  0  0  0  0  0  0  0  0  0  0
   -2.4820    0.5882   -0.2270 H   0  0  0  0  0  0  0  0  0  0  0  0
   -0.3800    0.6592    0.0531 C   0  0  1  0  0  0  0  0  0  0  0  0
    0.2999    0.0878    0.6911 H   0  0  0  0  0  0  0  0  0  0  0  0
    0.2317    0.8217   -1.3549 C   0  0  0  0  0  0  0  0  0  0  0  0
   -0.4874    1.3566   -1.9850 H   0  0  0  0  0  0  0  0  0  0  0  0
    1.1319    1.4415   -1.2915 H   0  0  0  0  0  0  0  0  0  0  0  0
    0.6084   -0.5120   -2.0365 C   0  0  0  0  0  0  0  0  0  0  0  0
   -0.2708   -1.1637   -2.0731 H   0  0  0  0  0  0  0  0  0  0  0  0
    1.0605   -0.2335   -3.4746 C   0  0  0  0  0  0  0  0  0  0  0  0
    1.9454    0.4108   -3.4853 H   0  0  0  0  0  0  0  0  0  0  0  0
    1.3062   -1.1703   -3.9848 H   0  0  0  0  0  0  0  0  0  0  0  0
    0.2621    0.2615   -4.0365 H   0  0  0  0  0  0  0  0  0  0  0  0
    1.7332   -1.2458   -1.2917 C   0  0  0  0  0  0  0  0  0  0  0  0
    1.3993   -1.5742   -0.3039 H   0  0  0  0  0  0  0  0  0  0  0  0
    2.0399   -2.1355   -1.8503 H   0  0  0  0  0  0  0  0  0  0  0  0
    2.6050   -0.5959   -1.1691 H   0  0  0  0  0  0  0  0  0  0  0  0
   -0.5500    2.0421    0.7224 C   0  0  0  0  0  0  0  0  0  0  0  0
   -1.6690    2.4685    0.9888 O   0  0  0  0  0  0  0  0  0  0  0  0
    0.5476    2.8533    0.9496 N   0  0  0  0  0  0  0  0  0  0  0  0
    1.4658    2.4681    0.7485 H   0  0  0  0  0  0  0  0  0  0  0  0
    0.4553    4.1760    1.5557 C   0  0  0  0  0  0  0  0  0  0  0  0
    0.0507    4.1042    2.5707 H   0  0  0  0  0  0  0  0  0  0  0  0
    1.4458    4.6376    1.6096 H   0  0  0  0  0  0  0  0  0  0  0  0
   -0.1956    4.8258    0.9613 H   0  0  0  0  0  0  0  0  0  0  0  0
  1  2  1  0  0  0  0
  2  3  1  0  0  0  0
  2  4  1  0  0  0  0
  2  5  1  0  0  0  0
  5  6  2  0  0  0  0
  5  7  1  0  0  0  0
  7  8  1  0  0  0  0
  7  9  1  0  0  0  0
  9 10  1  0  0  0  0
  9 11  1  0  0  0  0
  9 24  1  0  0  0  0
 11 12  1  0  0  0  0
 11 13  1  0  0  0  0
 11 14  1  0  0  0  0
 14 15  1  0  0  0  0
 14 16  1  0  0  0  0
 14 20  1  0  0  0  0
 16 17  1  0  0  0  0
 16 18  1  0  0  0  0
 16 19  1  0  0  0  0
 20 21  1  0  0  0  0
 20 22  1  0  0  0  0
 20 23  1  0  0  0  0
 24 25  2  0  0  0  0
 24 26  1  0  0  0  0
 26 27  1  0  0  0  0
 26 28  1  0  0  0  0
 28 29  1  0  0  0  0
 28 30  1  0  0  0  0
 28 31  1  0  0  0  0
M  END
$$$$

  -OEChem-01062216083D

 31 30  0     1  0  0  0  0  0999 V2000
   -3.4557   -2.6373    1.1356 H   0  0  0  0  0  0  0  0  0  0  0  0
   -3.4019   -1.6870    0.5973 C   0  0  0  0  0  0  0  0  0  0  0  0
   -3.9803   -0.9393    1.1456 H   0  0  0  0  0  0  0  0  0  0  0  0
   -3.8372   -1.8185   -0.3961 H   0  0  0  0  0  0  0  0  0  0  0  0
   -1.9585   -1.2364    0.4744 C   0  0  0  0  0  0  0  0  0  0  0  0
   -1.0619   -1.9584    0.8817 O   0  0  0  0  0  0  0  0  0  0  0  0
   -1.6779   -0.0144   -0.1019 N   0  0  0  0  0  0  0  0  0  0  0  0
   -2.4829    0.5996   -0.2096 H   0  0  0  0  0  0  0  0  0  0  0  0
   -0.3775    0.6638    0.0388 C   0  0  1  0  0  0  0  0  0  0  0  0
    0.3001    0.0938    0.6808 H   0  0  0  0  0  0  0  0  0  0  0  0
    0.2384    0.8123   -1.3711 C   0  0  0  0  0  0  0  0  0  0  0  0
   -0.4771    1.3456   -2.0064 H   0  0  0  0  0  0  0  0  0  0  0  0
    1.1429    1.4252   -1.3134 H   0  0  0  0  0  0  0  0  0  0  0  0
    0.6134   -0.5264   -2.0441 C   0  0  0  0  0  0  0  0  0  0  0  0
   -0.2660   -1.1783   -2.0772 H   0  0  0  0  0  0  0  0  0  0  0  0
    1.0686   -0.2557   -3.4828 C   0  0  0  0  0  0  0  0  0  0  0  0
    1.9578    0.3826   -3.4947 H   0  0  0  0  0  0  0  0  0  0  0  0
    1.3084   -1.1956   -3.9897 H   0  0  0  0  0  0  0  0  0  0  0  0
    0.2744    0.2431   -4.0470 H   0  0  0  0  0  0  0  0  0  0  0  0
    1.7389   -1.2553   -1.2951 C   0  0  0  0  0  0  0  0  0  0  0  0
    1.4075   -1.5741   -0.3033 H   0  0  0  0  0  0  0  0  0  0  0  0
    2.0436   -2.1505   -1.8462 H   0  0  0  0  0  0  0  0  0  0  0  0
    2.6120   -0.6055   -1.1802 H   0  0  0  0  0  0  0  0  0  0  0  0
   -0.5569    2.0451    0.7156 C   0  0  0  0  0  0  0  0  0  0  0  0
   -1.6376    2.3555    1.2056 O   0  0  0  0  0  0  0  0  0  0  0  0
    0.4503    2.9941    0.6862 N   0  0  0  0  0  0  0  0  0  0  0  0
    1.3447    2.7172    0.2927 H   0  0  0  0  0  0  0  0  0  0  0  0
    0.3223    4.3198    1.2800 C   0  0  0  0  0  0  0  0  0  0  0  0
    0.1553    4.2412    2.3595 H   0  0  0  0  0  0  0  0  0  0  0  0
    1.2349    4.8998    1.1122 H   0  0  0  0  0  0  0  0  0  0  0  0
   -0.5175    4.8612    0.8318 H   0  0  0  0  0  0  0  0  0  0  0  0
  1  2  1  0  0  0  0
  2  3  1  0  0  0  0
  2  4  1  0  0  0  0
  2  5  1  0  0  0  0
  5  6  2  0  0  0  0
  5  7  1  0  0  0  0
  7  8  1  0  0  0  0
  7  9  1  0  0  0  0
  9 10  1  0  0  0  0
  9 11  1  0  0  0  0
  9 24  1  0  0  0  0
 11 12  1  0  0  0  0
 11 13  1  0  0  0  0
 11 14  1  0  0  0  0
 14 15  1  0  0  0  0
 14 16  1  0  0  0  0
 14 20  1  0  0  0  0
 16 17  1  0  0  0  0
 16 18  1  0  0  0  0
 16 19  1  0  0  0  0
 20 21  1  0  0  0  0
 20 22  1  0  0  0  0
 20 23  1  0  0  0  0
 24 25  2  0  0  0  0
 24 26  1  0  0  0  0
 26 27  1  0  0  0  0
 26 28  1  0  0  0  0
 28 29  1  0  0  0  0
 28 30  1  0  0  0  0
 28 31  1  0  0  0  0
M  END
$$$$

  -OEChem-01062216083D

 31 30  0     1  0  0  0  0  0999 V2000
   -3.4403   -2.6303    1.1392 H   0  0  0  0  0  0  0  0  0  0  0  0
   -3.3950   -1.6773    0.6047 C   0  0  0  0  0  0  0  0  0  0  0  0
   -3.9616   -0.9315    1.1677 H   0  0  0  0  0  0  0  0  0  0  0  0
   -3.8485   -1.8033   -0.3812 H   0  0  0  0  0  0  0  0  0  0  0  0
   -1.9534   -1.2283    0.4583 C   0  0  0  0  0  0  0  0  0  0  0  0
   -1.0517   -1.9584    0.8389 O   0  0  0  0  0  0  0  0  0  0  0  0
   -1.6803   -0.0026   -0.1150 N   0  0  0  0  0  0  0  0  0  0  0  0
   -2.4880    0.6104   -0.2010 H   0  0  0  0  0  0  0  0  0  0  0  0
   -0.3783    0.6745    0.0236 C   0  0  1  0  0  0  0  0  0  0  0  0
    0.2984    0.1059    0.6680 H   0  0  0  0  0  0  0  0  0  0  0  0
    0.2415    0.8086   -1.3875 C   0  0  0  0  0  0  0  0  0  0  0  0
   -0.4698    1.3394   -2.0294 H   0  0  0  0  0  0  0  0  0  0  0  0
    1.1506    1.4147   -1.3328 H   0  0  0  0  0  0  0  0  0  0  0  0
    0.6149   -0.5375   -2.0469 C   0  0  0  0  0  0  0  0  0  0  0  0
   -0.2654   -1.1881   -2.0755 H   0  0  0  0  0  0  0  0  0  0  0  0
    1.0739   -0.2826   -3.4875 C   0  0  0  0  0  0  0  0  0  0  0  0
    1.9604    0.3593   -3.5044 H   0  0  0  0  0  0  0  0  0  0  0  0
    1.3200   -1.2278   -3.9819 H   0  0  0  0  0  0  0  0  0  0  0  0
    0.2793    0.2052   -4.0607 H   0  0  0  0  0  0  0  0  0  0  0  0
    1.7380   -1.2619   -1.2899 C   0  0  0  0  0  0  0  0  0  0  0  0
    1.4068   -1.5674   -0.2939 H   0  0  0  0  0  0  0  0  0  0  0  0
    2.0380   -2.1650   -1.8304 H   0  0  0  0  0  0  0  0  0  0  0  0
    2.6140   -0.6146   -1.1835 H   0  0  0  0  0  0  0  0  0  0  0  0
   -0.5624    2.0524    0.7099 C   0  0  0  0  0  0  0  0  0  0  0  0
   -1.5460    2.2571    1.4125 O   0  0  0  0  0  0  0  0  0  0  0  0
    0.2816    3.1179    0.4447 N   0  0  0  0  0  0  0  0  0  0  0  0
    1.0949    2.9387   -0.1363 H   0  0  0  0  0  0  0  0  0  0  0  0
    0.1184    4.4413    1.0355 C   0  0  0  0  0  0  0  0  0  0  0  0
    0.2014    4.3871    2.1262 H   0  0  0  0  0  0  0  0  0  0  0  0
    0.8920    5.1196    0.6630 H   0  0  0  0  0  0  0  0  0  0  0  0
   -0.8601    4.8594    0.7766 H   0  0  0  0  0  0  0  0  0  0  0  0
  1  2  1  0  0  0  0
  2  3  1  0  0  0  0
  2  4  1  0  0  0  0
  2  5  1  0  0  0  0
  5  6  2  0  0  0  0
  5  7  1  0  0  0  0
  7  8  1  0  0  0  0
  7  9  1  0  0  0  0
  9 10  1  0  0  0  0
  9 11  1  0  0  0  0
  9 24  1  0  0  0  0
 11 12  1  0  0  0  0
 11 13  1  0  0  0  0
 11 14  1  0  0  0  0
 14 15  1  0  0  0  0
 14 16  1  0  0  0  0
 14 20  1  0  0  0  0
 16 17  1  0  0  0  0
 16 18  1  0  0  0  0
 16 19  1  0  0  0  0
 20 21  1  0  0  0  0
 20 22  1  0  0  0  0
 20 23  1  0  0  0  0
 24 25  2  0  0  0  0
 24 26  1  0  0  0  0
 26 27  1  0  0  0  0
 26 28  1  0  0  0  0
 28 29  1  0  0  0  0
 28 30  1  0  0  0  0
 28 31  1  0  0  0  0
M  END
$$$$

  -OEChem-01062216083D

 31 30  0     1  0  0  0  0  0999 V2000
   -3.4373   -2.6418    1.1118 H   0  0  0  0  0  0  0  0  0  0  0  0
   -3.3951   -1.6672    0.6175 C   0  0  0  0  0  0  0  0  0  0  0  0
   -3.9419   -0.9418    1.2249 H   0  0  0  0  0  0  0  0  0  0  0  0
   -3.8718   -1.7469   -0.3622 H   0  0  0  0  0  0  0  0  0  0  0  0
   -1.9532   -1.2241    0.4571 C   0  0  0  0  0  0  0  0  0  0  0  0
   -1.0507   -1.9621    0.8194 O   0  0  0  0  0  0  0  0  0  0  0  0
   -1.6834    0.0032   -0.1152 N   0  0  0  0  0  0  0  0  0  0  0  0
   -2.4931    0.6116   -0.2052 H   0  0  0  0  0  0  0  0  0  0  0  0
   -0.3791    0.6780    0.0138 C   0  0  1  0  0  0  0  0  0  0  0  0
    0.2973    0.1096    0.6588 H   0  0  0  0  0  0  0  0  0  0  0  0
    0.2464    0.8053   -1.3957 C   0  0  0  0  0  0  0  0  0  0  0  0
   -0.4606    1.3344   -2.0439 H   0  0  0  0  0  0  0  0  0  0  0  0
    1.1576    1.4085   -1.3356 H   0  0  0  0  0  0  0  0  0  0  0  0
    0.6205   -0.5431   -2.0489 C   0  0  0  0  0  0  0  0  0  0  0  0
   -0.2608   -1.1926   -2.0780 H   0  0  0  0  0  0  0  0  0  0  0  0
    1.0852   -0.2932   -3.4886 C   0  0  0  0  0  0  0  0  0  0  0  0
    1.9717    0.3489   -3.5041 H   0  0  0  0  0  0  0  0  0  0  0  0
    1.3334   -1.2399   -3.9786 H   0  0  0  0  0  0  0  0  0  0  0  0
    0.2931    0.1924   -4.0669 H   0  0  0  0  0  0  0  0  0  0  0  0
    1.7409   -1.2649   -1.2848 C   0  0  0  0  0  0  0  0  0  0  0  0
    1.4061   -1.5673   -0.2892 H   0  0  0  0  0  0  0  0  0  0  0  0
    2.0435   -2.1698   -1.8207 H   0  0  0  0  0  0  0  0  0  0  0  0
    2.6160   -0.6167   -1.1769 H   0  0  0  0  0  0  0  0  0  0  0  0
   -0.5633    2.0523    0.7062 C   0  0  0  0  0  0  0  0  0  0  0  0
   -1.3854    2.1690    1.6068 O   0  0  0  0  0  0  0  0  0  0  0  0
    0.0554    3.2005    0.2397 N   0  0  0  0  0  0  0  0  0  0  0  0
    0.7152    3.1013   -0.5255 H   0  0  0  0  0  0  0  0  0  0  0  0
   -0.1544    4.5215    0.8207 C   0  0  0  0  0  0  0  0  0  0  0  0
    0.1467    4.5289    1.8736 H   0  0  0  0  0  0  0  0  0  0  0  0
    0.4397    5.2689    0.2860 H   0  0  0  0  0  0  0  0  0  0  0  0
   -1.2096    4.8067    0.7535 H   0  0  0  0  0  0  0  0  0  0  0  0
  1  2  1  0  0  0  0
  2  3  1  0  0  0  0
  2  4  1  0  0  0  0
  2  5  1  0  0  0  0
  5  6  2  0  0  0  0
  5  7  1  0  0  0  0
  7  8  1  0  0  0  0
  7  9  1  0  0  0  0
  9 10  1  0  0  0  0
  9 11  1  0  0  0  0
  9 24  1  0  0  0  0
 11 12  1  0  0  0  0
 11 13  1  0  0  0  0
 11 14  1  0  0  0  0
 14 15  1  0  0  0  0
 14 16  1  0  0  0  0
 14 20  1  0  0  0  0
 16 17  1  0  0  0  0
 16 18  1  0  0  0  0
 16 19  1  0  0  0  0
 20 21  1  0  0  0  0
 20 22  1  0  0  0  0
 20 23  1  0  0  0  0
 24 25  2  0  0  0  0
 24 26  1  0  0  0  0
 26 27  1  0  0  0  0
 26 28  1  0  0  0  0
 28 29  1  0  0  0  0
 28 30  1  0  0  0  0
 28 31  1  0  0  0  0
M  END
$$$$

  -OEChem-01062216083D

 31 30  0     1  0  0  0  0  0999 V2000
   -3.4357   -2.6461    1.1185 H   0  0  0  0  0  0  0  0  0  0  0  0
   -3.3973   -1.6734    0.6203 C   0  0  0  0  0  0  0  0  0  0  0  0
   -3.9486   -0.9482    1.2238 H   0  0  0  0  0  0  0  0  0  0  0  0
   -3.8723   -1.7598   -0.3596 H   0  0  0  0  0  0  0  0  0  0  0  0
   -1.9569   -1.2245    0.4610 C   0  0  0  0  0  0  0  0  0  0  0  0
   -1.0521   -1.9600    0.8220 O   0  0  0  0  0  0  0  0  0  0  0  0
   -1.6911    0.0033   -0.1131 N   0  0  0  0  0  0  0  0  0  0  0  0
   -2.5043    0.6018   -0.2274 H   0  0  0  0  0  0  0  0  0  0  0  0
   -0.3883    0.6818    0.0096 C   0  0  1  0  0  0  0  0  0  0  0  0
    0.2891    0.1165    0.6566 H   0  0  0  0  0  0  0  0  0  0  0  0
    0.2422    0.8075   -1.3968 C   0  0  0  0  0  0  0  0  0  0  0  0
   -0.4643    1.3298   -2.0508 H   0  0  0  0  0  0  0  0  0  0  0  0
    1.1487    1.4179   -1.3295 H   0  0  0  0  0  0  0  0  0  0  0  0
    0.6238   -0.5407   -2.0459 C   0  0  0  0  0  0  0  0  0  0  0  0
   -0.2547   -1.1936   -2.0764 H   0  0  0  0  0  0  0  0  0  0  0  0
    1.0933   -0.2912   -3.4842 C   0  0  0  0  0  0  0  0  0  0  0  0
    1.9754    0.3568   -3.4973 H   0  0  0  0  0  0  0  0  0  0  0  0
    1.3503   -1.2373   -3.9709 H   0  0  0  0  0  0  0  0  0  0  0  0
    0.3006    0.1873   -4.0676 H   0  0  0  0  0  0  0  0  0  0  0  0
    1.7443   -1.2575   -1.2777 C   0  0  0  0  0  0  0  0  0  0  0  0
    1.4075   -1.5591   -0.2825 H   0  0  0  0  0  0  0  0  0  0  0  0
    2.0510   -2.1623   -1.8116 H   0  0  0  0  0  0  0  0  0  0  0  0
    2.6173   -0.6066   -1.1687 H   0  0  0  0  0  0  0  0  0  0  0  0
   -0.5728    2.0547    0.7006 C   0  0  0  0  0  0  0  0  0  0  0  0
   -1.1831    2.1181    1.7595 O   0  0  0  0  0  0  0  0  0  0  0  0
   -0.2234    3.2419    0.0786 N   0  0  0  0  0  0  0  0  0  0  0  0
    0.2515    3.1803   -0.8166 H   0  0  0  0  0  0  0  0  0  0  0  0
   -0.4566    4.5569    0.6638 C   0  0  0  0  0  0  0  0  0  0  0  0
    0.0775    4.6529    1.6150 H   0  0  0  0  0  0  0  0  0  0  0  0
   -0.1020    5.3402   -0.0129 H   0  0  0  0  0  0  0  0  0  0  0  0
   -1.5256    4.7133    0.8427 H   0  0  0  0  0  0  0  0  0  0  0  0
  1  2  1  0  0  0  0
  2  3  1  0  0  0  0
  2  4  1  0  0  0  0
  2  5  1  0  0  0  0
  5  6  2  0  0  0  0
  5  7  1  0  0  0  0
  7  8  1  0  0  0  0
  7  9  1  0  0  0  0
  9 10  1  0  0  0  0
  9 11  1  0  0  0  0
  9 24  1  0  0  0  0
 11 12  1  0  0  0  0
 11 13  1  0  0  0  0
 11 14  1  0  0  0  0
 14 15  1  0  0  0  0
 14 16  1  0  0  0  0
 14 20  1  0  0  0  0
 16 17  1  0  0  0  0
 16 18  1  0  0  0  0
 16 19  1  0  0  0  0
 20 21  1  0  0  0  0
 20 22  1  0  0  0  0
 20 23  1  0  0  0  0
 24 25  2  0  0  0  0
 24 26  1  0  0  0  0
 26 27  1  0  0  0  0
 26 28  1  0  0  0  0
 28 29  1  0  0  0  0
 28 30  1  0  0  0  0
 28 31  1  0  0  0  0
M  END
$$$$

  -OEChem-01062216083D

 31 30  0     1  0  0  0  0  0999 V2000
   -3.4333   -2.6724    1.0952 H   0  0  0  0  0  0  0  0  0  0  0  0
   -3.3975   -1.6956    0.6046 C   0  0  0  0  0  0  0  0  0  0  0  0
   -3.9696   -0.9816    1.2024 H   0  0  0  0  0  0  0  0  0  0  0  0
   -3.8523   -1.7812   -0.3852 H   0  0  0  0  0  0  0  0  0  0  0  0
   -1.9599   -1.2280    0.4767 C   0  0  0  0  0  0  0  0  0  0  0  0
   -1.0544   -1.9522    0.8569 O   0  0  0  0  0  0  0  0  0  0  0  0
   -1.6973   -0.0002   -0.0993 N   0  0  0  0  0  0  0  0  0  0  0  0
   -2.5138    0.5821   -0.2611 H   0  0  0  0  0  0  0  0  0  0  0  0
   -0.3981    0.6862    0.0154 C   0  0  1  0  0  0  0  0  0  0  0  0
    0.2841    0.1251    0.6615 H   0  0  0  0  0  0  0  0  0  0  0  0
    0.2304    0.8130   -1.3910 C   0  0  0  0  0  0  0  0  0  0  0  0
   -0.4808    1.3246   -2.0480 H   0  0  0  0  0  0  0  0  0  0  0  0
    1.1290    1.4356   -1.3238 H   0  0  0  0  0  0  0  0  0  0  0  0
    0.6203   -0.5344   -2.0372 C   0  0  0  0  0  0  0  0  0  0  0  0
   -0.2537   -1.1934   -2.0653 H   0  0  0  0  0  0  0  0  0  0  0  0
    1.0874   -0.2857   -3.4766 C   0  0  0  0  0  0  0  0  0  0  0  0
    1.9675    0.3653   -3.4916 H   0  0  0  0  0  0  0  0  0  0  0  0
    1.3471   -1.2320   -3.9617 H   0  0  0  0  0  0  0  0  0  0  0  0
    0.2926    0.1890   -4.0603 H   0  0  0  0  0  0  0  0  0  0  0  0
    1.7462   -1.2415   -1.2683 C   0  0  0  0  0  0  0  0  0  0  0  0
    1.4112   -1.5459   -0.2734 H   0  0  0  0  0  0  0  0  0  0  0  0
    2.0613   -2.1436   -1.8019 H   0  0  0  0  0  0  0  0  0  0  0  0
    2.6133   -0.5829   -1.1588 H   0  0  0  0  0  0  0  0  0  0  0  0
   -0.5806    2.0592    0.7023 C   0  0  0  0  0  0  0  0  0  0  0  0
   -0.9235    2.1079    1.8751 O   0  0  0  0  0  0  0  0  0  0  0  0
   -0.5323    3.2424   -0.0164 N   0  0  0  0  0  0  0  0  0  0  0  0
   -0.2680    3.1864   -0.9951 H   0  0  0  0  0  0  0  0  0  0  0  0
   -0.7746    4.5533    0.5744 C   0  0  0  0  0  0  0  0  0  0  0  0
   -0.0434    4.7587    1.3633 H   0  0  0  0  0  0  0  0  0  0  0  0
   -0.6892    5.3334   -0.1880 H   0  0  0  0  0  0  0  0  0  0  0  0
   -1.7805    4.6000    1.0047 H   0  0  0  0  0  0  0  0  0  0  0  0
  1  2  1  0  0  0  0
  2  3  1  0  0  0  0
  2  4  1  0  0  0  0
  2  5  1  0  0  0  0
  5  6  2  0  0  0  0
  5  7  1  0  0  0  0
  7  8  1  0  0  0  0
  7  9  1  0  0  0  0
  9 10  1  0  0  0  0
  9 11  1  0  0  0  0
  9 24  1  0  0  0  0
 11 12  1  0  0  0  0
 11 13  1  0  0  0  0
 11 14  1  0  0  0  0
 14 15  1  0  0  0  0
 14 16  1  0  0  0  0
 14 20  1  0  0  0  0
 16 17  1  0  0  0  0
 16 18  1  0  0  0  0
 16 19  1  0  0  0  0
 20 21  1  0  0  0  0
 20 22  1  0  0  0  0
 20 23  1  0  0  0  0
 24 25  2  0  0  0  0
 24 26  1  0  0  0  0
 26 27  1  0  0  0  0
 26 28  1  0  0  0  0
 28 29  1  0  0  0  0
 28 30  1  0  0  0  0
 28 31  1  0  0  0  0
M  END
$$$$

  -OEChem-01062216083D

 31 30  0     1  0  0  0  0  0999 V2000
   -3.4276   -2.7001    1.1079 H   0  0  0  0  0  0  0  0  0  0  0  0
   -3.3965   -1.7404    0.5842 C   0  0  0  0  0  0  0  0  0  0  0  0
   -4.0055   -1.0202    1.1359 H   0  0  0  0  0  0  0  0  0  0  0  0
   -3.8133   -1.8714   -0.4172 H   0  0  0  0  0  0  0  0  0  0  0  0
   -1.9663   -1.2436    0.4904 C   0  0  0  0  0  0  0  0  0  0  0  0
   -1.0573   -1.9475    0.8980 O   0  0  0  0  0  0  0  0  0  0  0  0
   -1.7126   -0.0145   -0.0874 N   0  0  0  0  0  0  0  0  0  0  0  0
   -2.5323    0.5470   -0.2973 H   0  0  0  0  0  0  0  0  0  0  0  0
   -0.4202    0.6854    0.0249 C   0  0  1  0  0  0  0  0  0  0  0  0
    0.2681    0.1291    0.6690 H   0  0  0  0  0  0  0  0  0  0  0  0
    0.2075    0.8232   -1.3794 C   0  0  0  0  0  0  0  0  0  0  0  0
   -0.5082    1.3262   -2.0378 H   0  0  0  0  0  0  0  0  0  0  0  0
    1.0969    1.4590   -1.3084 H   0  0  0  0  0  0  0  0  0  0  0  0
    0.6119   -0.5194   -2.0265 C   0  0  0  0  0  0  0  0  0  0  0  0
   -0.2557   -1.1869   -2.0571 H   0  0  0  0  0  0  0  0  0  0  0  0
    1.0779   -0.2642   -3.4647 C   0  0  0  0  0  0  0  0  0  0  0  0
    1.9487    0.3990   -3.4773 H   0  0  0  0  0  0  0  0  0  0  0  0
    1.3522   -1.2063   -3.9498 H   0  0  0  0  0  0  0  0  0  0  0  0
    0.2776    0.1998   -4.0495 H   0  0  0  0  0  0  0  0  0  0  0  0
    1.7420   -1.2167   -1.2549 C   0  0  0  0  0  0  0  0  0  0  0  0
    1.4041   -1.5329   -0.2645 H   0  0  0  0  0  0  0  0  0  0  0  0
    2.0731   -2.1105   -1.7924 H   0  0  0  0  0  0  0  0  0  0  0  0
    2.5989   -0.5467   -1.1344 H   0  0  0  0  0  0  0  0  0  0  0  0
   -0.6048    2.0586    0.7066 C   0  0  0  0  0  0  0  0  0  0  0  0
   -0.6378    2.1375    1.9259 O   0  0  0  0  0  0  0  0  0  0  0  0
   -0.8692    3.1962   -0.0377 N   0  0  0  0  0  0  0  0  0  0  0  0
   -0.8213    3.1157   -1.0486 H   0  0  0  0  0  0  0  0  0  0  0  0
   -1.0692    4.5130    0.5559 C   0  0  0  0  0  0  0  0  0  0  0  0
   -0.1744    4.8248    1.1048 H   0  0  0  0  0  0  0  0  0  0  0  0
   -1.2725    5.2525   -0.2244 H   0  0  0  0  0  0  0  0  0  0  0  0
   -1.9188    4.4980    1.2467 H   0  0  0  0  0  0  0  0  0  0  0  0
  1  2  1  0  0  0  0
  2  3  1  0  0  0  0
  2  4  1  0  0  0  0
  2  5  1  0  0  0  0
  5  6  2  0  0  0  0
  5  7  1  0  0  0  0
  7  8  1  0  0  0  0
  7  9  1  0  0  0  0
  9 10  1  0  0  0  0
  9 11  1  0  0  0  0
  9 24  1  0  0  0  0
 11 12  1  0  0  0  0
 11 13  1  0  0  0  0
 11 14  1  0  0  0  0
 14 15  1  0  0  0  0
 14 16  1  0  0  0  0
 14 20  1  0  0  0  0
 16 17  1  0  0  0  0
 16 18  1  0  0  0  0
 16 19  1  0  0  0  0
 20 21  1  0  0  0  0
 20 22  1  0  0  0  0
 20 23  1  0  0  0  0
 24 25  2  0  0  0  0
 24 26  1  0  0  0  0
 26 27  1  0  0  0  0
 26 28  1  0  0  0  0
 28 29  1  0  0  0  0
 28 30  1  0  0  0  0
 28 31  1  0  0  0  0
M  END
$$$$

  -OEChem-01062216083D

 31 30  0     1  0  0  0  0  0999 V2000
   -3.4296   -2.7407    1.0892 H   0  0  0  0  0  0  0  0  0  0  0  0
   -3.3980   -1.7825    0.5623 C   0  0  0  0  0  0  0  0  0  0  0  0
   -4.0399   -1.0721    1.0889 H   0  0  0  0  0  0  0  0  0  0  0  0
   -3.7769   -1.9255   -0.4525 H   0  0  0  0  0  0  0  0  0  0  0  0
   -1.9742   -1.2605    0.5153 C   0  0  0  0  0  0  0  0  0  0  0  0
   -1.0687   -1.9447    0.9610 O   0  0  0  0  0  0  0  0  0  0  0  0
   -1.7214   -0.0312   -0.0630 N   0  0  0  0  0  0  0  0  0  0  0  0
   -2.5397    0.5103   -0.3233 H   0  0  0  0  0  0  0  0  0  0  0  0
   -0.4324    0.6771    0.0463 C   0  0  1  0  0  0  0  0  0  0  0  0
    0.2611    0.1208    0.6850 H   0  0  0  0  0  0  0  0  0  0  0  0
    0.1903    0.8312   -1.3576 C   0  0  0  0  0  0  0  0  0  0  0  0
   -0.5282    1.3367   -2.0103 H   0  0  0  0  0  0  0  0  0  0  0  0
    1.0754    1.4727   -1.2822 H   0  0  0  0  0  0  0  0  0  0  0  0
    0.6023   -0.5033   -2.0163 C   0  0  0  0  0  0  0  0  0  0  0  0
   -0.2606   -1.1765   -2.0512 H   0  0  0  0  0  0  0  0  0  0  0  0
    1.0629   -0.2329   -3.4533 C   0  0  0  0  0  0  0  0  0  0  0  0
    1.9312    0.4336   -3.4623 H   0  0  0  0  0  0  0  0  0  0  0  0
    1.3386   -1.1696   -3.9476 H   0  0  0  0  0  0  0  0  0  0  0  0
    0.2593    0.2337   -4.0316 H   0  0  0  0  0  0  0  0  0  0  0  0
    1.7379   -1.1996   -1.2517 C   0  0  0  0  0  0  0  0  0  0  0  0
    1.4009   -1.5301   -0.2656 H   0  0  0  0  0  0  0  0  0  0  0  0
    2.0781   -2.0843   -1.7988 H   0  0  0  0  0  0  0  0  0  0  0  0
    2.5889   -0.5237   -1.1221 H   0  0  0  0  0  0  0  0  0  0  0  0
   -0.6159    2.0513    0.7236 C   0  0  0  0  0  0  0  0  0  0  0  0
   -0.3235    2.2068    1.8999 O   0  0  0  0  0  0  0  0  0  0  0  0
   -1.1810    3.1084    0.0297 N   0  0  0  0  0  0  0  0  0  0  0  0
   -1.3619    2.9741   -0.9600 H   0  0  0  0  0  0  0  0  0  0  0  0
   -1.3575    4.4369    0.6047 C   0  0  0  0  0  0  0  0  0  0  0  0
   -0.3898    4.8614    0.8919 H   0  0  0  0  0  0  0  0  0  0  0  0
   -1.8264    5.1059   -0.1232 H   0  0  0  0  0  0  0  0  0  0  0  0
   -1.9984    4.3887    1.4914 H   0  0  0  0  0  0  0  0  0  0  0  0
  1  2  1  0  0  0  0
  2  3  1  0  0  0  0
  2  4  1  0  0  0  0
  2  5  1  0  0  0  0
  5  6  2  0  0  0  0
  5  7  1  0  0  0  0
  7  8  1  0  0  0  0
  7  9  1  0  0  0  0
  9 10  1  0  0  0  0
  9 11  1  0  0  0  0
  9 24  1  0  0  0  0
 11 12  1  0  0  0  0
 11 13  1  0  0  0  0
 11 14  1  0  0  0  0
 14 15  1  0  0  0  0
 14 16  1  0  0  0  0
 14 20  1  0  0  0  0
 16 17  1  0  0  0  0
 16 18  1  0  0  0  0
 16 19  1  0  0  0  0
 20 21  1  0  0  0  0
 20 22  1  0  0  0  0
 20 23  1  0  0  0  0
 24 25  2  0  0  0  0
 24 26  1  0  0  0  0
 26 27  1  0  0  0  0
 26 28  1  0  0  0  0
 28 29  1  0  0  0  0
 28 30  1  0  0  0  0
 28 31  1  0  0  0  0
M  END
$$$$

  -OEChem-01062216083D

 31 30  0     1  0  0  0  0  0999 V2000
   -3.4251   -2.7910    1.0575 H   0  0  0  0  0  0  0  0  0  0  0  0
   -3.3934   -1.8315    0.5331 C   0  0  0  0  0  0  0  0  0  0  0  0
   -4.0702   -1.1359    1.0349 H   0  0  0  0  0  0  0  0  0  0  0  0
   -3.7300   -1.9819   -0.4954 H   0  0  0  0  0  0  0  0  0  0  0  0
   -1.9800   -1.2796    0.5412 C   0  0  0  0  0  0  0  0  0  0  0  0
   -1.0812   -1.9390    1.0347 O   0  0  0  0  0  0  0  0  0  0  0  0
   -1.7279   -0.0495   -0.0363 N   0  0  0  0  0  0  0  0  0  0  0  0
   -2.5404    0.4677   -0.3555 H   0  0  0  0  0  0  0  0  0  0  0  0
   -0.4416    0.6662    0.0733 C   0  0  1  0  0  0  0  0  0  0  0  0
    0.2578    0.1091    0.7051 H   0  0  0  0  0  0  0  0  0  0  0  0
    0.1724    0.8388   -1.3309 C   0  0  0  0  0  0  0  0  0  0  0  0
   -0.5509    1.3511   -1.9731 H   0  0  0  0  0  0  0  0  0  0  0  0
    1.0546    1.4838   -1.2523 H   0  0  0  0  0  0  0  0  0  0  0  0
    0.5881   -0.4873   -2.0042 C   0  0  0  0  0  0  0  0  0  0  0  0
   -0.2725   -1.1634   -2.0414 H   0  0  0  0  0  0  0  0  0  0  0  0
    1.0406   -0.2035   -3.4412 C   0  0  0  0  0  0  0  0  0  0  0  0
    1.9086    0.4638   -3.4487 H   0  0  0  0  0  0  0  0  0  0  0  0
    1.3147   -1.1354   -3.9457 H   0  0  0  0  0  0  0  0  0  0  0  0
    0.2339    0.2676   -4.0111 H   0  0  0  0  0  0  0  0  0  0  0  0
    1.7285   -1.1858   -1.2496 C   0  0  0  0  0  0  0  0  0  0  0  0
    1.3937   -1.5312   -0.2677 H   0  0  0  0  0  0  0  0  0  0  0  0
    2.0744   -2.0608   -1.8085 H   0  0  0  0  0  0  0  0  0  0  0  0
    2.5749   -0.5057   -1.1113 H   0  0  0  0  0  0  0  0  0  0  0  0
   -0.6197    2.0418    0.7476 C   0  0  0  0  0  0  0  0  0  0  0  0
   -0.0324    2.3077    1.7859 O   0  0  0  0  0  0  0  0  0  0  0  0
   -1.4493    2.9954    0.1811 N   0  0  0  0  0  0  0  0  0  0  0  0
   -1.8338    2.7931   -0.7357 H   0  0  0  0  0  0  0  0  0  0  0  0
   -1.6066    4.3380    0.7282 C   0  0  0  0  0  0  0  0  0  0  0  0
   -0.6448    4.8616    0.7417 H   0  0  0  0  0  0  0  0  0  0  0  0
   -2.3071    4.9160    0.1178 H   0  0  0  0  0  0  0  0  0  0  0  0
   -1.9967    4.2919    1.7505 H   0  0  0  0  0  0  0  0  0  0  0  0
  1  2  1  0  0  0  0
  2  3  1  0  0  0  0
  2  4  1  0  0  0  0
  2  5  1  0  0  0  0
  5  6  2  0  0  0  0
  5  7  1  0  0  0  0
  7  8  1  0  0  0  0
  7  9  1  0  0  0  0
  9 10  1  0  0  0  0
  9 11  1  0  0  0  0
  9 24  1  0  0  0  0
 11 12  1  0  0  0  0
 11 13  1  0  0  0  0
 11 14  1  0  0  0  0
 14 15  1  0  0  0  0
 14 16  1  0  0  0  0
 14 20  1  0  0  0  0
 16 17  1  0  0  0  0
 16 18  1  0  0  0  0
 16 19  1  0  0  0  0
 20 21  1  0  0  0  0
 20 22  1  0  0  0  0
 20 23  1  0  0  0  0
 24 25  2  0  0  0  0
 24 26  1  0  0  0  0
 26 27  1  0  0  0  0
 26 28  1  0  0  0  0
 28 29  1  0  0  0  0
 28 30  1  0  0  0  0
 28 31  1  0  0  0  0
M  END
$$$$

  -OEChem-01062216083D

 31 30  0     1  0  0  0  0  0999 V2000
   -3.3660   -2.8903    0.9291 H   0  0  0  0  0  0  0  0  0  0  0  0
   -3.3407   -1.9226    0.4196 C   0  0  0  0  0  0  0  0  0  0  0  0
   -4.1251   -1.2863    0.8362 H   0  0  0  0  0  0  0  0  0  0  0  0
   -3.5333   -2.0810   -0.6441 H   0  0  0  0  0  0  0  0  0  0  0  0
   -1.9855   -1.2679    0.6116 C   0  0  0  0  0  0  0  0  0  0  0  0
   -1.1312   -1.8367    1.2690 O   0  0  0  0  0  0  0  0  0  0  0  0
   -1.7345   -0.0427    0.0236 N   0  0  0  0  0  0  0  0  0  0  0  0
   -2.4707    0.3398   -0.5591 H   0  0  0  0  0  0  0  0  0  0  0  0
   -0.4483    0.6774    0.1124 C   0  0  1  0  0  0  0  0  0  0  0  0
    0.2607    0.1222    0.7346 H   0  0  0  0  0  0  0  0  0  0  0  0
    0.1406    0.8445   -1.3020 C   0  0  0  0  0  0  0  0  0  0  0  0
   -0.5933    1.3576   -1.9321 H   0  0  0  0  0  0  0  0  0  0  0  0
    1.0245    1.4895   -1.2406 H   0  0  0  0  0  0  0  0  0  0  0  0
    0.5471   -0.4842   -1.9758 C   0  0  0  0  0  0  0  0  0  0  0  0
   -0.3138   -1.1600   -1.9987 H   0  0  0  0  0  0  0  0  0  0  0  0
    0.9743   -0.2044   -3.4211 C   0  0  0  0  0  0  0  0  0  0  0  0
    1.8372    0.4690   -3.4447 H   0  0  0  0  0  0  0  0  0  0  0  0
    1.2474   -1.1366   -3.9254 H   0  0  0  0  0  0  0  0  0  0  0  0
    0.1555    0.2589   -3.9802 H   0  0  0  0  0  0  0  0  0  0  0  0
    1.6960   -1.1832   -1.2350 C   0  0  0  0  0  0  0  0  0  0  0  0
    1.3728   -1.5250   -0.2476 H   0  0  0  0  0  0  0  0  0  0  0  0
    2.0325   -2.0605   -1.7960 H   0  0  0  0  0  0  0  0  0  0  0  0
    2.5457   -0.5046   -1.1100 H   0  0  0  0  0  0  0  0  0  0  0  0
   -0.5945    2.0631    0.7746 C   0  0  0  0  0  0  0  0  0  0  0  0
    0.2634    2.4706    1.5446 O   0  0  0  0  0  0  0  0  0  0  0  0
   -1.6299    2.9116    0.4190 N   0  0  0  0  0  0  0  0  0  0  0  0
   -2.3033    2.5746   -0.2589 H   0  0  0  0  0  0  0  0  0  0  0  0
   -1.7735    4.2630    0.9469 C   0  0  0  0  0  0  0  0  0  0  0  0
   -0.8921    4.8654    0.7026 H   0  0  0  0  0  0  0  0  0  0  0  0
   -2.6534    4.7478    0.5136 H   0  0  0  0  0  0  0  0  0  0  0  0
   -1.8927    4.2374    2.0351 H   0  0  0  0  0  0  0  0  0  0  0  0
  1  2  1  0  0  0  0
  2  3  1  0  0  0  0
  2  4  1  0  0  0  0
  2  5  1  0  0  0  0
  5  6  2  0  0  0  0
  5  7  1  0  0  0  0
  7  8  1  0  0  0  0
  7  9  1  0  0  0  0
  9 10  1  0  0  0  0
  9 11  1  0  0  0  0
  9 24  1  0  0  0  0
 11 12  1  0  0  0  0
 11 13  1  0  0  0  0
 11 14  1  0  0  0  0
 14 15  1  0  0  0  0
 14 16  1  0  0  0  0
 14 20  1  0  0  0  0
 16 17  1  0  0  0  0
 16 18  1  0  0  0  0
 16 19  1  0  0  0  0
 20 21  1  0  0  0  0
 20 22  1  0  0  0  0
 20 23  1  0  0  0  0
 24 25  2  0  0  0  0
 24 26  1  0  0  0  0
 26 27  1  0  0  0  0
 26 28  1  0  0  0  0
 28 29  1  0  0  0  0
 28 30  1  0  0  0  0
 28 31  1  0  0  0  0
M  END
$$$$

  -OEChem-01062216083D

 31 30  0     1  0  0  0  0  0999 V2000
   -3.2919   -2.9412    0.8366 H   0  0  0  0  0  0  0  0  0  0  0  0
   -3.2811   -1.9709    0.3319 C   0  0  0  0  0  0  0  0  0  0  0  0
   -4.1393   -1.3876    0.6738 H   0  0  0  0  0  0  0  0  0  0  0  0
   -3.3643   -2.1356   -0.7450 H   0  0  0  0  0  0  0  0  0  0  0  0
   -1.9936   -1.2330    0.6476 C   0  0  0  0  0  0  0  0  0  0  0  0
   -1.1921   -1.7257    1.4221 O   0  0  0  0  0  0  0  0  0  0  0  0
   -1.7446   -0.0141    0.0456 N   0  0  0  0  0  0  0  0  0  0  0  0
   -2.3903    0.2581   -0.6885 H   0  0  0  0  0  0  0  0  0  0  0  0
   -0.4512    0.6961    0.1256 C   0  0  1  0  0  0  0  0  0  0  0  0
    0.2579    0.1393    0.7458 H   0  0  0  0  0  0  0  0  0  0  0  0
    0.1265    0.8472   -1.2954 C   0  0  0  0  0  0  0  0  0  0  0  0
   -0.6077    1.3651   -1.9209 H   0  0  0  0  0  0  0  0  0  0  0  0
    1.0174    1.4839   -1.2475 H   0  0  0  0  0  0  0  0  0  0  0  0
    0.5154   -0.4903   -1.9630 C   0  0  0  0  0  0  0  0  0  0  0  0
   -0.3508   -1.1597   -1.9733 H   0  0  0  0  0  0  0  0  0  0  0  0
    0.9322   -0.2259   -3.4144 C   0  0  0  0  0  0  0  0  0  0  0  0
    1.8044    0.4347   -3.4515 H   0  0  0  0  0  0  0  0  0  0  0  0
    1.1871   -1.1650   -3.9156 H   0  0  0  0  0  0  0  0  0  0  0  0
    0.1144    0.2461   -3.9676 H   0  0  0  0  0  0  0  0  0  0  0  0
    1.6656   -1.1910   -1.2258 C   0  0  0  0  0  0  0  0  0  0  0  0
    1.3474   -1.5260   -0.2345 H   0  0  0  0  0  0  0  0  0  0  0  0
    1.9951   -2.0722   -1.7849 H   0  0  0  0  0  0  0  0  0  0  0  0
    2.5190   -0.5155   -1.1096 H   0  0  0  0  0  0  0  0  0  0  0  0
   -0.5747    2.0889    0.7779 C   0  0  0  0  0  0  0  0  0  0  0  0
    0.4108    2.6230    1.2673 O   0  0  0  0  0  0  0  0  0  0  0  0
   -1.7448    2.8199    0.6658 N   0  0  0  0  0  0  0  0  0  0  0  0
   -2.5669    2.3185    0.3490 H   0  0  0  0  0  0  0  0  0  0  0  0
   -1.9099    4.1496    1.2407 C   0  0  0  0  0  0  0  0  0  0  0  0
   -1.1570    4.8371    0.8405 H   0  0  0  0  0  0  0  0  0  0  0  0
   -2.9003    4.5462    0.9982 H   0  0  0  0  0  0  0  0  0  0  0  0
   -1.8074    4.1109    2.3302 H   0  0  0  0  0  0  0  0  0  0  0  0
  1  2  1  0  0  0  0
  2  3  1  0  0  0  0
  2  4  1  0  0  0  0
  2  5  1  0  0  0  0
  5  6  2  0  0  0  0
  5  7  1  0  0  0  0
  7  8  1  0  0  0  0
  7  9  1  0  0  0  0
  9 10  1  0  0  0  0
  9 11  1  0  0  0  0
  9 24  1  0  0  0  0
 11 12  1  0  0  0  0
 11 13  1  0  0  0  0
 11 14  1  0  0  0  0
 14 15  1  0  0  0  0
 14 16  1  0  0  0  0
 14 20  1  0  0  0  0
 16 17  1  0  0  0  0
 16 18  1  0  0  0  0
 16 19  1  0  0  0  0
 20 21  1  0  0  0  0
 20 22  1  0  0  0  0
 20 23  1  0  0  0  0
 24 25  2  0  0  0  0
 24 26  1  0  0  0  0
 26 27  1  0  0  0  0
 26 28  1  0  0  0  0
 28 29  1  0  0  0  0
 28 30  1  0  0  0  0
 28 31  1  0  0  0  0
M  END
$$$$

  -OEChem-01062216083D

 31 30  0     1  0  0  0  0  0999 V2000
   -3.2829   -2.9387    0.8164 H   0  0  0  0  0  0  0  0  0  0  0  0
   -3.2702   -1.9700    0.3083 C   0  0  0  0  0  0  0  0  0  0  0  0
   -4.1356   -1.3895    0.6366 H   0  0  0  0  0  0  0  0  0  0  0  0
   -3.3388   -2.1388   -0.7690 H   0  0  0  0  0  0  0  0  0  0  0  0
   -1.9900   -1.2255    0.6382 C   0  0  0  0  0  0  0  0  0  0  0  0
   -1.1985   -1.7088    1.4288 O   0  0  0  0  0  0  0  0  0  0  0  0
   -1.7385   -0.0052    0.0406 N   0  0  0  0  0  0  0  0  0  0  0  0
   -2.3761    0.2684   -0.7009 H   0  0  0  0  0  0  0  0  0  0  0  0
   -0.4438    0.7029    0.1253 C   0  0  1  0  0  0  0  0  0  0  0  0
    0.2647    0.1465    0.7461 H   0  0  0  0  0  0  0  0  0  0  0  0
    0.1301    0.8475   -1.2991 C   0  0  0  0  0  0  0  0  0  0  0  0
   -0.6051    1.3661   -1.9232 H   0  0  0  0  0  0  0  0  0  0  0  0
    1.0239    1.4806   -1.2594 H   0  0  0  0  0  0  0  0  0  0  0  0
    0.5129   -0.4941   -1.9629 C   0  0  0  0  0  0  0  0  0  0  0  0
   -0.3559   -1.1599   -1.9692 H   0  0  0  0  0  0  0  0  0  0  0  0
    0.9259   -0.2368   -3.4166 C   0  0  0  0  0  0  0  0  0  0  0  0
    1.7992    0.4224   -3.4591 H   0  0  0  0  0  0  0  0  0  0  0  0
    1.1771   -1.1784   -3.9148 H   0  0  0  0  0  0  0  0  0  0  0  0
    0.1071    0.2337   -3.9697 H   0  0  0  0  0  0  0  0  0  0  0  0
    1.6612   -1.1982   -1.2262 C   0  0  0  0  0  0  0  0  0  0  0  0
    1.3446   -1.5259   -0.2320 H   0  0  0  0  0  0  0  0  0  0  0  0
    1.9821   -2.0850   -1.7812 H   0  0  0  0  0  0  0  0  0  0  0  0
    2.5195   -0.5276   -1.1173 H   0  0  0  0  0  0  0  0  0  0  0  0
   -0.5701    2.0944    0.7829 C   0  0  0  0  0  0  0  0  0  0  0  0
    0.4338    2.7393    1.0536 O   0  0  0  0  0  0  0  0  0  0  0  0
   -1.8099    2.6888    0.9405 N   0  0  0  0  0  0  0  0  0  0  0  0
   -2.6158    2.0833    0.8254 H   0  0  0  0  0  0  0  0  0  0  0  0
   -1.9934    3.9924    1.5668 C   0  0  0  0  0  0  0  0  0  0  0  0
   -1.4336    4.7609    1.0233 H   0  0  0  0  0  0  0  0  0  0  0  0
   -3.0518    4.2696    1.5604 H   0  0  0  0  0  0  0  0  0  0  0  0
   -1.6451    3.9712    2.6049 H   0  0  0  0  0  0  0  0  0  0  0  0
  1  2  1  0  0  0  0
  2  3  1  0  0  0  0
  2  4  1  0  0  0  0
  2  5  1  0  0  0  0
  5  6  2  0  0  0  0
  5  7  1  0  0  0  0
  7  8  1  0  0  0  0
  7  9  1  0  0  0  0
  9 10  1  0  0  0  0
  9 11  1  0  0  0  0
  9 24  1  0  0  0  0
 11 12  1  0  0  0  0
 11 13  1  0  0  0  0
 11 14  1  0  0  0  0
 14 15  1  0  0  0  0
 14 16  1  0  0  0  0
 14 20  1  0  0  0  0
 16 17  1  0  0  0  0
 16 18  1  0  0  0  0
 16 19  1  0  0  0  0
 20 21  1  0  0  0  0
 20 22  1  0  0  0  0
 20 23  1  0  0  0  0
 24 25  2  0  0  0  0
 24 26  1  0  0  0  0
 26 27  1  0  0  0  0
 26 28  1  0  0  0  0
 28 29  1  0  0  0  0
 28 30  1  0  0  0  0
 28 31  1  0  0  0  0
M  END
$$$$

  -OEChem-01062216083D

 31 30  0     1  0  0  0  0  0999 V2000
   -3.2773   -2.9349    0.7903 H   0  0  0  0  0  0  0  0  0  0  0  0
   -3.2640   -1.9623    0.2900 C   0  0  0  0  0  0  0  0  0  0  0  0
   -4.1312   -1.3853    0.6198 H   0  0  0  0  0  0  0  0  0  0  0  0
   -3.3284   -2.1225   -0.7889 H   0  0  0  0  0  0  0  0  0  0  0  0
   -1.9857   -1.2191    0.6288 C   0  0  0  0  0  0  0  0  0  0  0  0
   -1.1994   -1.7008    1.4255 O   0  0  0  0  0  0  0  0  0  0  0  0
   -1.7318    0.0035    0.0378 N   0  0  0  0  0  0  0  0  0  0  0  0
   -2.3804    0.2967   -0.6870 H   0  0  0  0  0  0  0  0  0  0  0  0
   -0.4366    0.7105    0.1229 C   0  0  1  0  0  0  0  0  0  0  0  0
    0.2718    0.1535    0.7431 H   0  0  0  0  0  0  0  0  0  0  0  0
    0.1338    0.8467   -1.3057 C   0  0  0  0  0  0  0  0  0  0  0  0
   -0.6022    1.3636   -1.9300 H   0  0  0  0  0  0  0  0  0  0  0  0
    1.0300    1.4764   -1.2746 H   0  0  0  0  0  0  0  0  0  0  0  0
    0.5126   -0.4991   -1.9643 C   0  0  0  0  0  0  0  0  0  0  0  0
   -0.3578   -1.1630   -1.9656 H   0  0  0  0  0  0  0  0  0  0  0  0
    0.9215   -0.2491   -3.4203 C   0  0  0  0  0  0  0  0  0  0  0  0
    1.7965    0.4072   -3.4678 H   0  0  0  0  0  0  0  0  0  0  0  0
    1.1682   -1.1936   -3.9151 H   0  0  0  0  0  0  0  0  0  0  0  0
    0.1026    0.2218   -3.9729 H   0  0  0  0  0  0  0  0  0  0  0  0
    1.6612   -1.2036   -1.2282 C   0  0  0  0  0  0  0  0  0  0  0  0
    1.3458   -1.5286   -0.2326 H   0  0  0  0  0  0  0  0  0  0  0  0
    1.9798   -2.0920   -1.7824 H   0  0  0  0  0  0  0  0  0  0  0  0
    2.5207   -0.5341   -1.1228 H   0  0  0  0  0  0  0  0  0  0  0  0
   -0.5679    2.0996    0.7890 C   0  0  0  0  0  0  0  0  0  0  0  0
    0.3956    2.8513    0.8544 O   0  0  0  0  0  0  0  0  0  0  0  0
   -1.7987    2.5534    1.2296 N   0  0  0  0  0  0  0  0  0  0  0  0
   -2.5386    1.8603    1.2800 H   0  0  0  0  0  0  0  0  0  0  0  0
   -1.9845    3.8331    1.9030 C   0  0  0  0  0  0  0  0  0  0  0  0
   -1.6493    4.6558    1.2625 H   0  0  0  0  0  0  0  0  0  0  0  0
   -3.0424    3.9884    2.1355 H   0  0  0  0  0  0  0  0  0  0  0  0
   -1.4154    3.8602    2.8381 H   0  0  0  0  0  0  0  0  0  0  0  0
  1  2  1  0  0  0  0
  2  3  1  0  0  0  0
  2  4  1  0  0  0  0
  2  5  1  0  0  0  0
  5  6  2  0  0  0  0
  5  7  1  0  0  0  0
  7  8  1  0  0  0  0
  7  9  1  0  0  0  0
  9 10  1  0  0  0  0
  9 11  1  0  0  0  0
  9 24  1  0  0  0  0
 11 12  1  0  0  0  0
 11 13  1  0  0  0  0
 11 14  1  0  0  0  0
 14 15  1  0  0  0  0
 14 16  1  0  0  0  0
 14 20  1  0  0  0  0
 16 17  1  0  0  0  0
 16 18  1  0  0  0  0
 16 19  1  0  0  0  0
 20 21  1  0  0  0  0
 20 22  1  0  0  0  0
 20 23  1  0  0  0  0
 24 25  2  0  0  0  0
 24 26  1  0  0  0  0
 26 27  1  0  0  0  0
 26 28  1  0  0  0  0
 28 29  1  0  0  0  0
 28 30  1  0  0  0  0
 28 31  1  0  0  0  0
M  END
$$$$

  -OEChem-01062216083D

 31 30  0     1  0  0  0  0  0999 V2000
   -3.2840   -2.9170    0.7810 H   0  0  0  0  0  0  0  0  0  0  0  0
   -3.2693   -1.9412    0.2871 C   0  0  0  0  0  0  0  0  0  0  0  0
   -4.1299   -1.3610    0.6283 H   0  0  0  0  0  0  0  0  0  0  0  0
   -3.3450   -2.0941   -0.7921 H   0  0  0  0  0  0  0  0  0  0  0  0
   -1.9828   -1.2086    0.6188 C   0  0  0  0  0  0  0  0  0  0  0  0
   -1.1969   -1.6947    1.4134 O   0  0  0  0  0  0  0  0  0  0  0  0
   -1.7234    0.0158    0.0348 N   0  0  0  0  0  0  0  0  0  0  0  0
   -2.3876    0.3342   -0.6652 H   0  0  0  0  0  0  0  0  0  0  0  0
   -0.4258    0.7182    0.1174 C   0  0  1  0  0  0  0  0  0  0  0  0
    0.2819    0.1589    0.7359 H   0  0  0  0  0  0  0  0  0  0  0  0
    0.1429    0.8465   -1.3135 C   0  0  0  0  0  0  0  0  0  0  0  0
   -0.5916    1.3659   -1.9377 H   0  0  0  0  0  0  0  0  0  0  0  0
    1.0432    1.4703   -1.2877 H   0  0  0  0  0  0  0  0  0  0  0  0
    0.5153   -0.5032   -1.9674 C   0  0  0  0  0  0  0  0  0  0  0  0
   -0.3568   -1.1646   -1.9650 H   0  0  0  0  0  0  0  0  0  0  0  0
    0.9223   -0.2590   -3.4250 C   0  0  0  0  0  0  0  0  0  0  0  0
    1.8022    0.3906   -3.4765 H   0  0  0  0  0  0  0  0  0  0  0  0
    1.1603   -1.2064   -3.9185 H   0  0  0  0  0  0  0  0  0  0  0  0
    0.1057    0.2172   -3.9764 H   0  0  0  0  0  0  0  0  0  0  0  0
    1.6632   -1.2077   -1.2300 C   0  0  0  0  0  0  0  0  0  0  0  0
    1.3446   -1.5365   -0.2366 H   0  0  0  0  0  0  0  0  0  0  0  0
    1.9858   -2.0935   -1.7858 H   0  0  0  0  0  0  0  0  0  0  0  0
    2.5209   -0.5367   -1.1190 H   0  0  0  0  0  0  0  0  0  0  0  0
   -0.5633    2.1033    0.7934 C   0  0  0  0  0  0  0  0  0  0  0  0
    0.3003    2.9608    0.6622 O   0  0  0  0  0  0  0  0  0  0  0  0
   -1.7069    2.4157    1.5064 N   0  0  0  0  0  0  0  0  0  0  0  0
   -2.3400    1.6447    1.6973 H   0  0  0  0  0  0  0  0  0  0  0  0
   -1.8886    3.6734    2.2204 C   0  0  0  0  0  0  0  0  0  0  0  0
   -1.8130    4.5204    1.5304 H   0  0  0  0  0  0  0  0  0  0  0  0
   -2.8754    3.7017    2.6921 H   0  0  0  0  0  0  0  0  0  0  0  0
   -1.1272    3.7842    2.9996 H   0  0  0  0  0  0  0  0  0  0  0  0
  1  2  1  0  0  0  0
  2  3  1  0  0  0  0
  2  4  1  0  0  0  0
  2  5  1  0  0  0  0
  5  6  2  0  0  0  0
  5  7  1  0  0  0  0
  7  8  1  0  0  0  0
  7  9  1  0  0  0  0
  9 10  1  0  0  0  0
  9 11  1  0  0  0  0
  9 24  1  0  0  0  0
 11 12  1  0  0  0  0
 11 13  1  0  0  0  0
 11 14  1  0  0  0  0
 14 15  1  0  0  0  0
 14 16  1  0  0  0  0
 14 20  1  0  0  0  0
 16 17  1  0  0  0  0
 16 18  1  0  0  0  0
 16 19  1  0  0  0  0
 20 21  1  0  0  0  0
 20 22  1  0  0  0  0
 20 23  1  0  0  0  0
 24 25  2  0  0  0  0
 24 26  1  0  0  0  0
 26 27  1  0  0  0  0
 26 28  1  0  0  0  0
 28 29  1  0  0  0  0
 28 30  1  0  0  0  0
 28 31  1  0  0  0  0
M  END
$$$$

  -OEChem-01062216083D

 31 30  0     1  0  0  0  0  0999 V2000
   -3.3124   -2.8736    0.8001 H   0  0  0  0  0  0  0  0  0  0  0  0
   -3.2819   -1.9015    0.2998 C   0  0  0  0  0  0  0  0  0  0  0  0
   -4.1251   -1.3002    0.6478 H   0  0  0  0  0  0  0  0  0  0  0  0
   -3.3740   -2.0586   -0.7777 H   0  0  0  0  0  0  0  0  0  0  0  0
   -1.9762   -1.1946    0.6111 C   0  0  0  0  0  0  0  0  0  0  0  0
   -1.1852   -1.6942    1.3924 O   0  0  0  0  0  0  0  0  0  0  0  0
   -1.7094    0.0311    0.0350 N   0  0  0  0  0  0  0  0  0  0  0  0
   -2.3928    0.3810   -0.6307 H   0  0  0  0  0  0  0  0  0  0  0  0
   -0.4086    0.7259    0.1114 C   0  0  1  0  0  0  0  0  0  0  0  0
    0.2991    0.1644    0.7275 H   0  0  0  0  0  0  0  0  0  0  0  0
    0.1588    0.8483   -1.3213 C   0  0  0  0  0  0  0  0  0  0  0  0
   -0.5735    1.3708   -1.9454 H   0  0  0  0  0  0  0  0  0  0  0  0
    1.0627    1.4671   -1.2981 H   0  0  0  0  0  0  0  0  0  0  0  0
    0.5227   -0.5054   -1.9731 C   0  0  0  0  0  0  0  0  0  0  0  0
   -0.3536   -1.1613   -1.9665 H   0  0  0  0  0  0  0  0  0  0  0  0
    0.9289   -0.2688   -3.4323 C   0  0  0  0  0  0  0  0  0  0  0  0
    1.8080    0.3812   -3.4881 H   0  0  0  0  0  0  0  0  0  0  0  0
    1.1678   -1.2186   -3.9211 H   0  0  0  0  0  0  0  0  0  0  0  0
    0.1112    0.2037   -3.9852 H   0  0  0  0  0  0  0  0  0  0  0  0
    1.6690   -1.2154   -1.2385 C   0  0  0  0  0  0  0  0  0  0  0  0
    1.3582   -1.5273   -0.2375 H   0  0  0  0  0  0  0  0  0  0  0  0
    1.9730   -2.1125   -1.7865 H   0  0  0  0  0  0  0  0  0  0  0  0
    2.5370   -0.5549   -1.1463 H   0  0  0  0  0  0  0  0  0  0  0  0
   -0.5559    2.1040    0.8000 C   0  0  0  0  0  0  0  0  0  0  0  0
    0.1401    3.0603    0.4838 O   0  0  0  0  0  0  0  0  0  0  0  0
   -1.5368    2.2837    1.7584 N   0  0  0  0  0  0  0  0  0  0  0  0
   -2.0257    1.4467    2.0640 H   0  0  0  0  0  0  0  0  0  0  0  0
   -1.7225    3.5243    2.5006 C   0  0  0  0  0  0  0  0  0  0  0  0
   -1.9282    4.3535    1.8156 H   0  0  0  0  0  0  0  0  0  0  0  0
   -2.5670    3.4291    3.1897 H   0  0  0  0  0  0  0  0  0  0  0  0
   -0.8252    3.7614    3.0817 H   0  0  0  0  0  0  0  0  0  0  0  0
  1  2  1  0  0  0  0
  2  3  1  0  0  0  0
  2  4  1  0  0  0  0
  2  5  1  0  0  0  0
  5  6  2  0  0  0  0
  5  7  1  0  0  0  0
  7  8  1  0  0  0  0
  7  9  1  0  0  0  0
  9 10  1  0  0  0  0
  9 11  1  0  0  0  0
  9 24  1  0  0  0  0
 11 12  1  0  0  0  0
 11 13  1  0  0  0  0
 11 14  1  0  0  0  0
 14 15  1  0  0  0  0
 14 16  1  0  0  0  0
 14 20  1  0  0  0  0
 16 17  1  0  0  0  0
 16 18  1  0  0  0  0
 16 19  1  0  0  0  0
 20 21  1  0  0  0  0
 20 22  1  0  0  0  0
 20 23  1  0  0  0  0
 24 25  2  0  0  0  0
 24 26  1  0  0  0  0
 26 27  1  0  0  0  0
 26 28  1  0  0  0  0
 28 29  1  0  0  0  0
 28 30  1  0  0  0  0
 28 31  1  0  0  0  0
M  END
$$$$

  -OEChem-01062216083D

 31 30  0     1  0  0  0  0  0999 V2000
   -3.3204   -2.8482    0.8159 H   0  0  0  0  0  0  0  0  0  0  0  0
   -3.2861   -1.8759    0.3160 C   0  0  0  0  0  0  0  0  0  0  0  0
   -4.1223   -1.2680    0.6697 H   0  0  0  0  0  0  0  0  0  0  0  0
   -3.3866   -2.0314   -0.7608 H   0  0  0  0  0  0  0  0  0  0  0  0
   -1.9727   -1.1797    0.6182 C   0  0  0  0  0  0  0  0  0  0  0  0
   -1.1825   -1.6820    1.3993 O   0  0  0  0  0  0  0  0  0  0  0  0
   -1.6988    0.0442    0.0427 N   0  0  0  0  0  0  0  0  0  0  0  0
   -2.3873    0.4074   -0.6108 H   0  0  0  0  0  0  0  0  0  0  0  0
   -0.3926    0.7265    0.1116 C   0  0  1  0  0  0  0  0  0  0  0  0
    0.3149    0.1605    0.7241 H   0  0  0  0  0  0  0  0  0  0  0  0
    0.1737    0.8489   -1.3214 C   0  0  0  0  0  0  0  0  0  0  0  0
   -0.5566    1.3774   -1.9432 H   0  0  0  0  0  0  0  0  0  0  0  0
    1.0813    1.4624   -1.2955 H   0  0  0  0  0  0  0  0  0  0  0  0
    0.5256   -0.5045   -1.9786 C   0  0  0  0  0  0  0  0  0  0  0  0
   -0.3569   -1.1519   -1.9742 H   0  0  0  0  0  0  0  0  0  0  0  0
    0.9316   -0.2647   -3.4372 C   0  0  0  0  0  0  0  0  0  0  0  0
    1.8201    0.3725   -3.4912 H   0  0  0  0  0  0  0  0  0  0  0  0
    1.1550   -1.2149   -3.9321 H   0  0  0  0  0  0  0  0  0  0  0  0
    0.1198    0.2235   -3.9853 H   0  0  0  0  0  0  0  0  0  0  0  0
    1.6655   -1.2282   -1.2475 C   0  0  0  0  0  0  0  0  0  0  0  0
    1.3497   -1.5464   -0.2499 H   0  0  0  0  0  0  0  0  0  0  0  0
    1.9652   -2.1228   -1.8023 H   0  0  0  0  0  0  0  0  0  0  0  0
    2.5376   -0.5742   -1.1478 H   0  0  0  0  0  0  0  0  0  0  0  0
   -0.5414    2.1002    0.8057 C   0  0  0  0  0  0  0  0  0  0  0  0
   -0.0618    3.1237    0.3345 O   0  0  0  0  0  0  0  0  0  0  0  0
   -1.2916    2.1857    1.9640 N   0  0  0  0  0  0  0  0  0  0  0  0
   -1.6242    1.3083    2.3566 H   0  0  0  0  0  0  0  0  0  0  0  0
   -1.4817    3.4203    2.7145 C   0  0  0  0  0  0  0  0  0  0  0  0
   -1.9598    4.1799    2.0873 H   0  0  0  0  0  0  0  0  0  0  0  0
   -2.1207    3.2392    3.5840 H   0  0  0  0  0  0  0  0  0  0  0  0
   -0.5192    3.8071    3.0656 H   0  0  0  0  0  0  0  0  0  0  0  0
  1  2  1  0  0  0  0
  2  3  1  0  0  0  0
  2  4  1  0  0  0  0
  2  5  1  0  0  0  0
  5  6  2  0  0  0  0
  5  7  1  0  0  0  0
  7  8  1  0  0  0  0
  7  9  1  0  0  0  0
  9 10  1  0  0  0  0
  9 11  1  0  0  0  0
  9 24  1  0  0  0  0
 11 12  1  0  0  0  0
 11 13  1  0  0  0  0
 11 14  1  0  0  0  0
 14 15  1  0  0  0  0
 14 16  1  0  0  0  0
 14 20  1  0  0  0  0
 16 17  1  0  0  0  0
 16 18  1  0  0  0  0
 16 19  1  0  0  0  0
 20 21  1  0  0  0  0
 20 22  1  0  0  0  0
 20 23  1  0  0  0  0
 24 25  2  0  0  0  0
 24 26  1  0  0  0  0
 26 27  1  0  0  0  0
 26 28  1  0  0  0  0
 28 29  1  0  0  0  0
 28 30  1  0  0  0  0
 28 31  1  0  0  0  0
M  END
$$$$

  -OEChem-01062216083D

 31 30  0     1  0  0  0  0  0999 V2000
   -3.3374   -2.8160    0.8466 H   0  0  0  0  0  0  0  0  0  0  0  0
   -3.2961   -1.8449    0.3449 C   0  0  0  0  0  0  0  0  0  0  0  0
   -4.1151   -1.2223    0.7133 H   0  0  0  0  0  0  0  0  0  0  0  0
   -3.4196   -1.9996   -0.7297 H   0  0  0  0  0  0  0  0  0  0  0  0
   -1.9660   -1.1704    0.6219 C   0  0  0  0  0  0  0  0  0  0  0  0
   -1.1675   -1.6870    1.3860 O   0  0  0  0  0  0  0  0  0  0  0  0
   -1.6842    0.0511    0.0458 N   0  0  0  0  0  0  0  0  0  0  0  0
   -2.3831    0.4367   -0.5836 H   0  0  0  0  0  0  0  0  0  0  0  0
   -0.3744    0.7227    0.1115 C   0  0  1  0  0  0  0  0  0  0  0  0
    0.3331    0.1525    0.7198 H   0  0  0  0  0  0  0  0  0  0  0  0
    0.1901    0.8472   -1.3210 C   0  0  0  0  0  0  0  0  0  0  0  0
   -0.5388    1.3810   -1.9401 H   0  0  0  0  0  0  0  0  0  0  0  0
    1.0988    1.4584   -1.2919 H   0  0  0  0  0  0  0  0  0  0  0  0
    0.5319   -0.5052   -1.9854 C   0  0  0  0  0  0  0  0  0  0  0  0
   -0.3546   -1.1473   -1.9819 H   0  0  0  0  0  0  0  0  0  0  0  0
    0.9368   -0.2602   -3.4433 C   0  0  0  0  0  0  0  0  0  0  0  0
    1.8293    0.3717   -3.4957 H   0  0  0  0  0  0  0  0  0  0  0  0
    1.1525   -1.2092   -3.9439 H   0  0  0  0  0  0  0  0  0  0  0  0
    0.1269    0.2359   -3.9870 H   0  0  0  0  0  0  0  0  0  0  0  0
    1.6694   -1.2394   -1.2606 C   0  0  0  0  0  0  0  0  0  0  0  0
    1.3551   -1.5586   -0.2628 H   0  0  0  0  0  0  0  0  0  0  0  0
    1.9605   -2.1346   -1.8190 H   0  0  0  0  0  0  0  0  0  0  0  0
    2.5467   -0.5922   -1.1622 H   0  0  0  0  0  0  0  0  0  0  0  0
   -0.5225    2.0937    0.8067 C   0  0  0  0  0  0  0  0  0  0  0  0
   -0.2852    3.1477    0.2296 O   0  0  0  0  0  0  0  0  0  0  0  0
   -0.9951    2.1284    2.1051 N   0  0  0  0  0  0  0  0  0  0  0  0
   -1.1792    1.2326    2.5514 H   0  0  0  0  0  0  0  0  0  0  0  0
   -1.1970    3.3577    2.8612 C   0  0  0  0  0  0  0  0  0  0  0  0
   -1.9181    4.0061    2.3527 H   0  0  0  0  0  0  0  0  0  0  0  0
   -1.5828    3.1281    3.8591 H   0  0  0  0  0  0  0  0  0  0  0  0
   -0.2516    3.8991    2.9714 H   0  0  0  0  0  0  0  0  0  0  0  0
  1  2  1  0  0  0  0
  2  3  1  0  0  0  0
  2  4  1  0  0  0  0
  2  5  1  0  0  0  0
  5  6  2  0  0  0  0
  5  7  1  0  0  0  0
  7  8  1  0  0  0  0
  7  9  1  0  0  0  0
  9 10  1  0  0  0  0
  9 11  1  0  0  0  0
  9 24  1  0  0  0  0
 11 12  1  0  0  0  0
 11 13  1  0  0  0  0
 11 14  1  0  0  0  0
 14 15  1  0  0  0  0
 14 16  1  0  0  0  0
 14 20  1  0  0  0  0
 16 17  1  0  0  0  0
 16 18  1  0  0  0  0
 16 19  1  0  0  0  0
 20 21  1  0  0  0  0
 20 22  1  0  0  0  0
 20 23  1  0  0  0  0
 24 25  2  0  0  0  0
 24 26  1  0  0  0  0
 26 27  1  0  0  0  0
 26 28  1  0  0  0  0
 28 29  1  0  0  0  0
 28 30  1  0  0  0  0
 28 31  1  0  0  0  0
M  END
$$$$

  -OEChem-01062216083D

 31 30  0     1  0  0  0  0  0999 V2000
   -3.3591   -2.7892    0.8805 H   0  0  0  0  0  0  0  0  0  0  0  0
   -3.3107   -1.8192    0.3775 C   0  0  0  0  0  0  0  0  0  0  0  0
   -4.1064   -1.1798    0.7676 H   0  0  0  0  0  0  0  0  0  0  0  0
   -3.4655   -1.9709   -0.6935 H   0  0  0  0  0  0  0  0  0  0  0  0
   -1.9603   -1.1719    0.6196 C   0  0  0  0  0  0  0  0  0  0  0  0
   -1.1482   -1.7111    1.3537 O   0  0  0  0  0  0  0  0  0  0  0  0
   -1.6722    0.0481    0.0435 N   0  0  0  0  0  0  0  0  0  0  0  0
   -2.3863    0.4636   -0.5487 H   0  0  0  0  0  0  0  0  0  0  0  0
   -0.3606    0.7131    0.1093 C   0  0  1  0  0  0  0  0  0  0  0  0
    0.3468    0.1380    0.7129 H   0  0  0  0  0  0  0  0  0  0  0  0
    0.2043    0.8450   -1.3216 C   0  0  0  0  0  0  0  0  0  0  0  0
   -0.5245    1.3818   -1.9384 H   0  0  0  0  0  0  0  0  0  0  0  0
    1.1128    1.4566   -1.2883 H   0  0  0  0  0  0  0  0  0  0  0  0
    0.5406   -0.5050   -1.9931 C   0  0  0  0  0  0  0  0  0  0  0  0
   -0.3488   -1.1435   -1.9928 H   0  0  0  0  0  0  0  0  0  0  0  0
    0.9468   -0.2532   -3.4495 C   0  0  0  0  0  0  0  0  0  0  0  0
    1.8420    0.3751   -3.4972 H   0  0  0  0  0  0  0  0  0  0  0  0
    1.1592   -1.1997   -3.9561 H   0  0  0  0  0  0  0  0  0  0  0  0
    0.1394    0.2503   -3.9902 H   0  0  0  0  0  0  0  0  0  0  0  0
    1.6752   -1.2470   -1.2723 C   0  0  0  0  0  0  0  0  0  0  0  0
    1.3605   -1.5688   -0.2756 H   0  0  0  0  0  0  0  0  0  0  0  0
    1.9620   -2.1408   -1.8348 H   0  0  0  0  0  0  0  0  0  0  0  0
    2.5550   -0.6036   -1.1719 H   0  0  0  0  0  0  0  0  0  0  0  0
   -0.5049    2.0831    0.8034 C   0  0  0  0  0  0  0  0  0  0  0  0
   -0.5300    3.1307    0.1690 O   0  0  0  0  0  0  0  0  0  0  0  0
   -0.6710    2.1188    2.1749 N   0  0  0  0  0  0  0  0  0  0  0  0
   -0.7009    1.2248    2.6602 H   0  0  0  0  0  0  0  0  0  0  0  0
   -0.8785    3.3470    2.9310 C   0  0  0  0  0  0  0  0  0  0  0  0
   -1.7860    3.8572    2.5916 H   0  0  0  0  0  0  0  0  0  0  0  0
   -0.9862    3.1213    3.9963 H   0  0  0  0  0  0  0  0  0  0  0  0
   -0.0261    4.0227    2.8053 H   0  0  0  0  0  0  0  0  0  0  0  0
  1  2  1  0  0  0  0
  2  3  1  0  0  0  0
  2  4  1  0  0  0  0
  2  5  1  0  0  0  0
  5  6  2  0  0  0  0
  5  7  1  0  0  0  0
  7  8  1  0  0  0  0
  7  9  1  0  0  0  0
  9 10  1  0  0  0  0
  9 11  1  0  0  0  0
  9 24  1  0  0  0  0
 11 12  1  0  0  0  0
 11 13  1  0  0  0  0
 11 14  1  0  0  0  0
 14 15  1  0  0  0  0
 14 16  1  0  0  0  0
 14 20  1  0  0  0  0
 16 17  1  0  0  0  0
 16 18  1  0  0  0  0
 16 19  1  0  0  0  0
 20 21  1  0  0  0  0
 20 22  1  0  0  0  0
 20 23  1  0  0  0  0
 24 25  2  0  0  0  0
 24 26  1  0  0  0  0
 26 27  1  0  0  0  0
 26 28  1  0  0  0  0
 28 29  1  0  0  0  0
 28 30  1  0  0  0  0
 28 31  1  0  0  0  0
M  END
$$$$

  -OEChem-01062216083D

 31 30  0     1  0  0  0  0  0999 V2000
   -3.3947   -2.7654    0.9237 H   0  0  0  0  0  0  0  0  0  0  0  0
   -3.3385   -1.7955    0.4213 C   0  0  0  0  0  0  0  0  0  0  0  0
   -4.0994   -1.1352    0.8446 H   0  0  0  0  0  0  0  0  0  0  0  0
   -3.5407   -1.9389   -0.6429 H   0  0  0  0  0  0  0  0  0  0  0  0
   -1.9612   -1.1879    0.6098 C   0  0  0  0  0  0  0  0  0  0  0  0
   -1.1308   -1.7613    1.2966 O   0  0  0  0  0  0  0  0  0  0  0  0
   -1.6665    0.0306    0.0337 N   0  0  0  0  0  0  0  0  0  0  0  0
   -2.4022    0.4867   -0.4999 H   0  0  0  0  0  0  0  0  0  0  0  0
   -0.3564    0.6959    0.1039 C   0  0  1  0  0  0  0  0  0  0  0  0
    0.3492    0.1179    0.7067 H   0  0  0  0  0  0  0  0  0  0  0  0
    0.2146    0.8392   -1.3234 C   0  0  0  0  0  0  0  0  0  0  0  0
   -0.5136    1.3768   -1.9403 H   0  0  0  0  0  0  0  0  0  0  0  0
    1.1201    1.4545   -1.2820 H   0  0  0  0  0  0  0  0  0  0  0  0
    0.5564   -0.5043   -2.0044 C   0  0  0  0  0  0  0  0  0  0  0  0
   -0.3315   -1.1447   -2.0118 H   0  0  0  0  0  0  0  0  0  0  0  0
    0.9686   -0.2415   -3.4575 C   0  0  0  0  0  0  0  0  0  0  0  0
    1.8631    0.3883   -3.4983 H   0  0  0  0  0  0  0  0  0  0  0  0
    1.1835   -1.1844   -3.9700 H   0  0  0  0  0  0  0  0  0  0  0  0
    0.1622    0.2641   -3.9978 H   0  0  0  0  0  0  0  0  0  0  0  0
    1.6908   -1.2469   -1.2843 C   0  0  0  0  0  0  0  0  0  0  0  0
    1.3707   -1.5815   -0.2936 H   0  0  0  0  0  0  0  0  0  0  0  0
    1.9868   -2.1328   -1.8545 H   0  0  0  0  0  0  0  0  0  0  0  0
    2.5659   -0.5993   -1.1708 H   0  0  0  0  0  0  0  0  0  0  0  0
   -0.5008    2.0678    0.7926 C   0  0  0  0  0  0  0  0  0  0  0  0
   -0.7939    3.0720    0.1551 O   0  0  0  0  0  0  0  0  0  0  0  0
   -0.3593    2.1528    2.1649 N   0  0  0  0  0  0  0  0  0  0  0  0
   -0.2102    1.2826    2.6702 H   0  0  0  0  0  0  0  0  0  0  0  0
   -0.5448    3.3867    2.9177 C   0  0  0  0  0  0  0  0  0  0  0  0
   -1.5595    3.7735    2.7768 H   0  0  0  0  0  0  0  0  0  0  0  0
   -0.3888    3.2049    3.9854 H   0  0  0  0  0  0  0  0  0  0  0  0
    0.1713    4.1470    2.5886 H   0  0  0  0  0  0  0  0  0  0  0  0
  1  2  1  0  0  0  0
  2  3  1  0  0  0  0
  2  4  1  0  0  0  0
  2  5  1  0  0  0  0
  5  6  2  0  0  0  0
  5  7  1  0  0  0  0
  7  8  1  0  0  0  0
  7  9  1  0  0  0  0
  9 10  1  0  0  0  0
  9 11  1  0  0  0  0
  9 24  1  0  0  0  0
 11 12  1  0  0  0  0
 11 13  1  0  0  0  0
 11 14  1  0  0  0  0
 14 15  1  0  0  0  0
 14 16  1  0  0  0  0
 14 20  1  0  0  0  0
 16 17  1  0  0  0  0
 16 18  1  0  0  0  0
 16 19  1  0  0  0  0
 20 21  1  0  0  0  0
 20 22  1  0  0  0  0
 20 23  1  0  0  0  0
 24 25  2  0  0  0  0
 24 26  1  0  0  0  0
 26 27  1  0  0  0  0
 26 28  1  0  0  0  0
 28 29  1  0  0  0  0
 28 30  1  0  0  0  0
 28 31  1  0  0  0  0
M  END
$$$$

  -OEChem-01062216083D

 31 30  0     1  0  0  0  0  0999 V2000
   -3.4185   -2.7482    0.9566 H   0  0  0  0  0  0  0  0  0  0  0  0
   -3.3566   -1.7812    0.4494 C   0  0  0  0  0  0  0  0  0  0  0  0
   -4.0942   -1.1051    0.8887 H   0  0  0  0  0  0  0  0  0  0  0  0
   -3.5878   -1.9242   -0.6089 H   0  0  0  0  0  0  0  0  0  0  0  0
   -1.9635   -1.1998    0.6010 C   0  0  0  0  0  0  0  0  0  0  0  0
   -1.1194   -1.8022    1.2453 O   0  0  0  0  0  0  0  0  0  0  0  0
   -1.6630    0.0165    0.0232 N   0  0  0  0  0  0  0  0  0  0  0  0
   -2.4162    0.5113   -0.4487 H   0  0  0  0  0  0  0  0  0  0  0  0
   -0.3534    0.6812    0.0998 C   0  0  1  0  0  0  0  0  0  0  0  0
    0.3479    0.0992    0.7036 H   0  0  0  0  0  0  0  0  0  0  0  0
    0.2222    0.8352   -1.3230 C   0  0  0  0  0  0  0  0  0  0  0  0
   -0.5046    1.3767   -1.9382 H   0  0  0  0  0  0  0  0  0  0  0  0
    1.1270    1.4505   -1.2743 H   0  0  0  0  0  0  0  0  0  0  0  0
    0.5663   -0.5034   -2.0119 C   0  0  0  0  0  0  0  0  0  0  0  0
   -0.3220   -1.1433   -2.0270 H   0  0  0  0  0  0  0  0  0  0  0  0
    0.9839   -0.2308   -3.4615 C   0  0  0  0  0  0  0  0  0  0  0  0
    1.8776    0.4005   -3.4942 H   0  0  0  0  0  0  0  0  0  0  0  0
    1.2025   -1.1701   -3.9791 H   0  0  0  0  0  0  0  0  0  0  0  0
    0.1791    0.2770   -4.0020 H   0  0  0  0  0  0  0  0  0  0  0  0
    1.6971   -1.2525   -1.2926 C   0  0  0  0  0  0  0  0  0  0  0  0
    1.3727   -1.5939   -0.3056 H   0  0  0  0  0  0  0  0  0  0  0  0
    1.9944   -2.1349   -1.8679 H   0  0  0  0  0  0  0  0  0  0  0  0
    2.5727   -0.6069   -1.1711 H   0  0  0  0  0  0  0  0  0  0  0  0
   -0.4950    2.0563    0.7814 C   0  0  0  0  0  0  0  0  0  0  0  0
   -1.0363    2.9882    0.1985 O   0  0  0  0  0  0  0  0  0  0  0  0
   -0.0640    2.2278    2.0837 N   0  0  0  0  0  0  0  0  0  0  0  0
    0.2859    1.4062    2.5701 H   0  0  0  0  0  0  0  0  0  0  0  0
   -0.2272    3.4720    2.8253 C   0  0  0  0  0  0  0  0  0  0  0  0
   -1.2876    3.7324    2.9091 H   0  0  0  0  0  0  0  0  0  0  0  0
    0.1846    3.3675    3.8338 H   0  0  0  0  0  0  0  0  0  0  0  0
    0.2984    4.2898    2.3209 H   0  0  0  0  0  0  0  0  0  0  0  0
  1  2  1  0  0  0  0
  2  3  1  0  0  0  0
  2  4  1  0  0  0  0
  2  5  1  0  0  0  0
  5  6  2  0  0  0  0
  5  7  1  0  0  0  0
  7  8  1  0  0  0  0
  7  9  1  0  0  0  0
  9 10  1  0  0  0  0
  9 11  1  0  0  0  0
  9 24  1  0  0  0  0
 11 12  1  0  0  0  0
 11 13  1  0  0  0  0
 11 14  1  0  0  0  0
 14 15  1  0  0  0  0
 14 16  1  0  0  0  0
 14 20  1  0  0  0  0
 16 17  1  0  0  0  0
 16 18  1  0  0  0  0
 16 19  1  0  0  0  0
 20 21  1  0  0  0  0
 20 22  1  0  0  0  0
 20 23  1  0  0  0  0
 24 25  2  0  0  0  0
 24 26  1  0  0  0  0
 26 27  1  0  0  0  0
 26 28  1  0  0  0  0
 28 29  1  0  0  0  0
 28 30  1  0  0  0  0
 28 31  1  0  0  0  0
M  END
$$$$

  -OEChem-01062216083D

 31 30  0     1  0  0  0  0  0999 V2000
   -3.4498   -2.7074    1.0207 H   0  0  0  0  0  0  0  0  0  0  0  0
   -3.3787   -1.7478    0.5009 C   0  0  0  0  0  0  0  0  0  0  0  0
   -4.0704   -1.0422    0.9674 H   0  0  0  0  0  0  0  0  0  0  0  0
   -3.6643   -1.8911   -0.5440 H   0  0  0  0  0  0  0  0  0  0  0  0
   -1.9613   -1.2136    0.5812 C   0  0  0  0  0  0  0  0  0  0  0  0
   -1.1019   -1.8534    1.1668 O   0  0  0  0  0  0  0  0  0  0  0  0
   -1.6563    0.0002    0.0011 N   0  0  0  0  0  0  0  0  0  0  0  0
   -2.4297    0.5439   -0.3759 H   0  0  0  0  0  0  0  0  0  0  0  0
   -0.3475    0.6644    0.0878 C   0  0  1  0  0  0  0  0  0  0  0  0
    0.3477    0.0820    0.6983 H   0  0  0  0  0  0  0  0  0  0  0  0
    0.2369    0.8298   -1.3289 C   0  0  0  0  0  0  0  0  0  0  0  0
   -0.4862    1.3774   -1.9434 H   0  0  0  0  0  0  0  0  0  0  0  0
    1.1422    1.4434   -1.2691 H   0  0  0  0  0  0  0  0  0  0  0  0
    0.5855   -0.5037   -2.0260 C   0  0  0  0  0  0  0  0  0  0  0  0
   -0.3043   -1.1413   -2.0527 H   0  0  0  0  0  0  0  0  0  0  0  0
    1.0128   -0.2200   -3.4706 C   0  0  0  0  0  0  0  0  0  0  0  0
    1.9086    0.4089   -3.4924 H   0  0  0  0  0  0  0  0  0  0  0  0
    1.2320   -1.1558   -3.9942 H   0  0  0  0  0  0  0  0  0  0  0  0
    0.2129    0.2948   -4.0120 H   0  0  0  0  0  0  0  0  0  0  0  0
    1.7087   -1.2629   -1.3052 C   0  0  0  0  0  0  0  0  0  0  0  0
    1.3777   -1.6069   -0.3213 H   0  0  0  0  0  0  0  0  0  0  0  0
    2.0023   -2.1447   -1.8833 H   0  0  0  0  0  0  0  0  0  0  0  0
    2.5879   -0.6240   -1.1770 H   0  0  0  0  0  0  0  0  0  0  0  0
   -0.4976    2.0416    0.7621 C   0  0  0  0  0  0  0  0  0  0  0  0
   -1.2601    2.8762    0.2884 O   0  0  0  0  0  0  0  0  0  0  0  0
    0.1805    2.3254    1.9329 N   0  0  0  0  0  0  0  0  0  0  0  0
    0.7290    1.5775    2.3489 H   0  0  0  0  0  0  0  0  0  0  0  0
    0.0305    3.5796    2.6603 C   0  0  0  0  0  0  0  0  0  0  0  0
   -1.0057    3.7108    2.9893 H   0  0  0  0  0  0  0  0  0  0  0  0
    0.6774    3.5848    3.5428 H   0  0  0  0  0  0  0  0  0  0  0  0
    0.3084    4.4268    2.0244 H   0  0  0  0  0  0  0  0  0  0  0  0
  1  2  1  0  0  0  0
  2  3  1  0  0  0  0
  2  4  1  0  0  0  0
  2  5  1  0  0  0  0
  5  6  2  0  0  0  0
  5  7  1  0  0  0  0
  7  8  1  0  0  0  0
  7  9  1  0  0  0  0
  9 10  1  0  0  0  0
  9 11  1  0  0  0  0
  9 24  1  0  0  0  0
 11 12  1  0  0  0  0
 11 13  1  0  0  0  0
 11 14  1  0  0  0  0
 14 15  1  0  0  0  0
 14 16  1  0  0  0  0
 14 20  1  0  0  0  0
 16 17  1  0  0  0  0
 16 18  1  0  0  0  0
 16 19  1  0  0  0  0
 20 21  1  0  0  0  0
 20 22  1  0  0  0  0
 20 23  1  0  0  0  0
 24 25  2  0  0  0  0
 24 26  1  0  0  0  0
 26 27  1  0  0  0  0
 26 28  1  0  0  0  0
 28 29  1  0  0  0  0
 28 30  1  0  0  0  0
 28 31  1  0  0  0  0
M  END
$$$$

  -OEChem-01062216083D

 31 30  0     1  0  0  0  0  0999 V2000
   -3.4676   -2.6894    1.0605 H   0  0  0  0  0  0  0  0  0  0  0  0
   -3.3966   -1.7331    0.5349 C   0  0  0  0  0  0  0  0  0  0  0  0
   -4.0563   -1.0124    1.0242 H   0  0  0  0  0  0  0  0  0  0  0  0
   -3.7234   -1.8734   -0.4982 H   0  0  0  0  0  0  0  0  0  0  0  0
   -1.9667   -1.2273    0.5603 C   0  0  0  0  0  0  0  0  0  0  0  0
   -1.0964   -1.8914    1.1011 O   0  0  0  0  0  0  0  0  0  0  0  0
   -1.6626   -0.0140   -0.0214 N   0  0  0  0  0  0  0  0  0  0  0  0
   -2.4470    0.5589   -0.3270 H   0  0  0  0  0  0  0  0  0  0  0  0
   -0.3560    0.6543    0.0774 C   0  0  1  0  0  0  0  0  0  0  0  0
    0.3327    0.0732    0.6964 H   0  0  0  0  0  0  0  0  0  0  0  0
    0.2387    0.8265   -1.3335 C   0  0  0  0  0  0  0  0  0  0  0  0
   -0.4825    1.3736   -1.9506 H   0  0  0  0  0  0  0  0  0  0  0  0
    1.1414    1.4431   -1.2657 H   0  0  0  0  0  0  0  0  0  0  0  0
    0.5972   -0.5033   -2.0322 C   0  0  0  0  0  0  0  0  0  0  0  0
   -0.2894   -1.1451   -2.0668 H   0  0  0  0  0  0  0  0  0  0  0  0
    1.0348   -0.2138   -3.4727 C   0  0  0  0  0  0  0  0  0  0  0  0
    1.9263    0.4212   -3.4862 H   0  0  0  0  0  0  0  0  0  0  0  0
    1.2643   -1.1470   -3.9964 H   0  0  0  0  0  0  0  0  0  0  0  0
    0.2357    0.2964   -4.0197 H   0  0  0  0  0  0  0  0  0  0  0  0
    1.7191   -1.2584   -1.3051 C   0  0  0  0  0  0  0  0  0  0  0  0
    1.3850   -1.6019   -0.3222 H   0  0  0  0  0  0  0  0  0  0  0  0
    2.0175   -2.1402   -1.8805 H   0  0  0  0  0  0  0  0  0  0  0  0
    2.5959   -0.6168   -1.1740 H   0  0  0  0  0  0  0  0  0  0  0  0
   -0.5106    2.0342    0.7454 C   0  0  0  0  0  0  0  0  0  0  0  0
   -1.4347    2.7710    0.4188 O   0  0  0  0  0  0  0  0  0  0  0  0
    0.3710    2.4411    1.7297 N   0  0  0  0  0  0  0  0  0  0  0  0
    1.0824    1.7788    2.0261 H   0  0  0  0  0  0  0  0  0  0  0  0
    0.2553    3.7138    2.4310 C   0  0  0  0  0  0  0  0  0  0  0  0
   -0.6929    3.7663    2.9761 H   0  0  0  0  0  0  0  0  0  0  0  0
    1.0738    3.8262    3.1483 H   0  0  0  0  0  0  0  0  0  0  0  0
    0.3013    4.5473    1.7222 H   0  0  0  0  0  0  0  0  0  0  0  0
  1  2  1  0  0  0  0
  2  3  1  0  0  0  0
  2  4  1  0  0  0  0
  2  5  1  0  0  0  0
  5  6  2  0  0  0  0
  5  7  1  0  0  0  0
  7  8  1  0  0  0  0
  7  9  1  0  0  0  0
  9 10  1  0  0  0  0
  9 11  1  0  0  0  0
  9 24  1  0  0  0  0
 11 12  1  0  0  0  0
 11 13  1  0  0  0  0
 11 14  1  0  0  0  0
 14 15  1  0  0  0  0
 14 16  1  0  0  0  0
 14 20  1  0  0  0  0
 16 17  1  0  0  0  0
 16 18  1  0  0  0  0
 16 19  1  0  0  0  0
 20 21  1  0  0  0  0
 20 22  1  0  0  0  0
 20 23  1  0  0  0  0
 24 25  2  0  0  0  0
 24 26  1  0  0  0  0
 26 27  1  0  0  0  0
 26 28  1  0  0  0  0
 28 29  1  0  0  0  0
 28 30  1  0  0  0  0
 28 31  1  0  0  0  0
M  END
$$$$

  -OEChem-01062216083D

 31 30  0     1  0  0  0  0  0999 V2000
   -3.4757   -2.6775    1.0894 H   0  0  0  0  0  0  0  0  0  0  0  0
   -3.4070   -1.7240    0.5585 C   0  0  0  0  0  0  0  0  0  0  0  0
   -4.0420   -0.9929    1.0646 H   0  0  0  0  0  0  0  0  0  0  0  0
   -3.7662   -1.8628   -0.4640 H   0  0  0  0  0  0  0  0  0  0  0  0
   -1.9703   -1.2374    0.5401 C   0  0  0  0  0  0  0  0  0  0  0  0
   -1.0915   -1.9188    1.0446 O   0  0  0  0  0  0  0  0  0  0  0  0
   -1.6711   -0.0236   -0.0431 N   0  0  0  0  0  0  0  0  0  0  0  0
   -2.4639    0.5688   -0.2844 H   0  0  0  0  0  0  0  0  0  0  0  0
   -0.3678    0.6499    0.0687 C   0  0  1  0  0  0  0  0  0  0  0  0
    0.3161    0.0727    0.6968 H   0  0  0  0  0  0  0  0  0  0  0  0
    0.2363    0.8247   -1.3379 C   0  0  0  0  0  0  0  0  0  0  0  0
   -0.4835    1.3688   -1.9593 H   0  0  0  0  0  0  0  0  0  0  0  0
    1.1364    1.4442   -1.2651 H   0  0  0  0  0  0  0  0  0  0  0  0
    0.6051   -0.5029   -2.0348 C   0  0  0  0  0  0  0  0  0  0  0  0
   -0.2779   -1.1494   -2.0749 H   0  0  0  0  0  0  0  0  0  0  0  0
    1.0516   -0.2112   -3.4721 C   0  0  0  0  0  0  0  0  0  0  0  0
    1.9412    0.4269   -3.4795 H   0  0  0  0  0  0  0  0  0  0  0  0
    1.2877   -1.1435   -3.9947 H   0  0  0  0  0  0  0  0  0  0  0  0
    0.2545    0.2963   -4.0242 H   0  0  0  0  0  0  0  0  0  0  0  0
    1.7275   -1.2511   -1.3012 C   0  0  0  0  0  0  0  0  0  0  0  0
    1.3915   -1.5937   -0.3187 H   0  0  0  0  0  0  0  0  0  0  0  0
    2.0323   -2.1331   -1.8732 H   0  0  0  0  0  0  0  0  0  0  0  0
    2.6009   -0.6050   -1.1684 H   0  0  0  0  0  0  0  0  0  0  0  0
   -0.5275    2.0323    0.7322 C   0  0  0  0  0  0  0  0  0  0  0  0
   -1.5653    2.6691    0.5845 O   0  0  0  0  0  0  0  0  0  0  0  0
    0.4999    2.5691    1.4860 N   0  0  0  0  0  0  0  0  0  0  0  0
    1.3260    1.9956    1.6317 H   0  0  0  0  0  0  0  0  0  0  0  0
    0.4113    3.8620    2.1534 C   0  0  0  0  0  0  0  0  0  0  0  0
   -0.3962    3.8566    2.8930 H   0  0  0  0  0  0  0  0  0  0  0  0
    1.3506    4.0875    2.6676 H   0  0  0  0  0  0  0  0  0  0  0  0
    0.2174    4.6565    1.4249 H   0  0  0  0  0  0  0  0  0  0  0  0
  1  2  1  0  0  0  0
  2  3  1  0  0  0  0
  2  4  1  0  0  0  0
  2  5  1  0  0  0  0
  5  6  2  0  0  0  0
  5  7  1  0  0  0  0
  7  8  1  0  0  0  0
  7  9  1  0  0  0  0
  9 10  1  0  0  0  0
  9 11  1  0  0  0  0
  9 24  1  0  0  0  0
 11 12  1  0  0  0  0
 11 13  1  0  0  0  0
 11 14  1  0  0  0  0
 14 15  1  0  0  0  0
 14 16  1  0  0  0  0
 14 20  1  0  0  0  0
 16 17  1  0  0  0  0
 16 18  1  0  0  0  0
 16 19  1  0  0  0  0
 20 21  1  0  0  0  0
 20 22  1  0  0  0  0
 20 23  1  0  0  0  0
 24 25  2  0  0  0  0
 24 26  1  0  0  0  0
 26 27  1  0  0  0  0
 26 28  1  0  0  0  0
 28 29  1  0  0  0  0
 28 30  1  0  0  0  0
 28 31  1  0  0  0  0
M  END
$$$$

  -OEChem-01062216083D

 31 30  0     1  0  0  0  0  0999 V2000
   -3.4714   -2.6730    1.1011 H   0  0  0  0  0  0  0  0  0  0  0  0
   -3.4083   -1.7212    0.5664 C   0  0  0  0  0  0  0  0  0  0  0  0
   -4.0299   -0.9854    1.0825 H   0  0  0  0  0  0  0  0  0  0  0  0
   -3.7876   -1.8606   -0.4489 H   0  0  0  0  0  0  0  0  0  0  0  0
   -1.9698   -1.2419    0.5201 C   0  0  0  0  0  0  0  0  0  0  0  0
   -1.0837   -1.9346    0.9955 O   0  0  0  0  0  0  0  0  0  0  0  0
   -1.6774   -0.0255   -0.0617 N   0  0  0  0  0  0  0  0  0  0  0  0
   -2.4761    0.5770   -0.2539 H   0  0  0  0  0  0  0  0  0  0  0  0
   -0.3773    0.6533    0.0625 C   0  0  1  0  0  0  0  0  0  0  0  0
    0.3043    0.0794    0.6965 H   0  0  0  0  0  0  0  0  0  0  0  0
    0.2314    0.8240   -1.3439 C   0  0  0  0  0  0  0  0  0  0  0  0
   -0.4888    1.3627   -1.9696 H   0  0  0  0  0  0  0  0  0  0  0  0
    1.1298    1.4461   -1.2738 H   0  0  0  0  0  0  0  0  0  0  0  0
    0.6069   -0.5052   -2.0343 C   0  0  0  0  0  0  0  0  0  0  0  0
   -0.2730   -1.1558   -2.0736 H   0  0  0  0  0  0  0  0  0  0  0  0
    1.0569   -0.2181   -3.4715 C   0  0  0  0  0  0  0  0  0  0  0  0
    1.9432    0.4242   -3.4792 H   0  0  0  0  0  0  0  0  0  0  0  0
    1.2999   -1.1518   -3.9885 H   0  0  0  0  0  0  0  0  0  0  0  0
    0.2588    0.2827   -4.0287 H   0  0  0  0  0  0  0  0  0  0  0  0
    1.7313   -1.2439   -1.2940 C   0  0  0  0  0  0  0  0  0  0  0  0
    1.3956   -1.5804   -0.3093 H   0  0  0  0  0  0  0  0  0  0  0  0
    2.0399   -2.1288   -1.8591 H   0  0  0  0  0  0  0  0  0  0  0  0
    2.6024   -0.5941   -1.1648 H   0  0  0  0  0  0  0  0  0  0  0  0
   -0.5409    2.0370    0.7263 C   0  0  0  0  0  0  0  0  0  0  0  0
   -1.6436    2.5721    0.7792 O   0  0  0  0  0  0  0  0  0  0  0  0
    0.5627    2.7088    1.2202 N   0  0  0  0  0  0  0  0  0  0  0  0
    1.4569    2.2273    1.1938 H   0  0  0  0  0  0  0  0  0  0  0  0
    0.4851    4.0191    1.8542 C   0  0  0  0  0  0  0  0  0  0  0  0
   -0.1363    3.9724    2.7546 H   0  0  0  0  0  0  0  0  0  0  0  0
    1.4844    4.3609    2.1404 H   0  0  0  0  0  0  0  0  0  0  0  0
    0.0536    4.7530    1.1655 H   0  0  0  0  0  0  0  0  0  0  0  0
  1  2  1  0  0  0  0
  2  3  1  0  0  0  0
  2  4  1  0  0  0  0
  2  5  1  0  0  0  0
  5  6  2  0  0  0  0
  5  7  1  0  0  0  0
  7  8  1  0  0  0  0
  7  9  1  0  0  0  0
  9 10  1  0  0  0  0
  9 11  1  0  0  0  0
  9 24  1  0  0  0  0
 11 12  1  0  0  0  0
 11 13  1  0  0  0  0
 11 14  1  0  0  0  0
 14 15  1  0  0  0  0
 14 16  1  0  0  0  0
 14 20  1  0  0  0  0
 16 17  1  0  0  0  0
 16 18  1  0  0  0  0
 16 19  1  0  0  0  0
 20 21  1  0  0  0  0
 20 22  1  0  0  0  0
 20 23  1  0  0  0  0
 24 25  2  0  0  0  0
 24 26  1  0  0  0  0
 26 27  1  0  0  0  0
 26 28  1  0  0  0  0
 28 29  1  0  0  0  0
 28 30  1  0  0  0  0
 28 31  1  0  0  0  0
M  END
$$$$

  -OEChem-01062216083D

 31 30  0     1  0  0  0  0  0999 V2000
   -3.4196   -2.6560    1.1629 H   0  0  0  0  0  0  0  0  0  0  0  0
   -3.3843   -1.7044    0.6253 C   0  0  0  0  0  0  0  0  0  0  0  0
   -3.9539   -0.9615    1.1892 H   0  0  0  0  0  0  0  0  0  0  0  0
   -3.8424   -1.8367   -0.3578 H   0  0  0  0  0  0  0  0  0  0  0  0
   -1.9469   -1.2452    0.4693 C   0  0  0  0  0  0  0  0  0  0  0  0
   -1.0360   -1.9636    0.8516 O   0  0  0  0  0  0  0  0  0  0  0  0
   -1.6846   -0.0201   -0.1097 N   0  0  0  0  0  0  0  0  0  0  0  0
   -2.4949    0.5896   -0.1943 H   0  0  0  0  0  0  0  0  0  0  0  0
   -0.3866    0.6622    0.0299 C   0  0  1  0  0  0  0  0  0  0  0  0
    0.3760   -0.0139    0.4263 H   0  0  0  0  0  0  0  0  0  0  0  0
    0.0441    1.1636   -1.3642 C   0  0  0  0  0  0  0  0  0  0  0  0
   -0.7526    1.7992   -1.7661 H   0  0  0  0  0  0  0  0  0  0  0  0
    0.9385    1.7869   -1.2669 H   0  0  0  0  0  0  0  0  0  0  0  0
    0.3472    0.0311   -2.3695 C   0  0  0  0  0  0  0  0  0  0  0  0
   -0.5263   -0.6245   -2.4512 H   0  0  0  0  0  0  0  0  0  0  0  0
    0.6161    0.6410   -3.7499 C   0  0  0  0  0  0  0  0  0  0  0  0
    1.4931    1.2956   -3.7201 H   0  0  0  0  0  0  0  0  0  0  0  0
    0.7964   -0.1482   -4.4865 H   0  0  0  0  0  0  0  0  0  0  0  0
   -0.2454    1.2281   -4.0831 H   0  0  0  0  0  0  0  0  0  0  0  0
    1.5552   -0.8164   -1.9454 C   0  0  0  0  0  0  0  0  0  0  0  0
    1.3337   -1.3833   -1.0366 H   0  0  0  0  0  0  0  0  0  0  0  0
    1.8090   -1.5351   -2.7308 H   0  0  0  0  0  0  0  0  0  0  0  0
    2.4278   -0.1823   -1.7609 H   0  0  0  0  0  0  0  0  0  0  0  0
   -0.4819    1.8452    1.0212 C   0  0  0  0  0  0  0  0  0  0  0  0
   -1.5642    2.1724    1.4969 O   0  0  0  0  0  0  0  0  0  0  0  0
    0.6309    2.6197    1.2978 N   0  0  0  0  0  0  0  0  0  0  0  0
    1.5219    2.3128    0.9187 H   0  0  0  0  0  0  0  0  0  0  0  0
    0.6063    3.7637    2.2011 C   0  0  0  0  0  0  0  0  0  0  0  0
    0.3247    3.4475    3.2109 H   0  0  0  0  0  0  0  0  0  0  0  0
    1.5946    4.2311    2.2470 H   0  0  0  0  0  0  0  0  0  0  0  0
   -0.1129    4.5122    1.8521 H   0  0  0  0  0  0  0  0  0  0  0  0
  1  2  1  0  0  0  0
  2  3  1  0  0  0  0
  2  4  1  0  0  0  0
  2  5  1  0  0  0  0
  5  6  2  0  0  0  0
  5  7  1  0  0  0  0
  7  8  1  0  0  0  0
  7  9  1  0  0  0  0
  9 10  1  0  0  0  0
  9 11  1  0  0  0  0
  9 24  1  0  0  0  0
 11 12  1  0  0  0  0
 11 13  1  0  0  0  0
 11 14  1  0  0  0  0
 14 15  1  0  0  0  0
 14 16  1  0  0  0  0
 14 20  1  0  0  0  0
 16 17  1  0  0  0  0
 16 18  1  0  0  0  0
 16 19  1  0  0  0  0
 20 21  1  0  0  0  0
 20 22  1  0  0  0  0
 20 23  1  0  0  0  0
 24 25  2  0  0  0  0
 24 26  1  0  0  0  0
 26 27  1  0  0  0  0
 26 28  1  0  0  0  0
 28 29  1  0  0  0  0
 28 30  1  0  0  0  0
 28 31  1  0  0  0  0
M  END
$$$$

  -OEChem-01062216083D

 31 30  0     1  0  0  0  0  0999 V2000
   -3.4019   -2.6618    1.1304 H   0  0  0  0  0  0  0  0  0  0  0  0
   -3.3752   -1.6825    0.6444 C   0  0  0  0  0  0  0  0  0  0  0  0
   -3.9034   -0.9630    1.2750 H   0  0  0  0  0  0  0  0  0  0  0  0
   -3.8819   -1.7531   -0.3209 H   0  0  0  0  0  0  0  0  0  0  0  0
   -1.9391   -1.2364    0.4444 C   0  0  0  0  0  0  0  0  0  0  0  0
   -1.0235   -1.9718    0.7803 O   0  0  0  0  0  0  0  0  0  0  0  0
   -1.6851   -0.0064   -0.1285 N   0  0  0  0  0  0  0  0  0  0  0  0
   -2.4975    0.6034   -0.1817 H   0  0  0  0  0  0  0  0  0  0  0  0
   -0.3867    0.6752    0.0161 C   0  0  1  0  0  0  0  0  0  0  0  0
    0.3753    0.0004    0.4160 H   0  0  0  0  0  0  0  0  0  0  0  0
    0.0462    1.1616   -1.3845 C   0  0  0  0  0  0  0  0  0  0  0  0
   -0.7489    1.7940   -1.7941 H   0  0  0  0  0  0  0  0  0  0  0  0
    0.9435    1.7815   -1.2978 H   0  0  0  0  0  0  0  0  0  0  0  0
    0.3499    0.0173   -2.3772 C   0  0  0  0  0  0  0  0  0  0  0  0
   -0.5228   -0.6402   -2.4524 H   0  0  0  0  0  0  0  0  0  0  0  0
    0.6206    0.6117   -3.7642 C   0  0  0  0  0  0  0  0  0  0  0  0
    1.4889    1.2779   -3.7374 H   0  0  0  0  0  0  0  0  0  0  0  0
    0.8161   -0.1847   -4.4891 H   0  0  0  0  0  0  0  0  0  0  0  0
   -0.2465    1.1824   -4.1108 H   0  0  0  0  0  0  0  0  0  0  0  0
    1.5583   -0.8255   -1.9438 C   0  0  0  0  0  0  0  0  0  0  0  0
    1.3375   -1.3818   -1.0283 H   0  0  0  0  0  0  0  0  0  0  0  0
    1.8113   -1.5537   -2.7207 H   0  0  0  0  0  0  0  0  0  0  0  0
    2.4315   -0.1897   -1.7676 H   0  0  0  0  0  0  0  0  0  0  0  0
   -0.4887    1.8517    1.0190 C   0  0  0  0  0  0  0  0  0  0  0  0
   -1.5062    2.0114    1.6848 O   0  0  0  0  0  0  0  0  0  0  0  0
    0.5014    2.8164    1.0901 N   0  0  0  0  0  0  0  0  0  0  0  0
    1.3446    2.6639    0.5450 H   0  0  0  0  0  0  0  0  0  0  0  0
    0.4413    3.9648    1.9867 C   0  0  0  0  0  0  0  0  0  0  0  0
    0.3873    3.6348    3.0295 H   0  0  0  0  0  0  0  0  0  0  0  0
    1.3342    4.5857    1.8660 H   0  0  0  0  0  0  0  0  0  0  0  0
   -0.4381    4.5787    1.7655 H   0  0  0  0  0  0  0  0  0  0  0  0
  1  2  1  0  0  0  0
  2  3  1  0  0  0  0
  2  4  1  0  0  0  0
  2  5  1  0  0  0  0
  5  6  2  0  0  0  0
  5  7  1  0  0  0  0
  7  8  1  0  0  0  0
  7  9  1  0  0  0  0
  9 10  1  0  0  0  0
  9 11  1  0  0  0  0
  9 24  1  0  0  0  0
 11 12  1  0  0  0  0
 11 13  1  0  0  0  0
 11 14  1  0  0  0  0
 14 15  1  0  0  0  0
 14 16  1  0  0  0  0
 14 20  1  0  0  0  0
 16 17  1  0  0  0  0
 16 18  1  0  0  0  0
 16 19  1  0  0  0  0
 20 21  1  0  0  0  0
 20 22  1  0  0  0  0
 20 23  1  0  0  0  0
 24 25  2  0  0  0  0
 24 26  1  0  0  0  0
 26 27  1  0  0  0  0
 26 28  1  0  0  0  0
 28 29  1  0  0  0  0
 28 30  1  0  0  0  0
 28 31  1  0  0  0  0
M  END
$$$$

  -OEChem-01062216083D

 31 30  0     1  0  0  0  0  0999 V2000
   -3.3872   -2.6602    1.1159 H   0  0  0  0  0  0  0  0  0  0  0  0
   -3.3664   -1.6678    0.6570 C   0  0  0  0  0  0  0  0  0  0  0  0
   -3.8720   -0.9627    1.3215 H   0  0  0  0  0  0  0  0  0  0  0  0
   -3.8992   -1.7082   -0.2959 H   0  0  0  0  0  0  0  0  0  0  0  0
   -1.9327   -1.2259    0.4326 C   0  0  0  0  0  0  0  0  0  0  0  0
   -1.0144   -1.9707    0.7391 O   0  0  0  0  0  0  0  0  0  0  0  0
   -1.6852    0.0074   -0.1370 N   0  0  0  0  0  0  0  0  0  0  0  0
   -2.4996    0.6140   -0.1815 H   0  0  0  0  0  0  0  0  0  0  0  0
   -0.3848    0.6870    0.0039 C   0  0  1  0  0  0  0  0  0  0  0  0
    0.3769    0.0129    0.4053 H   0  0  0  0  0  0  0  0  0  0  0  0
    0.0513    1.1614   -1.4010 C   0  0  0  0  0  0  0  0  0  0  0  0
   -0.7387    1.7961   -1.8166 H   0  0  0  0  0  0  0  0  0  0  0  0
    0.9547    1.7728   -1.3179 H   0  0  0  0  0  0  0  0  0  0  0  0
    0.3523    0.0074   -2.3837 C   0  0  0  0  0  0  0  0  0  0  0  0
   -0.5231   -0.6467   -2.4546 H   0  0  0  0  0  0  0  0  0  0  0  0
    0.6266    0.5877   -3.7761 C   0  0  0  0  0  0  0  0  0  0  0  0
    1.5009    1.2461   -3.7566 H   0  0  0  0  0  0  0  0  0  0  0  0
    0.8137   -0.2169   -4.4944 H   0  0  0  0  0  0  0  0  0  0  0  0
   -0.2358    1.1631   -4.1271 H   0  0  0  0  0  0  0  0  0  0  0  0
    1.5557   -0.8374   -1.9409 C   0  0  0  0  0  0  0  0  0  0  0  0
    1.3268   -1.3909   -1.0258 H   0  0  0  0  0  0  0  0  0  0  0  0
    1.8118   -1.5682   -2.7143 H   0  0  0  0  0  0  0  0  0  0  0  0
    2.4294   -0.2037   -1.7599 H   0  0  0  0  0  0  0  0  0  0  0  0
   -0.4899    1.8572    1.0163 C   0  0  0  0  0  0  0  0  0  0  0  0
   -1.3807    1.8624    1.8584 O   0  0  0  0  0  0  0  0  0  0  0  0
    0.3068    2.9847    0.9081 N   0  0  0  0  0  0  0  0  0  0  0  0
    1.0441    2.9736    0.2103 H   0  0  0  0  0  0  0  0  0  0  0  0
    0.1993    4.1338    1.7997 C   0  0  0  0  0  0  0  0  0  0  0  0
    0.3876    3.8337    2.8360 H   0  0  0  0  0  0  0  0  0  0  0  0
    0.9318    4.8977    1.5221 H   0  0  0  0  0  0  0  0  0  0  0  0
   -0.8007    4.5756    1.7369 H   0  0  0  0  0  0  0  0  0  0  0  0
  1  2  1  0  0  0  0
  2  3  1  0  0  0  0
  2  4  1  0  0  0  0
  2  5  1  0  0  0  0
  5  6  2  0  0  0  0
  5  7  1  0  0  0  0
  7  8  1  0  0  0  0
  7  9  1  0  0  0  0
  9 10  1  0  0  0  0
  9 11  1  0  0  0  0
  9 24  1  0  0  0  0
 11 12  1  0  0  0  0
 11 13  1  0  0  0  0
 11 14  1  0  0  0  0
 14 15  1  0  0  0  0
 14 16  1  0  0  0  0
 14 20  1  0  0  0  0
 16 17  1  0  0  0  0
 16 18  1  0  0  0  0
 16 19  1  0  0  0  0
 20 21  1  0  0  0  0
 20 22  1  0  0  0  0
 20 23  1  0  0  0  0
 24 25  2  0  0  0  0
 24 26  1  0  0  0  0
 26 27  1  0  0  0  0
 26 28  1  0  0  0  0
 28 29  1  0  0  0  0
 28 30  1  0  0  0  0
 28 31  1  0  0  0  0
M  END
$$$$

  -OEChem-01062216083D

 31 30  0     1  0  0  0  0  0999 V2000
   -3.3819   -2.6390    1.1575 H   0  0  0  0  0  0  0  0  0  0  0  0
   -3.3666   -1.6648    0.6610 C   0  0  0  0  0  0  0  0  0  0  0  0
   -3.8844   -0.9403    1.2944 H   0  0  0  0  0  0  0  0  0  0  0  0
   -3.8909   -1.7467   -0.2939 H   0  0  0  0  0  0  0  0  0  0  0  0
   -1.9350   -1.2187    0.4311 C   0  0  0  0  0  0  0  0  0  0  0  0
   -1.0148   -1.9687    0.7177 O   0  0  0  0  0  0  0  0  0  0  0  0
   -1.6924    0.0162   -0.1382 N   0  0  0  0  0  0  0  0  0  0  0  0
   -2.5095    0.6171   -0.1952 H   0  0  0  0  0  0  0  0  0  0  0  0
   -0.3919    0.6970   -0.0051 C   0  0  1  0  0  0  0  0  0  0  0  0
    0.3694    0.0242    0.3999 H   0  0  0  0  0  0  0  0  0  0  0  0
    0.0508    1.1611   -1.4108 C   0  0  0  0  0  0  0  0  0  0  0  0
   -0.7353    1.7950   -1.8349 H   0  0  0  0  0  0  0  0  0  0  0  0
    0.9570    1.7687   -1.3240 H   0  0  0  0  0  0  0  0  0  0  0  0
    0.3553    0.0013   -2.3851 C   0  0  0  0  0  0  0  0  0  0  0  0
   -0.5192   -0.6545   -2.4554 H   0  0  0  0  0  0  0  0  0  0  0  0
    0.6357    0.5765   -3.7780 C   0  0  0  0  0  0  0  0  0  0  0  0
    1.5073    1.2384   -3.7547 H   0  0  0  0  0  0  0  0  0  0  0  0
    0.8310   -0.2302   -4.4915 H   0  0  0  0  0  0  0  0  0  0  0  0
   -0.2266    1.1472   -4.1363 H   0  0  0  0  0  0  0  0  0  0  0  0
    1.5590   -0.8390   -1.9342 C   0  0  0  0  0  0  0  0  0  0  0  0
    1.3312   -1.3842   -1.0138 H   0  0  0  0  0  0  0  0  0  0  0  0
    1.8158   -1.5766   -2.7008 H   0  0  0  0  0  0  0  0  0  0  0  0
    2.4321   -0.2028   -1.7591 H   0  0  0  0  0  0  0  0  0  0  0  0
   -0.4980    1.8637    1.0104 C   0  0  0  0  0  0  0  0  0  0  0  0
   -1.1982    1.7413    2.0079 O   0  0  0  0  0  0  0  0  0  0  0  0
    0.0493    3.1099    0.7528 N   0  0  0  0  0  0  0  0  0  0  0  0
    0.6108    3.2121   -0.0867 H   0  0  0  0  0  0  0  0  0  0  0  0
   -0.0845    4.2502    1.6524 C   0  0  0  0  0  0  0  0  0  0  0  0
    0.3616    4.0238    2.6266 H   0  0  0  0  0  0  0  0  0  0  0  0
    0.4243    5.1240    1.2340 H   0  0  0  0  0  0  0  0  0  0  0  0
   -1.1401    4.5026    1.7983 H   0  0  0  0  0  0  0  0  0  0  0  0
  1  2  1  0  0  0  0
  2  3  1  0  0  0  0
  2  4  1  0  0  0  0
  2  5  1  0  0  0  0
  5  6  2  0  0  0  0
  5  7  1  0  0  0  0
  7  8  1  0  0  0  0
  7  9  1  0  0  0  0
  9 10  1  0  0  0  0
  9 11  1  0  0  0  0
  9 24  1  0  0  0  0
 11 12  1  0  0  0  0
 11 13  1  0  0  0  0
 11 14  1  0  0  0  0
 14 15  1  0  0  0  0
 14 16  1  0  0  0  0
 14 20  1  0  0  0  0
 16 17  1  0  0  0  0
 16 18  1  0  0  0  0
 16 19  1  0  0  0  0
 20 21  1  0  0  0  0
 20 22  1  0  0  0  0
 20 23  1  0  0  0  0
 24 25  2  0  0  0  0
 24 26  1  0  0  0  0
 26 27  1  0  0  0  0
 26 28  1  0  0  0  0
 28 29  1  0  0  0  0
 28 30  1  0  0  0  0
 28 31  1  0  0  0  0
M  END
$$$$

  -OEChem-01062216083D

 31 30  0     1  0  0  0  0  0999 V2000
   -3.3796   -2.6622    1.1185 H   0  0  0  0  0  0  0  0  0  0  0  0
   -3.3654   -1.6708    0.6573 C   0  0  0  0  0  0  0  0  0  0  0  0
   -3.8815   -0.9694    1.3174 H   0  0  0  0  0  0  0  0  0  0  0  0
   -3.8915   -1.7187   -0.2989 H   0  0  0  0  0  0  0  0  0  0  0  0
   -1.9345   -1.2167    0.4399 C   0  0  0  0  0  0  0  0  0  0  0  0
   -1.0134   -1.9634    0.7307 O   0  0  0  0  0  0  0  0  0  0  0  0
   -1.6948    0.0189   -0.1300 N   0  0  0  0  0  0  0  0  0  0  0  0
   -2.5155    0.6105   -0.2173 H   0  0  0  0  0  0  0  0  0  0  0  0
   -0.3956    0.7032   -0.0050 C   0  0  1  0  0  0  0  0  0  0  0  0
    0.3675    0.0327    0.4006 H   0  0  0  0  0  0  0  0  0  0  0  0
    0.0492    1.1650   -1.4106 C   0  0  0  0  0  0  0  0  0  0  0  0
   -0.7379    1.7935   -1.8405 H   0  0  0  0  0  0  0  0  0  0  0  0
    0.9520    1.7776   -1.3182 H   0  0  0  0  0  0  0  0  0  0  0  0
    0.3575    0.0033   -2.3817 C   0  0  0  0  0  0  0  0  0  0  0  0
   -0.5171   -0.6524   -2.4520 H   0  0  0  0  0  0  0  0  0  0  0  0
    0.6405    0.5730   -3.7768 C   0  0  0  0  0  0  0  0  0  0  0  0
    1.5163    1.2292   -3.7564 H   0  0  0  0  0  0  0  0  0  0  0  0
    0.8304   -0.2370   -4.4882 H   0  0  0  0  0  0  0  0  0  0  0  0
   -0.2180    1.1483   -4.1369 H   0  0  0  0  0  0  0  0  0  0  0  0
    1.5588   -0.8361   -1.9236 C   0  0  0  0  0  0  0  0  0  0  0  0
    1.3252   -1.3811   -1.0045 H   0  0  0  0  0  0  0  0  0  0  0  0
    1.8207   -1.5737   -2.6884 H   0  0  0  0  0  0  0  0  0  0  0  0
    2.4304   -0.1996   -1.7428 H   0  0  0  0  0  0  0  0  0  0  0  0
   -0.4999    1.8685    1.0097 C   0  0  0  0  0  0  0  0  0  0  0  0
   -0.9675    1.6649    2.1220 O   0  0  0  0  0  0  0  0  0  0  0  0
   -0.2409    3.1794    0.6443 N   0  0  0  0  0  0  0  0  0  0  0  0
    0.1204    3.3444   -0.2900 H   0  0  0  0  0  0  0  0  0  0  0  0
   -0.4111    4.3141    1.5444 C   0  0  0  0  0  0  0  0  0  0  0  0
    0.2324    4.2055    2.4239 H   0  0  0  0  0  0  0  0  0  0  0  0
   -0.1453    5.2449    1.0344 H   0  0  0  0  0  0  0  0  0  0  0  0
   -1.4521    4.3877    1.8763 H   0  0  0  0  0  0  0  0  0  0  0  0
  1  2  1  0  0  0  0
  2  3  1  0  0  0  0
  2  4  1  0  0  0  0
  2  5  1  0  0  0  0
  5  6  2  0  0  0  0
  5  7  1  0  0  0  0
  7  8  1  0  0  0  0
  7  9  1  0  0  0  0
  9 10  1  0  0  0  0
  9 11  1  0  0  0  0
  9 24  1  0  0  0  0
 11 12  1  0  0  0  0
 11 13  1  0  0  0  0
 11 14  1  0  0  0  0
 14 15  1  0  0  0  0
 14 16  1  0  0  0  0
 14 20  1  0  0  0  0
 16 17  1  0  0  0  0
 16 18  1  0  0  0  0
 16 19  1  0  0  0  0
 20 21  1  0  0  0  0
 20 22  1  0  0  0  0
 20 23  1  0  0  0  0
 24 25  2  0  0  0  0
 24 26  1  0  0  0  0
 26 27  1  0  0  0  0
 26 28  1  0  0  0  0
 28 29  1  0  0  0  0
 28 30  1  0  0  0  0
 28 31  1  0  0  0  0
M  END
$$$$

  -OEChem-01062216083D

 31 30  0     1  0  0  0  0  0999 V2000
   -3.3817   -2.6790    1.1121 H   0  0  0  0  0  0  0  0  0  0  0  0
   -3.3700   -1.6947    0.6358 C   0  0  0  0  0  0  0  0  0  0  0  0
   -3.9168   -0.9924    1.2695 H   0  0  0  0  0  0  0  0  0  0  0  0
   -3.8669   -1.7661   -0.3344 H   0  0  0  0  0  0  0  0  0  0  0  0
   -1.9404   -1.2212    0.4528 C   0  0  0  0  0  0  0  0  0  0  0  0
   -1.0178   -1.9563    0.7658 O   0  0  0  0  0  0  0  0  0  0  0  0
   -1.7027    0.0144   -0.1185 N   0  0  0  0  0  0  0  0  0  0  0  0
   -2.5268    0.5933   -0.2461 H   0  0  0  0  0  0  0  0  0  0  0  0
   -0.4078    0.7076    0.0014 C   0  0  1  0  0  0  0  0  0  0  0  0
    0.3584    0.0408    0.4078 H   0  0  0  0  0  0  0  0  0  0  0  0
    0.0375    1.1700   -1.4029 C   0  0  0  0  0  0  0  0  0  0  0  0
   -0.7542    1.7886   -1.8384 H   0  0  0  0  0  0  0  0  0  0  0  0
    0.9328    1.7935   -1.3055 H   0  0  0  0  0  0  0  0  0  0  0  0
    0.3555    0.0090   -2.3714 C   0  0  0  0  0  0  0  0  0  0  0  0
   -0.5147   -0.6520   -2.4432 H   0  0  0  0  0  0  0  0  0  0  0  0
    0.6385    0.5790   -3.7663 C   0  0  0  0  0  0  0  0  0  0  0  0
    1.5106    1.2403   -3.7441 H   0  0  0  0  0  0  0  0  0  0  0  0
    0.8348   -0.2305   -4.4764 H   0  0  0  0  0  0  0  0  0  0  0  0
   -0.2226    1.1489   -4.1289 H   0  0  0  0  0  0  0  0  0  0  0  0
    1.5612   -0.8225   -1.9100 C   0  0  0  0  0  0  0  0  0  0  0  0
    1.3287   -1.3700   -0.9920 H   0  0  0  0  0  0  0  0  0  0  0  0
    1.8310   -1.5577   -2.6744 H   0  0  0  0  0  0  0  0  0  0  0  0
    2.4276   -0.1799   -1.7260 H   0  0  0  0  0  0  0  0  0  0  0  0
   -0.5116    1.8750    1.0106 C   0  0  0  0  0  0  0  0  0  0  0  0
   -0.7010    1.6413    2.1958 O   0  0  0  0  0  0  0  0  0  0  0  0
   -0.5633    3.1932    0.5879 N   0  0  0  0  0  0  0  0  0  0  0  0
   -0.4177    3.3756   -0.4001 H   0  0  0  0  0  0  0  0  0  0  0  0
   -0.7312    4.3217    1.4963 C   0  0  0  0  0  0  0  0  0  0  0  0
    0.0968    4.3639    2.2117 H   0  0  0  0  0  0  0  0  0  0  0  0
   -0.7513    5.2602    0.9342 H   0  0  0  0  0  0  0  0  0  0  0  0
   -1.6714    4.2315    2.0506 H   0  0  0  0  0  0  0  0  0  0  0  0
  1  2  1  0  0  0  0
  2  3  1  0  0  0  0
  2  4  1  0  0  0  0
  2  5  1  0  0  0  0
  5  6  2  0  0  0  0
  5  7  1  0  0  0  0
  7  8  1  0  0  0  0
  7  9  1  0  0  0  0
  9 10  1  0  0  0  0
  9 11  1  0  0  0  0
  9 24  1  0  0  0  0
 11 12  1  0  0  0  0
 11 13  1  0  0  0  0
 11 14  1  0  0  0  0
 14 15  1  0  0  0  0
 14 16  1  0  0  0  0
 14 20  1  0  0  0  0
 16 17  1  0  0  0  0
 16 18  1  0  0  0  0
 16 19  1  0  0  0  0
 20 21  1  0  0  0  0
 20 22  1  0  0  0  0
 20 23  1  0  0  0  0
 24 25  2  0  0  0  0
 24 26  1  0  0  0  0
 26 27  1  0  0  0  0
 26 28  1  0  0  0  0
 28 29  1  0  0  0  0
 28 30  1  0  0  0  0
 28 31  1  0  0  0  0
M  END
$$$$

  -OEChem-01062216083D

 31 30  0     1  0  0  0  0  0999 V2000
   -3.3936   -2.7077    1.0941 H   0  0  0  0  0  0  0  0  0  0  0  0
   -3.3788   -1.7295    0.6051 C   0  0  0  0  0  0  0  0  0  0  0  0
   -3.9602   -1.0278    1.2077 H   0  0  0  0  0  0  0  0  0  0  0  0
   -3.8377   -1.8219   -0.3820 H   0  0  0  0  0  0  0  0  0  0  0  0
   -1.9506   -1.2357    0.4699 C   0  0  0  0  0  0  0  0  0  0  0  0
   -1.0299   -1.9538    0.8225 O   0  0  0  0  0  0  0  0  0  0  0  0
   -1.7121   -0.0000   -0.1012 N   0  0  0  0  0  0  0  0  0  0  0  0
   -2.5382    0.5621   -0.2803 H   0  0  0  0  0  0  0  0  0  0  0  0
   -0.4222    0.7039    0.0153 C   0  0  1  0  0  0  0  0  0  0  0  0
    0.3482    0.0401    0.4195 H   0  0  0  0  0  0  0  0  0  0  0  0
    0.0221    1.1758   -1.3854 C   0  0  0  0  0  0  0  0  0  0  0  0
   -0.7724    1.7886   -1.8229 H   0  0  0  0  0  0  0  0  0  0  0  0
    0.9101    1.8090   -1.2811 H   0  0  0  0  0  0  0  0  0  0  0  0
    0.3504    0.0206   -2.3566 C   0  0  0  0  0  0  0  0  0  0  0  0
   -0.5141   -0.6474   -2.4314 H   0  0  0  0  0  0  0  0  0  0  0  0
    0.6319    0.5959   -3.7494 C   0  0  0  0  0  0  0  0  0  0  0  0
    1.4988    1.2640   -3.7244 H   0  0  0  0  0  0  0  0  0  0  0  0
    0.8358   -0.2112   -4.4601 H   0  0  0  0  0  0  0  0  0  0  0  0
   -0.2330    1.1597   -4.1128 H   0  0  0  0  0  0  0  0  0  0  0  0
    1.5628   -0.8018   -1.8960 C   0  0  0  0  0  0  0  0  0  0  0  0
    1.3335   -1.3559   -0.9813 H   0  0  0  0  0  0  0  0  0  0  0  0
    1.8414   -1.5307   -2.6634 H   0  0  0  0  0  0  0  0  0  0  0  0
    2.4229   -0.1519   -1.7069 H   0  0  0  0  0  0  0  0  0  0  0  0
   -0.5259    1.8739    1.0184 C   0  0  0  0  0  0  0  0  0  0  0  0
   -0.3892    1.6737    2.2162 O   0  0  0  0  0  0  0  0  0  0  0  0
   -0.8913    3.1421    0.5977 N   0  0  0  0  0  0  0  0  0  0  0  0
   -0.9844    3.2965   -0.4012 H   0  0  0  0  0  0  0  0  0  0  0  0
   -1.0352    4.2760    1.5033 C   0  0  0  0  0  0  0  0  0  0  0  0
   -0.0836    4.4921    2.0001 H   0  0  0  0  0  0  0  0  0  0  0  0
   -1.3463    5.1663    0.9485 H   0  0  0  0  0  0  0  0  0  0  0  0
   -1.7913    4.0637    2.2667 H   0  0  0  0  0  0  0  0  0  0  0  0
  1  2  1  0  0  0  0
  2  3  1  0  0  0  0
  2  4  1  0  0  0  0
  2  5  1  0  0  0  0
  5  6  2  0  0  0  0
  5  7  1  0  0  0  0
  7  8  1  0  0  0  0
  7  9  1  0  0  0  0
  9 10  1  0  0  0  0
  9 11  1  0  0  0  0
  9 24  1  0  0  0  0
 11 12  1  0  0  0  0
 11 13  1  0  0  0  0
 11 14  1  0  0  0  0
 14 15  1  0  0  0  0
 14 16  1  0  0  0  0
 14 20  1  0  0  0  0
 16 17  1  0  0  0  0
 16 18  1  0  0  0  0
 16 19  1  0  0  0  0
 20 21  1  0  0  0  0
 20 22  1  0  0  0  0
 20 23  1  0  0  0  0
 24 25  2  0  0  0  0
 24 26  1  0  0  0  0
 26 27  1  0  0  0  0
 26 28  1  0  0  0  0
 28 29  1  0  0  0  0
 28 30  1  0  0  0  0
 28 31  1  0  0  0  0
M  END
$$$$

  -OEChem-01062216083D

 31 30  0     1  0  0  0  0  0999 V2000
   -3.4045   -2.7553    1.0628 H   0  0  0  0  0  0  0  0  0  0  0  0
   -3.3829   -1.7902    0.5485 C   0  0  0  0  0  0  0  0  0  0  0  0
   -4.0263   -1.0911    1.0880 H   0  0  0  0  0  0  0  0  0  0  0  0
   -3.7663   -1.9228   -0.4660 H   0  0  0  0  0  0  0  0  0  0  0  0
   -1.9632   -1.2574    0.5005 C   0  0  0  0  0  0  0  0  0  0  0  0
   -1.0499   -1.9406    0.9312 O   0  0  0  0  0  0  0  0  0  0  0  0
   -1.7214   -0.0225   -0.0709 N   0  0  0  0  0  0  0  0  0  0  0  0
   -2.5428    0.5112   -0.3357 H   0  0  0  0  0  0  0  0  0  0  0  0
   -0.4367    0.6920    0.0442 C   0  0  1  0  0  0  0  0  0  0  0  0
    0.3391    0.0301    0.4418 H   0  0  0  0  0  0  0  0  0  0  0  0
   -0.0004    1.1788   -1.3525 C   0  0  0  0  0  0  0  0  0  0  0  0
   -0.7996    1.7908   -1.7821 H   0  0  0  0  0  0  0  0  0  0  0  0
    0.8823    1.8188   -1.2431 H   0  0  0  0  0  0  0  0  0  0  0  0
    0.3351    0.0351   -2.3349 C   0  0  0  0  0  0  0  0  0  0  0  0
   -0.5239   -0.6396   -2.4134 H   0  0  0  0  0  0  0  0  0  0  0  0
    0.6079    0.6267   -3.7227 C   0  0  0  0  0  0  0  0  0  0  0  0
    1.4641    1.3082   -3.6903 H   0  0  0  0  0  0  0  0  0  0  0  0
    0.8250   -0.1699   -4.4412 H   0  0  0  0  0  0  0  0  0  0  0  0
   -0.2653    1.1803   -4.0814 H   0  0  0  0  0  0  0  0  0  0  0  0
    1.5545   -0.7819   -1.8843 C   0  0  0  0  0  0  0  0  0  0  0  0
    1.3327   -1.3429   -0.9718 H   0  0  0  0  0  0  0  0  0  0  0  0
    1.8346   -1.5044   -2.6571 H   0  0  0  0  0  0  0  0  0  0  0  0
    2.4109   -0.1272   -1.6947 H   0  0  0  0  0  0  0  0  0  0  0  0
   -0.5384    1.8672    1.0397 C   0  0  0  0  0  0  0  0  0  0  0  0
   -0.0669    1.7752    2.1631 O   0  0  0  0  0  0  0  0  0  0  0  0
   -1.1947    3.0344    0.6851 N   0  0  0  0  0  0  0  0  0  0  0  0
   -1.5210    3.1164   -0.2721 H   0  0  0  0  0  0  0  0  0  0  0  0
   -1.2891    4.1947    1.5633 C   0  0  0  0  0  0  0  0  0  0  0  0
   -0.2909    4.5759    1.8030 H   0  0  0  0  0  0  0  0  0  0  0  0
   -1.8567    4.9933    1.0763 H   0  0  0  0  0  0  0  0  0  0  0  0
   -1.7979    3.9290    2.4959 H   0  0  0  0  0  0  0  0  0  0  0  0
  1  2  1  0  0  0  0
  2  3  1  0  0  0  0
  2  4  1  0  0  0  0
  2  5  1  0  0  0  0
  5  6  2  0  0  0  0
  5  7  1  0  0  0  0
  7  8  1  0  0  0  0
  7  9  1  0  0  0  0
  9 10  1  0  0  0  0
  9 11  1  0  0  0  0
  9 24  1  0  0  0  0
 11 12  1  0  0  0  0
 11 13  1  0  0  0  0
 11 14  1  0  0  0  0
 14 15  1  0  0  0  0
 14 16  1  0  0  0  0
 14 20  1  0  0  0  0
 16 17  1  0  0  0  0
 16 18  1  0  0  0  0
 16 19  1  0  0  0  0
 20 21  1  0  0  0  0
 20 22  1  0  0  0  0
 20 23  1  0  0  0  0
 24 25  2  0  0  0  0
 24 26  1  0  0  0  0
 26 27  1  0  0  0  0
 26 28  1  0  0  0  0
 28 29  1  0  0  0  0
 28 30  1  0  0  0  0
 28 31  1  0  0  0  0
M  END
$$$$

  -OEChem-01062216083D

 31 30  0     1  0  0  0  0  0999 V2000
   -3.3976   -2.8181    0.9774 H   0  0  0  0  0  0  0  0  0  0  0  0
   -3.3675   -1.8536    0.4624 C   0  0  0  0  0  0  0  0  0  0  0  0
   -4.0926   -1.1837    0.9306 H   0  0  0  0  0  0  0  0  0  0  0  0
   -3.6413   -2.0055   -0.5842 H   0  0  0  0  0  0  0  0  0  0  0  0
   -1.9752   -1.2576    0.5534 C   0  0  0  0  0  0  0  0  0  0  0  0
   -1.0910   -1.8790    1.1166 O   0  0  0  0  0  0  0  0  0  0  0  0
   -1.7235   -0.0276   -0.0237 N   0  0  0  0  0  0  0  0  0  0  0  0
   -2.5088    0.4363   -0.4670 H   0  0  0  0  0  0  0  0  0  0  0  0
   -0.4379    0.6894    0.0771 C   0  0  1  0  0  0  0  0  0  0  0  0
    0.3409    0.0255    0.4661 H   0  0  0  0  0  0  0  0  0  0  0  0
   -0.0182    1.1808   -1.3219 C   0  0  0  0  0  0  0  0  0  0  0  0
   -0.8211    1.7975   -1.7381 H   0  0  0  0  0  0  0  0  0  0  0  0
    0.8659    1.8203   -1.2198 H   0  0  0  0  0  0  0  0  0  0  0  0
    0.3079    0.0402   -2.3115 C   0  0  0  0  0  0  0  0  0  0  0  0
   -0.5509   -0.6355   -2.3833 H   0  0  0  0  0  0  0  0  0  0  0  0
    0.5647    0.6358   -3.7007 C   0  0  0  0  0  0  0  0  0  0  0  0
    1.4264    1.3106   -3.6783 H   0  0  0  0  0  0  0  0  0  0  0  0
    0.7659   -0.1593   -4.4256 H   0  0  0  0  0  0  0  0  0  0  0  0
   -0.3090    1.1978   -4.0446 H   0  0  0  0  0  0  0  0  0  0  0  0
    1.5340   -0.7750   -1.8752 C   0  0  0  0  0  0  0  0  0  0  0  0
    1.3213   -1.3417   -0.9641 H   0  0  0  0  0  0  0  0  0  0  0  0
    1.8117   -1.4915   -2.6545 H   0  0  0  0  0  0  0  0  0  0  0  0
    2.3890   -0.1177   -1.6879 H   0  0  0  0  0  0  0  0  0  0  0  0
   -0.5175    1.8752    1.0613 C   0  0  0  0  0  0  0  0  0  0  0  0
    0.2533    1.9517    2.0069 O   0  0  0  0  0  0  0  0  0  0  0  0
   -1.4140    2.9088    0.8454 N   0  0  0  0  0  0  0  0  0  0  0  0
   -2.0035    2.8570    0.0221 H   0  0  0  0  0  0  0  0  0  0  0  0
   -1.5067    4.0793    1.7102 C   0  0  0  0  0  0  0  0  0  0  0  0
   -0.5495    4.6103    1.7410 H   0  0  0  0  0  0  0  0  0  0  0  0
   -2.2714    4.7667    1.3366 H   0  0  0  0  0  0  0  0  0  0  0  0
   -1.7773    3.7820    2.7289 H   0  0  0  0  0  0  0  0  0  0  0  0
  1  2  1  0  0  0  0
  2  3  1  0  0  0  0
  2  4  1  0  0  0  0
  2  5  1  0  0  0  0
  5  6  2  0  0  0  0
  5  7  1  0  0  0  0
  7  8  1  0  0  0  0
  7  9  1  0  0  0  0
  9 10  1  0  0  0  0
  9 11  1  0  0  0  0
  9 24  1  0  0  0  0
 11 12  1  0  0  0  0
 11 13  1  0  0  0  0
 11 14  1  0  0  0  0
 14 15  1  0  0  0  0
 14 16  1  0  0  0  0
 14 20  1  0  0  0  0
 16 17  1  0  0  0  0
 16 18  1  0  0  0  0
 16 19  1  0  0  0  0
 20 21  1  0  0  0  0
 20 22  1  0  0  0  0
 20 23  1  0  0  0  0
 24 25  2  0  0  0  0
 24 26  1  0  0  0  0
 26 27  1  0  0  0  0
 26 28  1  0  0  0  0
 28 29  1  0  0  0  0
 28 30  1  0  0  0  0
 28 31  1  0  0  0  0
M  END
$$$$

  -OEChem-01062216083D

 31 30  0     1  0  0  0  0  0999 V2000
   -3.3374   -2.9062    0.8393 H   0  0  0  0  0  0  0  0  0  0  0  0
   -3.3168   -1.9340    0.3382 C   0  0  0  0  0  0  0  0  0  0  0  0
   -4.1474   -1.3296    0.7107 H   0  0  0  0  0  0  0  0  0  0  0  0
   -3.4394   -2.0908   -0.7361 H   0  0  0  0  0  0  0  0  0  0  0  0
   -1.9999   -1.2329    0.6148 C   0  0  0  0  0  0  0  0  0  0  0  0
   -1.1804   -1.7576    1.3480 O   0  0  0  0  0  0  0  0  0  0  0  0
   -1.7427   -0.0105    0.0244 N   0  0  0  0  0  0  0  0  0  0  0  0
   -2.4218    0.3147   -0.6556 H   0  0  0  0  0  0  0  0  0  0  0  0
   -0.4487    0.6937    0.1158 C   0  0  1  0  0  0  0  0  0  0  0  0
    0.3255    0.0211    0.4983 H   0  0  0  0  0  0  0  0  0  0  0  0
   -0.0395    1.1825   -1.2867 C   0  0  0  0  0  0  0  0  0  0  0  0
   -0.8389    1.8129   -1.6898 H   0  0  0  0  0  0  0  0  0  0  0  0
    0.8529    1.8116   -1.1922 H   0  0  0  0  0  0  0  0  0  0  0  0
    0.2654    0.0422   -2.2832 C   0  0  0  0  0  0  0  0  0  0  0  0
   -0.5988   -0.6268   -2.3482 H   0  0  0  0  0  0  0  0  0  0  0  0
    0.5121    0.6413   -3.6726 C   0  0  0  0  0  0  0  0  0  0  0  0
    1.3780    1.3111   -3.6566 H   0  0  0  0  0  0  0  0  0  0  0  0
    0.7006   -0.1523   -4.4024 H   0  0  0  0  0  0  0  0  0  0  0  0
   -0.3617    1.2100   -4.0051 H   0  0  0  0  0  0  0  0  0  0  0  0
    1.4907   -0.7829   -1.8633 C   0  0  0  0  0  0  0  0  0  0  0  0
    1.2853   -1.3504   -0.9511 H   0  0  0  0  0  0  0  0  0  0  0  0
    1.7548   -1.4989   -2.6478 H   0  0  0  0  0  0  0  0  0  0  0  0
    2.3527   -0.1322   -1.6842 H   0  0  0  0  0  0  0  0  0  0  0  0
   -0.4954    1.8906    1.0878 C   0  0  0  0  0  0  0  0  0  0  0  0
    0.4797    2.1637    1.7734 O   0  0  0  0  0  0  0  0  0  0  0  0
   -1.5608    2.7741    1.0591 N   0  0  0  0  0  0  0  0  0  0  0  0
   -2.3739    2.4996    0.5194 H   0  0  0  0  0  0  0  0  0  0  0  0
   -1.6434    3.9542    1.9114 C   0  0  0  0  0  0  0  0  0  0  0  0
   -0.7845    4.6119    1.7401 H   0  0  0  0  0  0  0  0  0  0  0  0
   -2.5561    4.5164    1.6920 H   0  0  0  0  0  0  0  0  0  0  0  0
   -1.6593    3.6632    2.9670 H   0  0  0  0  0  0  0  0  0  0  0  0
  1  2  1  0  0  0  0
  2  3  1  0  0  0  0
  2  4  1  0  0  0  0
  2  5  1  0  0  0  0
  5  6  2  0  0  0  0
  5  7  1  0  0  0  0
  7  8  1  0  0  0  0
  7  9  1  0  0  0  0
  9 10  1  0  0  0  0
  9 11  1  0  0  0  0
  9 24  1  0  0  0  0
 11 12  1  0  0  0  0
 11 13  1  0  0  0  0
 11 14  1  0  0  0  0
 14 15  1  0  0  0  0
 14 16  1  0  0  0  0
 14 20  1  0  0  0  0
 16 17  1  0  0  0  0
 16 18  1  0  0  0  0
 16 19  1  0  0  0  0
 20 21  1  0  0  0  0
 20 22  1  0  0  0  0
 20 23  1  0  0  0  0
 24 25  2  0  0  0  0
 24 26  1  0  0  0  0
 26 27  1  0  0  0  0
 26 28  1  0  0  0  0
 28 29  1  0  0  0  0
 28 30  1  0  0  0  0
 28 31  1  0  0  0  0
M  END
$$$$

  -OEChem-01062216083D

 31 30  0     1  0  0  0  0  0999 V2000
   -3.3096   -2.9289    0.7883 H   0  0  0  0  0  0  0  0  0  0  0  0
   -3.2933   -1.9551    0.2905 C   0  0  0  0  0  0  0  0  0  0  0  0
   -4.1541   -1.3731    0.6285 H   0  0  0  0  0  0  0  0  0  0  0  0
   -3.3668   -2.1120   -0.7883 H   0  0  0  0  0  0  0  0  0  0  0  0
   -2.0080   -1.2209    0.6233 C   0  0  0  0  0  0  0  0  0  0  0  0
   -1.2197   -1.7089    1.4138 O   0  0  0  0  0  0  0  0  0  0  0  0
   -1.7478   -0.0010    0.0297 N   0  0  0  0  0  0  0  0  0  0  0  0
   -2.3876    0.2862   -0.7044 H   0  0  0  0  0  0  0  0  0  0  0  0
   -0.4496    0.6957    0.1250 C   0  0  1  0  0  0  0  0  0  0  0  0
    0.3215    0.0195    0.5074 H   0  0  0  0  0  0  0  0  0  0  0  0
   -0.0435    1.1819   -1.2797 C   0  0  0  0  0  0  0  0  0  0  0  0
   -0.8424    1.8162   -1.6778 H   0  0  0  0  0  0  0  0  0  0  0  0
    0.8520    1.8077   -1.1911 H   0  0  0  0  0  0  0  0  0  0  0  0
    0.2522    0.0401   -2.2774 C   0  0  0  0  0  0  0  0  0  0  0  0
   -0.6155   -0.6247   -2.3396 H   0  0  0  0  0  0  0  0  0  0  0  0
    0.4961    0.6378   -3.6679 C   0  0  0  0  0  0  0  0  0  0  0  0
    1.3643    1.3049   -3.6545 H   0  0  0  0  0  0  0  0  0  0  0  0
    0.6799   -0.1565   -4.3983 H   0  0  0  0  0  0  0  0  0  0  0  0
   -0.3768    1.2096   -3.9978 H   0  0  0  0  0  0  0  0  0  0  0  0
    1.4751   -0.7903   -1.8615 C   0  0  0  0  0  0  0  0  0  0  0  0
    1.2718   -1.3534   -0.9462 H   0  0  0  0  0  0  0  0  0  0  0  0
    1.7310   -1.5102   -2.6450 H   0  0  0  0  0  0  0  0  0  0  0  0
    2.3413   -0.1434   -1.6893 H   0  0  0  0  0  0  0  0  0  0  0  0
   -0.4871    1.8950    1.0946 C   0  0  0  0  0  0  0  0  0  0  0  0
    0.5534    2.3326    1.5659 O   0  0  0  0  0  0  0  0  0  0  0  0
   -1.6599    2.6040    1.2866 N   0  0  0  0  0  0  0  0  0  0  0  0
   -2.5133    2.1602    0.9650 H   0  0  0  0  0  0  0  0  0  0  0  0
   -1.7560    3.7593    2.1709 C   0  0  0  0  0  0  0  0  0  0  0  0
   -1.0558    4.5413    1.8585 H   0  0  0  0  0  0  0  0  0  0  0  0
   -2.7683    4.1737    2.1432 H   0  0  0  0  0  0  0  0  0  0  0  0
   -1.5253    3.4723    3.2022 H   0  0  0  0  0  0  0  0  0  0  0  0
  1  2  1  0  0  0  0
  2  3  1  0  0  0  0
  2  4  1  0  0  0  0
  2  5  1  0  0  0  0
  5  6  2  0  0  0  0
  5  7  1  0  0  0  0
  7  8  1  0  0  0  0
  7  9  1  0  0  0  0
  9 10  1  0  0  0  0
  9 11  1  0  0  0  0
  9 24  1  0  0  0  0
 11 12  1  0  0  0  0
 11 13  1  0  0  0  0
 11 14  1  0  0  0  0
 14 15  1  0  0  0  0
 14 16  1  0  0  0  0
 14 20  1  0  0  0  0
 16 17  1  0  0  0  0
 16 18  1  0  0  0  0
 16 19  1  0  0  0  0
 20 21  1  0  0  0  0
 20 22  1  0  0  0  0
 20 23  1  0  0  0  0
 24 25  2  0  0  0  0
 24 26  1  0  0  0  0
 26 27  1  0  0  0  0
 26 28  1  0  0  0  0
 28 29  1  0  0  0  0
 28 30  1  0  0  0  0
 28 31  1  0  0  0  0
M  END
$$$$

  -OEChem-01062216083D

 31 30  0     1  0  0  0  0  0999 V2000
   -3.3026   -2.9298    0.7636 H   0  0  0  0  0  0  0  0  0  0  0  0
   -3.2855   -1.9555    0.2667 C   0  0  0  0  0  0  0  0  0  0  0  0
   -4.1532   -1.3781    0.5946 H   0  0  0  0  0  0  0  0  0  0  0  0
   -3.3452   -2.1117   -0.8131 H   0  0  0  0  0  0  0  0  0  0  0  0
   -2.0077   -1.2153    0.6144 C   0  0  0  0  0  0  0  0  0  0  0  0
   -1.2293   -1.6948    1.4198 O   0  0  0  0  0  0  0  0  0  0  0  0
   -1.7451    0.0059    0.0254 N   0  0  0  0  0  0  0  0  0  0  0  0
   -2.3825    0.2991   -0.7090 H   0  0  0  0  0  0  0  0  0  0  0  0
   -0.4459    0.7013    0.1258 C   0  0  1  0  0  0  0  0  0  0  0  0
    0.3241    0.0248    0.5092 H   0  0  0  0  0  0  0  0  0  0  0  0
   -0.0432    1.1816   -1.2834 C   0  0  0  0  0  0  0  0  0  0  0  0
   -0.8433    1.8145   -1.6813 H   0  0  0  0  0  0  0  0  0  0  0  0
    0.8532    1.8070   -1.2027 H   0  0  0  0  0  0  0  0  0  0  0  0
    0.2497    0.0358   -2.2778 C   0  0  0  0  0  0  0  0  0  0  0  0
   -0.6184   -0.6285   -2.3356 H   0  0  0  0  0  0  0  0  0  0  0  0
    0.4900    0.6282   -3.6709 C   0  0  0  0  0  0  0  0  0  0  0  0
    1.3574    1.2962   -3.6614 H   0  0  0  0  0  0  0  0  0  0  0  0
    0.6733   -0.1687   -4.3983 H   0  0  0  0  0  0  0  0  0  0  0  0
   -0.3843    1.1975   -4.0013 H   0  0  0  0  0  0  0  0  0  0  0  0
    1.4726   -0.7948   -1.8633 C   0  0  0  0  0  0  0  0  0  0  0  0
    1.2731   -1.3523   -0.9437 H   0  0  0  0  0  0  0  0  0  0  0  0
    1.7224   -1.5198   -2.6441 H   0  0  0  0  0  0  0  0  0  0  0  0
    2.3409   -0.1486   -1.7000 H   0  0  0  0  0  0  0  0  0  0  0  0
   -0.4826    1.8993    1.0996 C   0  0  0  0  0  0  0  0  0  0  0  0
    0.5509    2.4872    1.3886 O   0  0  0  0  0  0  0  0  0  0  0  0
   -1.6910    2.4161    1.5317 N   0  0  0  0  0  0  0  0  0  0  0  0
   -2.5093    1.8396    1.3651 H   0  0  0  0  0  0  0  0  0  0  0  0
   -1.7937    3.5347    2.4608 C   0  0  0  0  0  0  0  0  0  0  0  0
   -1.2968    4.4205    2.0511 H   0  0  0  0  0  0  0  0  0  0  0  0
   -2.8443    3.7822    2.6398 H   0  0  0  0  0  0  0  0  0  0  0  0
   -1.3279    3.2809    3.4188 H   0  0  0  0  0  0  0  0  0  0  0  0
  1  2  1  0  0  0  0
  2  3  1  0  0  0  0
  2  4  1  0  0  0  0
  2  5  1  0  0  0  0
  5  6  2  0  0  0  0
  5  7  1  0  0  0  0
  7  8  1  0  0  0  0
  7  9  1  0  0  0  0
  9 10  1  0  0  0  0
  9 11  1  0  0  0  0
  9 24  1  0  0  0  0
 11 12  1  0  0  0  0
 11 13  1  0  0  0  0
 11 14  1  0  0  0  0
 14 15  1  0  0  0  0
 14 16  1  0  0  0  0
 14 20  1  0  0  0  0
 16 17  1  0  0  0  0
 16 18  1  0  0  0  0
 16 19  1  0  0  0  0
 20 21  1  0  0  0  0
 20 22  1  0  0  0  0
 20 23  1  0  0  0  0
 24 25  2  0  0  0  0
 24 26  1  0  0  0  0
 26 27  1  0  0  0  0
 26 28  1  0  0  0  0
 28 29  1  0  0  0  0
 28 30  1  0  0  0  0
 28 31  1  0  0  0  0
M  END
$$$$

  -OEChem-01062216083D

 31 30  0     1  0  0  0  0  0999 V2000
   -3.3000   -2.9248    0.7423 H   0  0  0  0  0  0  0  0  0  0  0  0
   -3.2832   -1.9478    0.2507 C   0  0  0  0  0  0  0  0  0  0  0  0
   -4.1523   -1.3733    0.5796 H   0  0  0  0  0  0  0  0  0  0  0  0
   -3.3408   -2.0986   -0.8300 H   0  0  0  0  0  0  0  0  0  0  0  0
   -2.0069   -1.2076    0.6041 C   0  0  0  0  0  0  0  0  0  0  0  0
   -1.2353   -1.6812    1.4196 O   0  0  0  0  0  0  0  0  0  0  0  0
   -1.7415    0.0155    0.0210 N   0  0  0  0  0  0  0  0  0  0  0  0
   -2.3871    0.3246   -0.6999 H   0  0  0  0  0  0  0  0  0  0  0  0
   -0.4416    0.7102    0.1224 C   0  0  1  0  0  0  0  0  0  0  0  0
    0.3278    0.0333    0.5057 H   0  0  0  0  0  0  0  0  0  0  0  0
   -0.0414    1.1829   -1.2918 C   0  0  0  0  0  0  0  0  0  0  0  0
   -0.8419    1.8146   -1.6905 H   0  0  0  0  0  0  0  0  0  0  0  0
    0.8562    1.8074   -1.2205 H   0  0  0  0  0  0  0  0  0  0  0  0
    0.2495    0.0319   -2.2810 C   0  0  0  0  0  0  0  0  0  0  0  0
   -0.6190   -0.6324   -2.3343 H   0  0  0  0  0  0  0  0  0  0  0  0
    0.4872    0.6165   -3.6783 C   0  0  0  0  0  0  0  0  0  0  0  0
    1.3556    1.2833   -3.6760 H   0  0  0  0  0  0  0  0  0  0  0  0
    0.6672   -0.1846   -4.4022 H   0  0  0  0  0  0  0  0  0  0  0  0
   -0.3873    1.1855   -4.0087 H   0  0  0  0  0  0  0  0  0  0  0  0
    1.4724   -0.7967   -1.8626 C   0  0  0  0  0  0  0  0  0  0  0  0
    1.2704   -1.3530   -0.9428 H   0  0  0  0  0  0  0  0  0  0  0  0
    1.7250   -1.5225   -2.6418 H   0  0  0  0  0  0  0  0  0  0  0  0
    2.3399   -0.1497   -1.6975 H   0  0  0  0  0  0  0  0  0  0  0  0
   -0.4810    1.9051    1.1031 C   0  0  0  0  0  0  0  0  0  0  0  0
    0.4902    2.6401    1.2255 O   0  0  0  0  0  0  0  0  0  0  0  0
   -1.6475    2.2227    1.7754 N   0  0  0  0  0  0  0  0  0  0  0  0
   -2.3786    1.5186    1.7525 H   0  0  0  0  0  0  0  0  0  0  0  0
   -1.7397    3.3035    2.7491 C   0  0  0  0  0  0  0  0  0  0  0  0
   -1.4757    4.2603    2.2863 H   0  0  0  0  0  0  0  0  0  0  0  0
   -2.7609    3.3783    3.1346 H   0  0  0  0  0  0  0  0  0  0  0  0
   -1.0627    3.1204    3.5900 H   0  0  0  0  0  0  0  0  0  0  0  0
  1  2  1  0  0  0  0
  2  3  1  0  0  0  0
  2  4  1  0  0  0  0
  2  5  1  0  0  0  0
  5  6  2  0  0  0  0
  5  7  1  0  0  0  0
  7  8  1  0  0  0  0
  7  9  1  0  0  0  0
  9 10  1  0  0  0  0
  9 11  1  0  0  0  0
  9 24  1  0  0  0  0
 11 12  1  0  0  0  0
 11 13  1  0  0  0  0
 11 14  1  0  0  0  0
 14 15  1  0  0  0  0
 14 16  1  0  0  0  0
 14 20  1  0  0  0  0
 16 17  1  0  0  0  0
 16 18  1  0  0  0  0
 16 19  1  0  0  0  0
 20 21  1  0  0  0  0
 20 22  1  0  0  0  0
 20 23  1  0  0  0  0
 24 25  2  0  0  0  0
 24 26  1  0  0  0  0
 26 27  1  0  0  0  0
 26 28  1  0  0  0  0
 28 29  1  0  0  0  0
 28 30  1  0  0  0  0
 28 31  1  0  0  0  0
M  END
$$$$

  -OEChem-01062216083D

 31 30  0     1  0  0  0  0  0999 V2000
   -3.3067   -2.9009    0.7391 H   0  0  0  0  0  0  0  0  0  0  0  0
   -3.2848   -1.9247    0.2462 C   0  0  0  0  0  0  0  0  0  0  0  0
   -4.1492   -1.3437    0.5765 H   0  0  0  0  0  0  0  0  0  0  0  0
   -3.3465   -2.0762   -0.8341 H   0  0  0  0  0  0  0  0  0  0  0  0
   -2.0028   -1.1928    0.5954 C   0  0  0  0  0  0  0  0  0  0  0  0
   -1.2357   -1.6644    1.4165 O   0  0  0  0  0  0  0  0  0  0  0  0
   -1.7335    0.0320    0.0196 N   0  0  0  0  0  0  0  0  0  0  0  0
   -2.3914    0.3617   -0.6809 H   0  0  0  0  0  0  0  0  0  0  0  0
   -0.4319    0.7229    0.1178 C   0  0  1  0  0  0  0  0  0  0  0  0
    0.3367    0.0449    0.4999 H   0  0  0  0  0  0  0  0  0  0  0  0
   -0.0342    1.1865   -1.3014 C   0  0  0  0  0  0  0  0  0  0  0  0
   -0.8332    1.8195   -1.7014 H   0  0  0  0  0  0  0  0  0  0  0  0
    0.8668    1.8066   -1.2381 H   0  0  0  0  0  0  0  0  0  0  0  0
    0.2506    0.0282   -2.2843 C   0  0  0  0  0  0  0  0  0  0  0  0
   -0.6196   -0.6342   -2.3305 H   0  0  0  0  0  0  0  0  0  0  0  0
    0.4855    0.6036   -3.6855 C   0  0  0  0  0  0  0  0  0  0  0  0
    1.3553    1.2686   -3.6890 H   0  0  0  0  0  0  0  0  0  0  0  0
    0.6618   -0.2021   -4.4051 H   0  0  0  0  0  0  0  0  0  0  0  0
   -0.3885    1.1724   -4.0172 H   0  0  0  0  0  0  0  0  0  0  0  0
    1.4731   -0.8016   -1.8662 C   0  0  0  0  0  0  0  0  0  0  0  0
    1.2752   -1.3498   -0.9407 H   0  0  0  0  0  0  0  0  0  0  0  0
    1.7183   -1.5348   -2.6410 H   0  0  0  0  0  0  0  0  0  0  0  0
    2.3440   -0.1564   -1.7122 H   0  0  0  0  0  0  0  0  0  0  0  0
   -0.4775    1.9106    1.1096 C   0  0  0  0  0  0  0  0  0  0  0  0
    0.3702    2.7936    1.0772 O   0  0  0  0  0  0  0  0  0  0  0  0
   -1.5272    2.0282    2.0027 N   0  0  0  0  0  0  0  0  0  0  0  0
   -2.1224    1.2099    2.0958 H   0  0  0  0  0  0  0  0  0  0  0  0
   -1.6062    3.0756    3.0135 C   0  0  0  0  0  0  0  0  0  0  0  0
   -1.6032    4.0642    2.5423 H   0  0  0  0  0  0  0  0  0  0  0  0
   -2.5294    2.9730    3.5918 H   0  0  0  0  0  0  0  0  0  0  0  0
   -0.7561    3.0102    3.7007 H   0  0  0  0  0  0  0  0  0  0  0  0
  1  2  1  0  0  0  0
  2  3  1  0  0  0  0
  2  4  1  0  0  0  0
  2  5  1  0  0  0  0
  5  6  2  0  0  0  0
  5  7  1  0  0  0  0
  7  8  1  0  0  0  0
  7  9  1  0  0  0  0
  9 10  1  0  0  0  0
  9 11  1  0  0  0  0
  9 24  1  0  0  0  0
 11 12  1  0  0  0  0
 11 13  1  0  0  0  0
 11 14  1  0  0  0  0
 14 15  1  0  0  0  0
 14 16  1  0  0  0  0
 14 20  1  0  0  0  0
 16 17  1  0  0  0  0
 16 18  1  0  0  0  0
 16 19  1  0  0  0  0
 20 21  1  0  0  0  0
 20 22  1  0  0  0  0
 20 23  1  0  0  0  0
 24 25  2  0  0  0  0
 24 26  1  0  0  0  0
 26 27  1  0  0  0  0
 26 28  1  0  0  0  0
 28 29  1  0  0  0  0
 28 30  1  0  0  0  0
 28 31  1  0  0  0  0
M  END
$$$$

  -OEChem-01062216083D

 31 30  0     1  0  0  0  0  0999 V2000
   -3.3083   -2.8778    0.7454 H   0  0  0  0  0  0  0  0  0  0  0  0
   -3.2827   -1.9023    0.2513 C   0  0  0  0  0  0  0  0  0  0  0  0
   -4.1455   -1.3180    0.5800 H   0  0  0  0  0  0  0  0  0  0  0  0
   -3.3436   -2.0550   -0.8290 H   0  0  0  0  0  0  0  0  0  0  0  0
   -1.9992   -1.1731    0.5999 C   0  0  0  0  0  0  0  0  0  0  0  0
   -1.2391   -1.6354    1.4335 O   0  0  0  0  0  0  0  0  0  0  0  0
   -1.7265    0.0513    0.0265 N   0  0  0  0  0  0  0  0  0  0  0  0
   -2.3909    0.3916   -0.6628 H   0  0  0  0  0  0  0  0  0  0  0  0
   -0.4203    0.7328    0.1149 C   0  0  1  0  0  0  0  0  0  0  0  0
    0.3463    0.0512    0.4942 H   0  0  0  0  0  0  0  0  0  0  0  0
   -0.0231    1.1906   -1.3066 C   0  0  0  0  0  0  0  0  0  0  0  0
   -0.8177    1.8300   -1.7048 H   0  0  0  0  0  0  0  0  0  0  0  0
    0.8837    1.8027   -1.2466 H   0  0  0  0  0  0  0  0  0  0  0  0
    0.2498    0.0282   -2.2879 C   0  0  0  0  0  0  0  0  0  0  0  0
   -0.6262   -0.6269   -2.3307 H   0  0  0  0  0  0  0  0  0  0  0  0
    0.4852    0.5992   -3.6910 C   0  0  0  0  0  0  0  0  0  0  0  0
    1.3617    1.2550   -3.6992 H   0  0  0  0  0  0  0  0  0  0  0  0
    0.6500   -0.2093   -4.4101 H   0  0  0  0  0  0  0  0  0  0  0  0
   -0.3842    1.1768   -4.0201 H   0  0  0  0  0  0  0  0  0  0  0  0
    1.4667   -0.8109   -1.8723 C   0  0  0  0  0  0  0  0  0  0  0  0
    1.2673   -1.3565   -0.9456 H   0  0  0  0  0  0  0  0  0  0  0  0
    1.7035   -1.5469   -2.6470 H   0  0  0  0  0  0  0  0  0  0  0  0
    2.3430   -0.1724   -1.7219 H   0  0  0  0  0  0  0  0  0  0  0  0
   -0.4689    1.9126    1.1159 C   0  0  0  0  0  0  0  0  0  0  0  0
    0.1946    2.9278    0.9459 O   0  0  0  0  0  0  0  0  0  0  0  0
   -1.3288    1.8513    2.1972 N   0  0  0  0  0  0  0  0  0  0  0  0
   -1.7532    0.9441    2.3755 H   0  0  0  0  0  0  0  0  0  0  0  0
   -1.3979    2.8785    3.2287 C   0  0  0  0  0  0  0  0  0  0  0  0
   -1.6654    3.8453    2.7895 H   0  0  0  0  0  0  0  0  0  0  0  0
   -2.1570    2.6164    3.9719 H   0  0  0  0  0  0  0  0  0  0  0  0
   -0.4330    2.9769    3.7369 H   0  0  0  0  0  0  0  0  0  0  0  0
  1  2  1  0  0  0  0
  2  3  1  0  0  0  0
  2  4  1  0  0  0  0
  2  5  1  0  0  0  0
  5  6  2  0  0  0  0
  5  7  1  0  0  0  0
  7  8  1  0  0  0  0
  7  9  1  0  0  0  0
  9 10  1  0  0  0  0
  9 11  1  0  0  0  0
  9 24  1  0  0  0  0
 11 12  1  0  0  0  0
 11 13  1  0  0  0  0
 11 14  1  0  0  0  0
 14 15  1  0  0  0  0
 14 16  1  0  0  0  0
 14 20  1  0  0  0  0
 16 17  1  0  0  0  0
 16 18  1  0  0  0  0
 16 19  1  0  0  0  0
 20 21  1  0  0  0  0
 20 22  1  0  0  0  0
 20 23  1  0  0  0  0
 24 25  2  0  0  0  0
 24 26  1  0  0  0  0
 26 27  1  0  0  0  0
 26 28  1  0  0  0  0
 28 29  1  0  0  0  0
 28 30  1  0  0  0  0
 28 31  1  0  0  0  0
M  END
$$$$

  -OEChem-01062216083D

 31 30  0     1  0  0  0  0  0999 V2000
   -3.3104   -2.8455    0.7830 H   0  0  0  0  0  0  0  0  0  0  0  0
   -3.2816   -1.8745    0.2804 C   0  0  0  0  0  0  0  0  0  0  0  0
   -4.1364   -1.2801    0.6119 H   0  0  0  0  0  0  0  0  0  0  0  0
   -3.3538   -2.0355   -0.7980 H   0  0  0  0  0  0  0  0  0  0  0  0
   -1.9891   -1.1533    0.6118 C   0  0  0  0  0  0  0  0  0  0  0  0
   -1.2244   -1.6141    1.4432 O   0  0  0  0  0  0  0  0  0  0  0  0
   -1.7130    0.0682    0.0347 N   0  0  0  0  0  0  0  0  0  0  0  0
   -2.3875    0.4234   -0.6371 H   0  0  0  0  0  0  0  0  0  0  0  0
   -0.4013    0.7371    0.1119 C   0  0  1  0  0  0  0  0  0  0  0  0
    0.3644    0.0522    0.4868 H   0  0  0  0  0  0  0  0  0  0  0  0
   -0.0053    1.1937   -1.3100 C   0  0  0  0  0  0  0  0  0  0  0  0
   -0.7966    1.8400   -1.7049 H   0  0  0  0  0  0  0  0  0  0  0  0
    0.9063    1.7988   -1.2495 H   0  0  0  0  0  0  0  0  0  0  0  0
    0.2523    0.0305   -2.2944 C   0  0  0  0  0  0  0  0  0  0  0  0
   -0.6310   -0.6146   -2.3347 H   0  0  0  0  0  0  0  0  0  0  0  0
    0.4879    0.6018   -3.6974 C   0  0  0  0  0  0  0  0  0  0  0  0
    1.3694    1.2510   -3.7070 H   0  0  0  0  0  0  0  0  0  0  0  0
    0.6443   -0.2069   -4.4182 H   0  0  0  0  0  0  0  0  0  0  0  0
   -0.3781    1.1865   -4.0231 H   0  0  0  0  0  0  0  0  0  0  0  0
    1.4611   -0.8229   -1.8848 C   0  0  0  0  0  0  0  0  0  0  0  0
    1.2601   -1.3643   -0.9561 H   0  0  0  0  0  0  0  0  0  0  0  0
    1.6833   -1.5632   -2.6596 H   0  0  0  0  0  0  0  0  0  0  0  0
    2.3462   -0.1952   -1.7412 H   0  0  0  0  0  0  0  0  0  0  0  0
   -0.4531    1.9110    1.1167 C   0  0  0  0  0  0  0  0  0  0  0  0
   -0.0130    3.0215    0.8457 O   0  0  0  0  0  0  0  0  0  0  0  0
   -1.0654    1.7097    2.3395 N   0  0  0  0  0  0  0  0  0  0  0  0
   -1.3333    0.7508    2.5558 H   0  0  0  0  0  0  0  0  0  0  0  0
   -1.1398    2.7230    3.3840 C   0  0  0  0  0  0  0  0  0  0  0  0
   -1.6700    3.6095    3.0204 H   0  0  0  0  0  0  0  0  0  0  0  0
   -1.6786    2.3307    4.2519 H   0  0  0  0  0  0  0  0  0  0  0  0
   -0.1353    3.0192    3.7037 H   0  0  0  0  0  0  0  0  0  0  0  0
  1  2  1  0  0  0  0
  2  3  1  0  0  0  0
  2  4  1  0  0  0  0
  2  5  1  0  0  0  0
  5  6  2  0  0  0  0
  5  7  1  0  0  0  0
  7  8  1  0  0  0  0
  7  9  1  0  0  0  0
  9 10  1  0  0  0  0
  9 11  1  0  0  0  0
  9 24  1  0  0  0  0
 11 12  1  0  0  0  0
 11 13  1  0  0  0  0
 11 14  1  0  0  0  0
 14 15  1  0  0  0  0
 14 16  1  0  0  0  0
 14 20  1  0  0  0  0
 16 17  1  0  0  0  0
 16 18  1  0  0  0  0
 16 19  1  0  0  0  0
 20 21  1  0  0  0  0
 20 22  1  0  0  0  0
 20 23  1  0  0  0  0
 24 25  2  0  0  0  0
 24 26  1  0  0  0  0
 26 27  1  0  0  0  0
 26 28  1  0  0  0  0
 28 29  1  0  0  0  0
 28 30  1  0  0  0  0
 28 31  1  0  0  0  0
M  END
$$$$

  -OEChem-01062216083D

 31 30  0     1  0  0  0  0  0999 V2000
   -3.3184   -2.8117    0.8299 H   0  0  0  0  0  0  0  0  0  0  0  0
   -3.2844   -1.8423    0.3249 C   0  0  0  0  0  0  0  0  0  0  0  0
   -4.1207   -1.2325    0.6750 H   0  0  0  0  0  0  0  0  0  0  0  0
   -3.3842   -2.0036   -0.7512 H   0  0  0  0  0  0  0  0  0  0  0  0
   -1.9723   -1.1429    0.6243 C   0  0  0  0  0  0  0  0  0  0  0  0
   -1.1903   -1.6208    1.4307 O   0  0  0  0  0  0  0  0  0  0  0  0
   -1.6926    0.0754    0.0425 N   0  0  0  0  0  0  0  0  0  0  0  0
   -2.3819    0.4517   -0.6024 H   0  0  0  0  0  0  0  0  0  0  0  0
   -0.3767    0.7334    0.1089 C   0  0  1  0  0  0  0  0  0  0  0  0
    0.3897    0.0460    0.4774 H   0  0  0  0  0  0  0  0  0  0  0  0
    0.0150    1.1925   -1.3124 C   0  0  0  0  0  0  0  0  0  0  0  0
   -0.7747    1.8442   -1.7014 H   0  0  0  0  0  0  0  0  0  0  0  0
    0.9292    1.7936   -1.2511 H   0  0  0  0  0  0  0  0  0  0  0  0
    0.2581    0.0318   -2.3029 C   0  0  0  0  0  0  0  0  0  0  0  0
   -0.6308   -0.6062   -2.3411 H   0  0  0  0  0  0  0  0  0  0  0  0
    0.4904    0.6083   -3.7042 C   0  0  0  0  0  0  0  0  0  0  0  0
    1.3774    1.2499   -3.7156 H   0  0  0  0  0  0  0  0  0  0  0  0
    0.6358   -0.1979   -4.4301 H   0  0  0  0  0  0  0  0  0  0  0  0
   -0.3722    1.2025   -4.0215 H   0  0  0  0  0  0  0  0  0  0  0  0
    1.4624   -0.8330   -1.9037 C   0  0  0  0  0  0  0  0  0  0  0  0
    1.2635   -1.3753   -0.9750 H   0  0  0  0  0  0  0  0  0  0  0  0
    1.6736   -1.5729   -2.6820 H   0  0  0  0  0  0  0  0  0  0  0  0
    2.3539   -0.2134   -1.7642 H   0  0  0  0  0  0  0  0  0  0  0  0
   -0.4275    1.9042    1.1136 C   0  0  0  0  0  0  0  0  0  0  0  0
   -0.2325    3.0661    0.7775 O   0  0  0  0  0  0  0  0  0  0  0  0
   -0.7465    1.6210    2.4277 N   0  0  0  0  0  0  0  0  0  0  0  0
   -0.9010    0.6401    2.6588 H   0  0  0  0  0  0  0  0  0  0  0  0
   -0.8498    2.6291    3.4739 C   0  0  0  0  0  0  0  0  0  0  0  0
   -1.6210    3.3643    3.2216 H   0  0  0  0  0  0  0  0  0  0  0  0
   -1.1175    2.1592    4.4251 H   0  0  0  0  0  0  0  0  0  0  0  0
    0.1057    3.1487    3.6007 H   0  0  0  0  0  0  0  0  0  0  0  0
  1  2  1  0  0  0  0
  2  3  1  0  0  0  0
  2  4  1  0  0  0  0
  2  5  1  0  0  0  0
  5  6  2  0  0  0  0
  5  7  1  0  0  0  0
  7  8  1  0  0  0  0
  7  9  1  0  0  0  0
  9 10  1  0  0  0  0
  9 11  1  0  0  0  0
  9 24  1  0  0  0  0
 11 12  1  0  0  0  0
 11 13  1  0  0  0  0
 11 14  1  0  0  0  0
 14 15  1  0  0  0  0
 14 16  1  0  0  0  0
 14 20  1  0  0  0  0
 16 17  1  0  0  0  0
 16 18  1  0  0  0  0
 16 19  1  0  0  0  0
 20 21  1  0  0  0  0
 20 22  1  0  0  0  0
 20 23  1  0  0  0  0
 24 25  2  0  0  0  0
 24 26  1  0  0  0  0
 26 27  1  0  0  0  0
 26 28  1  0  0  0  0
 28 29  1  0  0  0  0
 28 30  1  0  0  0  0
 28 31  1  0  0  0  0
M  END
$$$$

  -OEChem-01062216083D

 31 30  0     1  0  0  0  0  0999 V2000
   -3.3403   -2.7783    0.8879 H   0  0  0  0  0  0  0  0  0  0  0  0
   -3.3003   -1.8100    0.3810 C   0  0  0  0  0  0  0  0  0  0  0  0
   -4.1007   -1.1753    0.7690 H   0  0  0  0  0  0  0  0  0  0  0  0
   -3.4555   -1.9672   -0.6891 H   0  0  0  0  0  0  0  0  0  0  0  0
   -1.9548   -1.1511    0.6185 C   0  0  0  0  0  0  0  0  0  0  0  0
   -1.1421   -1.6673    1.3697 O   0  0  0  0  0  0  0  0  0  0  0  0
   -1.6722    0.0665    0.0359 N   0  0  0  0  0  0  0  0  0  0  0  0
   -2.3912    0.4880   -0.5457 H   0  0  0  0  0  0  0  0  0  0  0  0
   -0.3573    0.7229    0.1009 C   0  0  1  0  0  0  0  0  0  0  0  0
    0.4120    0.0359    0.4642 H   0  0  0  0  0  0  0  0  0  0  0  0
    0.0316    1.1887   -1.3185 C   0  0  0  0  0  0  0  0  0  0  0  0
   -0.7609    1.8388   -1.7047 H   0  0  0  0  0  0  0  0  0  0  0  0
    0.9431    1.7933   -1.2551 H   0  0  0  0  0  0  0  0  0  0  0  0
    0.2721    0.0326   -2.3148 C   0  0  0  0  0  0  0  0  0  0  0  0
   -0.6172   -0.6049   -2.3538 H   0  0  0  0  0  0  0  0  0  0  0  0
    0.5018    0.6153   -3.7139 C   0  0  0  0  0  0  0  0  0  0  0  0
    1.3905    1.2547   -3.7249 H   0  0  0  0  0  0  0  0  0  0  0  0
    0.6422   -0.1880   -4.4440 H   0  0  0  0  0  0  0  0  0  0  0  0
   -0.3604    1.2128   -4.0256 H   0  0  0  0  0  0  0  0  0  0  0  0
    1.4770   -0.8348   -1.9224 C   0  0  0  0  0  0  0  0  0  0  0  0
    1.2787   -1.3829   -0.9970 H   0  0  0  0  0  0  0  0  0  0  0  0
    1.6869   -1.5703   -2.7054 H   0  0  0  0  0  0  0  0  0  0  0  0
    2.3688   -0.2161   -1.7803 H   0  0  0  0  0  0  0  0  0  0  0  0
   -0.4108    1.8931    1.1037 C   0  0  0  0  0  0  0  0  0  0  0  0
   -0.4762    3.0609    0.7386 O   0  0  0  0  0  0  0  0  0  0  0  0
   -0.4165    1.5980    2.4534 N   0  0  0  0  0  0  0  0  0  0  0  0
   -0.4475    0.6109    2.7053 H   0  0  0  0  0  0  0  0  0  0  0  0
   -0.5378    2.6043    3.4995 C   0  0  0  0  0  0  0  0  0  0  0  0
   -1.4830    3.1478    3.4001 H   0  0  0  0  0  0  0  0  0  0  0  0
   -0.5130    2.1295    4.4850 H   0  0  0  0  0  0  0  0  0  0  0  0
    0.2893    3.3194    3.4399 H   0  0  0  0  0  0  0  0  0  0  0  0
  1  2  1  0  0  0  0
  2  3  1  0  0  0  0
  2  4  1  0  0  0  0
  2  5  1  0  0  0  0
  5  6  2  0  0  0  0
  5  7  1  0  0  0  0
  7  8  1  0  0  0  0
  7  9  1  0  0  0  0
  9 10  1  0  0  0  0
  9 11  1  0  0  0  0
  9 24  1  0  0  0  0
 11 12  1  0  0  0  0
 11 13  1  0  0  0  0
 11 14  1  0  0  0  0
 14 15  1  0  0  0  0
 14 16  1  0  0  0  0
 14 20  1  0  0  0  0
 16 17  1  0  0  0  0
 16 18  1  0  0  0  0
 16 19  1  0  0  0  0
 20 21  1  0  0  0  0
 20 22  1  0  0  0  0
 20 23  1  0  0  0  0
 24 25  2  0  0  0  0
 24 26  1  0  0  0  0
 26 27  1  0  0  0  0
 26 28  1  0  0  0  0
 28 29  1  0  0  0  0
 28 30  1  0  0  0  0
 28 31  1  0  0  0  0
M  END
$$$$

  -OEChem-01062216083D

 31 30  0     1  0  0  0  0  0999 V2000
   -3.3696   -2.7528    0.9463 H   0  0  0  0  0  0  0  0  0  0  0  0
   -3.3239   -1.7867    0.4357 C   0  0  0  0  0  0  0  0  0  0  0  0
   -4.0807   -1.1254    0.8647 H   0  0  0  0  0  0  0  0  0  0  0  0
   -3.5403   -1.9386   -0.6246 H   0  0  0  0  0  0  0  0  0  0  0  0
   -1.9463   -1.1735    0.6001 C   0  0  0  0  0  0  0  0  0  0  0  0
   -1.1026   -1.7369    1.2800 O   0  0  0  0  0  0  0  0  0  0  0  0
   -1.6625    0.0444    0.0184 N   0  0  0  0  0  0  0  0  0  0  0  0
   -2.4150    0.5210   -0.4713 H   0  0  0  0  0  0  0  0  0  0  0  0
   -0.3513    0.7055    0.0889 C   0  0  1  0  0  0  0  0  0  0  0  0
    0.4201    0.0199    0.4501 H   0  0  0  0  0  0  0  0  0  0  0  0
    0.0411    1.1822   -1.3253 C   0  0  0  0  0  0  0  0  0  0  0  0
   -0.7534    1.8303   -1.7113 H   0  0  0  0  0  0  0  0  0  0  0  0
    0.9486    1.7914   -1.2532 H   0  0  0  0  0  0  0  0  0  0  0  0
    0.2898    0.0340   -2.3285 C   0  0  0  0  0  0  0  0  0  0  0  0
   -0.5976   -0.6057   -2.3748 H   0  0  0  0  0  0  0  0  0  0  0  0
    0.5226    0.6270   -3.7227 C   0  0  0  0  0  0  0  0  0  0  0  0
    1.4115    1.2661   -3.7275 H   0  0  0  0  0  0  0  0  0  0  0  0
    0.6640   -0.1708   -4.4583 H   0  0  0  0  0  0  0  0  0  0  0  0
   -0.3389    1.2272   -4.0314 H   0  0  0  0  0  0  0  0  0  0  0  0
    1.4953   -0.8324   -1.9370 C   0  0  0  0  0  0  0  0  0  0  0  0
    1.2918   -1.3914   -1.0192 H   0  0  0  0  0  0  0  0  0  0  0  0
    1.7136   -1.5582   -2.7266 H   0  0  0  0  0  0  0  0  0  0  0  0
    2.3835   -0.2119   -1.7814 H   0  0  0  0  0  0  0  0  0  0  0  0
   -0.4091    1.8782    1.0880 C   0  0  0  0  0  0  0  0  0  0  0  0
   -0.7440    3.0028    0.7350 O   0  0  0  0  0  0  0  0  0  0  0  0
   -0.1070    1.6408    2.4154 N   0  0  0  0  0  0  0  0  0  0  0  0
    0.0377    0.6695    2.6848 H   0  0  0  0  0  0  0  0  0  0  0  0
   -0.2161    2.6544    3.4565 C   0  0  0  0  0  0  0  0  0  0  0  0
   -1.2482    3.0108    3.5384 H   0  0  0  0  0  0  0  0  0  0  0  0
    0.0846    2.2374    4.4224 H   0  0  0  0  0  0  0  0  0  0  0  0
    0.4346    3.5058    3.2308 H   0  0  0  0  0  0  0  0  0  0  0  0
  1  2  1  0  0  0  0
  2  3  1  0  0  0  0
  2  4  1  0  0  0  0
  2  5  1  0  0  0  0
  5  6  2  0  0  0  0
  5  7  1  0  0  0  0
  7  8  1  0  0  0  0
  7  9  1  0  0  0  0
  9 10  1  0  0  0  0
  9 11  1  0  0  0  0
  9 24  1  0  0  0  0
 11 12  1  0  0  0  0
 11 13  1  0  0  0  0
 11 14  1  0  0  0  0
 14 15  1  0  0  0  0
 14 16  1  0  0  0  0
 14 20  1  0  0  0  0
 16 17  1  0  0  0  0
 16 18  1  0  0  0  0
 16 19  1  0  0  0  0
 20 21  1  0  0  0  0
 20 22  1  0  0  0  0
 20 23  1  0  0  0  0
 24 25  2  0  0  0  0
 24 26  1  0  0  0  0
 26 27  1  0  0  0  0
 26 28  1  0  0  0  0
 28 29  1  0  0  0  0
 28 30  1  0  0  0  0
 28 31  1  0  0  0  0
M  END
$$$$

  -OEChem-01062216083D

 31 30  0     1  0  0  0  0  0999 V2000
   -3.4015   -2.7183    1.0168 H   0  0  0  0  0  0  0  0  0  0  0  0
   -3.3484   -1.7570    0.4979 C   0  0  0  0  0  0  0  0  0  0  0  0
   -4.0518   -1.0645    0.9666 H   0  0  0  0  0  0  0  0  0  0  0  0
   -3.6333   -1.9048   -0.5466 H   0  0  0  0  0  0  0  0  0  0  0  0
   -1.9408   -1.1972    0.5760 C   0  0  0  0  0  0  0  0  0  0  0  0
   -1.0723   -1.8094    1.1779 O   0  0  0  0  0  0  0  0  0  0  0  0
   -1.6554    0.0206   -0.0055 N   0  0  0  0  0  0  0  0  0  0  0  0
   -2.4346    0.5510   -0.3871 H   0  0  0  0  0  0  0  0  0  0  0  0
   -0.3469    0.6855    0.0730 C   0  0  1  0  0  0  0  0  0  0  0  0
    0.4233   -0.0009    0.4346 H   0  0  0  0  0  0  0  0  0  0  0  0
    0.0519    1.1756   -1.3339 C   0  0  0  0  0  0  0  0  0  0  0  0
   -0.7431    1.8238   -1.7187 H   0  0  0  0  0  0  0  0  0  0  0  0
    0.9568    1.7875   -1.2522 H   0  0  0  0  0  0  0  0  0  0  0  0
    0.3093    0.0360   -2.3449 C   0  0  0  0  0  0  0  0  0  0  0  0
   -0.5767   -0.6047   -2.4007 H   0  0  0  0  0  0  0  0  0  0  0  0
    0.5487    0.6394   -3.7338 C   0  0  0  0  0  0  0  0  0  0  0  0
    1.4363    1.2803   -3.7291 H   0  0  0  0  0  0  0  0  0  0  0  0
    0.6959   -0.1531   -4.4744 H   0  0  0  0  0  0  0  0  0  0  0  0
   -0.3124    1.2401   -4.0437 H   0  0  0  0  0  0  0  0  0  0  0  0
    1.5146   -0.8313   -1.9533 C   0  0  0  0  0  0  0  0  0  0  0  0
    1.3088   -1.3951   -1.0391 H   0  0  0  0  0  0  0  0  0  0  0  0
    1.7366   -1.5531   -2.7455 H   0  0  0  0  0  0  0  0  0  0  0  0
    2.4016   -0.2108   -1.7917 H   0  0  0  0  0  0  0  0  0  0  0  0
   -0.4110    1.8610    1.0676 C   0  0  0  0  0  0  0  0  0  0  0  0
   -1.0051    2.8928    0.7773 O   0  0  0  0  0  0  0  0  0  0  0  0
    0.1694    1.7360    2.3157 N   0  0  0  0  0  0  0  0  0  0  0  0
    0.5228    0.8160    2.5680 H   0  0  0  0  0  0  0  0  0  0  0  0
    0.0702    2.7590    3.3489 C   0  0  0  0  0  0  0  0  0  0  0  0
   -0.9759    2.9211    3.6287 H   0  0  0  0  0  0  0  0  0  0  0  0
    0.6242    2.4502    4.2405 H   0  0  0  0  0  0  0  0  0  0  0  0
    0.4911    3.7053    2.9929 H   0  0  0  0  0  0  0  0  0  0  0  0
  1  2  1  0  0  0  0
  2  3  1  0  0  0  0
  2  4  1  0  0  0  0
  2  5  1  0  0  0  0
  5  6  2  0  0  0  0
  5  7  1  0  0  0  0
  7  8  1  0  0  0  0
  7  9  1  0  0  0  0
  9 10  1  0  0  0  0
  9 11  1  0  0  0  0
  9 24  1  0  0  0  0
 11 12  1  0  0  0  0
 11 13  1  0  0  0  0
 11 14  1  0  0  0  0
 14 15  1  0  0  0  0
 14 16  1  0  0  0  0
 14 20  1  0  0  0  0
 16 17  1  0  0  0  0
 16 18  1  0  0  0  0
 16 19  1  0  0  0  0
 20 21  1  0  0  0  0
 20 22  1  0  0  0  0
 20 23  1  0  0  0  0
 24 25  2  0  0  0  0
 24 26  1  0  0  0  0
 26 27  1  0  0  0  0
 26 28  1  0  0  0  0
 28 29  1  0  0  0  0
 28 30  1  0  0  0  0
 28 31  1  0  0  0  0
M  END
$$$$

  -OEChem-01062216083D

 31 30  0     1  0  0  0  0  0999 V2000
   -3.4224   -2.7011    1.0628 H   0  0  0  0  0  0  0  0  0  0  0  0
   -3.3682   -1.7428    0.5384 C   0  0  0  0  0  0  0  0  0  0  0  0
   -4.0338   -1.0320    1.0340 H   0  0  0  0  0  0  0  0  0  0  0  0
   -3.7010   -1.8860   -0.4924 H   0  0  0  0  0  0  0  0  0  0  0  0
   -1.9450   -1.2176    0.5540 C   0  0  0  0  0  0  0  0  0  0  0  0
   -1.0627   -1.8634    1.0980 O   0  0  0  0  0  0  0  0  0  0  0  0
   -1.6601   -0.0000   -0.0286 N   0  0  0  0  0  0  0  0  0  0  0  0
   -2.4530    0.5650   -0.3237 H   0  0  0  0  0  0  0  0  0  0  0  0
   -0.3541    0.6696    0.0607 C   0  0  1  0  0  0  0  0  0  0  0  0
    0.4134   -0.0161    0.4289 H   0  0  0  0  0  0  0  0  0  0  0  0
    0.0533    1.1699   -1.3388 C   0  0  0  0  0  0  0  0  0  0  0  0
   -0.7414    1.8181   -1.7242 H   0  0  0  0  0  0  0  0  0  0  0  0
    0.9556    1.7840   -1.2469 H   0  0  0  0  0  0  0  0  0  0  0  0
    0.3220    0.0373   -2.3542 C   0  0  0  0  0  0  0  0  0  0  0  0
   -0.5602   -0.6079   -2.4194 H   0  0  0  0  0  0  0  0  0  0  0  0
    0.5696    0.6491   -3.7378 C   0  0  0  0  0  0  0  0  0  0  0  0
    1.4513    1.2977   -3.7220 H   0  0  0  0  0  0  0  0  0  0  0  0
    0.7303   -0.1388   -4.4802 H   0  0  0  0  0  0  0  0  0  0  0  0
   -0.2939    1.2431   -4.0532 H   0  0  0  0  0  0  0  0  0  0  0  0
    1.5292   -0.8251   -1.9582 C   0  0  0  0  0  0  0  0  0  0  0  0
    1.3218   -1.3914   -1.0458 H   0  0  0  0  0  0  0  0  0  0  0  0
    1.7579   -1.5450   -2.7501 H   0  0  0  0  0  0  0  0  0  0  0  0
    2.4127   -0.2009   -1.7917 H   0  0  0  0  0  0  0  0  0  0  0  0
   -0.4234    1.8492    1.0495 C   0  0  0  0  0  0  0  0  0  0  0  0
   -1.2192    2.7623    0.8615 O   0  0  0  0  0  0  0  0  0  0  0  0
    0.3920    1.8719    2.1655 N   0  0  0  0  0  0  0  0  0  0  0  0
    0.9487    1.0415    2.3503 H   0  0  0  0  0  0  0  0  0  0  0  0
    0.3289    2.9164    3.1799 C   0  0  0  0  0  0  0  0  0  0  0  0
   -0.6602    2.9358    3.6492 H   0  0  0  0  0  0  0  0  0  0  0  0
    1.0778    2.7344    3.9566 H   0  0  0  0  0  0  0  0  0  0  0  0
    0.5272    3.8965    2.7335 H   0  0  0  0  0  0  0  0  0  0  0  0
  1  2  1  0  0  0  0
  2  3  1  0  0  0  0
  2  4  1  0  0  0  0
  2  5  1  0  0  0  0
  5  6  2  0  0  0  0
  5  7  1  0  0  0  0
  7  8  1  0  0  0  0
  7  9  1  0  0  0  0
  9 10  1  0  0  0  0
  9 11  1  0  0  0  0
  9 24  1  0  0  0  0
 11 12  1  0  0  0  0
 11 13  1  0  0  0  0
 11 14  1  0  0  0  0
 14 15  1  0  0  0  0
 14 16  1  0  0  0  0
 14 20  1  0  0  0  0
 16 17  1  0  0  0  0
 16 18  1  0  0  0  0
 16 19  1  0  0  0  0
 20 21  1  0  0  0  0
 20 22  1  0  0  0  0
 20 23  1  0  0  0  0
 24 25  2  0  0  0  0
 24 26  1  0  0  0  0
 26 27  1  0  0  0  0
 26 28  1  0  0  0  0
 28 29  1  0  0  0  0
 28 30  1  0  0  0  0
 28 31  1  0  0  0  0
M  END
$$$$

  -OEChem-01062216083D

 31 30  0     1  0  0  0  0  0999 V2000
   -3.4289   -2.6854    1.1049 H   0  0  0  0  0  0  0  0  0  0  0  0
   -3.3776   -1.7295    0.5761 C   0  0  0  0  0  0  0  0  0  0  0  0
   -4.0089   -1.0052    1.0965 H   0  0  0  0  0  0  0  0  0  0  0  0
   -3.7540   -1.8680   -0.4402 H   0  0  0  0  0  0  0  0  0  0  0  0
   -1.9455   -1.2315    0.5333 C   0  0  0  0  0  0  0  0  0  0  0  0
   -1.0526   -1.9030    1.0266 O   0  0  0  0  0  0  0  0  0  0  0  0
   -1.6651   -0.0142   -0.0522 N   0  0  0  0  0  0  0  0  0  0  0  0
   -2.4653    0.5744   -0.2736 H   0  0  0  0  0  0  0  0  0  0  0  0
   -0.3614    0.6582    0.0488 C   0  0  1  0  0  0  0  0  0  0  0  0
    0.4034   -0.0264    0.4247 H   0  0  0  0  0  0  0  0  0  0  0  0
    0.0550    1.1662   -1.3437 C   0  0  0  0  0  0  0  0  0  0  0  0
   -0.7391    1.8141   -1.7307 H   0  0  0  0  0  0  0  0  0  0  0  0
    0.9557    1.7814   -1.2432 H   0  0  0  0  0  0  0  0  0  0  0  0
    0.3333    0.0389   -2.3619 C   0  0  0  0  0  0  0  0  0  0  0  0
   -0.5489   -0.6058   -2.4372 H   0  0  0  0  0  0  0  0  0  0  0  0
    0.5901    0.6586   -3.7403 C   0  0  0  0  0  0  0  0  0  0  0  0
    1.4703    1.3091   -3.7137 H   0  0  0  0  0  0  0  0  0  0  0  0
    0.7590   -0.1248   -4.4858 H   0  0  0  0  0  0  0  0  0  0  0  0
   -0.2723    1.2525   -4.0588 H   0  0  0  0  0  0  0  0  0  0  0  0
    1.5365   -0.8259   -1.9598 C   0  0  0  0  0  0  0  0  0  0  0  0
    1.3184   -1.3999   -1.0546 H   0  0  0  0  0  0  0  0  0  0  0  0
    1.7742   -1.5390   -2.7553 H   0  0  0  0  0  0  0  0  0  0  0  0
    2.4176   -0.2026   -1.7779 H   0  0  0  0  0  0  0  0  0  0  0  0
   -0.4398    1.8409    1.0334 C   0  0  0  0  0  0  0  0  0  0  0  0
   -1.3866    2.6182    0.9814 O   0  0  0  0  0  0  0  0  0  0  0  0
    0.5535    2.0364    1.9748 N   0  0  0  0  0  0  0  0  0  0  0  0
    1.2729    1.3224    2.0502 H   0  0  0  0  0  0  0  0  0  0  0  0
    0.5186    3.1082    2.9619 C   0  0  0  0  0  0  0  0  0  0  0  0
   -0.3572    3.0040    3.6110 H   0  0  0  0  0  0  0  0  0  0  0  0
    1.4175    3.0774    3.5851 H   0  0  0  0  0  0  0  0  0  0  0  0
    0.4760    4.0837    2.4661 H   0  0  0  0  0  0  0  0  0  0  0  0
  1  2  1  0  0  0  0
  2  3  1  0  0  0  0
  2  4  1  0  0  0  0
  2  5  1  0  0  0  0
  5  6  2  0  0  0  0
  5  7  1  0  0  0  0
  7  8  1  0  0  0  0
  7  9  1  0  0  0  0
  9 10  1  0  0  0  0
  9 11  1  0  0  0  0
  9 24  1  0  0  0  0
 11 12  1  0  0  0  0
 11 13  1  0  0  0  0
 11 14  1  0  0  0  0
 14 15  1  0  0  0  0
 14 16  1  0  0  0  0
 14 20  1  0  0  0  0
 16 17  1  0  0  0  0
 16 18  1  0  0  0  0
 16 19  1  0  0  0  0
 20 21  1  0  0  0  0
 20 22  1  0  0  0  0
 20 23  1  0  0  0  0
 24 25  2  0  0  0  0
 24 26  1  0  0  0  0
 26 27  1  0  0  0  0
 26 28  1  0  0  0  0
 28 29  1  0  0  0  0
 28 30  1  0  0  0  0
 28 31  1  0  0  0  0
M  END
$$$$

  -OEChem-01062216083D

 31 30  0     1  0  0  0  0  0999 V2000
   -3.4337   -2.6784    1.1266 H   0  0  0  0  0  0  0  0  0  0  0  0
   -3.3863   -1.7238    0.5952 C   0  0  0  0  0  0  0  0  0  0  0  0
   -3.9952   -0.9919    1.1316 H   0  0  0  0  0  0  0  0  0  0  0  0
   -3.7921   -1.8595   -0.4101 H   0  0  0  0  0  0  0  0  0  0  0  0
   -1.9506   -1.2411    0.5125 C   0  0  0  0  0  0  0  0  0  0  0  0
   -1.0505   -1.9302    0.9672 O   0  0  0  0  0  0  0  0  0  0  0  0
   -1.6754   -0.0221   -0.0724 N   0  0  0  0  0  0  0  0  0  0  0  0
   -2.4802    0.5788   -0.2376 H   0  0  0  0  0  0  0  0  0  0  0  0
   -0.3746    0.6558    0.0425 C   0  0  1  0  0  0  0  0  0  0  0  0
    0.3885   -0.0261    0.4268 H   0  0  0  0  0  0  0  0  0  0  0  0
    0.0490    1.1649   -1.3476 C   0  0  0  0  0  0  0  0  0  0  0  0
   -0.7467    1.8078   -1.7397 H   0  0  0  0  0  0  0  0  0  0  0  0
    0.9456    1.7853   -1.2433 H   0  0  0  0  0  0  0  0  0  0  0  0
    0.3396    0.0382   -2.3631 C   0  0  0  0  0  0  0  0  0  0  0  0
   -0.5378   -0.6125   -2.4427 H   0  0  0  0  0  0  0  0  0  0  0  0
    0.6028    0.6577   -3.7401 C   0  0  0  0  0  0  0  0  0  0  0  0
    1.4772    1.3155   -3.7073 H   0  0  0  0  0  0  0  0  0  0  0  0
    0.7847   -0.1254   -4.4828 H   0  0  0  0  0  0  0  0  0  0  0  0
   -0.2619    1.2438   -4.0668 H   0  0  0  0  0  0  0  0  0  0  0  0
    1.5467   -0.8177   -1.9535 C   0  0  0  0  0  0  0  0  0  0  0  0
    1.3309   -1.3873   -1.0451 H   0  0  0  0  0  0  0  0  0  0  0  0
    1.7894   -1.5342   -2.7445 H   0  0  0  0  0  0  0  0  0  0  0  0
    2.4244   -0.1889   -1.7746 H   0  0  0  0  0  0  0  0  0  0  0  0
   -0.4573    1.8413    1.0251 C   0  0  0  0  0  0  0  0  0  0  0  0
   -1.4998    2.4780    1.1340 O   0  0  0  0  0  0  0  0  0  0  0  0
    0.6534    2.2221    1.7551 N   0  0  0  0  0  0  0  0  0  0  0  0
    1.4803    1.6352    1.6901 H   0  0  0  0  0  0  0  0  0  0  0  0
    0.6428    3.3213    2.7123 C   0  0  0  0  0  0  0  0  0  0  0  0
   -0.0707    3.1209    3.5183 H   0  0  0  0  0  0  0  0  0  0  0  0
    1.6363    3.4484    3.1525 H   0  0  0  0  0  0  0  0  0  0  0  0
    0.3629    4.2574    2.2179 H   0  0  0  0  0  0  0  0  0  0  0  0
  1  2  1  0  0  0  0
  2  3  1  0  0  0  0
  2  4  1  0  0  0  0
  2  5  1  0  0  0  0
  5  6  2  0  0  0  0
  5  7  1  0  0  0  0
  7  8  1  0  0  0  0
  7  9  1  0  0  0  0
  9 10  1  0  0  0  0
  9 11  1  0  0  0  0
  9 24  1  0  0  0  0
 11 12  1  0  0  0  0
 11 13  1  0  0  0  0
 11 14  1  0  0  0  0
 14 15  1  0  0  0  0
 14 16  1  0  0  0  0
 14 20  1  0  0  0  0
 16 17  1  0  0  0  0
 16 18  1  0  0  0  0
 16 19  1  0  0  0  0
 20 21  1  0  0  0  0
 20 22  1  0  0  0  0
 20 23  1  0  0  0  0
 24 25  2  0  0  0  0
 24 26  1  0  0  0  0
 26 27  1  0  0  0  0
 26 28  1  0  0  0  0
 28 29  1  0  0  0  0
 28 30  1  0  0  0  0
 28 31  1  0  0  0  0
M  END
$$$$

  -OEChem-01062216083D

 31 30  0     1  0  0  0  0  0999 V2000
   -3.4319   -2.6667    1.1535 H   0  0  0  0  0  0  0  0  0  0  0  0
   -3.3898   -1.7155    0.6158 C   0  0  0  0  0  0  0  0  0  0  0  0
   -3.9759   -0.9752    1.1659 H   0  0  0  0  0  0  0  0  0  0  0  0
   -3.8249   -1.8511   -0.3771 H   0  0  0  0  0  0  0  0  0  0  0  0
   -1.9519   -1.2483    0.4914 C   0  0  0  0  0  0  0  0  0  0  0  0
   -1.0462   -1.9532    0.9095 O   0  0  0  0  0  0  0  0  0  0  0  0
   -1.6826   -0.0270   -0.0918 N   0  0  0  0  0  0  0  0  0  0  0  0
   -2.4903    0.5808   -0.2121 H   0  0  0  0  0  0  0  0  0  0  0  0
   -0.3837    0.6538    0.0373 C   0  0  1  0  0  0  0  0  0  0  0  0
    0.3786   -0.0248    0.4294 H   0  0  0  0  0  0  0  0  0  0  0  0
    0.0461    1.1627   -1.3522 C   0  0  0  0  0  0  0  0  0  0  0  0
   -0.7495    1.8027   -1.7490 H   0  0  0  0  0  0  0  0  0  0  0  0
    0.9412    1.7845   -1.2465 H   0  0  0  0  0  0  0  0  0  0  0  0
    0.3460    0.0374   -2.3665 C   0  0  0  0  0  0  0  0  0  0  0  0
   -0.5289   -0.6159   -2.4520 H   0  0  0  0  0  0  0  0  0  0  0  0
    0.6145    0.6580   -3.7423 C   0  0  0  0  0  0  0  0  0  0  0  0
    1.4924    1.3112   -3.7074 H   0  0  0  0  0  0  0  0  0  0  0  0
    0.7930   -0.1252   -4.4856 H   0  0  0  0  0  0  0  0  0  0  0  0
   -0.2465    1.2490   -4.0700 H   0  0  0  0  0  0  0  0  0  0  0  0
    1.5534   -0.8146   -1.9497 C   0  0  0  0  0  0  0  0  0  0  0  0
    1.3322   -1.3873   -1.0445 H   0  0  0  0  0  0  0  0  0  0  0  0
    1.8057   -1.5282   -2.7402 H   0  0  0  0  0  0  0  0  0  0  0  0
    2.4269   -0.1823   -1.7619 H   0  0  0  0  0  0  0  0  0  0  0  0
   -0.4732    1.8395    1.0215 C   0  0  0  0  0  0  0  0  0  0  0  0
   -1.5622    2.3254    1.3092 O   0  0  0  0  0  0  0  0  0  0  0  0
    0.6790    2.4158    1.5246 N   0  0  0  0  0  0  0  0  0  0  0  0
    1.5636    1.9691    1.3013 H   0  0  0  0  0  0  0  0  0  0  0  0
    0.6718    3.5444    2.4471 C   0  0  0  0  0  0  0  0  0  0  0  0
    0.1601    3.2749    3.3770 H   0  0  0  0  0  0  0  0  0  0  0  0
    1.6966    3.8423    2.6890 H   0  0  0  0  0  0  0  0  0  0  0  0
    0.1600    4.4026    1.9989 H   0  0  0  0  0  0  0  0  0  0  0  0
  1  2  1  0  0  0  0
  2  3  1  0  0  0  0
  2  4  1  0  0  0  0
  2  5  1  0  0  0  0
  5  6  2  0  0  0  0
  5  7  1  0  0  0  0
  7  8  1  0  0  0  0
  7  9  1  0  0  0  0
  9 10  1  0  0  0  0
  9 11  1  0  0  0  0
  9 24  1  0  0  0  0
 11 12  1  0  0  0  0
 11 13  1  0  0  0  0
 11 14  1  0  0  0  0
 14 15  1  0  0  0  0
 14 16  1  0  0  0  0
 14 20  1  0  0  0  0
 16 17  1  0  0  0  0
 16 18  1  0  0  0  0
 16 19  1  0  0  0  0
 20 21  1  0  0  0  0
 20 22  1  0  0  0  0
 20 23  1  0  0  0  0
 24 25  2  0  0  0  0
 24 26  1  0  0  0  0
 26 27  1  0  0  0  0
 26 28  1  0  0  0  0
 28 29  1  0  0  0  0
 28 30  1  0  0  0  0
 28 31  1  0  0  0  0
M  END
$$$$

  -OEChem-01062216083D

 31 30  0     1  0  0  0  0  0999 V2000
   -3.3679   -2.6915    1.1460 H   0  0  0  0  0  0  0  0  0  0  0  0
   -3.3583   -1.7102    0.6633 C   0  0  0  0  0  0  0  0  0  0  0  0
   -3.8896   -0.9997    1.3013 H   0  0  0  0  0  0  0  0  0  0  0  0
   -3.8725   -1.7839   -0.2978 H   0  0  0  0  0  0  0  0  0  0  0  0
   -1.9298   -1.2450    0.4533 C   0  0  0  0  0  0  0  0  0  0  0  0
   -1.0009   -1.9610    0.7952 O   0  0  0  0  0  0  0  0  0  0  0  0
   -1.6931   -0.0155   -0.1284 N   0  0  0  0  0  0  0  0  0  0  0  0
   -2.5104    0.5867   -0.1795 H   0  0  0  0  0  0  0  0  0  0  0  0
   -0.3971    0.6694    0.0142 C   0  0  1  0  0  0  0  0  0  0  0  0
    0.4130   -0.0534    0.1440 H   0  0  0  0  0  0  0  0  0  0  0  0
   -0.1484    1.4884   -1.2697 C   0  0  0  0  0  0  0  0  0  0  0  0
   -0.9959    2.1661   -1.4201 H   0  0  0  0  0  0  0  0  0  0  0  0
    0.7436    2.1091   -1.1383 H   0  0  0  0  0  0  0  0  0  0  0  0
    0.0440    0.6232   -2.5351 C   0  0  0  0  0  0  0  0  0  0  0  0
   -0.8235   -0.0332   -2.6613 H   0  0  0  0  0  0  0  0  0  0  0  0
    0.1326    1.5370   -3.7627 C   0  0  0  0  0  0  0  0  0  0  0  0
    0.9899    2.2130   -3.6814 H   0  0  0  0  0  0  0  0  0  0  0  0
    0.2448    0.9416   -4.6744 H   0  0  0  0  0  0  0  0  0  0  0  0
   -0.7773    2.1377   -3.8582 H   0  0  0  0  0  0  0  0  0  0  0  0
    1.3071   -0.2471   -2.4597 C   0  0  0  0  0  0  0  0  0  0  0  0
    1.2068   -1.0135   -1.6859 H   0  0  0  0  0  0  0  0  0  0  0  0
    1.4731   -0.7587   -3.4129 H   0  0  0  0  0  0  0  0  0  0  0  0
    2.1867    0.3650   -2.2375 H   0  0  0  0  0  0  0  0  0  0  0  0
   -0.3759    1.5898    1.2584 C   0  0  0  0  0  0  0  0  0  0  0  0
   -1.3956    1.7766    1.9143 O   0  0  0  0  0  0  0  0  0  0  0  0
    0.7570    2.3213    1.5695 N   0  0  0  0  0  0  0  0  0  0  0  0
    1.5998    2.1281    1.0368 H   0  0  0  0  0  0  0  0  0  0  0  0
    0.8385    3.2236    2.7121 C   0  0  0  0  0  0  0  0  0  0  0  0
    0.6672    2.6767    3.6453 H   0  0  0  0  0  0  0  0  0  0  0  0
    1.8290    3.6863    2.7588 H   0  0  0  0  0  0  0  0  0  0  0  0
    0.0902    4.0186    2.6270 H   0  0  0  0  0  0  0  0  0  0  0  0
  1  2  1  0  0  0  0
  2  3  1  0  0  0  0
  2  4  1  0  0  0  0
  2  5  1  0  0  0  0
  5  6  2  0  0  0  0
  5  7  1  0  0  0  0
  7  8  1  0  0  0  0
  7  9  1  0  0  0  0
  9 10  1  0  0  0  0
  9 11  1  0  0  0  0
  9 24  1  0  0  0  0
 11 12  1  0  0  0  0
 11 13  1  0  0  0  0
 11 14  1  0  0  0  0
 14 15  1  0  0  0  0
 14 16  1  0  0  0  0
 14 20  1  0  0  0  0
 16 17  1  0  0  0  0
 16 18  1  0  0  0  0
 16 19  1  0  0  0  0
 20 21  1  0  0  0  0
 20 22  1  0  0  0  0
 20 23  1  0  0  0  0
 24 25  2  0  0  0  0
 24 26  1  0  0  0  0
 26 27  1  0  0  0  0
 26 28  1  0  0  0  0
 28 29  1  0  0  0  0
 28 30  1  0  0  0  0
 28 31  1  0  0  0  0
M  END
$$$$

  -OEChem-01062216083D

 31 30  0     1  0  0  0  0  0999 V2000
   -3.3550   -2.6581    1.1918 H   0  0  0  0  0  0  0  0  0  0  0  0
   -3.3508   -1.6957    0.6726 C   0  0  0  0  0  0  0  0  0  0  0  0
   -3.8794   -0.9632    1.2877 H   0  0  0  0  0  0  0  0  0  0  0  0
   -3.8711   -1.8057   -0.2816 H   0  0  0  0  0  0  0  0  0  0  0  0
   -1.9247   -1.2366    0.4354 C   0  0  0  0  0  0  0  0  0  0  0  0
   -0.9934   -1.9692    0.7331 O   0  0  0  0  0  0  0  0  0  0  0  0
   -1.6946   -0.0020   -0.1391 N   0  0  0  0  0  0  0  0  0  0  0  0
   -2.5132    0.5992   -0.1691 H   0  0  0  0  0  0  0  0  0  0  0  0
   -0.3980    0.6819    0.0082 C   0  0  1  0  0  0  0  0  0  0  0  0
    0.4127   -0.0402    0.1393 H   0  0  0  0  0  0  0  0  0  0  0  0
   -0.1496    1.4914   -1.2839 C   0  0  0  0  0  0  0  0  0  0  0  0
   -0.9974    2.1672   -1.4403 H   0  0  0  0  0  0  0  0  0  0  0  0
    0.7432    2.1122   -1.1634 H   0  0  0  0  0  0  0  0  0  0  0  0
    0.0441    0.6154   -2.5417 C   0  0  0  0  0  0  0  0  0  0  0  0
   -0.8225   -0.0433   -2.6626 H   0  0  0  0  0  0  0  0  0  0  0  0
    0.1318    1.5192   -3.7769 C   0  0  0  0  0  0  0  0  0  0  0  0
    0.9920    2.1924   -3.7042 H   0  0  0  0  0  0  0  0  0  0  0  0
    0.2384    0.9162   -4.6842 H   0  0  0  0  0  0  0  0  0  0  0  0
   -0.7760    2.1226   -3.8738 H   0  0  0  0  0  0  0  0  0  0  0  0
    1.3072   -0.2536   -2.4588 C   0  0  0  0  0  0  0  0  0  0  0  0
    1.2064   -1.0142   -1.6792 H   0  0  0  0  0  0  0  0  0  0  0  0
    1.4735   -0.7723   -3.4081 H   0  0  0  0  0  0  0  0  0  0  0  0
    2.1867    0.3602   -2.2405 H   0  0  0  0  0  0  0  0  0  0  0  0
   -0.3789    1.5933    1.2626 C   0  0  0  0  0  0  0  0  0  0  0  0
   -1.3141    1.5817    2.0558 O   0  0  0  0  0  0  0  0  0  0  0  0
    0.6069    2.5511    1.4291 N   0  0  0  0  0  0  0  0  0  0  0  0
    1.3887    2.5347    0.7814 H   0  0  0  0  0  0  0  0  0  0  0  0
    0.6557    3.4648    2.5646 C   0  0  0  0  0  0  0  0  0  0  0  0
    0.7457    2.9064    3.5024 H   0  0  0  0  0  0  0  0  0  0  0  0
    1.5178    4.1326    2.4751 H   0  0  0  0  0  0  0  0  0  0  0  0
   -0.2516    4.0769    2.6044 H   0  0  0  0  0  0  0  0  0  0  0  0
  1  2  1  0  0  0  0
  2  3  1  0  0  0  0
  2  4  1  0  0  0  0
  2  5  1  0  0  0  0
  5  6  2  0  0  0  0
  5  7  1  0  0  0  0
  7  8  1  0  0  0  0
  7  9  1  0  0  0  0
  9 10  1  0  0  0  0
  9 11  1  0  0  0  0
  9 24  1  0  0  0  0
 11 12  1  0  0  0  0
 11 13  1  0  0  0  0
 11 14  1  0  0  0  0
 14 15  1  0  0  0  0
 14 16  1  0  0  0  0
 14 20  1  0  0  0  0
 16 17  1  0  0  0  0
 16 18  1  0  0  0  0
 16 19  1  0  0  0  0
 20 21  1  0  0  0  0
 20 22  1  0  0  0  0
 20 23  1  0  0  0  0
 24 25  2  0  0  0  0
 24 26  1  0  0  0  0
 26 27  1  0  0  0  0
 26 28  1  0  0  0  0
 28 29  1  0  0  0  0
 28 30  1  0  0  0  0
 28 31  1  0  0  0  0
M  END
$$$$

  -OEChem-01062216083D

 31 30  0     1  0  0  0  0  0999 V2000
   -3.3427   -2.6827    1.1259 H   0  0  0  0  0  0  0  0  0  0  0  0
   -3.3429   -1.6819    0.6852 C   0  0  0  0  0  0  0  0  0  0  0  0
   -3.8321   -0.9932    1.3785 H   0  0  0  0  0  0  0  0  0  0  0  0
   -3.9042   -1.7083   -0.2518 H   0  0  0  0  0  0  0  0  0  0  0  0
   -1.9198   -1.2260    0.4263 C   0  0  0  0  0  0  0  0  0  0  0  0
   -0.9873   -1.9698    0.6897 O   0  0  0  0  0  0  0  0  0  0  0  0
   -1.6953    0.0125   -0.1433 N   0  0  0  0  0  0  0  0  0  0  0  0
   -2.5163    0.6095   -0.1737 H   0  0  0  0  0  0  0  0  0  0  0  0
   -0.3981    0.6970    0.0011 C   0  0  1  0  0  0  0  0  0  0  0  0
    0.4134   -0.0237    0.1348 H   0  0  0  0  0  0  0  0  0  0  0  0
   -0.1484    1.4934   -1.2998 C   0  0  0  0  0  0  0  0  0  0  0  0
   -0.9933    2.1709   -1.4633 H   0  0  0  0  0  0  0  0  0  0  0  0
    0.7491    2.1088   -1.1868 H   0  0  0  0  0  0  0  0  0  0  0  0
    0.0461    0.6041   -2.5485 C   0  0  0  0  0  0  0  0  0  0  0  0
   -0.8209   -0.0552   -2.6636 H   0  0  0  0  0  0  0  0  0  0  0  0
    0.1351    1.4955   -3.7928 C   0  0  0  0  0  0  0  0  0  0  0  0
    0.9951    2.1694   -3.7261 H   0  0  0  0  0  0  0  0  0  0  0  0
    0.2429    0.8834   -4.6937 H   0  0  0  0  0  0  0  0  0  0  0  0
   -0.7726    2.0981   -3.8967 H   0  0  0  0  0  0  0  0  0  0  0  0
    1.3082   -0.2653   -2.4555 C   0  0  0  0  0  0  0  0  0  0  0  0
    1.2043   -1.0197   -1.6703 H   0  0  0  0  0  0  0  0  0  0  0  0
    1.4768   -0.7916   -3.4001 H   0  0  0  0  0  0  0  0  0  0  0  0
    2.1876    0.3492   -2.2393 H   0  0  0  0  0  0  0  0  0  0  0  0
   -0.3794    1.6014    1.2630 C   0  0  0  0  0  0  0  0  0  0  0  0
   -1.1667    1.4012    2.1808 O   0  0  0  0  0  0  0  0  0  0  0  0
    0.3906    2.7518    1.3146 N   0  0  0  0  0  0  0  0  0  0  0  0
    1.0494    2.9092    0.5585 H   0  0  0  0  0  0  0  0  0  0  0  0
    0.3933    3.6681    2.4490 C   0  0  0  0  0  0  0  0  0  0  0  0
    0.7148    3.1505    3.3590 H   0  0  0  0  0  0  0  0  0  0  0  0
    1.0805    4.4989    2.2624 H   0  0  0  0  0  0  0  0  0  0  0  0
   -0.6085    4.0792    2.6121 H   0  0  0  0  0  0  0  0  0  0  0  0
  1  2  1  0  0  0  0
  2  3  1  0  0  0  0
  2  4  1  0  0  0  0
  2  5  1  0  0  0  0
  5  6  2  0  0  0  0
  5  7  1  0  0  0  0
  7  8  1  0  0  0  0
  7  9  1  0  0  0  0
  9 10  1  0  0  0  0
  9 11  1  0  0  0  0
  9 24  1  0  0  0  0
 11 12  1  0  0  0  0
 11 13  1  0  0  0  0
 11 14  1  0  0  0  0
 14 15  1  0  0  0  0
 14 16  1  0  0  0  0
 14 20  1  0  0  0  0
 16 17  1  0  0  0  0
 16 18  1  0  0  0  0
 16 19  1  0  0  0  0
 20 21  1  0  0  0  0
 20 22  1  0  0  0  0
 20 23  1  0  0  0  0
 24 25  2  0  0  0  0
 24 26  1  0  0  0  0
 26 27  1  0  0  0  0
 26 28  1  0  0  0  0
 28 29  1  0  0  0  0
 28 30  1  0  0  0  0
 28 31  1  0  0  0  0
M  END
$$$$

  -OEChem-01062216083D

 31 30  0     1  0  0  0  0  0999 V2000
   -3.3363   -2.6813    1.1233 H   0  0  0  0  0  0  0  0  0  0  0  0
   -3.3391   -1.6724    0.7015 C   0  0  0  0  0  0  0  0  0  0  0  0
   -3.8101   -0.9940    1.4172 H   0  0  0  0  0  0  0  0  0  0  0  0
   -3.9192   -1.6785   -0.2242 H   0  0  0  0  0  0  0  0  0  0  0  0
   -1.9186   -1.2193    0.4225 C   0  0  0  0  0  0  0  0  0  0  0  0
   -0.9859   -1.9729    0.6541 O   0  0  0  0  0  0  0  0  0  0  0  0
   -1.6996    0.0224   -0.1435 N   0  0  0  0  0  0  0  0  0  0  0  0
   -2.5232    0.6148   -0.1775 H   0  0  0  0  0  0  0  0  0  0  0  0
   -0.4027    0.7096   -0.0075 C   0  0  1  0  0  0  0  0  0  0  0  0
    0.4082   -0.0115    0.1285 H   0  0  0  0  0  0  0  0  0  0  0  0
   -0.1458    1.4978   -1.3118 C   0  0  0  0  0  0  0  0  0  0  0  0
   -0.9876    2.1771   -1.4841 H   0  0  0  0  0  0  0  0  0  0  0  0
    0.7549    2.1088   -1.1966 H   0  0  0  0  0  0  0  0  0  0  0  0
    0.0520    0.5996   -2.5535 C   0  0  0  0  0  0  0  0  0  0  0  0
   -0.8165   -0.0579   -2.6674 H   0  0  0  0  0  0  0  0  0  0  0  0
    0.1480    1.4829   -3.8027 C   0  0  0  0  0  0  0  0  0  0  0  0
    1.0142    2.1493   -3.7403 H   0  0  0  0  0  0  0  0  0  0  0  0
    0.2496    0.8641   -4.6997 H   0  0  0  0  0  0  0  0  0  0  0  0
   -0.7542    2.0930   -3.9100 H   0  0  0  0  0  0  0  0  0  0  0  0
    1.3117   -0.2729   -2.4516 C   0  0  0  0  0  0  0  0  0  0  0  0
    1.2024   -1.0248   -1.6648 H   0  0  0  0  0  0  0  0  0  0  0  0
    1.4839   -0.8024   -3.3938 H   0  0  0  0  0  0  0  0  0  0  0  0
    2.1919    0.3396   -2.2330 H   0  0  0  0  0  0  0  0  0  0  0  0
   -0.3827    1.6074    1.2590 C   0  0  0  0  0  0  0  0  0  0  0  0
   -0.9597    1.2485    2.2779 O   0  0  0  0  0  0  0  0  0  0  0  0
    0.1185    2.8987    1.2274 N   0  0  0  0  0  0  0  0  0  0  0  0
    0.5803    3.2026    0.3762 H   0  0  0  0  0  0  0  0  0  0  0  0
    0.0784    3.8069    2.3681 C   0  0  0  0  0  0  0  0  0  0  0  0
    0.6221    3.3799    3.2174 H   0  0  0  0  0  0  0  0  0  0  0  0
    0.5413    4.7634    2.1071 H   0  0  0  0  0  0  0  0  0  0  0  0
   -0.9567    3.9960    2.6713 H   0  0  0  0  0  0  0  0  0  0  0  0
  1  2  1  0  0  0  0
  2  3  1  0  0  0  0
  2  4  1  0  0  0  0
  2  5  1  0  0  0  0
  5  6  2  0  0  0  0
  5  7  1  0  0  0  0
  7  8  1  0  0  0  0
  7  9  1  0  0  0  0
  9 10  1  0  0  0  0
  9 11  1  0  0  0  0
  9 24  1  0  0  0  0
 11 12  1  0  0  0  0
 11 13  1  0  0  0  0
 11 14  1  0  0  0  0
 14 15  1  0  0  0  0
 14 16  1  0  0  0  0
 14 20  1  0  0  0  0
 16 17  1  0  0  0  0
 16 18  1  0  0  0  0
 16 19  1  0  0  0  0
 20 21  1  0  0  0  0
 20 22  1  0  0  0  0
 20 23  1  0  0  0  0
 24 25  2  0  0  0  0
 24 26  1  0  0  0  0
 26 27  1  0  0  0  0
 26 28  1  0  0  0  0
 28 29  1  0  0  0  0
 28 30  1  0  0  0  0
 28 31  1  0  0  0  0
M  END
$$$$

  -OEChem-01062216083D

 31 30  0     1  0  0  0  0  0999 V2000
   -3.3364   -2.6683    1.1586 H   0  0  0  0  0  0  0  0  0  0  0  0
   -3.3432   -1.6770    0.6968 C   0  0  0  0  0  0  0  0  0  0  0  0
   -3.8388   -0.9780    1.3749 H   0  0  0  0  0  0  0  0  0  0  0  0
   -3.9024   -1.7277   -0.2403 H   0  0  0  0  0  0  0  0  0  0  0  0
   -1.9227   -1.2171    0.4299 C   0  0  0  0  0  0  0  0  0  0  0  0
   -0.9899   -1.9699    0.6617 O   0  0  0  0  0  0  0  0  0  0  0  0
   -1.7051    0.0249   -0.1365 N   0  0  0  0  0  0  0  0  0  0  0  0
   -2.5319    0.6103   -0.1992 H   0  0  0  0  0  0  0  0  0  0  0  0
   -0.4104    0.7164   -0.0073 C   0  0  1  0  0  0  0  0  0  0  0  0
    0.4014   -0.0035    0.1320 H   0  0  0  0  0  0  0  0  0  0  0  0
   -0.1482    1.5019   -1.3114 C   0  0  0  0  0  0  0  0  0  0  0  0
   -0.9900    2.1790   -1.4909 H   0  0  0  0  0  0  0  0  0  0  0  0
    0.7514    2.1138   -1.1872 H   0  0  0  0  0  0  0  0  0  0  0  0
    0.0551    0.6027   -2.5514 C   0  0  0  0  0  0  0  0  0  0  0  0
   -0.8136   -0.0540   -2.6685 H   0  0  0  0  0  0  0  0  0  0  0  0
    0.1566    1.4838   -3.8019 C   0  0  0  0  0  0  0  0  0  0  0  0
    1.0182    2.1557   -3.7337 H   0  0  0  0  0  0  0  0  0  0  0  0
    0.2697    0.8634   -4.6964 H   0  0  0  0  0  0  0  0  0  0  0  0
   -0.7485    2.0878   -3.9189 H   0  0  0  0  0  0  0  0  0  0  0  0
    1.3132   -0.2711   -2.4413 C   0  0  0  0  0  0  0  0  0  0  0  0
    1.1980   -1.0223   -1.6545 H   0  0  0  0  0  0  0  0  0  0  0  0
    1.4909   -0.8019   -3.3818 H   0  0  0  0  0  0  0  0  0  0  0  0
    2.1923    0.3411   -2.2173 H   0  0  0  0  0  0  0  0  0  0  0  0
   -0.3908    1.6140    1.2572 C   0  0  0  0  0  0  0  0  0  0  0  0
   -0.7122    1.1527    2.3438 O   0  0  0  0  0  0  0  0  0  0  0  0
   -0.1906    2.9825    1.1716 N   0  0  0  0  0  0  0  0  0  0  0  0
    0.0527    3.3657    0.2636 H   0  0  0  0  0  0  0  0  0  0  0  0
   -0.2498    3.8782    2.3212 C   0  0  0  0  0  0  0  0  0  0  0  0
    0.5084    3.6021    3.0617 H   0  0  0  0  0  0  0  0  0  0  0  0
   -0.0666    4.9100    2.0066 H   0  0  0  0  0  0  0  0  0  0  0  0
   -1.2369    3.8314    2.7935 H   0  0  0  0  0  0  0  0  0  0  0  0
  1  2  1  0  0  0  0
  2  3  1  0  0  0  0
  2  4  1  0  0  0  0
  2  5  1  0  0  0  0
  5  6  2  0  0  0  0
  5  7  1  0  0  0  0
  7  8  1  0  0  0  0
  7  9  1  0  0  0  0
  9 10  1  0  0  0  0
  9 11  1  0  0  0  0
  9 24  1  0  0  0  0
 11 12  1  0  0  0  0
 11 13  1  0  0  0  0
 11 14  1  0  0  0  0
 14 15  1  0  0  0  0
 14 16  1  0  0  0  0
 14 20  1  0  0  0  0
 16 17  1  0  0  0  0
 16 18  1  0  0  0  0
 16 19  1  0  0  0  0
 20 21  1  0  0  0  0
 20 22  1  0  0  0  0
 20 23  1  0  0  0  0
 24 25  2  0  0  0  0
 24 26  1  0  0  0  0
 26 27  1  0  0  0  0
 26 28  1  0  0  0  0
 28 29  1  0  0  0  0
 28 30  1  0  0  0  0
 28 31  1  0  0  0  0
M  END
$$$$

  -OEChem-01062216083D

 31 30  0     1  0  0  0  0  0999 V2000
   -3.3548   -2.6832    1.1408 H   0  0  0  0  0  0  0  0  0  0  0  0
   -3.3561   -1.7009    0.6603 C   0  0  0  0  0  0  0  0  0  0  0  0
   -3.8938   -0.9984    1.3014 H   0  0  0  0  0  0  0  0  0  0  0  0
   -3.8710   -1.7786   -0.3000 H   0  0  0  0  0  0  0  0  0  0  0  0
   -1.9322   -1.2225    0.4485 C   0  0  0  0  0  0  0  0  0  0  0  0
   -1.0006   -1.9625    0.7187 O   0  0  0  0  0  0  0  0  0  0  0  0
   -1.7109    0.0183   -0.1188 N   0  0  0  0  0  0  0  0  0  0  0  0
   -2.5409    0.5913   -0.2314 H   0  0  0  0  0  0  0  0  0  0  0  0
   -0.4210    0.7193    0.0049 C   0  0  1  0  0  0  0  0  0  0  0  0
    0.3936    0.0025    0.1455 H   0  0  0  0  0  0  0  0  0  0  0  0
   -0.1589    1.5042   -1.2984 C   0  0  0  0  0  0  0  0  0  0  0  0
   -1.0049    2.1738   -1.4849 H   0  0  0  0  0  0  0  0  0  0  0  0
    0.7340    2.1249   -1.1662 H   0  0  0  0  0  0  0  0  0  0  0  0
    0.0528    0.6052   -2.5368 C   0  0  0  0  0  0  0  0  0  0  0  0
   -0.8106   -0.0582   -2.6550 H   0  0  0  0  0  0  0  0  0  0  0  0
    0.1534    1.4870   -3.7870 C   0  0  0  0  0  0  0  0  0  0  0  0
    1.0111    2.1636   -3.7154 H   0  0  0  0  0  0  0  0  0  0  0  0
    0.2734    0.8682   -4.6820 H   0  0  0  0  0  0  0  0  0  0  0  0
   -0.7545    2.0864   -3.9069 H   0  0  0  0  0  0  0  0  0  0  0  0
    1.3178   -0.2586   -2.4247 C   0  0  0  0  0  0  0  0  0  0  0  0
    1.2091   -1.0089   -1.6362 H   0  0  0  0  0  0  0  0  0  0  0  0
    1.4995   -0.7898   -3.3642 H   0  0  0  0  0  0  0  0  0  0  0  0
    2.1922    0.3609   -2.2022 H   0  0  0  0  0  0  0  0  0  0  0  0
   -0.4003    1.6225    1.2622 C   0  0  0  0  0  0  0  0  0  0  0  0
   -0.4149    1.1270    2.3795 O   0  0  0  0  0  0  0  0  0  0  0  0
   -0.5172    2.9993    1.1590 N   0  0  0  0  0  0  0  0  0  0  0  0
   -0.5147    3.4023    0.2276 H   0  0  0  0  0  0  0  0  0  0  0  0
   -0.5665    3.8904    2.3124 C   0  0  0  0  0  0  0  0  0  0  0  0
    0.3546    3.8081    2.8989 H   0  0  0  0  0  0  0  0  0  0  0  0
   -0.6768    4.9283    1.9841 H   0  0  0  0  0  0  0  0  0  0  0  0
   -1.4171    3.6394    2.9548 H   0  0  0  0  0  0  0  0  0  0  0  0
  1  2  1  0  0  0  0
  2  3  1  0  0  0  0
  2  4  1  0  0  0  0
  2  5  1  0  0  0  0
  5  6  2  0  0  0  0
  5  7  1  0  0  0  0
  7  8  1  0  0  0  0
  7  9  1  0  0  0  0
  9 10  1  0  0  0  0
  9 11  1  0  0  0  0
  9 24  1  0  0  0  0
 11 12  1  0  0  0  0
 11 13  1  0  0  0  0
 11 14  1  0  0  0  0
 14 15  1  0  0  0  0
 14 16  1  0  0  0  0
 14 20  1  0  0  0  0
 16 17  1  0  0  0  0
 16 18  1  0  0  0  0
 16 19  1  0  0  0  0
 20 21  1  0  0  0  0
 20 22  1  0  0  0  0
 20 23  1  0  0  0  0
 24 25  2  0  0  0  0
 24 26  1  0  0  0  0
 26 27  1  0  0  0  0
 26 28  1  0  0  0  0
 28 29  1  0  0  0  0
 28 30  1  0  0  0  0
 28 31  1  0  0  0  0
M  END
$$$$

  -OEChem-01062216083D

 31 30  0     1  0  0  0  0  0999 V2000
   -3.3753   -2.7232    1.0923 H   0  0  0  0  0  0  0  0  0  0  0  0
   -3.3713   -1.7441    0.6050 C   0  0  0  0  0  0  0  0  0  0  0  0
   -3.9596   -1.0499    1.2100 H   0  0  0  0  0  0  0  0  0  0  0  0
   -3.8300   -1.8395   -0.3820 H   0  0  0  0  0  0  0  0  0  0  0  0
   -1.9481   -1.2361    0.4692 C   0  0  0  0  0  0  0  0  0  0  0  0
   -1.0199   -1.9480    0.8133 O   0  0  0  0  0  0  0  0  0  0  0  0
   -1.7205    0.0035   -0.0980 N   0  0  0  0  0  0  0  0  0  0  0  0
   -2.5500    0.5552   -0.2904 H   0  0  0  0  0  0  0  0  0  0  0  0
   -0.4357    0.7151    0.0238 C   0  0  1  0  0  0  0  0  0  0  0  0
    0.3819    0.0011    0.1634 H   0  0  0  0  0  0  0  0  0  0  0  0
   -0.1754    1.5059   -1.2757 C   0  0  0  0  0  0  0  0  0  0  0  0
   -1.0248    2.1700   -1.4648 H   0  0  0  0  0  0  0  0  0  0  0  0
    0.7114    2.1338   -1.1355 H   0  0  0  0  0  0  0  0  0  0  0  0
    0.0451    0.6122   -2.5164 C   0  0  0  0  0  0  0  0  0  0  0  0
   -0.8129   -0.0576   -2.6384 H   0  0  0  0  0  0  0  0  0  0  0  0
    0.1435    1.4972   -3.7642 C   0  0  0  0  0  0  0  0  0  0  0  0
    0.9970    2.1784   -3.6886 H   0  0  0  0  0  0  0  0  0  0  0  0
    0.2700    0.8805   -4.6595 H   0  0  0  0  0  0  0  0  0  0  0  0
   -0.7673    2.0914   -3.8854 H   0  0  0  0  0  0  0  0  0  0  0  0
    1.3166   -0.2412   -2.4024 C   0  0  0  0  0  0  0  0  0  0  0  0
    1.2108   -0.9963   -1.6181 H   0  0  0  0  0  0  0  0  0  0  0  0
    1.5079   -0.7657   -3.3437 H   0  0  0  0  0  0  0  0  0  0  0  0
    2.1844    0.3850   -2.1723 H   0  0  0  0  0  0  0  0  0  0  0  0
   -0.4148    1.6257    1.2735 C   0  0  0  0  0  0  0  0  0  0  0  0
   -0.0859    1.1809    2.3628 O   0  0  0  0  0  0  0  0  0  0  0  0
   -0.8410    2.9421    1.2012 N   0  0  0  0  0  0  0  0  0  0  0  0
   -1.0834    3.3076    0.2862 H   0  0  0  0  0  0  0  0  0  0  0  0
   -0.8512    3.8445    2.3466 C   0  0  0  0  0  0  0  0  0  0  0  0
    0.1637    3.9823    2.7343 H   0  0  0  0  0  0  0  0  0  0  0  0
   -1.2463    4.8223    2.0552 H   0  0  0  0  0  0  0  0  0  0  0  0
   -1.4821    3.4422    3.1462 H   0  0  0  0  0  0  0  0  0  0  0  0
  1  2  1  0  0  0  0
  2  3  1  0  0  0  0
  2  4  1  0  0  0  0
  2  5  1  0  0  0  0
  5  6  2  0  0  0  0
  5  7  1  0  0  0  0
  7  8  1  0  0  0  0
  7  9  1  0  0  0  0
  9 10  1  0  0  0  0
  9 11  1  0  0  0  0
  9 24  1  0  0  0  0
 11 12  1  0  0  0  0
 11 13  1  0  0  0  0
 11 14  1  0  0  0  0
 14 15  1  0  0  0  0
 14 16  1  0  0  0  0
 14 20  1  0  0  0  0
 16 17  1  0  0  0  0
 16 18  1  0  0  0  0
 16 19  1  0  0  0  0
 20 21  1  0  0  0  0
 20 22  1  0  0  0  0
 20 23  1  0  0  0  0
 24 25  2  0  0  0  0
 24 26  1  0  0  0  0
 26 27  1  0  0  0  0
 26 28  1  0  0  0  0
 28 29  1  0  0  0  0
 28 30  1  0  0  0  0
 28 31  1  0  0  0  0
M  END
$$$$

  -OEChem-01062216083D

 31 30  0     1  0  0  0  0  0999 V2000
   -3.3994   -2.7837    1.0035 H   0  0  0  0  0  0  0  0  0  0  0  0
   -3.3769   -1.8160    0.4942 C   0  0  0  0  0  0  0  0  0  0  0  0
   -4.0629   -1.1357    1.0041 H   0  0  0  0  0  0  0  0  0  0  0  0
   -3.7080   -1.9542   -0.5378 H   0  0  0  0  0  0  0  0  0  0  0  0
   -1.9701   -1.2480    0.5158 C   0  0  0  0  0  0  0  0  0  0  0  0
   -1.0636   -1.9042    0.9975 O   0  0  0  0  0  0  0  0  0  0  0  0
   -1.7274   -0.0121   -0.0522 N   0  0  0  0  0  0  0  0  0  0  0  0
   -2.5371    0.4940   -0.3943 H   0  0  0  0  0  0  0  0  0  0  0  0
   -0.4444    0.7047    0.0615 C   0  0  1  0  0  0  0  0  0  0  0  0
    0.3734   -0.0111    0.1936 H   0  0  0  0  0  0  0  0  0  0  0  0
   -0.1944    1.5030   -1.2339 C   0  0  0  0  0  0  0  0  0  0  0  0
   -1.0451    2.1681   -1.4123 H   0  0  0  0  0  0  0  0  0  0  0  0
    0.6911    2.1330   -1.0933 H   0  0  0  0  0  0  0  0  0  0  0  0
    0.0214    0.6183   -2.4817 C   0  0  0  0  0  0  0  0  0  0  0  0
   -0.8347   -0.0533   -2.6036 H   0  0  0  0  0  0  0  0  0  0  0  0
    0.1090    1.5134   -3.7233 C   0  0  0  0  0  0  0  0  0  0  0  0
    0.9577    2.2006   -3.6454 H   0  0  0  0  0  0  0  0  0  0  0  0
    0.2366    0.9052   -4.6244 H   0  0  0  0  0  0  0  0  0  0  0  0
   -0.8067    2.1021   -3.8363 H   0  0  0  0  0  0  0  0  0  0  0  0
    1.2966   -0.2316   -2.3823 C   0  0  0  0  0  0  0  0  0  0  0  0
    1.2012   -0.9887   -1.5988 H   0  0  0  0  0  0  0  0  0  0  0  0
    1.4802   -0.7534   -3.3267 H   0  0  0  0  0  0  0  0  0  0  0  0
    2.1647    0.3967   -2.1593 H   0  0  0  0  0  0  0  0  0  0  0  0
   -0.4088    1.6269    1.3008 C   0  0  0  0  0  0  0  0  0  0  0  0
    0.2713    1.3408    2.2747 O   0  0  0  0  0  0  0  0  0  0  0  0
   -1.1078    2.8231    1.3081 N   0  0  0  0  0  0  0  0  0  0  0  0
   -1.6319    3.0665    0.4747 H   0  0  0  0  0  0  0  0  0  0  0  0
   -1.0759    3.7624    2.4231 C   0  0  0  0  0  0  0  0  0  0  0  0
   -0.0523    4.1069    2.6051 H   0  0  0  0  0  0  0  0  0  0  0  0
   -1.6997    4.6337    2.2021 H   0  0  0  0  0  0  0  0  0  0  0  0
   -1.4549    3.2879    3.3345 H   0  0  0  0  0  0  0  0  0  0  0  0
  1  2  1  0  0  0  0
  2  3  1  0  0  0  0
  2  4  1  0  0  0  0
  2  5  1  0  0  0  0
  5  6  2  0  0  0  0
  5  7  1  0  0  0  0
  7  8  1  0  0  0  0
  7  9  1  0  0  0  0
  9 10  1  0  0  0  0
  9 11  1  0  0  0  0
  9 24  1  0  0  0  0
 11 12  1  0  0  0  0
 11 13  1  0  0  0  0
 11 14  1  0  0  0  0
 14 15  1  0  0  0  0
 14 16  1  0  0  0  0
 14 20  1  0  0  0  0
 16 17  1  0  0  0  0
 16 18  1  0  0  0  0
 16 19  1  0  0  0  0
 20 21  1  0  0  0  0
 20 22  1  0  0  0  0
 20 23  1  0  0  0  0
 24 25  2  0  0  0  0
 24 26  1  0  0  0  0
 26 27  1  0  0  0  0
 26 28  1  0  0  0  0
 28 29  1  0  0  0  0
 28 30  1  0  0  0  0
 28 31  1  0  0  0  0
M  END
$$$$

  -OEChem-01062216083D

 31 30  0     1  0  0  0  0  0999 V2000
   -3.3803   -2.8631    0.8700 H   0  0  0  0  0  0  0  0  0  0  0  0
   -3.3546   -1.8904    0.3704 C   0  0  0  0  0  0  0  0  0  0  0  0
   -4.1448   -1.2613    0.7867 H   0  0  0  0  0  0  0  0  0  0  0  0
   -3.5379   -2.0388   -0.6963 H   0  0  0  0  0  0  0  0  0  0  0  0
   -2.0031   -1.2328    0.5793 C   0  0  0  0  0  0  0  0  0  0  0  0
   -1.1540   -1.7968    1.2461 O   0  0  0  0  0  0  0  0  0  0  0  0
   -1.7448   -0.0055    0.0007 N   0  0  0  0  0  0  0  0  0  0  0  0
   -2.4686    0.3834   -0.5946 H   0  0  0  0  0  0  0  0  0  0  0  0
   -0.4529    0.6974    0.1004 C   0  0  1  0  0  0  0  0  0  0  0  0
    0.3557   -0.0300    0.2253 H   0  0  0  0  0  0  0  0  0  0  0  0
   -0.2071    1.5004   -1.1920 C   0  0  0  0  0  0  0  0  0  0  0  0
   -1.0497    2.1804   -1.3538 H   0  0  0  0  0  0  0  0  0  0  0  0
    0.6880    2.1182   -1.0560 H   0  0  0  0  0  0  0  0  0  0  0  0
   -0.0147    0.6234   -2.4488 C   0  0  0  0  0  0  0  0  0  0  0  0
   -0.8789   -0.0383   -2.5678 H   0  0  0  0  0  0  0  0  0  0  0  0
    0.0705    1.5276   -3.6837 C   0  0  0  0  0  0  0  0  0  0  0  0
    0.9283    2.2038   -3.6084 H   0  0  0  0  0  0  0  0  0  0  0  0
    0.1821    0.9256   -4.5910 H   0  0  0  0  0  0  0  0  0  0  0  0
   -0.8388    2.1283   -3.7825 H   0  0  0  0  0  0  0  0  0  0  0  0
    1.2533   -0.2388   -2.3678 C   0  0  0  0  0  0  0  0  0  0  0  0
    1.1602   -0.9994   -1.5874 H   0  0  0  0  0  0  0  0  0  0  0  0
    1.4229   -0.7562   -3.3173 H   0  0  0  0  0  0  0  0  0  0  0  0
    2.1288    0.3813   -2.1502 H   0  0  0  0  0  0  0  0  0  0  0  0
   -0.3876    1.6310    1.3279 C   0  0  0  0  0  0  0  0  0  0  0  0
    0.5581    1.5732    2.1006 O   0  0  0  0  0  0  0  0  0  0  0  0
   -1.2954    2.6679    1.4634 N   0  0  0  0  0  0  0  0  0  0  0  0
   -2.0744    2.6930    0.8150 H   0  0  0  0  0  0  0  0  0  0  0  0
   -1.2512    3.6325    2.5556 C   0  0  0  0  0  0  0  0  0  0  0  0
   -0.2959    4.1679    2.5555 H   0  0  0  0  0  0  0  0  0  0  0  0
   -2.0566    4.3650    2.4464 H   0  0  0  0  0  0  0  0  0  0  0  0
   -1.3713    3.1255    3.5188 H   0  0  0  0  0  0  0  0  0  0  0  0
  1  2  1  0  0  0  0
  2  3  1  0  0  0  0
  2  4  1  0  0  0  0
  2  5  1  0  0  0  0
  5  6  2  0  0  0  0
  5  7  1  0  0  0  0
  7  8  1  0  0  0  0
  7  9  1  0  0  0  0
  9 10  1  0  0  0  0
  9 11  1  0  0  0  0
  9 24  1  0  0  0  0
 11 12  1  0  0  0  0
 11 13  1  0  0  0  0
 11 14  1  0  0  0  0
 14 15  1  0  0  0  0
 14 16  1  0  0  0  0
 14 20  1  0  0  0  0
 16 17  1  0  0  0  0
 16 18  1  0  0  0  0
 16 19  1  0  0  0  0
 20 21  1  0  0  0  0
 20 22  1  0  0  0  0
 20 23  1  0  0  0  0
 24 25  2  0  0  0  0
 24 26  1  0  0  0  0
 26 27  1  0  0  0  0
 26 28  1  0  0  0  0
 28 29  1  0  0  0  0
 28 30  1  0  0  0  0
 28 31  1  0  0  0  0
M  END
$$$$

  -OEChem-01062216083D

 31 30  0     1  0  0  0  0  0999 V2000
   -3.3457   -2.9019    0.8003 H   0  0  0  0  0  0  0  0  0  0  0  0
   -3.3261   -1.9284    0.3017 C   0  0  0  0  0  0  0  0  0  0  0  0
   -4.1710   -1.3343    0.6580 H   0  0  0  0  0  0  0  0  0  0  0  0
   -3.4248   -2.0841   -0.7753 H   0  0  0  0  0  0  0  0  0  0  0  0
   -2.0235   -1.2127    0.6067 C   0  0  0  0  0  0  0  0  0  0  0  0
   -1.2197   -1.7169    1.3704 O   0  0  0  0  0  0  0  0  0  0  0  0
   -1.7599    0.0085    0.0183 N   0  0  0  0  0  0  0  0  0  0  0  0
   -2.4140    0.3209   -0.6922 H   0  0  0  0  0  0  0  0  0  0  0  0
   -0.4584    0.6944    0.1175 C   0  0  1  0  0  0  0  0  0  0  0  0
    0.3417   -0.0427    0.2400 H   0  0  0  0  0  0  0  0  0  0  0  0
   -0.2114    1.4992   -1.1727 C   0  0  0  0  0  0  0  0  0  0  0  0
   -1.0468    2.1913   -1.3224 H   0  0  0  0  0  0  0  0  0  0  0  0
    0.6916    2.1059   -1.0398 H   0  0  0  0  0  0  0  0  0  0  0  0
   -0.0367    0.6259   -2.4350 C   0  0  0  0  0  0  0  0  0  0  0  0
   -0.9084   -0.0259   -2.5527 H   0  0  0  0  0  0  0  0  0  0  0  0
    0.0513    1.5344   -3.6670 C   0  0  0  0  0  0  0  0  0  0  0  0
    0.9199    2.1973   -3.5975 H   0  0  0  0  0  0  0  0  0  0  0  0
    0.1445    0.9348   -4.5780 H   0  0  0  0  0  0  0  0  0  0  0  0
   -0.8495    2.1497   -3.7545 H   0  0  0  0  0  0  0  0  0  0  0  0
    1.2227   -0.2502   -2.3638 C   0  0  0  0  0  0  0  0  0  0  0  0
    1.1230   -1.0156   -1.5890 H   0  0  0  0  0  0  0  0  0  0  0  0
    1.3852   -0.7619   -3.3176 H   0  0  0  0  0  0  0  0  0  0  0  0
    2.1053    0.3585   -2.1429 H   0  0  0  0  0  0  0  0  0  0  0  0
   -0.3737    1.6334    1.3381 C   0  0  0  0  0  0  0  0  0  0  0  0
    0.6911    1.7879    1.9199 O   0  0  0  0  0  0  0  0  0  0  0  0
   -1.4282    2.4786    1.6363 N   0  0  0  0  0  0  0  0  0  0  0  0
   -2.3122    2.2820    1.1798 H   0  0  0  0  0  0  0  0  0  0  0  0
   -1.3996    3.4282    2.7417 C   0  0  0  0  0  0  0  0  0  0  0  0
   -0.5650    4.1276    2.6243 H   0  0  0  0  0  0  0  0  0  0  0  0
   -2.3296    4.0040    2.7702 H   0  0  0  0  0  0  0  0  0  0  0  0
   -1.2866    2.9014    3.6952 H   0  0  0  0  0  0  0  0  0  0  0  0
  1  2  1  0  0  0  0
  2  3  1  0  0  0  0
  2  4  1  0  0  0  0
  2  5  1  0  0  0  0
  5  6  2  0  0  0  0
  5  7  1  0  0  0  0
  7  8  1  0  0  0  0
  7  9  1  0  0  0  0
  9 10  1  0  0  0  0
  9 11  1  0  0  0  0
  9 24  1  0  0  0  0
 11 12  1  0  0  0  0
 11 13  1  0  0  0  0
 11 14  1  0  0  0  0
 14 15  1  0  0  0  0
 14 16  1  0  0  0  0
 14 20  1  0  0  0  0
 16 17  1  0  0  0  0
 16 18  1  0  0  0  0
 16 19  1  0  0  0  0
 20 21  1  0  0  0  0
 20 22  1  0  0  0  0
 20 23  1  0  0  0  0
 24 25  2  0  0  0  0
 24 26  1  0  0  0  0
 26 27  1  0  0  0  0
 26 28  1  0  0  0  0
 28 29  1  0  0  0  0
 28 30  1  0  0  0  0
 28 31  1  0  0  0  0
M  END
$$$$

  -OEChem-01062216083D

 31 30  0     1  0  0  0  0  0999 V2000
   -3.3396   -2.9061    0.7844 H   0  0  0  0  0  0  0  0  0  0  0  0
   -3.3169   -1.9388    0.2742 C   0  0  0  0  0  0  0  0  0  0  0  0
   -4.1779   -1.3498    0.5988 H   0  0  0  0  0  0  0  0  0  0  0  0
   -3.3840   -2.1095   -0.8029 H   0  0  0  0  0  0  0  0  0  0  0  0
   -2.0308   -1.2054    0.6054 C   0  0  0  0  0  0  0  0  0  0  0  0
   -1.2434   -1.6889    1.3993 O   0  0  0  0  0  0  0  0  0  0  0  0
   -1.7647    0.0143    0.0153 N   0  0  0  0  0  0  0  0  0  0  0  0
   -2.4013    0.3126   -0.7176 H   0  0  0  0  0  0  0  0  0  0  0  0
   -0.4598    0.6954    0.1188 C   0  0  1  0  0  0  0  0  0  0  0  0
    0.3379   -0.0440    0.2425 H   0  0  0  0  0  0  0  0  0  0  0  0
   -0.2130    1.4990   -1.1726 C   0  0  0  0  0  0  0  0  0  0  0  0
   -1.0470    2.1934   -1.3198 H   0  0  0  0  0  0  0  0  0  0  0  0
    0.6922    2.1035   -1.0434 H   0  0  0  0  0  0  0  0  0  0  0  0
   -0.0418    0.6247   -2.4348 C   0  0  0  0  0  0  0  0  0  0  0  0
   -0.9153   -0.0246   -2.5512 H   0  0  0  0  0  0  0  0  0  0  0  0
    0.0462    1.5332   -3.6666 C   0  0  0  0  0  0  0  0  0  0  0  0
    0.9135    2.1976   -3.5951 H   0  0  0  0  0  0  0  0  0  0  0  0
    0.1421    0.9338   -4.5774 H   0  0  0  0  0  0  0  0  0  0  0  0
   -0.8557    2.1470   -3.7554 H   0  0  0  0  0  0  0  0  0  0  0  0
    1.2148   -0.2553   -2.3651 C   0  0  0  0  0  0  0  0  0  0  0  0
    1.1194   -1.0122   -1.5816 H   0  0  0  0  0  0  0  0  0  0  0  0
    1.3669   -0.7773   -3.3149 H   0  0  0  0  0  0  0  0  0  0  0  0
    2.1014    0.3526   -2.1582 H   0  0  0  0  0  0  0  0  0  0  0  0
   -0.3682    1.6372    1.3377 C   0  0  0  0  0  0  0  0  0  0  0  0
    0.7266    1.9802    1.7631 O   0  0  0  0  0  0  0  0  0  0  0  0
   -1.5036    2.2599    1.8247 N   0  0  0  0  0  0  0  0  0  0  0  0
   -2.3917    1.8844    1.5090 H   0  0  0  0  0  0  0  0  0  0  0  0
   -1.4859    3.1659    2.9666 C   0  0  0  0  0  0  0  0  0  0  0  0
   -0.8273    4.0185    2.7700 H   0  0  0  0  0  0  0  0  0  0  0  0
   -2.4924    3.5472    3.1627 H   0  0  0  0  0  0  0  0  0  0  0  0
   -1.1303    2.6453    3.8619 H   0  0  0  0  0  0  0  0  0  0  0  0
  1  2  1  0  0  0  0
  2  3  1  0  0  0  0
  2  4  1  0  0  0  0
  2  5  1  0  0  0  0
  5  6  2  0  0  0  0
  5  7  1  0  0  0  0
  7  8  1  0  0  0  0
  7  9  1  0  0  0  0
  9 10  1  0  0  0  0
  9 11  1  0  0  0  0
  9 24  1  0  0  0  0
 11 12  1  0  0  0  0
 11 13  1  0  0  0  0
 11 14  1  0  0  0  0
 14 15  1  0  0  0  0
 14 16  1  0  0  0  0
 14 20  1  0  0  0  0
 16 17  1  0  0  0  0
 16 18  1  0  0  0  0
 16 19  1  0  0  0  0
 20 21  1  0  0  0  0
 20 22  1  0  0  0  0
 20 23  1  0  0  0  0
 24 25  2  0  0  0  0
 24 26  1  0  0  0  0
 26 27  1  0  0  0  0
 26 28  1  0  0  0  0
 28 29  1  0  0  0  0
 28 30  1  0  0  0  0
 28 31  1  0  0  0  0
M  END
$$$$

  -OEChem-01062216083D

 31 30  0     1  0  0  0  0  0999 V2000
   -3.3321   -2.9126    0.7417 H   0  0  0  0  0  0  0  0  0  0  0  0
   -3.3117   -1.9392    0.2434 C   0  0  0  0  0  0  0  0  0  0  0  0
   -4.1809   -1.3608    0.5649 H   0  0  0  0  0  0  0  0  0  0  0  0
   -3.3659   -2.0977   -0.8362 H   0  0  0  0  0  0  0  0  0  0  0  0
   -2.0353   -1.1994    0.5971 C   0  0  0  0  0  0  0  0  0  0  0  0
   -1.2651   -1.6693    1.4156 O   0  0  0  0  0  0  0  0  0  0  0  0
   -1.7639    0.0211    0.0119 N   0  0  0  0  0  0  0  0  0  0  0  0
   -2.3961    0.3250   -0.7225 H   0  0  0  0  0  0  0  0  0  0  0  0
   -0.4582    0.7004    0.1217 C   0  0  1  0  0  0  0  0  0  0  0  0
    0.3386   -0.0392    0.2460 H   0  0  0  0  0  0  0  0  0  0  0  0
   -0.2159    1.4986   -1.1757 C   0  0  0  0  0  0  0  0  0  0  0  0
   -1.0520    2.1902   -1.3235 H   0  0  0  0  0  0  0  0  0  0  0  0
    0.6880    2.1068   -1.0550 H   0  0  0  0  0  0  0  0  0  0  0  0
   -0.0454    0.6193   -2.4347 C   0  0  0  0  0  0  0  0  0  0  0  0
   -0.9175   -0.0325   -2.5467 H   0  0  0  0  0  0  0  0  0  0  0  0
    0.0378    1.5221   -3.6710 C   0  0  0  0  0  0  0  0  0  0  0  0
    0.9052    2.1871   -3.6056 H   0  0  0  0  0  0  0  0  0  0  0  0
    0.1308    0.9185   -4.5794 H   0  0  0  0  0  0  0  0  0  0  0  0
   -0.8647    2.1348   -3.7595 H   0  0  0  0  0  0  0  0  0  0  0  0
    1.2138   -0.2564   -2.3645 C   0  0  0  0  0  0  0  0  0  0  0  0
    1.1203   -1.0138   -1.5812 H   0  0  0  0  0  0  0  0  0  0  0  0
    1.3683   -0.7775   -3.3144 H   0  0  0  0  0  0  0  0  0  0  0  0
    2.0980    0.3548   -2.1571 H   0  0  0  0  0  0  0  0  0  0  0  0
   -0.3647    1.6415    1.3434 C   0  0  0  0  0  0  0  0  0  0  0  0
    0.7019    2.1700    1.6286 O   0  0  0  0  0  0  0  0  0  0  0  0
   -1.5066    2.0241    2.0240 N   0  0  0  0  0  0  0  0  0  0  0  0
   -2.3397    1.4759    1.8359 H   0  0  0  0  0  0  0  0  0  0  0  0
   -1.4812    2.8862    3.1989 C   0  0  0  0  0  0  0  0  0  0  0  0
   -1.0265    3.8524    2.9560 H   0  0  0  0  0  0  0  0  0  0  0  0
   -2.4990    3.0660    3.5579 H   0  0  0  0  0  0  0  0  0  0  0  0
   -0.9054    2.4181    4.0042 H   0  0  0  0  0  0  0  0  0  0  0  0
  1  2  1  0  0  0  0
  2  3  1  0  0  0  0
  2  4  1  0  0  0  0
  2  5  1  0  0  0  0
  5  6  2  0  0  0  0
  5  7  1  0  0  0  0
  7  8  1  0  0  0  0
  7  9  1  0  0  0  0
  9 10  1  0  0  0  0
  9 11  1  0  0  0  0
  9 24  1  0  0  0  0
 11 12  1  0  0  0  0
 11 13  1  0  0  0  0
 11 14  1  0  0  0  0
 14 15  1  0  0  0  0
 14 16  1  0  0  0  0
 14 20  1  0  0  0  0
 16 17  1  0  0  0  0
 16 18  1  0  0  0  0
 16 19  1  0  0  0  0
 20 21  1  0  0  0  0
 20 22  1  0  0  0  0
 20 23  1  0  0  0  0
 24 25  2  0  0  0  0
 24 26  1  0  0  0  0
 26 27  1  0  0  0  0
 26 28  1  0  0  0  0
 28 29  1  0  0  0  0
 28 30  1  0  0  0  0
 28 31  1  0  0  0  0
M  END
$$$$

  -OEChem-01062216083D

 31 30  0     1  0  0  0  0  0999 V2000
   -3.3473   -2.8895    0.7418 H   0  0  0  0  0  0  0  0  0  0  0  0
   -3.3064   -1.9312    0.2165 C   0  0  0  0  0  0  0  0  0  0  0  0
   -4.1816   -1.3398    0.4953 H   0  0  0  0  0  0  0  0  0  0  0  0
   -3.3294   -2.1202   -0.8594 H   0  0  0  0  0  0  0  0  0  0  0  0
   -2.0369   -1.1874    0.5854 C   0  0  0  0  0  0  0  0  0  0  0  0
   -1.2798   -1.6463    1.4225 O   0  0  0  0  0  0  0  0  0  0  0  0
   -1.7628    0.0349    0.0071 N   0  0  0  0  0  0  0  0  0  0  0  0
   -2.3972    0.3478   -0.7220 H   0  0  0  0  0  0  0  0  0  0  0  0
   -0.4571    0.7144    0.1212 C   0  0  1  0  0  0  0  0  0  0  0  0
    0.3395   -0.0251    0.2459 H   0  0  0  0  0  0  0  0  0  0  0  0
   -0.2199    1.5051   -1.1834 C   0  0  0  0  0  0  0  0  0  0  0  0
   -1.0582    2.1937   -1.3334 H   0  0  0  0  0  0  0  0  0  0  0  0
    0.6827    2.1168   -1.0735 H   0  0  0  0  0  0  0  0  0  0  0  0
   -0.0499    0.6152   -2.4352 C   0  0  0  0  0  0  0  0  0  0  0  0
   -0.9206   -0.0398   -2.5403 H   0  0  0  0  0  0  0  0  0  0  0  0
    0.0279    1.5076   -3.6792 C   0  0  0  0  0  0  0  0  0  0  0  0
    0.8927    2.1767   -3.6209 H   0  0  0  0  0  0  0  0  0  0  0  0
    0.1219    0.8966   -4.5825 H   0  0  0  0  0  0  0  0  0  0  0  0
   -0.8772    2.1161   -3.7712 H   0  0  0  0  0  0  0  0  0  0  0  0
    1.2115   -0.2571   -2.3593 C   0  0  0  0  0  0  0  0  0  0  0  0
    1.1194   -1.0102   -1.5717 H   0  0  0  0  0  0  0  0  0  0  0  0
    1.3677   -0.7835   -3.3062 H   0  0  0  0  0  0  0  0  0  0  0  0
    2.0943    0.3574   -2.1550 H   0  0  0  0  0  0  0  0  0  0  0  0
   -0.3643    1.6518    1.3487 C   0  0  0  0  0  0  0  0  0  0  0  0
    0.6253    2.3531    1.5171 O   0  0  0  0  0  0  0  0  0  0  0  0
   -1.4363    1.7892    2.2115 N   0  0  0  0  0  0  0  0  0  0  0  0
   -2.1609    1.0830    2.1259 H   0  0  0  0  0  0  0  0  0  0  0  0
   -1.3832    2.5950    3.4245 C   0  0  0  0  0  0  0  0  0  0  0  0
   -1.1501    3.6373    3.1829 H   0  0  0  0  0  0  0  0  0  0  0  0
   -2.3492    2.5691    3.9377 H   0  0  0  0  0  0  0  0  0  0  0  0
   -0.6168    2.2106    4.1055 H   0  0  0  0  0  0  0  0  0  0  0  0
  1  2  1  0  0  0  0
  2  3  1  0  0  0  0
  2  4  1  0  0  0  0
  2  5  1  0  0  0  0
  5  6  2  0  0  0  0
  5  7  1  0  0  0  0
  7  8  1  0  0  0  0
  7  9  1  0  0  0  0
  9 10  1  0  0  0  0
  9 11  1  0  0  0  0
  9 24  1  0  0  0  0
 11 12  1  0  0  0  0
 11 13  1  0  0  0  0
 11 14  1  0  0  0  0
 14 15  1  0  0  0  0
 14 16  1  0  0  0  0
 14 20  1  0  0  0  0
 16 17  1  0  0  0  0
 16 18  1  0  0  0  0
 16 19  1  0  0  0  0
 20 21  1  0  0  0  0
 20 22  1  0  0  0  0
 20 23  1  0  0  0  0
 24 25  2  0  0  0  0
 24 26  1  0  0  0  0
 26 27  1  0  0  0  0
 26 28  1  0  0  0  0
 28 29  1  0  0  0  0
 28 30  1  0  0  0  0
 28 31  1  0  0  0  0
M  END
$$$$

  -OEChem-01062216083D

 31 30  0     1  0  0  0  0  0999 V2000
   -3.3372   -2.8855    0.7038 H   0  0  0  0  0  0  0  0  0  0  0  0
   -3.3095   -1.9103    0.2093 C   0  0  0  0  0  0  0  0  0  0  0  0
   -4.1821   -1.3315    0.5216 H   0  0  0  0  0  0  0  0  0  0  0  0
   -3.3503   -2.0644   -0.8716 H   0  0  0  0  0  0  0  0  0  0  0  0
   -2.0374   -1.1729    0.5811 C   0  0  0  0  0  0  0  0  0  0  0  0
   -1.2945   -1.6217    1.4369 O   0  0  0  0  0  0  0  0  0  0  0  0
   -1.7576    0.0514    0.0118 N   0  0  0  0  0  0  0  0  0  0  0  0
   -2.4016    0.3825   -0.7007 H   0  0  0  0  0  0  0  0  0  0  0  0
   -0.4497    0.7268    0.1214 C   0  0  1  0  0  0  0  0  0  0  0  0
    0.3447   -0.0150    0.2450 H   0  0  0  0  0  0  0  0  0  0  0  0
   -0.2137    1.5095   -1.1902 C   0  0  0  0  0  0  0  0  0  0  0  0
   -1.0493    2.2007   -1.3418 H   0  0  0  0  0  0  0  0  0  0  0  0
    0.6921    2.1175   -1.0890 H   0  0  0  0  0  0  0  0  0  0  0  0
   -0.0494    0.6126   -2.4384 C   0  0  0  0  0  0  0  0  0  0  0  0
   -0.9225   -0.0401   -2.5376 H   0  0  0  0  0  0  0  0  0  0  0  0
    0.0274    1.4981   -3.6875 C   0  0  0  0  0  0  0  0  0  0  0  0
    0.8944    2.1648   -3.6356 H   0  0  0  0  0  0  0  0  0  0  0  0
    0.1166    0.8820   -4.5877 H   0  0  0  0  0  0  0  0  0  0  0  0
   -0.8759    2.1090   -3.7804 H   0  0  0  0  0  0  0  0  0  0  0  0
    1.2091   -0.2637   -2.3637 C   0  0  0  0  0  0  0  0  0  0  0  0
    1.1199   -1.0094   -1.5690 H   0  0  0  0  0  0  0  0  0  0  0  0
    1.3559   -0.7991   -3.3068 H   0  0  0  0  0  0  0  0  0  0  0  0
    2.0955    0.3493   -2.1718 H   0  0  0  0  0  0  0  0  0  0  0  0
   -0.3597    1.6530    1.3603 C   0  0  0  0  0  0  0  0  0  0  0  0
    0.4837    2.5390    1.4227 O   0  0  0  0  0  0  0  0  0  0  0  0
   -1.2905    1.5464    2.3777 N   0  0  0  0  0  0  0  0  0  0  0  0
   -1.8314    0.6849    2.3789 H   0  0  0  0  0  0  0  0  0  0  0  0
   -1.2178    2.3247    3.6077 C   0  0  0  0  0  0  0  0  0  0  0  0
   -1.2532    3.3963    3.3855 H   0  0  0  0  0  0  0  0  0  0  0  0
   -2.0623    2.0808    4.2591 H   0  0  0  0  0  0  0  0  0  0  0  0
   -0.2892    2.1059    4.1451 H   0  0  0  0  0  0  0  0  0  0  0  0
  1  2  1  0  0  0  0
  2  3  1  0  0  0  0
  2  4  1  0  0  0  0
  2  5  1  0  0  0  0
  5  6  2  0  0  0  0
  5  7  1  0  0  0  0
  7  8  1  0  0  0  0
  7  9  1  0  0  0  0
  9 10  1  0  0  0  0
  9 11  1  0  0  0  0
  9 24  1  0  0  0  0
 11 12  1  0  0  0  0
 11 13  1  0  0  0  0
 11 14  1  0  0  0  0
 14 15  1  0  0  0  0
 14 16  1  0  0  0  0
 14 20  1  0  0  0  0
 16 17  1  0  0  0  0
 16 18  1  0  0  0  0
 16 19  1  0  0  0  0
 20 21  1  0  0  0  0
 20 22  1  0  0  0  0
 20 23  1  0  0  0  0
 24 25  2  0  0  0  0
 24 26  1  0  0  0  0
 26 27  1  0  0  0  0
 26 28  1  0  0  0  0
 28 29  1  0  0  0  0
 28 30  1  0  0  0  0
 28 31  1  0  0  0  0
M  END
$$$$

  -OEChem-01062216083D

 31 30  0     1  0  0  0  0  0999 V2000
   -3.3339   -2.8670    0.7152 H   0  0  0  0  0  0  0  0  0  0  0  0
   -3.3088   -1.8900    0.2243 C   0  0  0  0  0  0  0  0  0  0  0  0
   -4.1782   -1.3113    0.5456 H   0  0  0  0  0  0  0  0  0  0  0  0
   -3.3576   -2.0397   -0.8570 H   0  0  0  0  0  0  0  0  0  0  0  0
   -2.0333   -1.1550    0.5891 C   0  0  0  0  0  0  0  0  0  0  0  0
   -1.2893   -1.6001    1.4474 O   0  0  0  0  0  0  0  0  0  0  0  0
   -1.7519    0.0691    0.0210 N   0  0  0  0  0  0  0  0  0  0  0  0
   -2.4055    0.4117   -0.6771 H   0  0  0  0  0  0  0  0  0  0  0  0
   -0.4399    0.7371    0.1189 C   0  0  1  0  0  0  0  0  0  0  0  0
    0.3514   -0.0087    0.2376 H   0  0  0  0  0  0  0  0  0  0  0  0
   -0.2032    1.5150   -1.1954 C   0  0  0  0  0  0  0  0  0  0  0  0
   -1.0342    2.2127   -1.3441 H   0  0  0  0  0  0  0  0  0  0  0  0
    0.7084    2.1152   -1.0992 H   0  0  0  0  0  0  0  0  0  0  0  0
   -0.0502    0.6135   -2.4415 C   0  0  0  0  0  0  0  0  0  0  0  0
   -0.9287   -0.0331   -2.5354 H   0  0  0  0  0  0  0  0  0  0  0  0
    0.0282    1.4961   -3.6926 C   0  0  0  0  0  0  0  0  0  0  0  0
    0.9016    2.1547   -3.6468 H   0  0  0  0  0  0  0  0  0  0  0  0
    0.1069    0.8776   -4.5922 H   0  0  0  0  0  0  0  0  0  0  0  0
   -0.8698    2.1154   -3.7810 H   0  0  0  0  0  0  0  0  0  0  0  0
    1.2027   -0.2713   -2.3689 C   0  0  0  0  0  0  0  0  0  0  0  0
    1.1092   -1.0168   -1.5746 H   0  0  0  0  0  0  0  0  0  0  0  0
    1.3450   -0.8068   -3.3127 H   0  0  0  0  0  0  0  0  0  0  0  0
    2.0938    0.3352   -2.1775 H   0  0  0  0  0  0  0  0  0  0  0  0
   -0.3499    1.6540    1.3651 C   0  0  0  0  0  0  0  0  0  0  0  0
    0.2984    2.6934    1.3504 O   0  0  0  0  0  0  0  0  0  0  0  0
   -1.0721    1.3333    2.4995 N   0  0  0  0  0  0  0  0  0  0  0  0
   -1.4278    0.3779    2.5299 H   0  0  0  0  0  0  0  0  0  0  0  0
   -0.9862    2.0879    3.7427 C   0  0  0  0  0  0  0  0  0  0  0  0
   -1.2851    3.1287    3.5808 H   0  0  0  0  0  0  0  0  0  0  0  0
   -1.6510    1.6524    4.4946 H   0  0  0  0  0  0  0  0  0  0  0  0
    0.0372    2.0709    4.1311 H   0  0  0  0  0  0  0  0  0  0  0  0
  1  2  1  0  0  0  0
  2  3  1  0  0  0  0
  2  4  1  0  0  0  0
  2  5  1  0  0  0  0
  5  6  2  0  0  0  0
  5  7  1  0  0  0  0
  7  8  1  0  0  0  0
  7  9  1  0  0  0  0
  9 10  1  0  0  0  0
  9 11  1  0  0  0  0
  9 24  1  0  0  0  0
 11 12  1  0  0  0  0
 11 13  1  0  0  0  0
 11 14  1  0  0  0  0
 14 15  1  0  0  0  0
 14 16  1  0  0  0  0
 14 20  1  0  0  0  0
 16 17  1  0  0  0  0
 16 18  1  0  0  0  0
 16 19  1  0  0  0  0
 20 21  1  0  0  0  0
 20 22  1  0  0  0  0
 20 23  1  0  0  0  0
 24 25  2  0  0  0  0
 24 26  1  0  0  0  0
 26 27  1  0  0  0  0
 26 28  1  0  0  0  0
 28 29  1  0  0  0  0
 28 30  1  0  0  0  0
 28 31  1  0  0  0  0
M  END
$$$$

  -OEChem-01062216083D

 31 30  0     1  0  0  0  0  0999 V2000
   -3.3459   -2.8301    0.7888 H   0  0  0  0  0  0  0  0  0  0  0  0
   -3.3176   -1.8562    0.2917 C   0  0  0  0  0  0  0  0  0  0  0  0
   -4.1554   -1.2526    0.6496 H   0  0  0  0  0  0  0  0  0  0  0  0
   -3.4211   -2.0091   -0.7852 H   0  0  0  0  0  0  0  0  0  0  0  0
   -2.0073   -1.1545    0.5933 C   0  0  0  0  0  0  0  0  0  0  0  0
   -1.2267   -1.6292    1.4033 O   0  0  0  0  0  0  0  0  0  0  0  0
   -1.7291    0.0697    0.0229 N   0  0  0  0  0  0  0  0  0  0  0  0
   -2.4163    0.4483   -0.6225 H   0  0  0  0  0  0  0  0  0  0  0  0
   -0.4174    0.7374    0.1094 C   0  0  1  0  0  0  0  0  0  0  0  0
    0.3774   -0.0046    0.2247 H   0  0  0  0  0  0  0  0  0  0  0  0
   -0.1847    1.5165   -1.2043 C   0  0  0  0  0  0  0  0  0  0  0  0
   -1.0154    2.2156   -1.3497 H   0  0  0  0  0  0  0  0  0  0  0  0
    0.7280    2.1151   -1.1070 H   0  0  0  0  0  0  0  0  0  0  0  0
   -0.0386    0.6168   -2.4521 C   0  0  0  0  0  0  0  0  0  0  0  0
   -0.9191   -0.0269   -2.5433 H   0  0  0  0  0  0  0  0  0  0  0  0
    0.0362    1.5020   -3.7014 C   0  0  0  0  0  0  0  0  0  0  0  0
    0.9103    2.1597   -3.6571 H   0  0  0  0  0  0  0  0  0  0  0  0
    0.1103    0.8857   -4.6028 H   0  0  0  0  0  0  0  0  0  0  0  0
   -0.8617    2.1223   -3.7851 H   0  0  0  0  0  0  0  0  0  0  0  0
    1.2116   -0.2726   -2.3866 C   0  0  0  0  0  0  0  0  0  0  0  0
    1.1190   -1.0191   -1.5930 H   0  0  0  0  0  0  0  0  0  0  0  0
    1.3476   -0.8076   -3.3315 H   0  0  0  0  0  0  0  0  0  0  0  0
    2.1056    0.3304   -2.1988 H   0  0  0  0  0  0  0  0  0  0  0  0
   -0.3372    1.6482    1.3586 C   0  0  0  0  0  0  0  0  0  0  0  0
    0.0823    2.7979    1.2995 O   0  0  0  0  0  0  0  0  0  0  0  0
   -0.7969    1.1617    2.5676 N   0  0  0  0  0  0  0  0  0  0  0  0
   -1.0286    0.1668    2.5879 H   0  0  0  0  0  0  0  0  0  0  0  0
   -0.7238    1.9016    3.8201 C   0  0  0  0  0  0  0  0  0  0  0  0
   -1.2824    2.8402    3.7434 H   0  0  0  0  0  0  0  0  0  0  0  0
   -1.1549    1.3093    4.6327 H   0  0  0  0  0  0  0  0  0  0  0  0
    0.3175    2.1296    4.0702 H   0  0  0  0  0  0  0  0  0  0  0  0
  1  2  1  0  0  0  0
  2  3  1  0  0  0  0
  2  4  1  0  0  0  0
  2  5  1  0  0  0  0
  5  6  2  0  0  0  0
  5  7  1  0  0  0  0
  7  8  1  0  0  0  0
  7  9  1  0  0  0  0
  9 10  1  0  0  0  0
  9 11  1  0  0  0  0
  9 24  1  0  0  0  0
 11 12  1  0  0  0  0
 11 13  1  0  0  0  0
 11 14  1  0  0  0  0
 14 15  1  0  0  0  0
 14 16  1  0  0  0  0
 14 20  1  0  0  0  0
 16 17  1  0  0  0  0
 16 18  1  0  0  0  0
 16 19  1  0  0  0  0
 20 21  1  0  0  0  0
 20 22  1  0  0  0  0
 20 23  1  0  0  0  0
 24 25  2  0  0  0  0
 24 26  1  0  0  0  0
 26 27  1  0  0  0  0
 26 28  1  0  0  0  0
 28 29  1  0  0  0  0
 28 30  1  0  0  0  0
 28 31  1  0  0  0  0
M  END
$$$$

  -OEChem-01062216083D

 31 30  0     1  0  0  0  0  0999 V2000
   -3.3409   -2.7970    0.8602 H   0  0  0  0  0  0  0  0  0  0  0  0
   -3.3110   -1.8267    0.3565 C   0  0  0  0  0  0  0  0  0  0  0  0
   -4.1236   -1.2049    0.7402 H   0  0  0  0  0  0  0  0  0  0  0  0
   -3.4552   -1.9831   -0.7153 H   0  0  0  0  0  0  0  0  0  0  0  0
   -1.9775   -1.1489    0.6075 C   0  0  0  0  0  0  0  0  0  0  0  0
   -1.1692   -1.6450    1.3779 O   0  0  0  0  0  0  0  0  0  0  0  0
   -1.7022    0.0728    0.0298 N   0  0  0  0  0  0  0  0  0  0  0  0
   -2.4122    0.4772   -0.5739 H   0  0  0  0  0  0  0  0  0  0  0  0
   -0.3876    0.7324    0.1010 C   0  0  1  0  0  0  0  0  0  0  0  0
    0.4079   -0.0103    0.2078 H   0  0  0  0  0  0  0  0  0  0  0  0
   -0.1609    1.5153   -1.2108 C   0  0  0  0  0  0  0  0  0  0  0  0
   -0.9893    2.2188   -1.3482 H   0  0  0  0  0  0  0  0  0  0  0  0
    0.7545    2.1100   -1.1147 H   0  0  0  0  0  0  0  0  0  0  0  0
   -0.0318    0.6206   -2.4640 C   0  0  0  0  0  0  0  0  0  0  0  0
   -0.9178   -0.0167   -2.5498 H   0  0  0  0  0  0  0  0  0  0  0  0
    0.0384    1.5106   -3.7101 C   0  0  0  0  0  0  0  0  0  0  0  0
    0.9176    2.1618   -3.6709 H   0  0  0  0  0  0  0  0  0  0  0  0
    0.0999    0.8977   -4.6147 H   0  0  0  0  0  0  0  0  0  0  0  0
   -0.8555    2.1378   -3.7828 H   0  0  0  0  0  0  0  0  0  0  0  0
    1.2131   -0.2771   -2.4132 C   0  0  0  0  0  0  0  0  0  0  0  0
    1.1226   -1.0264   -1.6218 H   0  0  0  0  0  0  0  0  0  0  0  0
    1.3373   -0.8087   -3.3618 H   0  0  0  0  0  0  0  0  0  0  0  0
    2.1125    0.3195   -2.2305 H   0  0  0  0  0  0  0  0  0  0  0  0
   -0.3072    1.6393    1.3500 C   0  0  0  0  0  0  0  0  0  0  0  0
   -0.1321    2.8495    1.2707 O   0  0  0  0  0  0  0  0  0  0  0  0
   -0.4656    1.0565    2.5924 N   0  0  0  0  0  0  0  0  0  0  0  0
   -0.6272    0.0471    2.6025 H   0  0  0  0  0  0  0  0  0  0  0  0
   -0.4381    1.7921    3.8487 C   0  0  0  0  0  0  0  0  0  0  0  0
   -1.2337    2.5441    3.8689 H   0  0  0  0  0  0  0  0  0  0  0  0
   -0.5869    1.1077    4.6895 H   0  0  0  0  0  0  0  0  0  0  0  0
    0.5264    2.2941    3.9772 H   0  0  0  0  0  0  0  0  0  0  0  0
  1  2  1  0  0  0  0
  2  3  1  0  0  0  0
  2  4  1  0  0  0  0
  2  5  1  0  0  0  0
  5  6  2  0  0  0  0
  5  7  1  0  0  0  0
  7  8  1  0  0  0  0
  7  9  1  0  0  0  0
  9 10  1  0  0  0  0
  9 11  1  0  0  0  0
  9 24  1  0  0  0  0
 11 12  1  0  0  0  0
 11 13  1  0  0  0  0
 11 14  1  0  0  0  0
 14 15  1  0  0  0  0
 14 16  1  0  0  0  0
 14 20  1  0  0  0  0
 16 17  1  0  0  0  0
 16 18  1  0  0  0  0
 16 19  1  0  0  0  0
 20 21  1  0  0  0  0
 20 22  1  0  0  0  0
 20 23  1  0  0  0  0
 24 25  2  0  0  0  0
 24 26  1  0  0  0  0
 26 27  1  0  0  0  0
 26 28  1  0  0  0  0
 28 29  1  0  0  0  0
 28 30  1  0  0  0  0
 28 31  1  0  0  0  0
M  END
$$$$

  -OEChem-01062216083D

 31 30  0     1  0  0  0  0  0999 V2000
   -3.3317   -2.7736    0.9302 H   0  0  0  0  0  0  0  0  0  0  0  0
   -3.3063   -1.8051    0.4227 C   0  0  0  0  0  0  0  0  0  0  0  0
   -4.0883   -1.1668    0.8414 H   0  0  0  0  0  0  0  0  0  0  0  0
   -3.5027   -1.9607   -0.6408 H   0  0  0  0  0  0  0  0  0  0  0  0
   -1.9498   -1.1528    0.6098 C   0  0  0  0  0  0  0  0  0  0  0  0
   -1.1087   -1.6730    1.3281 O   0  0  0  0  0  0  0  0  0  0  0  0
   -1.6818    0.0668    0.0242 N   0  0  0  0  0  0  0  0  0  0  0  0
   -2.4230    0.5106   -0.5106 H   0  0  0  0  0  0  0  0  0  0  0  0
   -0.3678    0.7241    0.0876 C   0  0  1  0  0  0  0  0  0  0  0  0
    0.4308   -0.0167    0.1880 H   0  0  0  0  0  0  0  0  0  0  0  0
   -0.1437    1.5132   -1.2202 C   0  0  0  0  0  0  0  0  0  0  0  0
   -0.9723    2.2175   -1.3529 H   0  0  0  0  0  0  0  0  0  0  0  0
    0.7715    2.1073   -1.1208 H   0  0  0  0  0  0  0  0  0  0  0  0
   -0.0216    0.6250   -2.4784 C   0  0  0  0  0  0  0  0  0  0  0  0
   -0.9102   -0.0090   -2.5642 H   0  0  0  0  0  0  0  0  0  0  0  0
    0.0467    1.5205   -3.7209 C   0  0  0  0  0  0  0  0  0  0  0  0
    0.9314    2.1646   -3.6848 H   0  0  0  0  0  0  0  0  0  0  0  0
    0.0974    0.9112   -4.6287 H   0  0  0  0  0  0  0  0  0  0  0  0
   -0.8427    2.1552   -3.7849 H   0  0  0  0  0  0  0  0  0  0  0  0
    1.2207   -0.2765   -2.4358 C   0  0  0  0  0  0  0  0  0  0  0  0
    1.1261   -1.0344   -1.6531 H   0  0  0  0  0  0  0  0  0  0  0  0
    1.3454   -0.7974   -3.3904 H   0  0  0  0  0  0  0  0  0  0  0  0
    2.1213    0.3156   -2.2445 H   0  0  0  0  0  0  0  0  0  0  0  0
   -0.2928    1.6313    1.3342 C   0  0  0  0  0  0  0  0  0  0  0  0
   -0.3705    2.8520    1.2579 O   0  0  0  0  0  0  0  0  0  0  0  0
   -0.1363    1.0315    2.5685 N   0  0  0  0  0  0  0  0  0  0  0  0
   -0.2072    0.0125    2.5852 H   0  0  0  0  0  0  0  0  0  0  0  0
   -0.1322    1.7657    3.8265 C   0  0  0  0  0  0  0  0  0  0  0  0
   -1.0797    2.2972    3.9630 H   0  0  0  0  0  0  0  0  0  0  0  0
    0.0034    1.0764    4.6653 H   0  0  0  0  0  0  0  0  0  0  0  0
    0.6860    2.4932    3.8423 H   0  0  0  0  0  0  0  0  0  0  0  0
  1  2  1  0  0  0  0
  2  3  1  0  0  0  0
  2  4  1  0  0  0  0
  2  5  1  0  0  0  0
  5  6  2  0  0  0  0
  5  7  1  0  0  0  0
  7  8  1  0  0  0  0
  7  9  1  0  0  0  0
  9 10  1  0  0  0  0
  9 11  1  0  0  0  0
  9 24  1  0  0  0  0
 11 12  1  0  0  0  0
 11 13  1  0  0  0  0
 11 14  1  0  0  0  0
 14 15  1  0  0  0  0
 14 16  1  0  0  0  0
 14 20  1  0  0  0  0
 16 17  1  0  0  0  0
 16 18  1  0  0  0  0
 16 19  1  0  0  0  0
 20 21  1  0  0  0  0
 20 22  1  0  0  0  0
 20 23  1  0  0  0  0
 24 25  2  0  0  0  0
 24 26  1  0  0  0  0
 26 27  1  0  0  0  0
 26 28  1  0  0  0  0
 28 29  1  0  0  0  0
 28 30  1  0  0  0  0
 28 31  1  0  0  0  0
M  END
$$$$

  -OEChem-01062216083D

 31 30  0     1  0  0  0  0  0999 V2000
   -3.3390   -2.7458    0.9977 H   0  0  0  0  0  0  0  0  0  0  0  0
   -3.3113   -1.7833    0.4792 C   0  0  0  0  0  0  0  0  0  0  0  0
   -4.0547   -1.1196    0.9275 H   0  0  0  0  0  0  0  0  0  0  0  0
   -3.5606   -1.9428   -0.5726 H   0  0  0  0  0  0  0  0  0  0  0  0
   -1.9306   -1.1669    0.5951 C   0  0  0  0  0  0  0  0  0  0  0  0
   -1.0603   -1.7228    1.2490 O   0  0  0  0  0  0  0  0  0  0  0  0
   -1.6678    0.0518    0.0051 N   0  0  0  0  0  0  0  0  0  0  0  0
   -2.4399    0.5449   -0.4348 H   0  0  0  0  0  0  0  0  0  0  0  0
   -0.3572    0.7120    0.0721 C   0  0  1  0  0  0  0  0  0  0  0  0
    0.4450   -0.0246    0.1700 H   0  0  0  0  0  0  0  0  0  0  0  0
   -0.1337    1.5090   -1.2302 C   0  0  0  0  0  0  0  0  0  0  0  0
   -0.9662    2.2091   -1.3613 H   0  0  0  0  0  0  0  0  0  0  0  0
    0.7777    2.1075   -1.1252 H   0  0  0  0  0  0  0  0  0  0  0  0
   -0.0078    0.6282   -2.4932 C   0  0  0  0  0  0  0  0  0  0  0  0
   -0.8958   -0.0060   -2.5830 H   0  0  0  0  0  0  0  0  0  0  0  0
    0.0598    1.5303   -3.7311 C   0  0  0  0  0  0  0  0  0  0  0  0
    0.9422    2.1771   -3.6900 H   0  0  0  0  0  0  0  0  0  0  0  0
    0.1142    0.9260   -4.6421 H   0  0  0  0  0  0  0  0  0  0  0  0
   -0.8317    2.1624   -3.7935 H   0  0  0  0  0  0  0  0  0  0  0  0
    1.2346   -0.2735   -2.4544 C   0  0  0  0  0  0  0  0  0  0  0  0
    1.1415   -1.0323   -1.6724 H   0  0  0  0  0  0  0  0  0  0  0  0
    1.3571   -0.7938   -3.4095 H   0  0  0  0  0  0  0  0  0  0  0  0
    2.1359    0.3178   -2.2646 H   0  0  0  0  0  0  0  0  0  0  0  0
   -0.2926    1.6224    1.3153 C   0  0  0  0  0  0  0  0  0  0  0  0
   -0.6342    2.7984    1.2689 O   0  0  0  0  0  0  0  0  0  0  0  0
    0.1660    1.0868    2.5033 N   0  0  0  0  0  0  0  0  0  0  0  0
    0.2540    0.0711    2.5296 H   0  0  0  0  0  0  0  0  0  0  0  0
    0.1730    1.8239    3.7601 C   0  0  0  0  0  0  0  0  0  0  0  0
   -0.8455    2.1099    4.0425 H   0  0  0  0  0  0  0  0  0  0  0  0
    0.5943    1.2046    4.5577 H   0  0  0  0  0  0  0  0  0  0  0  0
    0.7819    2.7296    3.6694 H   0  0  0  0  0  0  0  0  0  0  0  0
  1  2  1  0  0  0  0
  2  3  1  0  0  0  0
  2  4  1  0  0  0  0
  2  5  1  0  0  0  0
  5  6  2  0  0  0  0
  5  7  1  0  0  0  0
  7  8  1  0  0  0  0
  7  9  1  0  0  0  0
  9 10  1  0  0  0  0
  9 11  1  0  0  0  0
  9 24  1  0  0  0  0
 11 12  1  0  0  0  0
 11 13  1  0  0  0  0
 11 14  1  0  0  0  0
 14 15  1  0  0  0  0
 14 16  1  0  0  0  0
 14 20  1  0  0  0  0
 16 17  1  0  0  0  0
 16 18  1  0  0  0  0
 16 19  1  0  0  0  0
 20 21  1  0  0  0  0
 20 22  1  0  0  0  0
 20 23  1  0  0  0  0
 24 25  2  0  0  0  0
 24 26  1  0  0  0  0
 26 27  1  0  0  0  0
 26 28  1  0  0  0  0
 28 29  1  0  0  0  0
 28 30  1  0  0  0  0
 28 31  1  0  0  0  0
M  END
$$$$

  -OEChem-01062216083D

 31 30  0     1  0  0  0  0  0999 V2000
   -3.3563   -2.7171    1.0767 H   0  0  0  0  0  0  0  0  0  0  0  0
   -3.3301   -1.7579    0.5523 C   0  0  0  0  0  0  0  0  0  0  0  0
   -4.0118   -1.0649    1.0515 H   0  0  0  0  0  0  0  0  0  0  0  0
   -3.6641   -1.9098   -0.4769 H   0  0  0  0  0  0  0  0  0  0  0  0
   -1.9211   -1.1964    0.5618 C   0  0  0  0  0  0  0  0  0  0  0  0
   -1.0225   -1.8039    1.1246 O   0  0  0  0  0  0  0  0  0  0  0  0
   -1.6629    0.0233   -0.0287 N   0  0  0  0  0  0  0  0  0  0  0  0
   -2.4615    0.5710   -0.3382 H   0  0  0  0  0  0  0  0  0  0  0  0
   -0.3566    0.6909    0.0489 C   0  0  1  0  0  0  0  0  0  0  0  0
    0.4487   -0.0419    0.1483 H   0  0  0  0  0  0  0  0  0  0  0  0
   -0.1271    1.5008   -1.2430 C   0  0  0  0  0  0  0  0  0  0  0  0
   -0.9622    2.1973   -1.3744 H   0  0  0  0  0  0  0  0  0  0  0  0
    0.7802    2.1034   -1.1256 H   0  0  0  0  0  0  0  0  0  0  0  0
    0.0117    0.6316   -2.5120 C   0  0  0  0  0  0  0  0  0  0  0  0
   -0.8728   -0.0058   -2.6134 H   0  0  0  0  0  0  0  0  0  0  0  0
    0.0847    1.5451   -3.7410 C   0  0  0  0  0  0  0  0  0  0  0  0
    0.9637    2.1956   -3.6869 H   0  0  0  0  0  0  0  0  0  0  0  0
    0.1490    0.9489   -4.6567 H   0  0  0  0  0  0  0  0  0  0  0  0
   -0.8095    2.1731   -3.8049 H   0  0  0  0  0  0  0  0  0  0  0  0
    1.2574   -0.2645   -2.4720 C   0  0  0  0  0  0  0  0  0  0  0  0
    1.1613   -1.0308   -1.6978 H   0  0  0  0  0  0  0  0  0  0  0  0
    1.3884   -0.7755   -3.4309 H   0  0  0  0  0  0  0  0  0  0  0  0
    2.1544    0.3293   -2.2702 H   0  0  0  0  0  0  0  0  0  0  0  0
   -0.3025    1.6051    1.2889 C   0  0  0  0  0  0  0  0  0  0  0  0
   -0.9046    2.6726    1.3068 O   0  0  0  0  0  0  0  0  0  0  0  0
    0.4247    1.2092    2.3951 N   0  0  0  0  0  0  0  0  0  0  0  0
    0.7461    0.2433    2.4017 H   0  0  0  0  0  0  0  0  0  0  0  0
    0.4399    1.9587    3.6446 C   0  0  0  0  0  0  0  0  0  0  0  0
   -0.5668    2.0109    4.0720 H   0  0  0  0  0  0  0  0  0  0  0  0
    1.1005    1.4725    4.3687 H   0  0  0  0  0  0  0  0  0  0  0  0
    0.8050    2.9772    3.4757 H   0  0  0  0  0  0  0  0  0  0  0  0
  1  2  1  0  0  0  0
  2  3  1  0  0  0  0
  2  4  1  0  0  0  0
  2  5  1  0  0  0  0
  5  6  2  0  0  0  0
  5  7  1  0  0  0  0
  7  8  1  0  0  0  0
  7  9  1  0  0  0  0
  9 10  1  0  0  0  0
  9 11  1  0  0  0  0
  9 24  1  0  0  0  0
 11 12  1  0  0  0  0
 11 13  1  0  0  0  0
 11 14  1  0  0  0  0
 14 15  1  0  0  0  0
 14 16  1  0  0  0  0
 14 20  1  0  0  0  0
 16 17  1  0  0  0  0
 16 18  1  0  0  0  0
 16 19  1  0  0  0  0
 20 21  1  0  0  0  0
 20 22  1  0  0  0  0
 20 23  1  0  0  0  0
 24 25  2  0  0  0  0
 24 26  1  0  0  0  0
 26 27  1  0  0  0  0
 26 28  1  0  0  0  0
 28 29  1  0  0  0  0
 28 30  1  0  0  0  0
 28 31  1  0  0  0  0
M  END
$$$$

  -OEChem-01062216083D

 31 30  0     1  0  0  0  0  0999 V2000
   -3.3690   -2.7034    1.1167 H   0  0  0  0  0  0  0  0  0  0  0  0
   -3.3435   -1.7423    0.5956 C   0  0  0  0  0  0  0  0  0  0  0  0
   -3.9827   -1.0353    1.1301 H   0  0  0  0  0  0  0  0  0  0  0  0
   -3.7306   -1.8799   -0.4168 H   0  0  0  0  0  0  0  0  0  0  0  0
   -1.9221   -1.2154    0.5393 C   0  0  0  0  0  0  0  0  0  0  0  0
   -1.0114   -1.8571    1.0409 O   0  0  0  0  0  0  0  0  0  0  0  0
   -1.6663    0.0035   -0.0540 N   0  0  0  0  0  0  0  0  0  0  0  0
   -2.4740    0.5804   -0.2749 H   0  0  0  0  0  0  0  0  0  0  0  0
   -0.3627    0.6760    0.0335 C   0  0  1  0  0  0  0  0  0  0  0  0
    0.4422   -0.0565    0.1380 H   0  0  0  0  0  0  0  0  0  0  0  0
   -0.1270    1.4937   -1.2509 C   0  0  0  0  0  0  0  0  0  0  0  0
   -0.9645    2.1878   -1.3829 H   0  0  0  0  0  0  0  0  0  0  0  0
    0.7776    2.0983   -1.1247 H   0  0  0  0  0  0  0  0  0  0  0  0
    0.0232    0.6322   -2.5236 C   0  0  0  0  0  0  0  0  0  0  0  0
   -0.8582   -0.0083   -2.6336 H   0  0  0  0  0  0  0  0  0  0  0  0
    0.1015    1.5531   -3.7467 C   0  0  0  0  0  0  0  0  0  0  0  0
    0.9727    2.2126   -3.6795 H   0  0  0  0  0  0  0  0  0  0  0  0
    0.1820    0.9629   -4.6648 H   0  0  0  0  0  0  0  0  0  0  0  0
   -0.7987    2.1717   -3.8165 H   0  0  0  0  0  0  0  0  0  0  0  0
    1.2731   -0.2589   -2.4792 C   0  0  0  0  0  0  0  0  0  0  0  0
    1.1759   -1.0294   -1.7093 H   0  0  0  0  0  0  0  0  0  0  0  0
    1.4129   -0.7649   -3.4395 H   0  0  0  0  0  0  0  0  0  0  0  0
    2.1663    0.3378   -2.2690 H   0  0  0  0  0  0  0  0  0  0  0  0
   -0.3157    1.5970    1.2683 C   0  0  0  0  0  0  0  0  0  0  0  0
   -1.1176    2.5173    1.3810 O   0  0  0  0  0  0  0  0  0  0  0  0
    0.6299    1.3875    2.2543 N   0  0  0  0  0  0  0  0  0  0  0  0
    1.1662    0.5253    2.1981 H   0  0  0  0  0  0  0  0  0  0  0  0
    0.6702    2.1564    3.4915 C   0  0  0  0  0  0  0  0  0  0  0  0
   -0.2545    2.0152    4.0605 H   0  0  0  0  0  0  0  0  0  0  0  0
    1.5121    1.8316    4.1103 H   0  0  0  0  0  0  0  0  0  0  0  0
    0.7925    3.2231    3.2761 H   0  0  0  0  0  0  0  0  0  0  0  0
  1  2  1  0  0  0  0
  2  3  1  0  0  0  0
  2  4  1  0  0  0  0
  2  5  1  0  0  0  0
  5  6  2  0  0  0  0
  5  7  1  0  0  0  0
  7  8  1  0  0  0  0
  7  9  1  0  0  0  0
  9 10  1  0  0  0  0
  9 11  1  0  0  0  0
  9 24  1  0  0  0  0
 11 12  1  0  0  0  0
 11 13  1  0  0  0  0
 11 14  1  0  0  0  0
 14 15  1  0  0  0  0
 14 16  1  0  0  0  0
 14 20  1  0  0  0  0
 16 17  1  0  0  0  0
 16 18  1  0  0  0  0
 16 19  1  0  0  0  0
 20 21  1  0  0  0  0
 20 22  1  0  0  0  0
 20 23  1  0  0  0  0
 24 25  2  0  0  0  0
 24 26  1  0  0  0  0
 26 27  1  0  0  0  0
 26 28  1  0  0  0  0
 28 29  1  0  0  0  0
 28 30  1  0  0  0  0
 28 31  1  0  0  0  0
M  END
$$$$

  -OEChem-01062216083D

 31 30  0     1  0  0  0  0  0999 V2000
   -3.3762   -2.6964    1.1426 H   0  0  0  0  0  0  0  0  0  0  0  0
   -3.3534   -1.7351    0.6219 C   0  0  0  0  0  0  0  0  0  0  0  0
   -3.9626   -1.0189    1.1786 H   0  0  0  0  0  0  0  0  0  0  0  0
   -3.7765   -1.8650   -0.3770 H   0  0  0  0  0  0  0  0  0  0  0  0
   -1.9265   -1.2308    0.5179 C   0  0  0  0  0  0  0  0  0  0  0  0
   -1.0093   -1.8957    0.9748 O   0  0  0  0  0  0  0  0  0  0  0  0
   -1.6738   -0.0114   -0.0763 N   0  0  0  0  0  0  0  0  0  0  0  0
   -2.4852    0.5809   -0.2345 H   0  0  0  0  0  0  0  0  0  0  0  0
   -0.3726    0.6656    0.0246 C   0  0  1  0  0  0  0  0  0  0  0  0
    0.4330   -0.0651    0.1360 H   0  0  0  0  0  0  0  0  0  0  0  0
   -0.1309    1.4888   -1.2543 C   0  0  0  0  0  0  0  0  0  0  0  0
   -0.9702    2.1799   -1.3886 H   0  0  0  0  0  0  0  0  0  0  0  0
    0.7708    2.0961   -1.1205 H   0  0  0  0  0  0  0  0  0  0  0  0
    0.0316    0.6326   -2.5291 C   0  0  0  0  0  0  0  0  0  0  0  0
   -0.8469   -0.0104   -2.6479 H   0  0  0  0  0  0  0  0  0  0  0  0
    0.1151    1.5581   -3.7483 C   0  0  0  0  0  0  0  0  0  0  0  0
    0.9836    2.2204   -3.6727 H   0  0  0  0  0  0  0  0  0  0  0  0
    0.2041    0.9716   -4.6681 H   0  0  0  0  0  0  0  0  0  0  0  0
   -0.7869    2.1737   -3.8225 H   0  0  0  0  0  0  0  0  0  0  0  0
    1.2836   -0.2551   -2.4795 C   0  0  0  0  0  0  0  0  0  0  0  0
    1.1831   -1.0288   -1.7129 H   0  0  0  0  0  0  0  0  0  0  0  0
    1.4314   -0.7575   -3.4406 H   0  0  0  0  0  0  0  0  0  0  0  0
    2.1737    0.3432   -2.2610 H   0  0  0  0  0  0  0  0  0  0  0  0
   -0.3336    1.5914    1.2570 C   0  0  0  0  0  0  0  0  0  0  0  0
   -1.2721    2.3471    1.4844 O   0  0  0  0  0  0  0  0  0  0  0  0
    0.7682    1.5995    2.0920 N   0  0  0  0  0  0  0  0  0  0  0  0
    1.4710    0.8816    1.9381 H   0  0  0  0  0  0  0  0  0  0  0  0
    0.8404    2.4022    3.3065 C   0  0  0  0  0  0  0  0  0  0  0  0
    0.0508    2.1095    4.0065 H   0  0  0  0  0  0  0  0  0  0  0  0
    1.8085    2.2599    3.7961 H   0  0  0  0  0  0  0  0  0  0  0  0
    0.7270    3.4655    3.0708 H   0  0  0  0  0  0  0  0  0  0  0  0
  1  2  1  0  0  0  0
  2  3  1  0  0  0  0
  2  4  1  0  0  0  0
  2  5  1  0  0  0  0
  5  6  2  0  0  0  0
  5  7  1  0  0  0  0
  7  8  1  0  0  0  0
  7  9  1  0  0  0  0
  9 10  1  0  0  0  0
  9 11  1  0  0  0  0
  9 24  1  0  0  0  0
 11 12  1  0  0  0  0
 11 13  1  0  0  0  0
 11 14  1  0  0  0  0
 14 15  1  0  0  0  0
 14 16  1  0  0  0  0
 14 20  1  0  0  0  0
 16 17  1  0  0  0  0
 16 18  1  0  0  0  0
 16 19  1  0  0  0  0
 20 21  1  0  0  0  0
 20 22  1  0  0  0  0
 20 23  1  0  0  0  0
 24 25  2  0  0  0  0
 24 26  1  0  0  0  0
 26 27  1  0  0  0  0
 26 28  1  0  0  0  0
 28 29  1  0  0  0  0
 28 30  1  0  0  0  0
 28 31  1  0  0  0  0
M  END
$$$$

  -OEChem-01062216083D

 31 30  0     1  0  0  0  0  0999 V2000
   -3.3814   -2.6920    1.1584 H   0  0  0  0  0  0  0  0  0  0  0  0
   -3.3611   -1.7302    0.6384 C   0  0  0  0  0  0  0  0  0  0  0  0
   -3.9471   -1.0080    1.2122 H   0  0  0  0  0  0  0  0  0  0  0  0
   -3.8116   -1.8533   -0.3493 H   0  0  0  0  0  0  0  0  0  0  0  0
   -1.9316   -1.2424    0.4976 C   0  0  0  0  0  0  0  0  0  0  0  0
   -1.0102   -1.9261    0.9170 O   0  0  0  0  0  0  0  0  0  0  0  0
   -1.6834   -0.0212   -0.0950 N   0  0  0  0  0  0  0  0  0  0  0  0
   -2.4972    0.5777   -0.2098 H   0  0  0  0  0  0  0  0  0  0  0  0
   -0.3847    0.6598    0.0210 C   0  0  1  0  0  0  0  0  0  0  0  0
    0.4218   -0.0687    0.1405 H   0  0  0  0  0  0  0  0  0  0  0  0
   -0.1378    1.4863   -1.2551 C   0  0  0  0  0  0  0  0  0  0  0  0
   -0.9799    2.1735   -1.3937 H   0  0  0  0  0  0  0  0  0  0  0  0
    0.7601    2.0979   -1.1155 H   0  0  0  0  0  0  0  0  0  0  0  0
    0.0376    0.6325   -2.5301 C   0  0  0  0  0  0  0  0  0  0  0  0
   -0.8367   -0.0150   -2.6558 H   0  0  0  0  0  0  0  0  0  0  0  0
    0.1257    1.5589   -3.7484 C   0  0  0  0  0  0  0  0  0  0  0  0
    0.9901    2.2257   -3.6658 H   0  0  0  0  0  0  0  0  0  0  0  0
    0.2253    0.9727   -4.6673 H   0  0  0  0  0  0  0  0  0  0  0  0
   -0.7787    2.1697   -3.8303 H   0  0  0  0  0  0  0  0  0  0  0  0
    1.2938   -0.2486   -2.4719 C   0  0  0  0  0  0  0  0  0  0  0  0
    1.1937   -1.0206   -1.7036 H   0  0  0  0  0  0  0  0  0  0  0  0
    1.4485   -0.7530   -3.4308 H   0  0  0  0  0  0  0  0  0  0  0  0
    2.1796    0.3552   -2.2511 H   0  0  0  0  0  0  0  0  0  0  0  0
   -0.3522    1.5876    1.2532 C   0  0  0  0  0  0  0  0  0  0  0  0
   -1.3715    2.1658    1.6148 O   0  0  0  0  0  0  0  0  0  0  0  0
    0.8382    1.8305    1.9136 N   0  0  0  0  0  0  0  0  0  0  0  0
    1.6460    1.2796    1.6374 H   0  0  0  0  0  0  0  0  0  0  0  0
    0.9341    2.6741    3.0984 C   0  0  0  0  0  0  0  0  0  0  0  0
    0.3226    2.2658    3.9099 H   0  0  0  0  0  0  0  0  0  0  0  0
    1.9719    2.7293    3.4406 H   0  0  0  0  0  0  0  0  0  0  0  0
    0.5907    3.6895    2.8746 H   0  0  0  0  0  0  0  0  0  0  0  0
  1  2  1  0  0  0  0
  2  3  1  0  0  0  0
  2  4  1  0  0  0  0
  2  5  1  0  0  0  0
  5  6  2  0  0  0  0
  5  7  1  0  0  0  0
  7  8  1  0  0  0  0
  7  9  1  0  0  0  0
  9 10  1  0  0  0  0
  9 11  1  0  0  0  0
  9 24  1  0  0  0  0
 11 12  1  0  0  0  0
 11 13  1  0  0  0  0
 11 14  1  0  0  0  0
 14 15  1  0  0  0  0
 14 16  1  0  0  0  0
 14 20  1  0  0  0  0
 16 17  1  0  0  0  0
 16 18  1  0  0  0  0
 16 19  1  0  0  0  0
 20 21  1  0  0  0  0
 20 22  1  0  0  0  0
 20 23  1  0  0  0  0
 24 25  2  0  0  0  0
 24 26  1  0  0  0  0
 26 27  1  0  0  0  0
 26 28  1  0  0  0  0
 28 29  1  0  0  0  0
 28 30  1  0  0  0  0
 28 31  1  0  0  0  0
M  END
$$$$

  -OEChem-01062216083D

 31 30  0     1  0  0  0  0  0999 V2000
   -3.3826   -2.6796    1.1869 H   0  0  0  0  0  0  0  0  0  0  0  0
   -3.3648   -1.7243    0.6550 C   0  0  0  0  0  0  0  0  0  0  0  0
   -3.9288   -0.9890    1.2344 H   0  0  0  0  0  0  0  0  0  0  0  0
   -3.8402   -1.8543   -0.3200 H   0  0  0  0  0  0  0  0  0  0  0  0
   -1.9347   -1.2520    0.4748 C   0  0  0  0  0  0  0  0  0  0  0  0
   -1.0096   -1.9536    0.8549 O   0  0  0  0  0  0  0  0  0  0  0  0
   -1.6916   -0.0275   -0.1138 N   0  0  0  0  0  0  0  0  0  0  0  0
   -2.5069    0.5753   -0.1904 H   0  0  0  0  0  0  0  0  0  0  0  0
   -0.3945    0.6555    0.0182 C   0  0  1  0  0  0  0  0  0  0  0  0
    0.4133   -0.0708    0.1432 H   0  0  0  0  0  0  0  0  0  0  0  0
   -0.1432    1.4842   -1.2563 C   0  0  0  0  0  0  0  0  0  0  0  0
   -0.9880    2.1668   -1.3987 H   0  0  0  0  0  0  0  0  0  0  0  0
    0.7507    2.1006   -1.1143 H   0  0  0  0  0  0  0  0  0  0  0  0
    0.0433    0.6321   -2.5306 C   0  0  0  0  0  0  0  0  0  0  0  0
   -0.8277   -0.0189   -2.6619 H   0  0  0  0  0  0  0  0  0  0  0  0
    0.1350    1.5606   -3.7469 C   0  0  0  0  0  0  0  0  0  0  0  0
    0.9996    2.2265   -3.6608 H   0  0  0  0  0  0  0  0  0  0  0  0
    0.2370    0.9764   -4.6668 H   0  0  0  0  0  0  0  0  0  0  0  0
   -0.7686    2.1724   -3.8295 H   0  0  0  0  0  0  0  0  0  0  0  0
    1.3030   -0.2437   -2.4665 C   0  0  0  0  0  0  0  0  0  0  0  0
    1.2031   -1.0150   -1.6974 H   0  0  0  0  0  0  0  0  0  0  0  0
    1.4630   -0.7486   -3.4243 H   0  0  0  0  0  0  0  0  0  0  0  0
    2.1859    0.3633   -2.2433 H   0  0  0  0  0  0  0  0  0  0  0  0
   -0.3689    1.5815    1.2541 C   0  0  0  0  0  0  0  0  0  0  0  0
   -1.4164    1.9754    1.7562 O   0  0  0  0  0  0  0  0  0  0  0  0
    0.8336    2.0678    1.7341 N   0  0  0  0  0  0  0  0  0  0  0  0
    1.6854    1.6856    1.3338 H   0  0  0  0  0  0  0  0  0  0  0  0
    0.9342    2.9566    2.8854 C   0  0  0  0  0  0  0  0  0  0  0  0
    0.5377    2.4692    3.7823 H   0  0  0  0  0  0  0  0  0  0  0  0
    1.9802    3.2207    3.0682 H   0  0  0  0  0  0  0  0  0  0  0  0
    0.3717    3.8794    2.7082 H   0  0  0  0  0  0  0  0  0  0  0  0
  1  2  1  0  0  0  0
  2  3  1  0  0  0  0
  2  4  1  0  0  0  0
  2  5  1  0  0  0  0
  5  6  2  0  0  0  0
  5  7  1  0  0  0  0
  7  8  1  0  0  0  0
  7  9  1  0  0  0  0
  9 10  1  0  0  0  0
  9 11  1  0  0  0  0
  9 24  1  0  0  0  0
 11 12  1  0  0  0  0
 11 13  1  0  0  0  0
 11 14  1  0  0  0  0
 14 15  1  0  0  0  0
 14 16  1  0  0  0  0
 14 20  1  0  0  0  0
 16 17  1  0  0  0  0
 16 18  1  0  0  0  0
 16 19  1  0  0  0  0
 20 21  1  0  0  0  0
 20 22  1  0  0  0  0
 20 23  1  0  0  0  0
 24 25  2  0  0  0  0
 24 26  1  0  0  0  0
 26 27  1  0  0  0  0
 26 28  1  0  0  0  0
 28 29  1  0  0  0  0
 28 30  1  0  0  0  0
 28 31  1  0  0  0  0
M  END
$$$$

  -OEChem-01062216083D

 31 30  0     1  0  0  0  0  0999 V2000
   -3.3154   -2.7256    1.1465 H   0  0  0  0  0  0  0  0  0  0  0  0
   -3.3307   -1.7291    0.6964 C   0  0  0  0  0  0  0  0  0  0  0  0
   -3.8321   -1.0415    1.3821 H   0  0  0  0  0  0  0  0  0  0  0  0
   -3.8897   -1.7733   -0.2412 H   0  0  0  0  0  0  0  0  0  0  0  0
   -1.9145   -1.2529    0.4349 C   0  0  0  0  0  0  0  0  0  0  0  0
   -0.9667   -1.9689    0.7219 O   0  0  0  0  0  0  0  0  0  0  0  0
   -1.7044   -0.0181   -0.1473 N   0  0  0  0  0  0  0  0  0  0  0  0
   -2.5281    0.5758   -0.1693 H   0  0  0  0  0  0  0  0  0  0  0  0
   -0.4118    0.6706    0.0044 C   0  0  1  0  0  0  0  0  0  0  0  0
    0.4102   -0.0372   -0.1348 H   0  0  0  0  0  0  0  0  0  0  0  0
   -0.3302    1.7713   -1.0743 C   0  0  0  0  0  0  0  0  0  0  0  0
   -1.1992    2.4294   -0.9662 H   0  0  0  0  0  0  0  0  0  0  0  0
    0.5613    2.3831   -0.9029 H   0  0  0  0  0  0  0  0  0  0  0  0
   -0.2757    1.2299   -2.5204 C   0  0  0  0  0  0  0  0  0  0  0  0
   -1.1404    0.5820   -2.6991 H   0  0  0  0  0  0  0  0  0  0  0  0
   -0.3484    2.4057   -3.5017 C   0  0  0  0  0  0  0  0  0  0  0  0
    0.5038    3.0789   -3.3640 H   0  0  0  0  0  0  0  0  0  0  0  0
   -0.3408    2.0422   -4.5342 H   0  0  0  0  0  0  0  0  0  0  0  0
   -1.2704    2.9752   -3.3481 H   0  0  0  0  0  0  0  0  0  0  0  0
    1.0027    0.4242   -2.7931 C   0  0  0  0  0  0  0  0  0  0  0  0
    1.0102   -0.5035   -2.2140 H   0  0  0  0  0  0  0  0  0  0  0  0
    1.0624    0.1545   -3.8522 H   0  0  0  0  0  0  0  0  0  0  0  0
    1.8914    1.0082   -2.5341 H   0  0  0  0  0  0  0  0  0  0  0  0
   -0.2405    1.2843    1.4168 C   0  0  0  0  0  0  0  0  0  0  0  0
   -1.1812    1.3181    2.2033 O   0  0  0  0  0  0  0  0  0  0  0  0
    0.9172    1.9688    1.7437 N   0  0  0  0  0  0  0  0  0  0  0  0
    1.6970    1.9016    1.0967 H   0  0  0  0  0  0  0  0  0  0  0  0
    1.1336    2.6001    3.0403 C   0  0  0  0  0  0  0  0  0  0  0  0
    1.0731    1.8571    3.8426 H   0  0  0  0  0  0  0  0  0  0  0  0
    2.1231    3.0660    3.0736 H   0  0  0  0  0  0  0  0  0  0  0  0
    0.3813    3.3753    3.2202 H   0  0  0  0  0  0  0  0  0  0  0  0
  1  2  1  0  0  0  0
  2  3  1  0  0  0  0
  2  4  1  0  0  0  0
  2  5  1  0  0  0  0
  5  6  2  0  0  0  0
  5  7  1  0  0  0  0
  7  8  1  0  0  0  0
  7  9  1  0  0  0  0
  9 10  1  0  0  0  0
  9 11  1  0  0  0  0
  9 24  1  0  0  0  0
 11 12  1  0  0  0  0
 11 13  1  0  0  0  0
 11 14  1  0  0  0  0
 14 15  1  0  0  0  0
 14 16  1  0  0  0  0
 14 20  1  0  0  0  0
 16 17  1  0  0  0  0
 16 18  1  0  0  0  0
 16 19  1  0  0  0  0
 20 21  1  0  0  0  0
 20 22  1  0  0  0  0
 20 23  1  0  0  0  0
 24 25  2  0  0  0  0
 24 26  1  0  0  0  0
 26 27  1  0  0  0  0
 26 28  1  0  0  0  0
 28 29  1  0  0  0  0
 28 30  1  0  0  0  0
 28 31  1  0  0  0  0
M  END
$$$$

  -OEChem-01062216083D

 31 30  0     1  0  0  0  0  0999 V2000
   -3.3044   -2.7112    1.1590 H   0  0  0  0  0  0  0  0  0  0  0  0
   -3.3234   -1.7123    0.7142 C   0  0  0  0  0  0  0  0  0  0  0  0
   -3.7979   -1.0238    1.4179 H   0  0  0  0  0  0  0  0  0  0  0  0
   -3.9094   -1.7463   -0.2070 H   0  0  0  0  0  0  0  0  0  0  0  0
   -1.9110   -1.2477    0.4148 C   0  0  0  0  0  0  0  0  0  0  0  0
   -0.9643   -1.9843    0.6480 O   0  0  0  0  0  0  0  0  0  0  0  0
   -1.7050   -0.0061   -0.1560 N   0  0  0  0  0  0  0  0  0  0  0  0
   -2.5294    0.5864   -0.1617 H   0  0  0  0  0  0  0  0  0  0  0  0
   -0.4118    0.6820    0.0013 C   0  0  1  0  0  0  0  0  0  0  0  0
    0.4111   -0.0248   -0.1384 H   0  0  0  0  0  0  0  0  0  0  0  0
   -0.3327    1.7762   -1.0874 C   0  0  0  0  0  0  0  0  0  0  0  0
   -1.2033    2.4330   -0.9845 H   0  0  0  0  0  0  0  0  0  0  0  0
    0.5580    2.3914   -0.9276 H   0  0  0  0  0  0  0  0  0  0  0  0
   -0.2746    1.2234   -2.5291 C   0  0  0  0  0  0  0  0  0  0  0  0
   -1.1377    0.5723   -2.7038 H   0  0  0  0  0  0  0  0  0  0  0  0
   -0.3499    2.3916   -3.5189 C   0  0  0  0  0  0  0  0  0  0  0  0
    0.5024    3.0659   -3.3880 H   0  0  0  0  0  0  0  0  0  0  0  0
   -0.3439    2.0203   -4.5484 H   0  0  0  0  0  0  0  0  0  0  0  0
   -1.2717    2.9618   -3.3677 H   0  0  0  0  0  0  0  0  0  0  0  0
    1.0056    0.4176   -2.7937 C   0  0  0  0  0  0  0  0  0  0  0  0
    1.0095   -0.5093   -2.2130 H   0  0  0  0  0  0  0  0  0  0  0  0
    1.0716    0.1462   -3.8520 H   0  0  0  0  0  0  0  0  0  0  0  0
    1.8930    1.0016   -2.5304 H   0  0  0  0  0  0  0  0  0  0  0  0
   -0.2381    1.2834    1.4229 C   0  0  0  0  0  0  0  0  0  0  0  0
   -1.0801    1.0917    2.2937 O   0  0  0  0  0  0  0  0  0  0  0  0
    0.7530    2.2161    1.6788 N   0  0  0  0  0  0  0  0  0  0  0  0
    1.4557    2.3600    0.9603 H   0  0  0  0  0  0  0  0  0  0  0  0
    0.9282    2.8662    2.9725 C   0  0  0  0  0  0  0  0  0  0  0  0
    1.1120    2.1215    3.7541 H   0  0  0  0  0  0  0  0  0  0  0  0
    1.7811    3.5507    2.9392 H   0  0  0  0  0  0  0  0  0  0  0  0
    0.0345    3.4413    3.2367 H   0  0  0  0  0  0  0  0  0  0  0  0
  1  2  1  0  0  0  0
  2  3  1  0  0  0  0
  2  4  1  0  0  0  0
  2  5  1  0  0  0  0
  5  6  2  0  0  0  0
  5  7  1  0  0  0  0
  7  8  1  0  0  0  0
  7  9  1  0  0  0  0
  9 10  1  0  0  0  0
  9 11  1  0  0  0  0
  9 24  1  0  0  0  0
 11 12  1  0  0  0  0
 11 13  1  0  0  0  0
 11 14  1  0  0  0  0
 14 15  1  0  0  0  0
 14 16  1  0  0  0  0
 14 20  1  0  0  0  0
 16 17  1  0  0  0  0
 16 18  1  0  0  0  0
 16 19  1  0  0  0  0
 20 21  1  0  0  0  0
 20 22  1  0  0  0  0
 20 23  1  0  0  0  0
 24 25  2  0  0  0  0
 24 26  1  0  0  0  0
 26 27  1  0  0  0  0
 26 28  1  0  0  0  0
 28 29  1  0  0  0  0
 28 30  1  0  0  0  0
 28 31  1  0  0  0  0
M  END
$$$$

  -OEChem-01062216083D

 31 30  0     1  0  0  0  0  0999 V2000
   -3.2979   -2.6964    1.1636 H   0  0  0  0  0  0  0  0  0  0  0  0
   -3.3201   -1.7013    0.7107 C   0  0  0  0  0  0  0  0  0  0  0  0
   -3.7949   -1.0088    1.4101 H   0  0  0  0  0  0  0  0  0  0  0  0
   -3.9075   -1.7441   -0.2094 H   0  0  0  0  0  0  0  0  0  0  0  0
   -1.9090   -1.2360    0.4058 C   0  0  0  0  0  0  0  0  0  0  0  0
   -0.9644   -1.9862    0.5999 O   0  0  0  0  0  0  0  0  0  0  0  0
   -1.7053    0.0120   -0.1527 N   0  0  0  0  0  0  0  0  0  0  0  0
   -2.5317    0.6009   -0.1613 H   0  0  0  0  0  0  0  0  0  0  0  0
   -0.4130    0.7032    0.0032 C   0  0  1  0  0  0  0  0  0  0  0  0
    0.4096   -0.0035   -0.1368 H   0  0  0  0  0  0  0  0  0  0  0  0
   -0.3380    1.7853   -1.0988 C   0  0  0  0  0  0  0  0  0  0  0  0
   -1.2090    2.4429   -1.0036 H   0  0  0  0  0  0  0  0  0  0  0  0
    0.5543    2.4004   -0.9503 H   0  0  0  0  0  0  0  0  0  0  0  0
   -0.2775    1.2140   -2.5340 C   0  0  0  0  0  0  0  0  0  0  0  0
   -1.1385    0.5581   -2.7014 H   0  0  0  0  0  0  0  0  0  0  0  0
   -0.3573    2.3684   -3.5398 C   0  0  0  0  0  0  0  0  0  0  0  0
    0.4910    3.0491   -3.4160 H   0  0  0  0  0  0  0  0  0  0  0  0
   -0.3467    1.9835   -4.5645 H   0  0  0  0  0  0  0  0  0  0  0  0
   -1.2828    2.9353   -3.3986 H   0  0  0  0  0  0  0  0  0  0  0  0
    1.0051    0.4082   -2.7882 C   0  0  0  0  0  0  0  0  0  0  0  0
    1.0101   -0.5129   -2.1983 H   0  0  0  0  0  0  0  0  0  0  0  0
    1.0737    0.1258   -3.8435 H   0  0  0  0  0  0  0  0  0  0  0  0
    1.8909    0.9964   -2.5292 H   0  0  0  0  0  0  0  0  0  0  0  0
   -0.2300    1.2953    1.4308 C   0  0  0  0  0  0  0  0  0  0  0  0
   -0.9061    0.8915    2.3697 O   0  0  0  0  0  0  0  0  0  0  0  0
    0.5314    2.4335    1.6430 N   0  0  0  0  0  0  0  0  0  0  0  0
    1.0951    2.7707    0.8693 H   0  0  0  0  0  0  0  0  0  0  0  0
    0.6690    3.0798    2.9436 C   0  0  0  0  0  0  0  0  0  0  0  0
    1.1037    2.3869    3.6718 H   0  0  0  0  0  0  0  0  0  0  0  0
    1.3225    3.9538    2.8645 H   0  0  0  0  0  0  0  0  0  0  0  0
   -0.3073    3.4117    3.3121 H   0  0  0  0  0  0  0  0  0  0  0  0
  1  2  1  0  0  0  0
  2  3  1  0  0  0  0
  2  4  1  0  0  0  0
  2  5  1  0  0  0  0
  5  6  2  0  0  0  0
  5  7  1  0  0  0  0
  7  8  1  0  0  0  0
  7  9  1  0  0  0  0
  9 10  1  0  0  0  0
  9 11  1  0  0  0  0
  9 24  1  0  0  0  0
 11 12  1  0  0  0  0
 11 13  1  0  0  0  0
 11 14  1  0  0  0  0
 14 15  1  0  0  0  0
 14 16  1  0  0  0  0
 14 20  1  0  0  0  0
 16 17  1  0  0  0  0
 16 18  1  0  0  0  0
 16 19  1  0  0  0  0
 20 21  1  0  0  0  0
 20 22  1  0  0  0  0
 20 23  1  0  0  0  0
 24 25  2  0  0  0  0
 24 26  1  0  0  0  0
 26 27  1  0  0  0  0
 26 28  1  0  0  0  0
 28 29  1  0  0  0  0
 28 30  1  0  0  0  0
 28 31  1  0  0  0  0
M  END
$$$$

  -OEChem-01062216083D

 31 30  0     1  0  0  0  0  0999 V2000
   -3.2951   -2.7185    1.1133 H   0  0  0  0  0  0  0  0  0  0  0  0
   -3.3158   -1.6943    0.7306 C   0  0  0  0  0  0  0  0  0  0  0  0
   -3.7504   -1.0438    1.4934 H   0  0  0  0  0  0  0  0  0  0  0  0
   -3.9387   -1.6647   -0.1663 H   0  0  0  0  0  0  0  0  0  0  0  0
   -1.9088   -1.2318    0.4034 C   0  0  0  0  0  0  0  0  0  0  0  0
   -0.9667   -1.9938    0.5565 O   0  0  0  0  0  0  0  0  0  0  0  0
   -1.7109    0.0197   -0.1500 N   0  0  0  0  0  0  0  0  0  0  0  0
   -2.5413    0.6027   -0.1612 H   0  0  0  0  0  0  0  0  0  0  0  0
   -0.4216    0.7186   -0.0007 C   0  0  1  0  0  0  0  0  0  0  0  0
    0.4025    0.0125   -0.1363 H   0  0  0  0  0  0  0  0  0  0  0  0
   -0.3390    1.7922   -1.1104 C   0  0  0  0  0  0  0  0  0  0  0  0
   -1.2084    2.4533   -1.0263 H   0  0  0  0  0  0  0  0  0  0  0  0
    0.5565    2.4029   -0.9606 H   0  0  0  0  0  0  0  0  0  0  0  0
   -0.2702    1.2099   -2.5402 C   0  0  0  0  0  0  0  0  0  0  0  0
   -1.1309    0.5534   -2.7064 H   0  0  0  0  0  0  0  0  0  0  0  0
   -0.3428    2.3568   -3.5553 C   0  0  0  0  0  0  0  0  0  0  0  0
    0.5106    3.0323   -3.4382 H   0  0  0  0  0  0  0  0  0  0  0  0
   -0.3357    1.9629   -4.5765 H   0  0  0  0  0  0  0  0  0  0  0  0
   -1.2638    2.9320   -3.4185 H   0  0  0  0  0  0  0  0  0  0  0  0
    1.0123    0.4008   -2.7826 C   0  0  0  0  0  0  0  0  0  0  0  0
    1.0148   -0.5146   -2.1841 H   0  0  0  0  0  0  0  0  0  0  0  0
    1.0832    0.1083   -3.8349 H   0  0  0  0  0  0  0  0  0  0  0  0
    1.8976    0.9910   -2.5267 H   0  0  0  0  0  0  0  0  0  0  0  0
   -0.2358    1.3064    1.4285 C   0  0  0  0  0  0  0  0  0  0  0  0
   -0.6780    0.7240    2.4103 O   0  0  0  0  0  0  0  0  0  0  0  0
    0.2441    2.5922    1.6223 N   0  0  0  0  0  0  0  0  0  0  0  0
    0.5891    3.0922    0.8095 H   0  0  0  0  0  0  0  0  0  0  0  0
    0.3468    3.2264    2.9321 C   0  0  0  0  0  0  0  0  0  0  0  0
    0.9928    2.6391    3.5933 H   0  0  0  0  0  0  0  0  0  0  0  0
    0.7733    4.2293    2.8345 H   0  0  0  0  0  0  0  0  0  0  0  0
   -0.6423    3.3153    3.3936 H   0  0  0  0  0  0  0  0  0  0  0  0
  1  2  1  0  0  0  0
  2  3  1  0  0  0  0
  2  4  1  0  0  0  0
  2  5  1  0  0  0  0
  5  6  2  0  0  0  0
  5  7  1  0  0  0  0
  7  8  1  0  0  0  0
  7  9  1  0  0  0  0
  9 10  1  0  0  0  0
  9 11  1  0  0  0  0
  9 24  1  0  0  0  0
 11 12  1  0  0  0  0
 11 13  1  0  0  0  0
 11 14  1  0  0  0  0
 14 15  1  0  0  0  0
 14 16  1  0  0  0  0
 14 20  1  0  0  0  0
 16 17  1  0  0  0  0
 16 18  1  0  0  0  0
 16 19  1  0  0  0  0
 20 21  1  0  0  0  0
 20 22  1  0  0  0  0
 20 23  1  0  0  0  0
 24 25  2  0  0  0  0
 24 26  1  0  0  0  0
 26 27  1  0  0  0  0
 26 28  1  0  0  0  0
 28 29  1  0  0  0  0
 28 30  1  0  0  0  0
 28 31  1  0  0  0  0
M  END
$$$$

  -OEChem-01062216083D

 31 30  0     1  0  0  0  0  0999 V2000
   -3.2977   -2.6901    1.1746 H   0  0  0  0  0  0  0  0  0  0  0  0
   -3.3243   -1.6966    0.7184 C   0  0  0  0  0  0  0  0  0  0  0  0
   -3.8021   -1.0043    1.4157 H   0  0  0  0  0  0  0  0  0  0  0  0
   -3.9117   -1.7455   -0.2014 H   0  0  0  0  0  0  0  0  0  0  0  0
   -1.9149   -1.2280    0.4105 C   0  0  0  0  0  0  0  0  0  0  0  0
   -0.9753   -1.9919    0.5637 O   0  0  0  0  0  0  0  0  0  0  0  0
   -1.7158    0.0236   -0.1423 N   0  0  0  0  0  0  0  0  0  0  0  0
   -2.5494    0.6004   -0.1834 H   0  0  0  0  0  0  0  0  0  0  0  0
   -0.4302    0.7295    0.0021 C   0  0  1  0  0  0  0  0  0  0  0  0
    0.3960    0.0244   -0.1284 H   0  0  0  0  0  0  0  0  0  0  0  0
   -0.3432    1.7991   -1.1097 C   0  0  0  0  0  0  0  0  0  0  0  0
   -1.2147    2.4582   -1.0347 H   0  0  0  0  0  0  0  0  0  0  0  0
    0.5511    2.4108   -0.9511 H   0  0  0  0  0  0  0  0  0  0  0  0
   -0.2674    1.2109   -2.5366 C   0  0  0  0  0  0  0  0  0  0  0  0
   -1.1271    0.5534   -2.7042 H   0  0  0  0  0  0  0  0  0  0  0  0
   -0.3359    2.3530   -3.5571 C   0  0  0  0  0  0  0  0  0  0  0  0
    0.5149    3.0313   -3.4367 H   0  0  0  0  0  0  0  0  0  0  0  0
   -0.3206    1.9550   -4.5767 H   0  0  0  0  0  0  0  0  0  0  0  0
   -1.2596    2.9256   -3.4286 H   0  0  0  0  0  0  0  0  0  0  0  0
    1.0165    0.4004   -2.7680 C   0  0  0  0  0  0  0  0  0  0  0  0
    1.0129   -0.5147   -2.1687 H   0  0  0  0  0  0  0  0  0  0  0  0
    1.0968    0.1069   -3.8194 H   0  0  0  0  0  0  0  0  0  0  0  0
    1.9004    0.9895   -2.5044 H   0  0  0  0  0  0  0  0  0  0  0  0
   -0.2473    1.3191    1.4284 C   0  0  0  0  0  0  0  0  0  0  0  0
   -0.4011    0.6219    2.4213 O   0  0  0  0  0  0  0  0  0  0  0  0
   -0.0769    2.6802    1.6279 N   0  0  0  0  0  0  0  0  0  0  0  0
    0.0296    3.2657    0.8060 H   0  0  0  0  0  0  0  0  0  0  0  0
    0.0227    3.2954    2.9470 C   0  0  0  0  0  0  0  0  0  0  0  0
    0.8812    2.8921    3.4945 H   0  0  0  0  0  0  0  0  0  0  0  0
    0.1514    4.3776    2.8508 H   0  0  0  0  0  0  0  0  0  0  0  0
   -0.8861    3.1067    3.5282 H   0  0  0  0  0  0  0  0  0  0  0  0
  1  2  1  0  0  0  0
  2  3  1  0  0  0  0
  2  4  1  0  0  0  0
  2  5  1  0  0  0  0
  5  6  2  0  0  0  0
  5  7  1  0  0  0  0
  7  8  1  0  0  0  0
  7  9  1  0  0  0  0
  9 10  1  0  0  0  0
  9 11  1  0  0  0  0
  9 24  1  0  0  0  0
 11 12  1  0  0  0  0
 11 13  1  0  0  0  0
 11 14  1  0  0  0  0
 14 15  1  0  0  0  0
 14 16  1  0  0  0  0
 14 20  1  0  0  0  0
 16 17  1  0  0  0  0
 16 18  1  0  0  0  0
 16 19  1  0  0  0  0
 20 21  1  0  0  0  0
 20 22  1  0  0  0  0
 20 23  1  0  0  0  0
 24 25  2  0  0  0  0
 24 26  1  0  0  0  0
 26 27  1  0  0  0  0
 26 28  1  0  0  0  0
 28 29  1  0  0  0  0
 28 30  1  0  0  0  0
 28 31  1  0  0  0  0
M  END
$$$$

  -OEChem-01062216083D

 31 30  0     1  0  0  0  0  0999 V2000
   -3.3296   -2.7035    1.1520 H   0  0  0  0  0  0  0  0  0  0  0  0
   -3.3472   -1.7193    0.6752 C   0  0  0  0  0  0  0  0  0  0  0  0
   -3.8718   -1.0217    1.3324 H   0  0  0  0  0  0  0  0  0  0  0  0
   -3.8851   -1.7957   -0.2726 H   0  0  0  0  0  0  0  0  0  0  0  0
   -1.9304   -1.2350    0.4310 C   0  0  0  0  0  0  0  0  0  0  0  0
   -0.9919   -1.9845    0.6412 O   0  0  0  0  0  0  0  0  0  0  0  0
   -1.7225    0.0140   -0.1238 N   0  0  0  0  0  0  0  0  0  0  0  0
   -2.5583    0.5800   -0.2252 H   0  0  0  0  0  0  0  0  0  0  0  0
   -0.4414    0.7282    0.0172 C   0  0  1  0  0  0  0  0  0  0  0  0
    0.3869    0.0244   -0.1092 H   0  0  0  0  0  0  0  0  0  0  0  0
   -0.3515    1.7975   -1.0938 C   0  0  0  0  0  0  0  0  0  0  0  0
   -1.2271    2.4515   -1.0272 H   0  0  0  0  0  0  0  0  0  0  0  0
    0.5377    2.4141   -0.9226 H   0  0  0  0  0  0  0  0  0  0  0  0
   -0.2675    1.2129   -2.5216 C   0  0  0  0  0  0  0  0  0  0  0  0
   -1.1233    0.5515   -2.6942 H   0  0  0  0  0  0  0  0  0  0  0  0
   -0.3340    2.3568   -3.5403 C   0  0  0  0  0  0  0  0  0  0  0  0
    0.5114    3.0403   -3.4114 H   0  0  0  0  0  0  0  0  0  0  0  0
   -0.3075    1.9604   -4.5602 H   0  0  0  0  0  0  0  0  0  0  0  0
   -1.2622    2.9236   -3.4195 H   0  0  0  0  0  0  0  0  0  0  0  0
    1.0217    0.4099   -2.7491 C   0  0  0  0  0  0  0  0  0  0  0  0
    1.0237   -0.5038   -2.1478 H   0  0  0  0  0  0  0  0  0  0  0  0
    1.1051    0.1149   -3.7998 H   0  0  0  0  0  0  0  0  0  0  0  0
    1.9013    1.0058   -2.4857 H   0  0  0  0  0  0  0  0  0  0  0  0
   -0.2623    1.3272    1.4369 C   0  0  0  0  0  0  0  0  0  0  0  0
   -0.0830    0.6066    2.4071 O   0  0  0  0  0  0  0  0  0  0  0  0
   -0.4087    2.6870    1.6608 N   0  0  0  0  0  0  0  0  0  0  0  0
   -0.5543    3.2828    0.8525 H   0  0  0  0  0  0  0  0  0  0  0  0
   -0.2841    3.3030    2.9769 C   0  0  0  0  0  0  0  0  0  0  0  0
    0.7203    3.1404    3.3817 H   0  0  0  0  0  0  0  0  0  0  0  0
   -0.4597    4.3807    2.9084 H   0  0  0  0  0  0  0  0  0  0  0  0
   -1.0168    2.8777    3.6708 H   0  0  0  0  0  0  0  0  0  0  0  0
  1  2  1  0  0  0  0
  2  3  1  0  0  0  0
  2  4  1  0  0  0  0
  2  5  1  0  0  0  0
  5  6  2  0  0  0  0
  5  7  1  0  0  0  0
  7  8  1  0  0  0  0
  7  9  1  0  0  0  0
  9 10  1  0  0  0  0
  9 11  1  0  0  0  0
  9 24  1  0  0  0  0
 11 12  1  0  0  0  0
 11 13  1  0  0  0  0
 11 14  1  0  0  0  0
 14 15  1  0  0  0  0
 14 16  1  0  0  0  0
 14 20  1  0  0  0  0
 16 17  1  0  0  0  0
 16 18  1  0  0  0  0
 16 19  1  0  0  0  0
 20 21  1  0  0  0  0
 20 22  1  0  0  0  0
 20 23  1  0  0  0  0
 24 25  2  0  0  0  0
 24 26  1  0  0  0  0
 26 27  1  0  0  0  0
 26 28  1  0  0  0  0
 28 29  1  0  0  0  0
 28 30  1  0  0  0  0
 28 31  1  0  0  0  0
M  END
$$$$

  -OEChem-01062216083D

 31 30  0     1  0  0  0  0  0999 V2000
   -3.3768   -2.7546    1.0484 H   0  0  0  0  0  0  0  0  0  0  0  0
   -3.3755   -1.7702    0.5714 C   0  0  0  0  0  0  0  0  0  0  0  0
   -3.9846   -1.0899    1.1712 H   0  0  0  0  0  0  0  0  0  0  0  0
   -3.8132   -1.8614   -0.4254 H   0  0  0  0  0  0  0  0  0  0  0  0
   -1.9562   -1.2440    0.4679 C   0  0  0  0  0  0  0  0  0  0  0  0
   -1.0255   -1.9507    0.8118 O   0  0  0  0  0  0  0  0  0  0  0  0
   -1.7310    0.0011   -0.0873 N   0  0  0  0  0  0  0  0  0  0  0  0
   -2.5603    0.5417   -0.3084 H   0  0  0  0  0  0  0  0  0  0  0  0
   -0.4529    0.7222    0.0464 C   0  0  1  0  0  0  0  0  0  0  0  0
    0.3753    0.0181   -0.0813 H   0  0  0  0  0  0  0  0  0  0  0  0
   -0.3639    1.7937   -1.0611 C   0  0  0  0  0  0  0  0  0  0  0  0
   -1.2396    2.4471   -0.9951 H   0  0  0  0  0  0  0  0  0  0  0  0
    0.5235    2.4119   -0.8838 H   0  0  0  0  0  0  0  0  0  0  0  0
   -0.2797    1.2124   -2.4901 C   0  0  0  0  0  0  0  0  0  0  0  0
   -1.1344    0.5503   -2.6642 H   0  0  0  0  0  0  0  0  0  0  0  0
   -0.3473    2.3603   -3.5040 C   0  0  0  0  0  0  0  0  0  0  0  0
    0.4962    3.0448   -3.3689 H   0  0  0  0  0  0  0  0  0  0  0  0
   -0.3167    1.9693   -4.5259 H   0  0  0  0  0  0  0  0  0  0  0  0
   -1.2770    2.9246   -3.3830 H   0  0  0  0  0  0  0  0  0  0  0  0
    1.0110    0.4130   -2.7217 C   0  0  0  0  0  0  0  0  0  0  0  0
    1.0190   -0.5004   -2.1202 H   0  0  0  0  0  0  0  0  0  0  0  0
    1.0918    0.1179   -3.7726 H   0  0  0  0  0  0  0  0  0  0  0  0
    1.8894    1.0120   -2.4619 H   0  0  0  0  0  0  0  0  0  0  0  0
   -0.2686    1.3330    1.4576 C   0  0  0  0  0  0  0  0  0  0  0  0
    0.2886    0.7093    2.3478 O   0  0  0  0  0  0  0  0  0  0  0  0
   -0.7136    2.6153    1.7366 N   0  0  0  0  0  0  0  0  0  0  0  0
   -1.1436    3.1385    0.9815 H   0  0  0  0  0  0  0  0  0  0  0  0
   -0.5394    3.2605    3.0328 C   0  0  0  0  0  0  0  0  0  0  0  0
    0.5249    3.3720    3.2652 H   0  0  0  0  0  0  0  0  0  0  0  0
   -0.9983    4.2538    3.0262 H   0  0  0  0  0  0  0  0  0  0  0  0
   -1.0122    2.6672    3.8227 H   0  0  0  0  0  0  0  0  0  0  0  0
  1  2  1  0  0  0  0
  2  3  1  0  0  0  0
  2  4  1  0  0  0  0
  2  5  1  0  0  0  0
  5  6  2  0  0  0  0
  5  7  1  0  0  0  0
  7  8  1  0  0  0  0
  7  9  1  0  0  0  0
  9 10  1  0  0  0  0
  9 11  1  0  0  0  0
  9 24  1  0  0  0  0
 11 12  1  0  0  0  0
 11 13  1  0  0  0  0
 11 14  1  0  0  0  0
 14 15  1  0  0  0  0
 14 16  1  0  0  0  0
 14 20  1  0  0  0  0
 16 17  1  0  0  0  0
 16 18  1  0  0  0  0
 16 19  1  0  0  0  0
 20 21  1  0  0  0  0
 20 22  1  0  0  0  0
 20 23  1  0  0  0  0
 24 25  2  0  0  0  0
 24 26  1  0  0  0  0
 26 27  1  0  0  0  0
 26 28  1  0  0  0  0
 28 29  1  0  0  0  0
 28 30  1  0  0  0  0
 28 31  1  0  0  0  0
M  END
$$$$

  -OEChem-01062216083D

 31 30  0     1  0  0  0  0  0999 V2000
   -3.4104   -2.8100    0.9312 H   0  0  0  0  0  0  0  0  0  0  0  0
   -3.3828   -1.8390    0.4284 C   0  0  0  0  0  0  0  0  0  0  0  0
   -4.1108   -1.1771    0.9034 H   0  0  0  0  0  0  0  0  0  0  0  0
   -3.6543   -1.9784   -0.6206 H   0  0  0  0  0  0  0  0  0  0  0  0
   -1.9927   -1.2397    0.5303 C   0  0  0  0  0  0  0  0  0  0  0  0
   -1.1054   -1.8640    1.0828 O   0  0  0  0  0  0  0  0  0  0  0  0
   -1.7410   -0.0029   -0.0306 N   0  0  0  0  0  0  0  0  0  0  0  0
   -2.5178    0.4604   -0.4899 H   0  0  0  0  0  0  0  0  0  0  0  0
   -0.4574    0.7110    0.0852 C   0  0  1  0  0  0  0  0  0  0  0  0
    0.3616   -0.0022   -0.0515 H   0  0  0  0  0  0  0  0  0  0  0  0
   -0.3724    1.7871   -1.0171 C   0  0  0  0  0  0  0  0  0  0  0  0
   -1.2395    2.4502   -0.9353 H   0  0  0  0  0  0  0  0  0  0  0  0
    0.5223    2.3961   -0.8446 H   0  0  0  0  0  0  0  0  0  0  0  0
   -0.3099    1.2146   -2.4506 C   0  0  0  0  0  0  0  0  0  0  0  0
   -1.1711    0.5599   -2.6201 H   0  0  0  0  0  0  0  0  0  0  0  0
   -0.3798    2.3691   -3.4572 C   0  0  0  0  0  0  0  0  0  0  0  0
    0.4712    3.0457   -3.3290 H   0  0  0  0  0  0  0  0  0  0  0  0
   -0.3653    1.9834   -4.4816 H   0  0  0  0  0  0  0  0  0  0  0  0
   -1.3031    2.9411   -3.3215 H   0  0  0  0  0  0  0  0  0  0  0  0
    0.9735    0.4079   -2.6983 C   0  0  0  0  0  0  0  0  0  0  0  0
    0.9795   -0.5100   -2.1037 H   0  0  0  0  0  0  0  0  0  0  0  0
    1.0453    0.1211   -3.7521 H   0  0  0  0  0  0  0  0  0  0  0  0
    1.8578    0.9989   -2.4394 H   0  0  0  0  0  0  0  0  0  0  0  0
   -0.2489    1.3357    1.4843 C   0  0  0  0  0  0  0  0  0  0  0  0
    0.6329    0.9275    2.2257 O   0  0  0  0  0  0  0  0  0  0  0  0
   -0.9405    2.4789    1.8496 N   0  0  0  0  0  0  0  0  0  0  0  0
   -1.6588    2.8143    1.2172 H   0  0  0  0  0  0  0  0  0  0  0  0
   -0.7423    3.1620    3.1223 C   0  0  0  0  0  0  0  0  0  0  0  0
    0.2992    3.4843    3.2266 H   0  0  0  0  0  0  0  0  0  0  0  0
   -1.3840    4.0462    3.1822 H   0  0  0  0  0  0  0  0  0  0  0  0
   -0.9900    2.4962    3.9558 H   0  0  0  0  0  0  0  0  0  0  0  0
  1  2  1  0  0  0  0
  2  3  1  0  0  0  0
  2  4  1  0  0  0  0
  2  5  1  0  0  0  0
  5  6  2  0  0  0  0
  5  7  1  0  0  0  0
  7  8  1  0  0  0  0
  7  9  1  0  0  0  0
  9 10  1  0  0  0  0
  9 11  1  0  0  0  0
  9 24  1  0  0  0  0
 11 12  1  0  0  0  0
 11 13  1  0  0  0  0
 11 14  1  0  0  0  0
 14 15  1  0  0  0  0
 14 16  1  0  0  0  0
 14 20  1  0  0  0  0
 16 17  1  0  0  0  0
 16 18  1  0  0  0  0
 16 19  1  0  0  0  0
 20 21  1  0  0  0  0
 20 22  1  0  0  0  0
 20 23  1  0  0  0  0
 24 25  2  0  0  0  0
 24 26  1  0  0  0  0
 26 27  1  0  0  0  0
 26 28  1  0  0  0  0
 28 29  1  0  0  0  0
 28 30  1  0  0  0  0
 28 31  1  0  0  0  0
M  END
$$$$

  -OEChem-01062216083D

 31 30  0     1  0  0  0  0  0999 V2000
   -3.3926   -2.8697    0.8168 H   0  0  0  0  0  0  0  0  0  0  0  0
   -3.3646   -1.8942    0.3229 C   0  0  0  0  0  0  0  0  0  0  0  0
   -4.1779   -1.2785    0.7143 H   0  0  0  0  0  0  0  0  0  0  0  0
   -3.5087   -2.0401   -0.7503 H   0  0  0  0  0  0  0  0  0  0  0  0
   -2.0315   -1.2175    0.5810 C   0  0  0  0  0  0  0  0  0  0  0  0
   -1.2030   -1.7612    1.2883 O   0  0  0  0  0  0  0  0  0  0  0  0
   -1.7653    0.0094    0.0063 N   0  0  0  0  0  0  0  0  0  0  0  0
   -2.4535    0.3686   -0.6474 H   0  0  0  0  0  0  0  0  0  0  0  0
   -0.4676    0.6996    0.1111 C   0  0  1  0  0  0  0  0  0  0  0  0
    0.3372   -0.0285   -0.0321 H   0  0  0  0  0  0  0  0  0  0  0  0
   -0.3735    1.7807   -0.9833 C   0  0  0  0  0  0  0  0  0  0  0  0
   -1.2258    2.4604   -0.8833 H   0  0  0  0  0  0  0  0  0  0  0  0
    0.5342    2.3717   -0.8151 H   0  0  0  0  0  0  0  0  0  0  0  0
   -0.3371    1.2189   -2.4216 C   0  0  0  0  0  0  0  0  0  0  0  0
   -1.2121    0.5827   -2.5885 H   0  0  0  0  0  0  0  0  0  0  0  0
   -0.3951    2.3837   -3.4164 C   0  0  0  0  0  0  0  0  0  0  0  0
    0.4710    3.0416   -3.2915 H   0  0  0  0  0  0  0  0  0  0  0  0
   -0.4005    2.0084   -4.4445 H   0  0  0  0  0  0  0  0  0  0  0  0
   -1.3045    2.9732   -3.2640 H   0  0  0  0  0  0  0  0  0  0  0  0
    0.9282    0.3907   -2.6890 C   0  0  0  0  0  0  0  0  0  0  0  0
    0.9222   -0.5328   -2.1032 H   0  0  0  0  0  0  0  0  0  0  0  0
    0.9856    0.1132   -3.7461 H   0  0  0  0  0  0  0  0  0  0  0  0
    1.8258    0.9623   -2.4321 H   0  0  0  0  0  0  0  0  0  0  0  0
   -0.2341    1.3322    1.5004 C   0  0  0  0  0  0  0  0  0  0  0  0
    0.8311    1.1700    2.0793 O   0  0  0  0  0  0  0  0  0  0  0  0
   -1.1099    2.2922    1.9776 N   0  0  0  0  0  0  0  0  0  0  0  0
   -1.9990    2.3819    1.4979 H   0  0  0  0  0  0  0  0  0  0  0  0
   -0.9152    2.9919    3.2415 C   0  0  0  0  0  0  0  0  0  0  0  0
    0.0353    3.5357    3.2365 H   0  0  0  0  0  0  0  0  0  0  0  0
   -1.7224    3.7123    3.4032 H   0  0  0  0  0  0  0  0  0  0  0  0
   -0.9103    2.2819    4.0751 H   0  0  0  0  0  0  0  0  0  0  0  0
  1  2  1  0  0  0  0
  2  3  1  0  0  0  0
  2  4  1  0  0  0  0
  2  5  1  0  0  0  0
  5  6  2  0  0  0  0
  5  7  1  0  0  0  0
  7  8  1  0  0  0  0
  7  9  1  0  0  0  0
  9 10  1  0  0  0  0
  9 11  1  0  0  0  0
  9 24  1  0  0  0  0
 11 12  1  0  0  0  0
 11 13  1  0  0  0  0
 11 14  1  0  0  0  0
 14 15  1  0  0  0  0
 14 16  1  0  0  0  0
 14 20  1  0  0  0  0
 16 17  1  0  0  0  0
 16 18  1  0  0  0  0
 16 19  1  0  0  0  0
 20 21  1  0  0  0  0
 20 22  1  0  0  0  0
 20 23  1  0  0  0  0
 24 25  2  0  0  0  0
 24 26  1  0  0  0  0
 26 27  1  0  0  0  0
 26 28  1  0  0  0  0
 28 29  1  0  0  0  0
 28 30  1  0  0  0  0
 28 31  1  0  0  0  0
M  END
$$$$

  -OEChem-01062216083D

 31 30  0     1  0  0  0  0  0999 V2000
   -3.3784   -2.8857    0.7850 H   0  0  0  0  0  0  0  0  0  0  0  0
   -3.3520   -1.9126    0.2860 C   0  0  0  0  0  0  0  0  0  0  0  0
   -4.1953   -1.3136    0.6379 H   0  0  0  0  0  0  0  0  0  0  0  0
   -3.4471   -2.0689   -0.7912 H   0  0  0  0  0  0  0  0  0  0  0  0
   -2.0464   -1.2041    0.5952 C   0  0  0  0  0  0  0  0  0  0  0  0
   -1.2458   -1.7120    1.3594 O   0  0  0  0  0  0  0  0  0  0  0  0
   -1.7741    0.0174    0.0120 N   0  0  0  0  0  0  0  0  0  0  0  0
   -2.4268    0.3407   -0.6953 H   0  0  0  0  0  0  0  0  0  0  0  0
   -0.4684    0.6940    0.1160 C   0  0  1  0  0  0  0  0  0  0  0  0
    0.3302   -0.0406   -0.0283 H   0  0  0  0  0  0  0  0  0  0  0  0
   -0.3708    1.7778   -0.9746 C   0  0  0  0  0  0  0  0  0  0  0  0
   -1.2165    2.4649   -0.8645 H   0  0  0  0  0  0  0  0  0  0  0  0
    0.5427    2.3604   -0.8098 H   0  0  0  0  0  0  0  0  0  0  0  0
   -0.3466    1.2213   -2.4155 C   0  0  0  0  0  0  0  0  0  0  0  0
   -1.2282    0.5939   -2.5803 H   0  0  0  0  0  0  0  0  0  0  0  0
   -0.3998    2.3906   -3.4053 C   0  0  0  0  0  0  0  0  0  0  0  0
    0.4721    3.0412   -3.2818 H   0  0  0  0  0  0  0  0  0  0  0  0
   -0.4129    2.0191   -4.4347 H   0  0  0  0  0  0  0  0  0  0  0  0
   -1.3038    2.9864   -3.2459 H   0  0  0  0  0  0  0  0  0  0  0  0
    0.9096    0.3826   -2.6931 C   0  0  0  0  0  0  0  0  0  0  0  0
    0.9008   -0.5409   -2.1076 H   0  0  0  0  0  0  0  0  0  0  0  0
    0.9562    0.1056   -3.7509 H   0  0  0  0  0  0  0  0  0  0  0  0
    1.8141    0.9465   -2.4433 H   0  0  0  0  0  0  0  0  0  0  0  0
   -0.2243    1.3319    1.5001 C   0  0  0  0  0  0  0  0  0  0  0  0
    0.9112    1.3935    1.9521 O   0  0  0  0  0  0  0  0  0  0  0  0
   -1.2287    2.0627    2.1099 N   0  0  0  0  0  0  0  0  0  0  0  0
   -2.1664    1.9327    1.7454 H   0  0  0  0  0  0  0  0  0  0  0  0
   -1.0576    2.7287    3.3952 C   0  0  0  0  0  0  0  0  0  0  0  0
   -0.2432    3.4591    3.3441 H   0  0  0  0  0  0  0  0  0  0  0  0
   -1.9751    3.2561    3.6728 H   0  0  0  0  0  0  0  0  0  0  0  0
   -0.8261    1.9976    4.1770 H   0  0  0  0  0  0  0  0  0  0  0  0
  1  2  1  0  0  0  0
  2  3  1  0  0  0  0
  2  4  1  0  0  0  0
  2  5  1  0  0  0  0
  5  6  2  0  0  0  0
  5  7  1  0  0  0  0
  7  8  1  0  0  0  0
  7  9  1  0  0  0  0
  9 10  1  0  0  0  0
  9 11  1  0  0  0  0
  9 24  1  0  0  0  0
 11 12  1  0  0  0  0
 11 13  1  0  0  0  0
 11 14  1  0  0  0  0
 14 15  1  0  0  0  0
 14 16  1  0  0  0  0
 14 20  1  0  0  0  0
 16 17  1  0  0  0  0
 16 18  1  0  0  0  0
 16 19  1  0  0  0  0
 20 21  1  0  0  0  0
 20 22  1  0  0  0  0
 20 23  1  0  0  0  0
 24 25  2  0  0  0  0
 24 26  1  0  0  0  0
 26 27  1  0  0  0  0
 26 28  1  0  0  0  0
 28 29  1  0  0  0  0
 28 30  1  0  0  0  0
 28 31  1  0  0  0  0
M  END
$$$$

  -OEChem-01062216083D

 31 30  0     1  0  0  0  0  0999 V2000
   -3.3771   -2.8893    0.7582 H   0  0  0  0  0  0  0  0  0  0  0  0
   -3.3495   -1.9155    0.2606 C   0  0  0  0  0  0  0  0  0  0  0  0
   -4.2026   -1.3228    0.5991 H   0  0  0  0  0  0  0  0  0  0  0  0
   -3.4267   -2.0708   -0.8182 H   0  0  0  0  0  0  0  0  0  0  0  0
   -2.0544   -1.1978    0.5910 C   0  0  0  0  0  0  0  0  0  0  0  0
   -1.2699   -1.6899    1.3821 O   0  0  0  0  0  0  0  0  0  0  0  0
   -1.7767    0.0219    0.0073 N   0  0  0  0  0  0  0  0  0  0  0  0
   -2.4162    0.3386   -0.7152 H   0  0  0  0  0  0  0  0  0  0  0  0
   -0.4688    0.6947    0.1174 C   0  0  1  0  0  0  0  0  0  0  0  0
    0.3293   -0.0405   -0.0245 H   0  0  0  0  0  0  0  0  0  0  0  0
   -0.3740    1.7767   -0.9760 C   0  0  0  0  0  0  0  0  0  0  0  0
   -1.2207    2.4625   -0.8648 H   0  0  0  0  0  0  0  0  0  0  0  0
    0.5386    2.3622   -0.8154 H   0  0  0  0  0  0  0  0  0  0  0  0
   -0.3501    1.2182   -2.4162 C   0  0  0  0  0  0  0  0  0  0  0  0
   -1.2306    0.5890   -2.5803 H   0  0  0  0  0  0  0  0  0  0  0  0
   -0.4061    2.3861   -3.4077 C   0  0  0  0  0  0  0  0  0  0  0  0
    0.4646    3.0385   -3.2853 H   0  0  0  0  0  0  0  0  0  0  0  0
   -0.4187    2.0137   -4.4369 H   0  0  0  0  0  0  0  0  0  0  0  0
   -1.3112    2.9806   -3.2489 H   0  0  0  0  0  0  0  0  0  0  0  0
    0.9076    0.3815   -2.6929 C   0  0  0  0  0  0  0  0  0  0  0  0
    0.9006   -0.5411   -2.1059 H   0  0  0  0  0  0  0  0  0  0  0  0
    0.9544    0.1026   -3.7503 H   0  0  0  0  0  0  0  0  0  0  0  0
    1.8110    0.9479   -2.4443 H   0  0  0  0  0  0  0  0  0  0  0  0
   -0.2205    1.3372    1.4998 C   0  0  0  0  0  0  0  0  0  0  0  0
    0.9209    1.6130    1.8456 O   0  0  0  0  0  0  0  0  0  0  0  0
   -1.2829    1.8067    2.2513 N   0  0  0  0  0  0  0  0  0  0  0  0
   -2.2010    1.4684    1.9824 H   0  0  0  0  0  0  0  0  0  0  0  0
   -1.1156    2.4196    3.5629 C   0  0  0  0  0  0  0  0  0  0  0  0
   -0.4764    3.3060    3.4934 H   0  0  0  0  0  0  0  0  0  0  0  0
   -2.0863    2.7268    3.9633 H   0  0  0  0  0  0  0  0  0  0  0  0
   -0.6592    1.7101    4.2611 H   0  0  0  0  0  0  0  0  0  0  0  0
  1  2  1  0  0  0  0
  2  3  1  0  0  0  0
  2  4  1  0  0  0  0
  2  5  1  0  0  0  0
  5  6  2  0  0  0  0
  5  7  1  0  0  0  0
  7  8  1  0  0  0  0
  7  9  1  0  0  0  0
  9 10  1  0  0  0  0
  9 11  1  0  0  0  0
  9 24  1  0  0  0  0
 11 12  1  0  0  0  0
 11 13  1  0  0  0  0
 11 14  1  0  0  0  0
 14 15  1  0  0  0  0
 14 16  1  0  0  0  0
 14 20  1  0  0  0  0
 16 17  1  0  0  0  0
 16 18  1  0  0  0  0
 16 19  1  0  0  0  0
 20 21  1  0  0  0  0
 20 22  1  0  0  0  0
 20 23  1  0  0  0  0
 24 25  2  0  0  0  0
 24 26  1  0  0  0  0
 26 27  1  0  0  0  0
 26 28  1  0  0  0  0
 28 29  1  0  0  0  0
 28 30  1  0  0  0  0
 28 31  1  0  0  0  0
M  END
$$$$

  -OEChem-01062216083D

 31 30  0     1  0  0  0  0  0999 V2000
   -3.3878   -2.8867    0.7264 H   0  0  0  0  0  0  0  0  0  0  0  0
   -3.3558   -1.9116    0.2319 C   0  0  0  0  0  0  0  0  0  0  0  0
   -4.2123   -1.3203    0.5644 H   0  0  0  0  0  0  0  0  0  0  0  0
   -3.4227   -2.0642   -0.8479 H   0  0  0  0  0  0  0  0  0  0  0  0
   -2.0639   -1.1947    0.5761 C   0  0  0  0  0  0  0  0  0  0  0  0
   -1.2943   -1.6787    1.3868 O   0  0  0  0  0  0  0  0  0  0  0  0
   -1.7794    0.0267   -0.0001 N   0  0  0  0  0  0  0  0  0  0  0  0
   -2.4204    0.3559   -0.7159 H   0  0  0  0  0  0  0  0  0  0  0  0
   -0.4722    0.7017    0.1199 C   0  0  1  0  0  0  0  0  0  0  0  0
    0.3272   -0.0322   -0.0194 H   0  0  0  0  0  0  0  0  0  0  0  0
   -0.3824    1.7788   -0.9809 C   0  0  0  0  0  0  0  0  0  0  0  0
   -1.2336    2.4595   -0.8741 H   0  0  0  0  0  0  0  0  0  0  0  0
    0.5257    2.3723   -0.8252 H   0  0  0  0  0  0  0  0  0  0  0  0
   -0.3512    1.2128   -2.4186 C   0  0  0  0  0  0  0  0  0  0  0  0
   -1.2262    0.5756   -2.5817 H   0  0  0  0  0  0  0  0  0  0  0  0
   -0.4134    2.3744   -3.4172 C   0  0  0  0  0  0  0  0  0  0  0  0
    0.4514    3.0347   -3.2963 H   0  0  0  0  0  0  0  0  0  0  0  0
   -0.4196    1.9955   -4.4440 H   0  0  0  0  0  0  0  0  0  0  0  0
   -1.3236    2.9625   -3.2648 H   0  0  0  0  0  0  0  0  0  0  0  0
    0.9143    0.3855   -2.6883 C   0  0  0  0  0  0  0  0  0  0  0  0
    0.9143   -0.5334   -2.0958 H   0  0  0  0  0  0  0  0  0  0  0  0
    0.9651    0.1013   -3.7440 H   0  0  0  0  0  0  0  0  0  0  0  0
    1.8122    0.9612   -2.4415 H   0  0  0  0  0  0  0  0  0  0  0  0
   -0.2221    1.3456    1.5041 C   0  0  0  0  0  0  0  0  0  0  0  0
    0.8749    1.8243    1.7623 O   0  0  0  0  0  0  0  0  0  0  0  0
   -1.2648    1.5380    2.3922 N   0  0  0  0  0  0  0  0  0  0  0  0
   -2.1008    0.9931    2.2075 H   0  0  0  0  0  0  0  0  0  0  0  0
   -1.0750    2.0935    3.7261 C   0  0  0  0  0  0  0  0  0  0  0  0
   -0.6427    3.0979    3.6656 H   0  0  0  0  0  0  0  0  0  0  0  0
   -2.0352    2.1634    4.2462 H   0  0  0  0  0  0  0  0  0  0  0  0
   -0.4058    1.4566    4.3143 H   0  0  0  0  0  0  0  0  0  0  0  0
  1  2  1  0  0  0  0
  2  3  1  0  0  0  0
  2  4  1  0  0  0  0
  2  5  1  0  0  0  0
  5  6  2  0  0  0  0
  5  7  1  0  0  0  0
  7  8  1  0  0  0  0
  7  9  1  0  0  0  0
  9 10  1  0  0  0  0
  9 11  1  0  0  0  0
  9 24  1  0  0  0  0
 11 12  1  0  0  0  0
 11 13  1  0  0  0  0
 11 14  1  0  0  0  0
 14 15  1  0  0  0  0
 14 16  1  0  0  0  0
 14 20  1  0  0  0  0
 16 17  1  0  0  0  0
 16 18  1  0  0  0  0
 16 19  1  0  0  0  0
 20 21  1  0  0  0  0
 20 22  1  0  0  0  0
 20 23  1  0  0  0  0
 24 25  2  0  0  0  0
 24 26  1  0  0  0  0
 26 27  1  0  0  0  0
 26 28  1  0  0  0  0
 28 29  1  0  0  0  0
 28 30  1  0  0  0  0
 28 31  1  0  0  0  0
M  END
$$$$

  -OEChem-01062216083D

 31 30  0     1  0  0  0  0  0999 V2000
   -3.4012   -2.8844    0.6686 H   0  0  0  0  0  0  0  0  0  0  0  0
   -3.3632   -1.9032    0.1869 C   0  0  0  0  0  0  0  0  0  0  0  0
   -4.2266   -1.3173    0.5110 H   0  0  0  0  0  0  0  0  0  0  0  0
   -3.4112   -2.0424   -0.8958 H   0  0  0  0  0  0  0  0  0  0  0  0
   -2.0796   -1.1873    0.5616 C   0  0  0  0  0  0  0  0  0  0  0  0
   -1.3359   -1.6617    1.4021 O   0  0  0  0  0  0  0  0  0  0  0  0
   -1.7828    0.0370   -0.0001 N   0  0  0  0  0  0  0  0  0  0  0  0
   -2.4206    0.3779   -0.7133 H   0  0  0  0  0  0  0  0  0  0  0  0
   -0.4750    0.7110    0.1279 C   0  0  1  0  0  0  0  0  0  0  0  0
    0.3233   -0.0234   -0.0128 H   0  0  0  0  0  0  0  0  0  0  0  0
   -0.3904    1.7825   -0.9816 C   0  0  0  0  0  0  0  0  0  0  0  0
   -1.2439    2.4608   -0.8782 H   0  0  0  0  0  0  0  0  0  0  0  0
    0.5149    2.3820   -0.8354 H   0  0  0  0  0  0  0  0  0  0  0  0
   -0.3562    1.2068   -2.4155 C   0  0  0  0  0  0  0  0  0  0  0  0
   -1.2282    0.5649   -2.5747 H   0  0  0  0  0  0  0  0  0  0  0  0
   -0.4240    2.3612   -3.4219 C   0  0  0  0  0  0  0  0  0  0  0  0
    0.4374    3.0270   -3.3050 H   0  0  0  0  0  0  0  0  0  0  0  0
   -0.4279    1.9752   -4.4462 H   0  0  0  0  0  0  0  0  0  0  0  0
   -1.3377    2.9451   -3.2736 H   0  0  0  0  0  0  0  0  0  0  0  0
    0.9126    0.3833   -2.6797 C   0  0  0  0  0  0  0  0  0  0  0  0
    0.9152   -0.5331   -2.0832 H   0  0  0  0  0  0  0  0  0  0  0  0
    0.9657    0.0943   -3.7341 H   0  0  0  0  0  0  0  0  0  0  0  0
    1.8080    0.9636   -2.4345 H   0  0  0  0  0  0  0  0  0  0  0  0
   -0.2199    1.3479    1.5182 C   0  0  0  0  0  0  0  0  0  0  0  0
    0.7789    2.0325    1.7043 O   0  0  0  0  0  0  0  0  0  0  0  0
   -1.1670    1.2633    2.5223 N   0  0  0  0  0  0  0  0  0  0  0  0
   -1.8355    0.5057    2.4091 H   0  0  0  0  0  0  0  0  0  0  0  0
   -0.9406    1.7842    3.8644 C   0  0  0  0  0  0  0  0  0  0  0  0
   -0.7469    2.8614    3.8304 H   0  0  0  0  0  0  0  0  0  0  0  0
   -1.8228    1.6135    4.4887 H   0  0  0  0  0  0  0  0  0  0  0  0
   -0.0830    1.2864    4.3290 H   0  0  0  0  0  0  0  0  0  0  0  0
  1  2  1  0  0  0  0
  2  3  1  0  0  0  0
  2  4  1  0  0  0  0
  2  5  1  0  0  0  0
  5  6  2  0  0  0  0
  5  7  1  0  0  0  0
  7  8  1  0  0  0  0
  7  9  1  0  0  0  0
  9 10  1  0  0  0  0
  9 11  1  0  0  0  0
  9 24  1  0  0  0  0
 11 12  1  0  0  0  0
 11 13  1  0  0  0  0
 11 14  1  0  0  0  0
 14 15  1  0  0  0  0
 14 16  1  0  0  0  0
 14 20  1  0  0  0  0
 16 17  1  0  0  0  0
 16 18  1  0  0  0  0
 16 19  1  0  0  0  0
 20 21  1  0  0  0  0
 20 22  1  0  0  0  0
 20 23  1  0  0  0  0
 24 25  2  0  0  0  0
 24 26  1  0  0  0  0
 26 27  1  0  0  0  0
 26 28  1  0  0  0  0
 28 29  1  0  0  0  0
 28 30  1  0  0  0  0
 28 31  1  0  0  0  0
M  END
$$$$

  -OEChem-01062216083D

 31 30  0     1  0  0  0  0  0999 V2000
   -3.4265   -2.8640    0.6612 H   0  0  0  0  0  0  0  0  0  0  0  0
   -3.3789   -1.8794    0.1875 C   0  0  0  0  0  0  0  0  0  0  0  0
   -4.2251   -1.2806    0.5330 H   0  0  0  0  0  0  0  0  0  0  0  0
   -3.4494   -2.0077   -0.8953 H   0  0  0  0  0  0  0  0  0  0  0  0
   -2.0757   -1.1905    0.5449 C   0  0  0  0  0  0  0  0  0  0  0  0
   -1.3212   -1.6908    1.3618 O   0  0  0  0  0  0  0  0  0  0  0  0
   -1.7727    0.0396   -0.0002 N   0  0  0  0  0  0  0  0  0  0  0  0
   -2.4370    0.4193   -0.6682 H   0  0  0  0  0  0  0  0  0  0  0  0
   -0.4680    0.7193    0.1300 C   0  0  1  0  0  0  0  0  0  0  0  0
    0.3323   -0.0122   -0.0125 H   0  0  0  0  0  0  0  0  0  0  0  0
   -0.3908    1.7864   -0.9866 C   0  0  0  0  0  0  0  0  0  0  0  0
   -1.2482    2.4604   -0.8857 H   0  0  0  0  0  0  0  0  0  0  0  0
    0.5118    2.3916   -0.8473 H   0  0  0  0  0  0  0  0  0  0  0  0
   -0.3530    1.2033   -2.4180 C   0  0  0  0  0  0  0  0  0  0  0  0
   -1.2220    0.5562   -2.5735 H   0  0  0  0  0  0  0  0  0  0  0  0
   -0.4288    2.3527   -3.4299 C   0  0  0  0  0  0  0  0  0  0  0  0
    0.4296    3.0230   -3.3186 H   0  0  0  0  0  0  0  0  0  0  0  0
   -0.4337    1.9624   -4.4525 H   0  0  0  0  0  0  0  0  0  0  0  0
   -1.3445    2.9335   -3.2819 H   0  0  0  0  0  0  0  0  0  0  0  0
    0.9196    0.3843   -2.6795 C   0  0  0  0  0  0  0  0  0  0  0  0
    0.9275   -0.5287   -2.0780 H   0  0  0  0  0  0  0  0  0  0  0  0
    0.9725    0.0897   -3.7323 H   0  0  0  0  0  0  0  0  0  0  0  0
    1.8125    0.9703   -2.4390 H   0  0  0  0  0  0  0  0  0  0  0  0
   -0.2158    1.3441    1.5294 C   0  0  0  0  0  0  0  0  0  0  0  0
    0.6256    2.2226    1.6760 O   0  0  0  0  0  0  0  0  0  0  0  0
   -0.9982    0.9923    2.6140 N   0  0  0  0  0  0  0  0  0  0  0  0
   -1.4766    0.0974    2.5125 H   0  0  0  0  0  0  0  0  0  0  0  0
   -0.7492    1.4877    3.9618 C   0  0  0  0  0  0  0  0  0  0  0  0
   -0.8151    2.5804    3.9872 H   0  0  0  0  0  0  0  0  0  0  0  0
   -1.4919    1.0827    4.6554 H   0  0  0  0  0  0  0  0  0  0  0  0
    0.2467    1.1868    4.3031 H   0  0  0  0  0  0  0  0  0  0  0  0
  1  2  1  0  0  0  0
  2  3  1  0  0  0  0
  2  4  1  0  0  0  0
  2  5  1  0  0  0  0
  5  6  2  0  0  0  0
  5  7  1  0  0  0  0
  7  8  1  0  0  0  0
  7  9  1  0  0  0  0
  9 10  1  0  0  0  0
  9 11  1  0  0  0  0
  9 24  1  0  0  0  0
 11 12  1  0  0  0  0
 11 13  1  0  0  0  0
 11 14  1  0  0  0  0
 14 15  1  0  0  0  0
 14 16  1  0  0  0  0
 14 20  1  0  0  0  0
 16 17  1  0  0  0  0
 16 18  1  0  0  0  0
 16 19  1  0  0  0  0
 20 21  1  0  0  0  0
 20 22  1  0  0  0  0
 20 23  1  0  0  0  0
 24 25  2  0  0  0  0
 24 26  1  0  0  0  0
 26 27  1  0  0  0  0
 26 28  1  0  0  0  0
 28 29  1  0  0  0  0
 28 30  1  0  0  0  0
 28 31  1  0  0  0  0
M  END
$$$$

  -OEChem-01062216083D

 31 30  0     1  0  0  0  0  0999 V2000
   -3.4479   -2.8309    0.7190 H   0  0  0  0  0  0  0  0  0  0  0  0
   -3.3964   -1.8458    0.2465 C   0  0  0  0  0  0  0  0  0  0  0  0
   -4.1984   -1.2204    0.6461 H   0  0  0  0  0  0  0  0  0  0  0  0
   -3.5385   -1.9654   -0.8303 H   0  0  0  0  0  0  0  0  0  0  0  0
   -2.0507   -1.2036    0.5248 C   0  0  0  0  0  0  0  0  0  0  0  0
   -1.2488   -1.7556    1.2608 O   0  0  0  0  0  0  0  0  0  0  0  0
   -1.7539    0.0338   -0.0080 N   0  0  0  0  0  0  0  0  0  0  0  0
   -2.4669    0.4684   -0.5865 H   0  0  0  0  0  0  0  0  0  0  0  0
   -0.4555    0.7253    0.1211 C   0  0  1  0  0  0  0  0  0  0  0  0
    0.3511    0.0014   -0.0236 H   0  0  0  0  0  0  0  0  0  0  0  0
   -0.3855    1.7906   -0.9977 C   0  0  0  0  0  0  0  0  0  0  0  0
   -1.2472    2.4593   -0.8995 H   0  0  0  0  0  0  0  0  0  0  0  0
    0.5136    2.4011   -0.8592 H   0  0  0  0  0  0  0  0  0  0  0  0
   -0.3412    1.2026   -2.4266 C   0  0  0  0  0  0  0  0  0  0  0  0
   -1.2044    0.5472   -2.5804 H   0  0  0  0  0  0  0  0  0  0  0  0
   -0.4250    2.3476   -3.4425 C   0  0  0  0  0  0  0  0  0  0  0  0
    0.4276    3.0253   -3.3323 H   0  0  0  0  0  0  0  0  0  0  0  0
   -0.4255    1.9533   -4.4635 H   0  0  0  0  0  0  0  0  0  0  0  0
   -1.3458    2.9211   -3.2976 H   0  0  0  0  0  0  0  0  0  0  0  0
    0.9388    0.3936   -2.6842 C   0  0  0  0  0  0  0  0  0  0  0  0
    0.9563   -0.5158   -2.0773 H   0  0  0  0  0  0  0  0  0  0  0  0
    0.9935    0.0926   -3.7350 H   0  0  0  0  0  0  0  0  0  0  0  0
    1.8264    0.9894   -2.4484 H   0  0  0  0  0  0  0  0  0  0  0  0
   -0.2129    1.3379    1.5287 C   0  0  0  0  0  0  0  0  0  0  0  0
    0.4178    2.3796    1.6652 O   0  0  0  0  0  0  0  0  0  0  0  0
   -0.7678    0.7550    2.6527 N   0  0  0  0  0  0  0  0  0  0  0  0
   -1.0914   -0.2055    2.5235 H   0  0  0  0  0  0  0  0  0  0  0  0
   -0.5125    1.2257    4.0078 C   0  0  0  0  0  0  0  0  0  0  0  0
   -0.8371    2.2655    4.1196 H   0  0  0  0  0  0  0  0  0  0  0  0
   -1.0635    0.6143    4.7286 H   0  0  0  0  0  0  0  0  0  0  0  0
    0.5553    1.1616    4.2412 H   0  0  0  0  0  0  0  0  0  0  0  0
  1  2  1  0  0  0  0
  2  3  1  0  0  0  0
  2  4  1  0  0  0  0
  2  5  1  0  0  0  0
  5  6  2  0  0  0  0
  5  7  1  0  0  0  0
  7  8  1  0  0  0  0
  7  9  1  0  0  0  0
  9 10  1  0  0  0  0
  9 11  1  0  0  0  0
  9 24  1  0  0  0  0
 11 12  1  0  0  0  0
 11 13  1  0  0  0  0
 11 14  1  0  0  0  0
 14 15  1  0  0  0  0
 14 16  1  0  0  0  0
 14 20  1  0  0  0  0
 16 17  1  0  0  0  0
 16 18  1  0  0  0  0
 16 19  1  0  0  0  0
 20 21  1  0  0  0  0
 20 22  1  0  0  0  0
 20 23  1  0  0  0  0
 24 25  2  0  0  0  0
 24 26  1  0  0  0  0
 26 27  1  0  0  0  0
 26 28  1  0  0  0  0
 28 29  1  0  0  0  0
 28 30  1  0  0  0  0
 28 31  1  0  0  0  0
M  END
$$$$

  -OEChem-01062216083D

 31 30  0     1  0  0  0  0  0999 V2000
   -3.4424   -2.8076    0.8000 H   0  0  0  0  0  0  0  0  0  0  0  0
   -3.3945   -1.8249    0.3224 C   0  0  0  0  0  0  0  0  0  0  0  0
   -4.1571   -1.1802    0.7659 H   0  0  0  0  0  0  0  0  0  0  0  0
   -3.6009   -1.9424   -0.7442 H   0  0  0  0  0  0  0  0  0  0  0  0
   -2.0204   -1.2140    0.5206 C   0  0  0  0  0  0  0  0  0  0  0  0
   -1.1761   -1.8044    1.1763 O   0  0  0  0  0  0  0  0  0  0  0  0
   -1.7358    0.0265   -0.0129 N   0  0  0  0  0  0  0  0  0  0  0  0
   -2.4876    0.5014   -0.5037 H   0  0  0  0  0  0  0  0  0  0  0  0
   -0.4407    0.7230    0.1073 C   0  0  1  0  0  0  0  0  0  0  0  0
    0.3693    0.0041   -0.0417 H   0  0  0  0  0  0  0  0  0  0  0  0
   -0.3719    1.7907   -1.0085 C   0  0  0  0  0  0  0  0  0  0  0  0
   -1.2334    2.4597   -0.9085 H   0  0  0  0  0  0  0  0  0  0  0  0
    0.5274    2.4000   -0.8662 H   0  0  0  0  0  0  0  0  0  0  0  0
   -0.3297    1.2072   -2.4387 C   0  0  0  0  0  0  0  0  0  0  0  0
   -1.1946    0.5538   -2.5925 H   0  0  0  0  0  0  0  0  0  0  0  0
   -0.4145    2.3564   -3.4498 C   0  0  0  0  0  0  0  0  0  0  0  0
    0.4409    3.0308   -3.3400 H   0  0  0  0  0  0  0  0  0  0  0  0
   -0.4201    1.9664   -4.4725 H   0  0  0  0  0  0  0  0  0  0  0  0
   -1.3326    2.9325   -3.2984 H   0  0  0  0  0  0  0  0  0  0  0  0
    0.9484    0.3974   -2.7005 C   0  0  0  0  0  0  0  0  0  0  0  0
    0.9608   -0.5174   -2.1016 H   0  0  0  0  0  0  0  0  0  0  0  0
    1.0051    0.1060   -3.7539 H   0  0  0  0  0  0  0  0  0  0  0  0
    1.8370    0.9883   -2.4567 H   0  0  0  0  0  0  0  0  0  0  0  0
   -0.2064    1.3274    1.5186 C   0  0  0  0  0  0  0  0  0  0  0  0
    0.1848    2.4794    1.6646 O   0  0  0  0  0  0  0  0  0  0  0  0
   -0.4873    0.5816    2.6473 N   0  0  0  0  0  0  0  0  0  0  0  0
   -0.7027   -0.4053    2.4868 H   0  0  0  0  0  0  0  0  0  0  0  0
   -0.2396    1.0410    4.0073 C   0  0  0  0  0  0  0  0  0  0  0  0
   -0.8078    1.9543    4.2117 H   0  0  0  0  0  0  0  0  0  0  0  0
   -0.5473    0.2749    4.7255 H   0  0  0  0  0  0  0  0  0  0  0  0
    0.8257    1.2472    4.1546 H   0  0  0  0  0  0  0  0  0  0  0  0
  1  2  1  0  0  0  0
  2  3  1  0  0  0  0
  2  4  1  0  0  0  0
  2  5  1  0  0  0  0
  5  6  2  0  0  0  0
  5  7  1  0  0  0  0
  7  8  1  0  0  0  0
  7  9  1  0  0  0  0
  9 10  1  0  0  0  0
  9 11  1  0  0  0  0
  9 24  1  0  0  0  0
 11 12  1  0  0  0  0
 11 13  1  0  0  0  0
 11 14  1  0  0  0  0
 14 15  1  0  0  0  0
 14 16  1  0  0  0  0
 14 20  1  0  0  0  0
 16 17  1  0  0  0  0
 16 18  1  0  0  0  0
 16 19  1  0  0  0  0
 20 21  1  0  0  0  0
 20 22  1  0  0  0  0
 20 23  1  0  0  0  0
 24 25  2  0  0  0  0
 24 26  1  0  0  0  0
 26 27  1  0  0  0  0
 26 28  1  0  0  0  0
 28 29  1  0  0  0  0
 28 30  1  0  0  0  0
 28 31  1  0  0  0  0
M  END
$$$$

  -OEChem-01062216083D

 31 30  0     1  0  0  0  0  0999 V2000
   -3.4141   -2.7729    0.9156 H   0  0  0  0  0  0  0  0  0  0  0  0
   -3.3696   -1.8042    0.4100 C   0  0  0  0  0  0  0  0  0  0  0  0
   -4.1025   -1.1350    0.8673 H   0  0  0  0  0  0  0  0  0  0  0  0
   -3.6223   -1.9455   -0.6436 H   0  0  0  0  0  0  0  0  0  0  0  0
   -1.9782   -1.2128    0.5337 C   0  0  0  0  0  0  0  0  0  0  0  0
   -1.1049   -1.8209    1.1344 O   0  0  0  0  0  0  0  0  0  0  0  0
   -1.7067    0.0259   -0.0111 N   0  0  0  0  0  0  0  0  0  0  0  0
   -2.4831    0.5276   -0.4326 H   0  0  0  0  0  0  0  0  0  0  0  0
   -0.4084    0.7162    0.0895 C   0  0  1  0  0  0  0  0  0  0  0  0
    0.3999   -0.0026   -0.0701 H   0  0  0  0  0  0  0  0  0  0  0  0
   -0.3441    1.7898   -1.0197 C   0  0  0  0  0  0  0  0  0  0  0  0
   -1.2011    2.4625   -0.9070 H   0  0  0  0  0  0  0  0  0  0  0  0
    0.5599    2.3929   -0.8786 H   0  0  0  0  0  0  0  0  0  0  0  0
   -0.3235    1.2163   -2.4542 C   0  0  0  0  0  0  0  0  0  0  0  0
   -1.1948    0.5700   -2.6019 H   0  0  0  0  0  0  0  0  0  0  0  0
   -0.4108    2.3732   -3.4563 C   0  0  0  0  0  0  0  0  0  0  0  0
    0.4470    3.0448   -3.3466 H   0  0  0  0  0  0  0  0  0  0  0  0
   -0.4237    1.9909   -4.4818 H   0  0  0  0  0  0  0  0  0  0  0  0
   -1.3267    2.9503   -3.2954 H   0  0  0  0  0  0  0  0  0  0  0  0
    0.9454    0.3988   -2.7368 C   0  0  0  0  0  0  0  0  0  0  0  0
    0.9604   -0.5181   -2.1413 H   0  0  0  0  0  0  0  0  0  0  0  0
    0.9845    0.1105   -3.7919 H   0  0  0  0  0  0  0  0  0  0  0  0
    1.8413    0.9833   -2.5042 H   0  0  0  0  0  0  0  0  0  0  0  0
   -0.1727    1.3139    1.5004 C   0  0  0  0  0  0  0  0  0  0  0  0
   -0.0291    2.5185    1.6738 O   0  0  0  0  0  0  0  0  0  0  0  0
   -0.1535    0.4773    2.5992 N   0  0  0  0  0  0  0  0  0  0  0  0
   -0.3138   -0.5165    2.4152 H   0  0  0  0  0  0  0  0  0  0  0  0
    0.0285    0.9314    3.9708 C   0  0  0  0  0  0  0  0  0  0  0  0
   -0.7609    1.6376    4.2483 H   0  0  0  0  0  0  0  0  0  0  0  0
   -0.0110    0.0804    4.6574 H   0  0  0  0  0  0  0  0  0  0  0  0
    0.9997    1.4239    4.0849 H   0  0  0  0  0  0  0  0  0  0  0  0
  1  2  1  0  0  0  0
  2  3  1  0  0  0  0
  2  4  1  0  0  0  0
  2  5  1  0  0  0  0
  5  6  2  0  0  0  0
  5  7  1  0  0  0  0
  7  8  1  0  0  0  0
  7  9  1  0  0  0  0
  9 10  1  0  0  0  0
  9 11  1  0  0  0  0
  9 24  1  0  0  0  0
 11 12  1  0  0  0  0
 11 13  1  0  0  0  0
 11 14  1  0  0  0  0
 14 15  1  0  0  0  0
 14 16  1  0  0  0  0
 14 20  1  0  0  0  0
 16 17  1  0  0  0  0
 16 18  1  0  0  0  0
 16 19  1  0  0  0  0
 20 21  1  0  0  0  0
 20 22  1  0  0  0  0
 20 23  1  0  0  0  0
 24 25  2  0  0  0  0
 24 26  1  0  0  0  0
 26 27  1  0  0  0  0
 26 28  1  0  0  0  0
 28 29  1  0  0  0  0
 28 30  1  0  0  0  0
 28 31  1  0  0  0  0
M  END
$$$$

  -OEChem-01062216083D

 31 30  0     1  0  0  0  0  0999 V2000
   -3.3565   -2.7569    0.9960 H   0  0  0  0  0  0  0  0  0  0  0  0
   -3.3332   -1.7864    0.4923 C   0  0  0  0  0  0  0  0  0  0  0  0
   -4.0410   -1.1164    0.9863 H   0  0  0  0  0  0  0  0  0  0  0  0
   -3.6359   -1.9229   -0.5487 H   0  0  0  0  0  0  0  0  0  0  0  0
   -1.9359   -1.2000    0.5525 C   0  0  0  0  0  0  0  0  0  0  0  0
   -1.0399   -1.8058    1.1226 O   0  0  0  0  0  0  0  0  0  0  0  0
   -1.6804    0.0330   -0.0125 N   0  0  0  0  0  0  0  0  0  0  0  0
   -2.4719    0.5508   -0.3836 H   0  0  0  0  0  0  0  0  0  0  0  0
   -0.3785    0.7139    0.0700 C   0  0  1  0  0  0  0  0  0  0  0  0
    0.4281   -0.0056   -0.0969 H   0  0  0  0  0  0  0  0  0  0  0  0
   -0.3163    1.7921   -1.0336 C   0  0  0  0  0  0  0  0  0  0  0  0
   -1.1679    2.4701   -0.9101 H   0  0  0  0  0  0  0  0  0  0  0  0
    0.5927    2.3876   -0.8942 H   0  0  0  0  0  0  0  0  0  0  0  0
   -0.3174    1.2259   -2.4713 C   0  0  0  0  0  0  0  0  0  0  0  0
   -1.1973    0.5897   -2.6111 H   0  0  0  0  0  0  0  0  0  0  0  0
   -0.4048    2.3878   -3.4678 C   0  0  0  0  0  0  0  0  0  0  0  0
    0.4633    3.0478   -3.3698 H   0  0  0  0  0  0  0  0  0  0  0  0
   -0.4396    2.0093   -4.4942 H   0  0  0  0  0  0  0  0  0  0  0  0
   -1.3104    2.9764   -3.2904 H   0  0  0  0  0  0  0  0  0  0  0  0
    0.9390    0.3957   -2.7725 C   0  0  0  0  0  0  0  0  0  0  0  0
    0.9499   -0.5242   -2.1815 H   0  0  0  0  0  0  0  0  0  0  0  0
    0.9624    0.1118   -3.8292 H   0  0  0  0  0  0  0  0  0  0  0  0
    1.8445    0.9684   -2.5479 H   0  0  0  0  0  0  0  0  0  0  0  0
   -0.1478    1.3117    1.4786 C   0  0  0  0  0  0  0  0  0  0  0  0
   -0.2489    2.5142    1.6922 O   0  0  0  0  0  0  0  0  0  0  0  0
    0.1727    0.4639    2.5207 N   0  0  0  0  0  0  0  0  0  0  0  0
    0.0694   -0.5350    2.3251 H   0  0  0  0  0  0  0  0  0  0  0  0
    0.2984    0.9016    3.9043 C   0  0  0  0  0  0  0  0  0  0  0  0
   -0.6521    1.3077    4.2655 H   0  0  0  0  0  0  0  0  0  0  0  0
    0.5813    0.0584    4.5414 H   0  0  0  0  0  0  0  0  0  0  0  0
    1.0692    1.6743    3.9929 H   0  0  0  0  0  0  0  0  0  0  0  0
  1  2  1  0  0  0  0
  2  3  1  0  0  0  0
  2  4  1  0  0  0  0
  2  5  1  0  0  0  0
  5  6  2  0  0  0  0
  5  7  1  0  0  0  0
  7  8  1  0  0  0  0
  7  9  1  0  0  0  0
  9 10  1  0  0  0  0
  9 11  1  0  0  0  0
  9 24  1  0  0  0  0
 11 12  1  0  0  0  0
 11 13  1  0  0  0  0
 11 14  1  0  0  0  0
 14 15  1  0  0  0  0
 14 16  1  0  0  0  0
 14 20  1  0  0  0  0
 16 17  1  0  0  0  0
 16 18  1  0  0  0  0
 16 19  1  0  0  0  0
 20 21  1  0  0  0  0
 20 22  1  0  0  0  0
 20 23  1  0  0  0  0
 24 25  2  0  0  0  0
 24 26  1  0  0  0  0
 26 27  1  0  0  0  0
 26 28  1  0  0  0  0
 28 29  1  0  0  0  0
 28 30  1  0  0  0  0
 28 31  1  0  0  0  0
M  END
$$$$

  -OEChem-01062216083D

 31 30  0     1  0  0  0  0  0999 V2000
   -3.3177   -2.7423    1.0763 H   0  0  0  0  0  0  0  0  0  0  0  0
   -3.3099   -1.7814    0.5541 C   0  0  0  0  0  0  0  0  0  0  0  0
   -3.9967   -1.0998    1.0615 H   0  0  0  0  0  0  0  0  0  0  0  0
   -3.6522   -1.9357   -0.4720 H   0  0  0  0  0  0  0  0  0  0  0  0
   -1.9090   -1.1995    0.5513 C   0  0  0  0  0  0  0  0  0  0  0  0
   -0.9907   -1.8017    1.0898 O   0  0  0  0  0  0  0  0  0  0  0  0
   -1.6725    0.0292   -0.0311 N   0  0  0  0  0  0  0  0  0  0  0  0
   -2.4794    0.5663   -0.3357 H   0  0  0  0  0  0  0  0  0  0  0  0
   -0.3719    0.7085    0.0496 C   0  0  1  0  0  0  0  0  0  0  0  0
    0.4382   -0.0072   -0.1170 H   0  0  0  0  0  0  0  0  0  0  0  0
   -0.3066    1.7926   -1.0471 C   0  0  0  0  0  0  0  0  0  0  0  0
   -1.1579    2.4707   -0.9220 H   0  0  0  0  0  0  0  0  0  0  0  0
    0.6024    2.3866   -0.9020 H   0  0  0  0  0  0  0  0  0  0  0  0
   -0.3096    1.2346   -2.4878 C   0  0  0  0  0  0  0  0  0  0  0  0
   -1.1920    0.6024   -2.6311 H   0  0  0  0  0  0  0  0  0  0  0  0
   -0.3935    2.4028   -3.4774 C   0  0  0  0  0  0  0  0  0  0  0  0
    0.4802    3.0554   -3.3796 H   0  0  0  0  0  0  0  0  0  0  0  0
   -0.4361    2.0307   -4.5059 H   0  0  0  0  0  0  0  0  0  0  0  0
   -1.2937    2.9972   -3.2924 H   0  0  0  0  0  0  0  0  0  0  0  0
    0.9437    0.4014   -2.7937 C   0  0  0  0  0  0  0  0  0  0  0  0
    0.9496   -0.5230   -2.2095 H   0  0  0  0  0  0  0  0  0  0  0  0
    0.9678    0.1255   -3.8527 H   0  0  0  0  0  0  0  0  0  0  0  0
    1.8510    0.9689   -2.5631 H   0  0  0  0  0  0  0  0  0  0  0  0
   -0.1615    1.3102    1.4572 C   0  0  0  0  0  0  0  0  0  0  0  0
   -0.5035    2.4578    1.7184 O   0  0  0  0  0  0  0  0  0  0  0  0
    0.4438    0.5376    2.4292 N   0  0  0  0  0  0  0  0  0  0  0  0
    0.4770   -0.4633    2.2288 H   0  0  0  0  0  0  0  0  0  0  0  0
    0.5884    0.9722    3.8123 C   0  0  0  0  0  0  0  0  0  0  0  0
   -0.3937    1.1399    4.2662 H   0  0  0  0  0  0  0  0  0  0  0  0
    1.1147    0.2094    4.3938 H   0  0  0  0  0  0  0  0  0  0  0  0
    1.1647    1.9018    3.8639 H   0  0  0  0  0  0  0  0  0  0  0  0
  1  2  1  0  0  0  0
  2  3  1  0  0  0  0
  2  4  1  0  0  0  0
  2  5  1  0  0  0  0
  5  6  2  0  0  0  0
  5  7  1  0  0  0  0
  7  8  1  0  0  0  0
  7  9  1  0  0  0  0
  9 10  1  0  0  0  0
  9 11  1  0  0  0  0
  9 24  1  0  0  0  0
 11 12  1  0  0  0  0
 11 13  1  0  0  0  0
 11 14  1  0  0  0  0
 14 15  1  0  0  0  0
 14 16  1  0  0  0  0
 14 20  1  0  0  0  0
 16 17  1  0  0  0  0
 16 18  1  0  0  0  0
 16 19  1  0  0  0  0
 20 21  1  0  0  0  0
 20 22  1  0  0  0  0
 20 23  1  0  0  0  0
 24 25  2  0  0  0  0
 24 26  1  0  0  0  0
 26 27  1  0  0  0  0
 26 28  1  0  0  0  0
 28 29  1  0  0  0  0
 28 30  1  0  0  0  0
 28 31  1  0  0  0  0
M  END
$$$$

  -OEChem-01062216083D

 31 30  0     1  0  0  0  0  0999 V2000
   -3.2984   -2.7272    1.1440 H   0  0  0  0  0  0  0  0  0  0  0  0
   -3.3038   -1.7678    0.6189 C   0  0  0  0  0  0  0  0  0  0  0  0
   -3.9461   -1.0720    1.1643 H   0  0  0  0  0  0  0  0  0  0  0  0
   -3.7091   -1.9176   -0.3846 H   0  0  0  0  0  0  0  0  0  0  0  0
   -1.8951   -1.2126    0.5307 C   0  0  0  0  0  0  0  0  0  0  0  0
   -0.9580   -1.8342    1.0111 O   0  0  0  0  0  0  0  0  0  0  0  0
   -1.6726    0.0143   -0.0610 N   0  0  0  0  0  0  0  0  0  0  0  0
   -2.4915    0.5769   -0.2747 H   0  0  0  0  0  0  0  0  0  0  0  0
   -0.3739    0.6953    0.0248 C   0  0  1  0  0  0  0  0  0  0  0  0
    0.4381   -0.0180   -0.1416 H   0  0  0  0  0  0  0  0  0  0  0  0
   -0.3015    1.7888   -1.0602 C   0  0  0  0  0  0  0  0  0  0  0  0
   -1.1529    2.4666   -0.9335 H   0  0  0  0  0  0  0  0  0  0  0  0
    0.6072    2.3807   -0.9045 H   0  0  0  0  0  0  0  0  0  0  0  0
   -0.2991    1.2419   -2.5045 C   0  0  0  0  0  0  0  0  0  0  0  0
   -1.1816    0.6117   -2.6555 H   0  0  0  0  0  0  0  0  0  0  0  0
   -0.3762    2.4172   -3.4856 C   0  0  0  0  0  0  0  0  0  0  0  0
    0.4947    3.0710   -3.3742 H   0  0  0  0  0  0  0  0  0  0  0  0
   -0.4071    2.0523   -4.5170 H   0  0  0  0  0  0  0  0  0  0  0  0
   -1.2799    3.0078   -3.3052 H   0  0  0  0  0  0  0  0  0  0  0  0
    0.9549    0.4104   -2.8106 C   0  0  0  0  0  0  0  0  0  0  0  0
    0.9588   -0.5175   -2.2321 H   0  0  0  0  0  0  0  0  0  0  0  0
    0.9823    0.1412   -3.8710 H   0  0  0  0  0  0  0  0  0  0  0  0
    1.8611    0.9765   -2.5734 H   0  0  0  0  0  0  0  0  0  0  0  0
   -0.1763    1.3010    1.4305 C   0  0  0  0  0  0  0  0  0  0  0  0
   -0.7600    2.3281    1.7573 O   0  0  0  0  0  0  0  0  0  0  0  0
    0.6832    0.6863    2.3204 N   0  0  0  0  0  0  0  0  0  0  0  0
    0.9402   -0.2725    2.0910 H   0  0  0  0  0  0  0  0  0  0  0  0
    0.8378    1.1311    3.6992 C   0  0  0  0  0  0  0  0  0  0  0  0
   -0.1120    1.0473    4.2376 H   0  0  0  0  0  0  0  0  0  0  0  0
    1.5844    0.5175    4.2124 H   0  0  0  0  0  0  0  0  0  0  0  0
    1.1703    2.1740    3.7298 H   0  0  0  0  0  0  0  0  0  0  0  0
  1  2  1  0  0  0  0
  2  3  1  0  0  0  0
  2  4  1  0  0  0  0
  2  5  1  0  0  0  0
  5  6  2  0  0  0  0
  5  7  1  0  0  0  0
  7  8  1  0  0  0  0
  7  9  1  0  0  0  0
  9 10  1  0  0  0  0
  9 11  1  0  0  0  0
  9 24  1  0  0  0  0
 11 12  1  0  0  0  0
 11 13  1  0  0  0  0
 11 14  1  0  0  0  0
 14 15  1  0  0  0  0
 14 16  1  0  0  0  0
 14 20  1  0  0  0  0
 16 17  1  0  0  0  0
 16 18  1  0  0  0  0
 16 19  1  0  0  0  0
 20 21  1  0  0  0  0
 20 22  1  0  0  0  0
 20 23  1  0  0  0  0
 24 25  2  0  0  0  0
 24 26  1  0  0  0  0
 26 27  1  0  0  0  0
 26 28  1  0  0  0  0
 28 29  1  0  0  0  0
 28 30  1  0  0  0  0
 28 31  1  0  0  0  0
M  END
$$$$

  -OEChem-01062216083D

 31 30  0     1  0  0  0  0  0999 V2000
   -3.3011   -2.7173    1.1718 H   0  0  0  0  0  0  0  0  0  0  0  0
   -3.3088   -1.7540    0.6540 C   0  0  0  0  0  0  0  0  0  0  0  0
   -3.9135   -1.0493    1.2302 H   0  0  0  0  0  0  0  0  0  0  0  0
   -3.7578   -1.8874   -0.3330 H   0  0  0  0  0  0  0  0  0  0  0  0
   -1.8943   -1.2253    0.5119 C   0  0  0  0  0  0  0  0  0  0  0  0
   -0.9506   -1.8706    0.9448 O   0  0  0  0  0  0  0  0  0  0  0  0
   -1.6757   -0.0005   -0.0848 N   0  0  0  0  0  0  0  0  0  0  0  0
   -2.4979    0.5792   -0.2299 H   0  0  0  0  0  0  0  0  0  0  0  0
   -0.3788    0.6832    0.0098 C   0  0  1  0  0  0  0  0  0  0  0  0
    0.4333   -0.0309   -0.1516 H   0  0  0  0  0  0  0  0  0  0  0  0
   -0.3030    1.7817   -1.0688 C   0  0  0  0  0  0  0  0  0  0  0  0
   -1.1565    2.4570   -0.9422 H   0  0  0  0  0  0  0  0  0  0  0  0
    0.6042    2.3740   -0.9066 H   0  0  0  0  0  0  0  0  0  0  0  0
   -0.2925    1.2427   -2.5163 C   0  0  0  0  0  0  0  0  0  0  0  0
   -1.1729    0.6112   -2.6750 H   0  0  0  0  0  0  0  0  0  0  0  0
   -0.3671    2.4231   -3.4920 C   0  0  0  0  0  0  0  0  0  0  0  0
    0.4981    3.0824   -3.3681 H   0  0  0  0  0  0  0  0  0  0  0  0
   -0.3853    2.0641   -4.5257 H   0  0  0  0  0  0  0  0  0  0  0  0
   -1.2768    3.0062   -3.3175 H   0  0  0  0  0  0  0  0  0  0  0  0
    0.9654    0.4156   -2.8196 C   0  0  0  0  0  0  0  0  0  0  0  0
    0.9710   -0.5130   -2.2421 H   0  0  0  0  0  0  0  0  0  0  0  0
    0.9971    0.1474   -3.8803 H   0  0  0  0  0  0  0  0  0  0  0  0
    1.8690    0.9847   -2.5793 H   0  0  0  0  0  0  0  0  0  0  0  0
   -0.1886    1.2971    1.4127 C   0  0  0  0  0  0  0  0  0  0  0  0
   -0.9637    2.1564    1.8179 O   0  0  0  0  0  0  0  0  0  0  0  0
    0.8721    0.9012    2.2051 N   0  0  0  0  0  0  0  0  0  0  0  0
    1.3594    0.0574    1.9137 H   0  0  0  0  0  0  0  0  0  0  0  0
    1.0466    1.3626    3.5764 C   0  0  0  0  0  0  0  0  0  0  0  0
    0.1974    1.0542    4.1954 H   0  0  0  0  0  0  0  0  0  0  0  0
    1.9604    0.9387    4.0036 H   0  0  0  0  0  0  0  0  0  0  0  0
    1.1274    2.4543    3.6065 H   0  0  0  0  0  0  0  0  0  0  0  0
  1  2  1  0  0  0  0
  2  3  1  0  0  0  0
  2  4  1  0  0  0  0
  2  5  1  0  0  0  0
  5  6  2  0  0  0  0
  5  7  1  0  0  0  0
  7  8  1  0  0  0  0
  7  9  1  0  0  0  0
  9 10  1  0  0  0  0
  9 11  1  0  0  0  0
  9 24  1  0  0  0  0
 11 12  1  0  0  0  0
 11 13  1  0  0  0  0
 11 14  1  0  0  0  0
 14 15  1  0  0  0  0
 14 16  1  0  0  0  0
 14 20  1  0  0  0  0
 16 17  1  0  0  0  0
 16 18  1  0  0  0  0
 16 19  1  0  0  0  0
 20 21  1  0  0  0  0
 20 22  1  0  0  0  0
 20 23  1  0  0  0  0
 24 25  2  0  0  0  0
 24 26  1  0  0  0  0
 26 27  1  0  0  0  0
 26 28  1  0  0  0  0
 28 29  1  0  0  0  0
 28 30  1  0  0  0  0
 28 31  1  0  0  0  0
M  END
$$$$

  -OEChem-01062216083D

 31 30  0     1  0  0  0  0  0999 V2000
   -3.3165   -2.7098    1.1932 H   0  0  0  0  0  0  0  0  0  0  0  0
   -3.3225   -1.7537    0.6623 C   0  0  0  0  0  0  0  0  0  0  0  0
   -3.9104   -1.0353    1.2390 H   0  0  0  0  0  0  0  0  0  0  0  0
   -3.7888   -1.8959   -0.3155 H   0  0  0  0  0  0  0  0  0  0  0  0
   -1.9050   -1.2415    0.4913 C   0  0  0  0  0  0  0  0  0  0  0  0
   -0.9607   -1.9056    0.8921 O   0  0  0  0  0  0  0  0  0  0  0  0
   -1.6858   -0.0165   -0.1051 N   0  0  0  0  0  0  0  0  0  0  0  0
   -2.5079    0.5715   -0.2113 H   0  0  0  0  0  0  0  0  0  0  0  0
   -0.3907    0.6697    0.0045 C   0  0  1  0  0  0  0  0  0  0  0  0
    0.4231   -0.0439   -0.1507 H   0  0  0  0  0  0  0  0  0  0  0  0
   -0.3100    1.7745   -1.0657 C   0  0  0  0  0  0  0  0  0  0  0  0
   -1.1673    2.4450   -0.9402 H   0  0  0  0  0  0  0  0  0  0  0  0
    0.5936    2.3698   -0.8943 H   0  0  0  0  0  0  0  0  0  0  0  0
   -0.2874    1.2431   -2.5151 C   0  0  0  0  0  0  0  0  0  0  0  0
   -1.1652    0.6102   -2.6829 H   0  0  0  0  0  0  0  0  0  0  0  0
   -0.3578    2.4279   -3.4851 C   0  0  0  0  0  0  0  0  0  0  0  0
    0.5054    3.0880   -3.3521 H   0  0  0  0  0  0  0  0  0  0  0  0
   -0.3683    2.0739   -4.5207 H   0  0  0  0  0  0  0  0  0  0  0  0
   -1.2695    3.0087   -3.3137 H   0  0  0  0  0  0  0  0  0  0  0  0
    0.9744    0.4206   -2.8132 C   0  0  0  0  0  0  0  0  0  0  0  0
    0.9803   -0.5084   -2.2365 H   0  0  0  0  0  0  0  0  0  0  0  0
    1.0112    0.1532   -3.8738 H   0  0  0  0  0  0  0  0  0  0  0  0
    1.8752    0.9922   -2.5685 H   0  0  0  0  0  0  0  0  0  0  0  0
   -0.2071    1.2894    1.4057 C   0  0  0  0  0  0  0  0  0  0  0  0
   -1.1041    1.9657    1.8976 O   0  0  0  0  0  0  0  0  0  0  0  0
    0.9901    1.1452    2.0813 N   0  0  0  0  0  0  0  0  0  0  0  0
    1.6455    0.4630    1.7102 H   0  0  0  0  0  0  0  0  0  0  0  0
    1.2070    1.6594    3.4275 C   0  0  0  0  0  0  0  0  0  0  0  0
    0.5093    1.1949    4.1319 H   0  0  0  0  0  0  0  0  0  0  0  0
    2.2279    1.4409    3.7548 H   0  0  0  0  0  0  0  0  0  0  0  0
    1.0628    2.7445    3.4516 H   0  0  0  0  0  0  0  0  0  0  0  0
  1  2  1  0  0  0  0
  2  3  1  0  0  0  0
  2  4  1  0  0  0  0
  2  5  1  0  0  0  0
  5  6  2  0  0  0  0
  5  7  1  0  0  0  0
  7  8  1  0  0  0  0
  7  9  1  0  0  0  0
  9 10  1  0  0  0  0
  9 11  1  0  0  0  0
  9 24  1  0  0  0  0
 11 12  1  0  0  0  0
 11 13  1  0  0  0  0
 11 14  1  0  0  0  0
 14 15  1  0  0  0  0
 14 16  1  0  0  0  0
 14 20  1  0  0  0  0
 16 17  1  0  0  0  0
 16 18  1  0  0  0  0
 16 19  1  0  0  0  0
 20 21  1  0  0  0  0
 20 22  1  0  0  0  0
 20 23  1  0  0  0  0
 24 25  2  0  0  0  0
 24 26  1  0  0  0  0
 26 27  1  0  0  0  0
 26 28  1  0  0  0  0
 28 29  1  0  0  0  0
 28 30  1  0  0  0  0
 28 31  1  0  0  0  0
M  END
$$$$

  -OEChem-01062216083D

 31 30  0     1  0  0  0  0  0999 V2000
   -3.3160   -2.7143    1.1856 H   0  0  0  0  0  0  0  0  0  0  0  0
   -3.3262   -1.7449    0.6795 C   0  0  0  0  0  0  0  0  0  0  0  0
   -3.8846   -1.0335    1.2931 H   0  0  0  0  0  0  0  0  0  0  0  0
   -3.8263   -1.8555   -0.2855 H   0  0  0  0  0  0  0  0  0  0  0  0
   -1.9082   -1.2473    0.4742 C   0  0  0  0  0  0  0  0  0  0  0  0
   -0.9614   -1.9280    0.8397 O   0  0  0  0  0  0  0  0  0  0  0  0
   -1.6932   -0.0212   -0.1219 N   0  0  0  0  0  0  0  0  0  0  0  0
   -2.5161    0.5712   -0.1907 H   0  0  0  0  0  0  0  0  0  0  0  0
   -0.3995    0.6671    0.0008 C   0  0  1  0  0  0  0  0  0  0  0  0
    0.4166   -0.0455   -0.1472 H   0  0  0  0  0  0  0  0  0  0  0  0
   -0.3163    1.7722   -1.0689 C   0  0  0  0  0  0  0  0  0  0  0  0
   -1.1766    2.4397   -0.9485 H   0  0  0  0  0  0  0  0  0  0  0  0
    0.5844    2.3704   -0.8933 H   0  0  0  0  0  0  0  0  0  0  0  0
   -0.2823    1.2406   -2.5183 C   0  0  0  0  0  0  0  0  0  0  0  0
   -1.1564    0.6039   -2.6918 H   0  0  0  0  0  0  0  0  0  0  0  0
   -0.3513    2.4239   -3.4907 C   0  0  0  0  0  0  0  0  0  0  0  0
    0.5058    3.0905   -3.3508 H   0  0  0  0  0  0  0  0  0  0  0  0
   -0.3495    2.0681   -4.5258 H   0  0  0  0  0  0  0  0  0  0  0  0
   -1.2691    2.9980   -3.3293 H   0  0  0  0  0  0  0  0  0  0  0  0
    0.9844    0.4225   -2.8077 C   0  0  0  0  0  0  0  0  0  0  0  0
    0.9890   -0.5068   -2.2313 H   0  0  0  0  0  0  0  0  0  0  0  0
    1.0296    0.1553   -3.8680 H   0  0  0  0  0  0  0  0  0  0  0  0
    1.8815    0.9970   -2.5567 H   0  0  0  0  0  0  0  0  0  0  0  0
   -0.2227    1.2892    1.4032 C   0  0  0  0  0  0  0  0  0  0  0  0
   -1.1901    1.7565    1.9951 O   0  0  0  0  0  0  0  0  0  0  0  0
    1.0387    1.4198    1.9548 N   0  0  0  0  0  0  0  0  0  0  0  0
    1.8010    0.9387    1.4864 H   0  0  0  0  0  0  0  0  0  0  0  0
    1.2694    1.9683    3.2856 C   0  0  0  0  0  0  0  0  0  0  0  0
    0.7623    1.3612    4.0430 H   0  0  0  0  0  0  0  0  0  0  0  0
    2.3404    1.9794    3.5098 H   0  0  0  0  0  0  0  0  0  0  0  0
    0.8942    2.9953    3.3475 H   0  0  0  0  0  0  0  0  0  0  0  0
  1  2  1  0  0  0  0
  2  3  1  0  0  0  0
  2  4  1  0  0  0  0
  2  5  1  0  0  0  0
  5  6  2  0  0  0  0
  5  7  1  0  0  0  0
  7  8  1  0  0  0  0
  7  9  1  0  0  0  0
  9 10  1  0  0  0  0
  9 11  1  0  0  0  0
  9 24  1  0  0  0  0
 11 12  1  0  0  0  0
 11 13  1  0  0  0  0
 11 14  1  0  0  0  0
 14 15  1  0  0  0  0
 14 16  1  0  0  0  0
 14 20  1  0  0  0  0
 16 17  1  0  0  0  0
 16 18  1  0  0  0  0
 16 19  1  0  0  0  0
 20 21  1  0  0  0  0
 20 22  1  0  0  0  0
 20 23  1  0  0  0  0
 24 25  2  0  0  0  0
 24 26  1  0  0  0  0
 26 27  1  0  0  0  0
 26 28  1  0  0  0  0
 28 29  1  0  0  0  0
 28 30  1  0  0  0  0
 28 31  1  0  0  0  0
M  END
$$$$

  -OEChem-01062216083D

 31 30  0     1  0  0  0  0  0999 V2000
   -3.3175   -2.7219    1.1692 H   0  0  0  0  0  0  0  0  0  0  0  0
   -3.3313   -1.7407    0.6866 C   0  0  0  0  0  0  0  0  0  0  0  0
   -3.8645   -1.0388    1.3326 H   0  0  0  0  0  0  0  0  0  0  0  0
   -3.8586   -1.8234   -0.2665 H   0  0  0  0  0  0  0  0  0  0  0  0
   -1.9139   -1.2526    0.4551 C   0  0  0  0  0  0  0  0  0  0  0  0
   -0.9661   -1.9498    0.7851 O   0  0  0  0  0  0  0  0  0  0  0  0
   -1.7007   -0.0229   -0.1358 N   0  0  0  0  0  0  0  0  0  0  0  0
   -2.5239    0.5706   -0.1819 H   0  0  0  0  0  0  0  0  0  0  0  0
   -0.4076    0.6661    0.0023 C   0  0  1  0  0  0  0  0  0  0  0  0
    0.4117   -0.0441   -0.1400 H   0  0  0  0  0  0  0  0  0  0  0  0
   -0.3233    1.7715   -1.0687 C   0  0  0  0  0  0  0  0  0  0  0  0
   -1.1882    2.4339   -0.9540 H   0  0  0  0  0  0  0  0  0  0  0  0
    0.5725    2.3764   -0.8917 H   0  0  0  0  0  0  0  0  0  0  0  0
   -0.2780    1.2377   -2.5174 C   0  0  0  0  0  0  0  0  0  0  0  0
   -1.1484    0.5970   -2.6951 H   0  0  0  0  0  0  0  0  0  0  0  0
   -0.3466    2.4182   -3.4930 C   0  0  0  0  0  0  0  0  0  0  0  0
    0.5097    3.0858   -3.3537 H   0  0  0  0  0  0  0  0  0  0  0  0
   -0.3431    2.0594   -4.5270 H   0  0  0  0  0  0  0  0  0  0  0  0
   -1.2650    2.9920   -3.3347 H   0  0  0  0  0  0  0  0  0  0  0  0
    0.9934    0.4235   -2.7978 C   0  0  0  0  0  0  0  0  0  0  0  0
    0.9948   -0.5077   -2.2242 H   0  0  0  0  0  0  0  0  0  0  0  0
    1.0490    0.1597   -3.8586 H   0  0  0  0  0  0  0  0  0  0  0  0
    1.8871    0.9989   -2.5368 H   0  0  0  0  0  0  0  0  0  0  0  0
   -0.2348    1.2865    1.4082 C   0  0  0  0  0  0  0  0  0  0  0  0
   -1.2153    1.5377    2.1013 O   0  0  0  0  0  0  0  0  0  0  0  0
    1.0140    1.6980    1.8382 N   0  0  0  0  0  0  0  0  0  0  0  0
    1.8137    1.4270    1.2738 H   0  0  0  0  0  0  0  0  0  0  0  0
    1.2484    2.2928    3.1485 C   0  0  0  0  0  0  0  0  0  0  0  0
    0.9578    1.5971    3.9428 H   0  0  0  0  0  0  0  0  0  0  0  0
    2.3086    2.5339    3.2702 H   0  0  0  0  0  0  0  0  0  0  0  0
    0.6698    3.2159    3.2596 H   0  0  0  0  0  0  0  0  0  0  0  0
  1  2  1  0  0  0  0
  2  3  1  0  0  0  0
  2  4  1  0  0  0  0
  2  5  1  0  0  0  0
  5  6  2  0  0  0  0
  5  7  1  0  0  0  0
  7  8  1  0  0  0  0
  7  9  1  0  0  0  0
  9 10  1  0  0  0  0
  9 11  1  0  0  0  0
  9 24  1  0  0  0  0
 11 12  1  0  0  0  0
 11 13  1  0  0  0  0
 11 14  1  0  0  0  0
 14 15  1  0  0  0  0
 14 16  1  0  0  0  0
 14 20  1  0  0  0  0
 16 17  1  0  0  0  0
 16 18  1  0  0  0  0
 16 19  1  0  0  0  0
 20 21  1  0  0  0  0
 20 22  1  0  0  0  0
 20 23  1  0  0  0  0
 24 25  2  0  0  0  0
 24 26  1  0  0  0  0
 26 27  1  0  0  0  0
 26 28  1  0  0  0  0
 28 29  1  0  0  0  0
 28 30  1  0  0  0  0
 28 31  1  0  0  0  0
M  END
$$$$

  -OEChem-01062216083D

 31 30  0     1  0  0  0  0  0999 V2000
   -3.2892   -2.7634    1.1096 H   0  0  0  0  0  0  0  0  0  0  0  0
   -3.3153   -1.7484    0.7036 C   0  0  0  0  0  0  0  0  0  0  0  0
   -3.7734   -1.0863    1.4425 H   0  0  0  0  0  0  0  0  0  0  0  0
   -3.9206   -1.7470   -0.2056 H   0  0  0  0  0  0  0  0  0  0  0  0
   -1.9083   -1.2751    0.3933 C   0  0  0  0  0  0  0  0  0  0  0  0
   -0.9543   -2.0123    0.5935 O   0  0  0  0  0  0  0  0  0  0  0  0
   -1.7084   -0.0297   -0.1714 N   0  0  0  0  0  0  0  0  0  0  0  0
   -2.5358    0.5582   -0.1747 H   0  0  0  0  0  0  0  0  0  0  0  0
   -0.4208    0.6649    0.0025 C   0  0  1  0  0  0  0  0  0  0  0  0
    0.3827    0.0372   -0.3928 H   0  0  0  0  0  0  0  0  0  0  0  0
   -0.4907    1.9886   -0.7892 C   0  0  0  0  0  0  0  0  0  0  0  0
   -1.3555    2.5604   -0.4354 H   0  0  0  0  0  0  0  0  0  0  0  0
    0.4002    2.5879   -0.5762 H   0  0  0  0  0  0  0  0  0  0  0  0
   -0.5912    1.8008   -2.3195 C   0  0  0  0  0  0  0  0  0  0  0  0
   -1.4546    1.1692   -2.5537 H   0  0  0  0  0  0  0  0  0  0  0  0
   -0.8048    3.1670   -2.9817 C   0  0  0  0  0  0  0  0  0  0  0  0
    0.0421    3.8315   -2.7827 H   0  0  0  0  0  0  0  0  0  0  0  0
   -0.9104    3.0533   -4.0651 H   0  0  0  0  0  0  0  0  0  0  0  0
   -1.7149    3.6389   -2.5987 H   0  0  0  0  0  0  0  0  0  0  0  0
    0.6673    1.1465   -2.9084 C   0  0  0  0  0  0  0  0  0  0  0  0
    0.7620    0.1102   -2.5720 H   0  0  0  0  0  0  0  0  0  0  0  0
    0.6143    1.1371   -4.0017 H   0  0  0  0  0  0  0  0  0  0  0  0
    1.5654    1.6967   -2.6103 H   0  0  0  0  0  0  0  0  0  0  0  0
   -0.0705    0.9479    1.4882 C   0  0  0  0  0  0  0  0  0  0  0  0
   -0.9172    0.8261    2.3675 O   0  0  0  0  0  0  0  0  0  0  0  0
    1.1124    1.5914    1.8101 N   0  0  0  0  0  0  0  0  0  0  0  0
    1.8110    1.6757    1.0780 H   0  0  0  0  0  0  0  0  0  0  0  0
    1.4785    1.9555    3.1740 C   0  0  0  0  0  0  0  0  0  0  0  0
    1.5042    1.0670    3.8138 H   0  0  0  0  0  0  0  0  0  0  0  0
    2.4686    2.4209    3.1889 H   0  0  0  0  0  0  0  0  0  0  0  0
    0.7565    2.6671    3.5878 H   0  0  0  0  0  0  0  0  0  0  0  0
  1  2  1  0  0  0  0
  2  3  1  0  0  0  0
  2  4  1  0  0  0  0
  2  5  1  0  0  0  0
  5  6  2  0  0  0  0
  5  7  1  0  0  0  0
  7  8  1  0  0  0  0
  7  9  1  0  0  0  0
  9 10  1  0  0  0  0
  9 11  1  0  0  0  0
  9 24  1  0  0  0  0
 11 12  1  0  0  0  0
 11 13  1  0  0  0  0
 11 14  1  0  0  0  0
 14 15  1  0  0  0  0
 14 16  1  0  0  0  0
 14 20  1  0  0  0  0
 16 17  1  0  0  0  0
 16 18  1  0  0  0  0
 16 19  1  0  0  0  0
 20 21  1  0  0  0  0
 20 22  1  0  0  0  0
 20 23  1  0  0  0  0
 24 25  2  0  0  0  0
 24 26  1  0  0  0  0
 26 27  1  0  0  0  0
 26 28  1  0  0  0  0
 28 29  1  0  0  0  0
 28 30  1  0  0  0  0
 28 31  1  0  0  0  0
M  END
$$$$

  -OEChem-01062216083D

 31 30  0     1  0  0  0  0  0999 V2000
   -3.2970   -2.7636    1.0725 H   0  0  0  0  0  0  0  0  0  0  0  0
   -3.3168   -1.7347    0.7026 C   0  0  0  0  0  0  0  0  0  0  0  0
   -3.7478   -1.0924    1.4744 H   0  0  0  0  0  0  0  0  0  0  0  0
   -3.9422   -1.6923   -0.1920 H   0  0  0  0  0  0  0  0  0  0  0  0
   -1.9099   -1.2712    0.3768 C   0  0  0  0  0  0  0  0  0  0  0  0
   -0.9635   -2.0303    0.5233 O   0  0  0  0  0  0  0  0  0  0  0  0
   -1.7059   -0.0180   -0.1696 N   0  0  0  0  0  0  0  0  0  0  0  0
   -2.5329    0.5699   -0.1654 H   0  0  0  0  0  0  0  0  0  0  0  0
   -0.4180    0.6763    0.0127 C   0  0  1  0  0  0  0  0  0  0  0  0
    0.3859    0.0506   -0.3846 H   0  0  0  0  0  0  0  0  0  0  0  0
   -0.4982    1.9937   -0.7934 C   0  0  0  0  0  0  0  0  0  0  0  0
   -1.3681    2.5619   -0.4462 H   0  0  0  0  0  0  0  0  0  0  0  0
    0.3867    2.6049   -0.5927 H   0  0  0  0  0  0  0  0  0  0  0  0
   -0.5933    1.7904   -2.3224 C   0  0  0  0  0  0  0  0  0  0  0  0
   -1.4508    1.1495   -2.5530 H   0  0  0  0  0  0  0  0  0  0  0  0
   -0.8175    3.1485   -2.9975 C   0  0  0  0  0  0  0  0  0  0  0  0
    0.0224    3.8225   -2.8007 H   0  0  0  0  0  0  0  0  0  0  0  0
   -0.9170    3.0243   -4.0805 H   0  0  0  0  0  0  0  0  0  0  0  0
   -1.7339    3.6154   -2.6229 H   0  0  0  0  0  0  0  0  0  0  0  0
    0.6715    1.1421   -2.9037 C   0  0  0  0  0  0  0  0  0  0  0  0
    0.7770    0.1108   -2.5556 H   0  0  0  0  0  0  0  0  0  0  0  0
    0.6179    1.1191   -3.9966 H   0  0  0  0  0  0  0  0  0  0  0  0
    1.5640    1.7048   -2.6126 H   0  0  0  0  0  0  0  0  0  0  0  0
   -0.0546    0.9489    1.5021 C   0  0  0  0  0  0  0  0  0  0  0  0
   -0.7965    0.5959    2.4122 O   0  0  0  0  0  0  0  0  0  0  0  0
    0.9518    1.8460    1.8219 N   0  0  0  0  0  0  0  0  0  0  0  0
    1.5676    2.1417    1.0710 H   0  0  0  0  0  0  0  0  0  0  0  0
    1.2783    2.2355    3.1893 C   0  0  0  0  0  0  0  0  0  0  0  0
    1.5381    1.3554    3.7872 H   0  0  0  0  0  0  0  0  0  0  0  0
    2.1313    2.9209    3.1938 H   0  0  0  0  0  0  0  0  0  0  0  0
    0.4274    2.7407    3.6583 H   0  0  0  0  0  0  0  0  0  0  0  0
  1  2  1  0  0  0  0
  2  3  1  0  0  0  0
  2  4  1  0  0  0  0
  2  5  1  0  0  0  0
  5  6  2  0  0  0  0
  5  7  1  0  0  0  0
  7  8  1  0  0  0  0
  7  9  1  0  0  0  0
  9 10  1  0  0  0  0
  9 11  1  0  0  0  0
  9 24  1  0  0  0  0
 11 12  1  0  0  0  0
 11 13  1  0  0  0  0
 11 14  1  0  0  0  0
 14 15  1  0  0  0  0
 14 16  1  0  0  0  0
 14 20  1  0  0  0  0
 16 17  1  0  0  0  0
 16 18  1  0  0  0  0
 16 19  1  0  0  0  0
 20 21  1  0  0  0  0
 20 22  1  0  0  0  0
 20 23  1  0  0  0  0
 24 25  2  0  0  0  0
 24 26  1  0  0  0  0
 26 27  1  0  0  0  0
 26 28  1  0  0  0  0
 28 29  1  0  0  0  0
 28 30  1  0  0  0  0
 28 31  1  0  0  0  0
M  END
$$$$

  -OEChem-01062216083D

 31 30  0     1  0  0  0  0  0999 V2000
   -3.2880   -2.7571    1.0739 H   0  0  0  0  0  0  0  0  0  0  0  0
   -3.3096   -1.7212    0.7242 C   0  0  0  0  0  0  0  0  0  0  0  0
   -3.7089   -1.0902    1.5220 H   0  0  0  0  0  0  0  0  0  0  0  0
   -3.9631   -1.6562   -0.1486 H   0  0  0  0  0  0  0  0  0  0  0  0
   -1.9091   -1.2651    0.3621 C   0  0  0  0  0  0  0  0  0  0  0  0
   -0.9712   -2.0442    0.4392 O   0  0  0  0  0  0  0  0  0  0  0  0
   -1.7086   -0.0036   -0.1674 N   0  0  0  0  0  0  0  0  0  0  0  0
   -2.5374    0.5811   -0.1471 H   0  0  0  0  0  0  0  0  0  0  0  0
   -0.4230    0.6974    0.0156 C   0  0  1  0  0  0  0  0  0  0  0  0
    0.3811    0.0725   -0.3827 H   0  0  0  0  0  0  0  0  0  0  0  0
   -0.5054    2.0061   -0.8065 C   0  0  0  0  0  0  0  0  0  0  0  0
   -1.3763    2.5778   -0.4678 H   0  0  0  0  0  0  0  0  0  0  0  0
    0.3802    2.6192   -0.6170 H   0  0  0  0  0  0  0  0  0  0  0  0
   -0.5921    1.7839   -2.3337 C   0  0  0  0  0  0  0  0  0  0  0  0
   -1.4460    1.1365   -2.5607 H   0  0  0  0  0  0  0  0  0  0  0  0
   -0.8194    3.1331   -3.0255 C   0  0  0  0  0  0  0  0  0  0  0  0
    0.0194    3.8110   -2.8374 H   0  0  0  0  0  0  0  0  0  0  0  0
   -0.9185    2.9953   -4.1069 H   0  0  0  0  0  0  0  0  0  0  0  0
   -1.7365    3.6026   -2.6564 H   0  0  0  0  0  0  0  0  0  0  0  0
    0.6781    1.1345   -2.9031 C   0  0  0  0  0  0  0  0  0  0  0  0
    0.7836    0.1054   -2.5484 H   0  0  0  0  0  0  0  0  0  0  0  0
    0.6322    1.1049   -3.9962 H   0  0  0  0  0  0  0  0  0  0  0  0
    1.5679    1.7002   -2.6097 H   0  0  0  0  0  0  0  0  0  0  0  0
   -0.0459    0.9602    1.5073 C   0  0  0  0  0  0  0  0  0  0  0  0
   -0.6081    0.3742    2.4244 O   0  0  0  0  0  0  0  0  0  0  0  0
    0.7204    2.0605    1.8594 N   0  0  0  0  0  0  0  0  0  0  0  0
    1.1814    2.5676    1.1110 H   0  0  0  0  0  0  0  0  0  0  0  0
    1.0042    2.4402    3.2392 C   0  0  0  0  0  0  0  0  0  0  0  0
    1.5111    1.6242    3.7651 H   0  0  0  0  0  0  0  0  0  0  0  0
    1.6517    3.3218    3.2630 H   0  0  0  0  0  0  0  0  0  0  0  0
    0.0766    2.6789    3.7699 H   0  0  0  0  0  0  0  0  0  0  0  0
  1  2  1  0  0  0  0
  2  3  1  0  0  0  0
  2  4  1  0  0  0  0
  2  5  1  0  0  0  0
  5  6  2  0  0  0  0
  5  7  1  0  0  0  0
  7  8  1  0  0  0  0
  7  9  1  0  0  0  0
  9 10  1  0  0  0  0
  9 11  1  0  0  0  0
  9 24  1  0  0  0  0
 11 12  1  0  0  0  0
 11 13  1  0  0  0  0
 11 14  1  0  0  0  0
 14 15  1  0  0  0  0
 14 16  1  0  0  0  0
 14 20  1  0  0  0  0
 16 17  1  0  0  0  0
 16 18  1  0  0  0  0
 16 19  1  0  0  0  0
 20 21  1  0  0  0  0
 20 22  1  0  0  0  0
 20 23  1  0  0  0  0
 24 25  2  0  0  0  0
 24 26  1  0  0  0  0
 26 27  1  0  0  0  0
 26 28  1  0  0  0  0
 28 29  1  0  0  0  0
 28 30  1  0  0  0  0
 28 31  1  0  0  0  0
M  END
$$$$

  -OEChem-01062216083D

 31 30  0     1  0  0  0  0  0999 V2000
   -3.2823   -2.7451    1.0936 H   0  0  0  0  0  0  0  0  0  0  0  0
   -3.3070   -1.7098    0.7422 C   0  0  0  0  0  0  0  0  0  0  0  0
   -3.6943   -1.0771    1.5443 H   0  0  0  0  0  0  0  0  0  0  0  0
   -3.9721   -1.6451   -0.1219 H   0  0  0  0  0  0  0  0  0  0  0  0
   -1.9101   -1.2585    0.3604 C   0  0  0  0  0  0  0  0  0  0  0  0
   -0.9827   -2.0520    0.3886 O   0  0  0  0  0  0  0  0  0  0  0  0
   -1.7122    0.0067   -0.1607 N   0  0  0  0  0  0  0  0  0  0  0  0
   -2.5452    0.5852   -0.1472 H   0  0  0  0  0  0  0  0  0  0  0  0
   -0.4322    0.7191    0.0182 C   0  0  1  0  0  0  0  0  0  0  0  0
    0.3745    0.0940   -0.3749 H   0  0  0  0  0  0  0  0  0  0  0  0
   -0.5113    2.0188   -0.8182 C   0  0  0  0  0  0  0  0  0  0  0  0
   -1.3834    2.5956   -0.4918 H   0  0  0  0  0  0  0  0  0  0  0  0
    0.3771    2.6290   -0.6303 H   0  0  0  0  0  0  0  0  0  0  0  0
   -0.5876    1.7807   -2.3435 C   0  0  0  0  0  0  0  0  0  0  0  0
   -1.4388    1.1295   -2.5692 H   0  0  0  0  0  0  0  0  0  0  0  0
   -0.8125    3.1218   -3.0519 C   0  0  0  0  0  0  0  0  0  0  0  0
    0.0251    3.8023   -2.8681 H   0  0  0  0  0  0  0  0  0  0  0  0
   -0.9065    2.9709   -4.1320 H   0  0  0  0  0  0  0  0  0  0  0  0
   -1.7315    3.5956   -2.6931 H   0  0  0  0  0  0  0  0  0  0  0  0
    0.6864    1.1270   -2.8985 C   0  0  0  0  0  0  0  0  0  0  0  0
    0.7906    0.1014   -2.5334 H   0  0  0  0  0  0  0  0  0  0  0  0
    0.6471    1.0868   -3.9916 H   0  0  0  0  0  0  0  0  0  0  0  0
    1.5736    1.6965   -2.6047 H   0  0  0  0  0  0  0  0  0  0  0  0
   -0.0503    0.9807    1.5095 C   0  0  0  0  0  0  0  0  0  0  0  0
   -0.3408    0.1933    2.3997 O   0  0  0  0  0  0  0  0  0  0  0  0
    0.4282    2.2170    1.9162 N   0  0  0  0  0  0  0  0  0  0  0  0
    0.6441    2.8970    1.1949 H   0  0  0  0  0  0  0  0  0  0  0  0
    0.6933    2.5654    3.3083 C   0  0  0  0  0  0  0  0  0  0  0  0
    1.4348    1.8849    3.7400 H   0  0  0  0  0  0  0  0  0  0  0  0
    1.0811    3.5863    3.3756 H   0  0  0  0  0  0  0  0  0  0  0  0
   -0.2263    2.5059    3.9000 H   0  0  0  0  0  0  0  0  0  0  0  0
  1  2  1  0  0  0  0
  2  3  1  0  0  0  0
  2  4  1  0  0  0  0
  2  5  1  0  0  0  0
  5  6  2  0  0  0  0
  5  7  1  0  0  0  0
  7  8  1  0  0  0  0
  7  9  1  0  0  0  0
  9 10  1  0  0  0  0
  9 11  1  0  0  0  0
  9 24  1  0  0  0  0
 11 12  1  0  0  0  0
 11 13  1  0  0  0  0
 11 14  1  0  0  0  0
 14 15  1  0  0  0  0
 14 16  1  0  0  0  0
 14 20  1  0  0  0  0
 16 17  1  0  0  0  0
 16 18  1  0  0  0  0
 16 19  1  0  0  0  0
 20 21  1  0  0  0  0
 20 22  1  0  0  0  0
 20 23  1  0  0  0  0
 24 25  2  0  0  0  0
 24 26  1  0  0  0  0
 26 27  1  0  0  0  0
 26 28  1  0  0  0  0
 28 29  1  0  0  0  0
 28 30  1  0  0  0  0
 28 31  1  0  0  0  0
M  END
$$$$

  -OEChem-01062216083D

 31 30  0     1  0  0  0  0  0999 V2000
   -3.2969   -2.7134    1.1589 H   0  0  0  0  0  0  0  0  0  0  0  0
   -3.3250   -1.7125    0.7191 C   0  0  0  0  0  0  0  0  0  0  0  0
   -3.7731   -1.0256    1.4410 H   0  0  0  0  0  0  0  0  0  0  0  0
   -3.9403   -1.7400   -0.1833 H   0  0  0  0  0  0  0  0  0  0  0  0
   -1.9194   -1.2572    0.3759 C   0  0  0  0  0  0  0  0  0  0  0  0
   -0.9960   -2.0528    0.4206 O   0  0  0  0  0  0  0  0  0  0  0  0
   -1.7175    0.0063   -0.1472 N   0  0  0  0  0  0  0  0  0  0  0  0
   -2.5550    0.5779   -0.1712 H   0  0  0  0  0  0  0  0  0  0  0  0
   -0.4447    0.7313    0.0281 C   0  0  1  0  0  0  0  0  0  0  0  0
    0.3673    0.1072   -0.3562 H   0  0  0  0  0  0  0  0  0  0  0  0
   -0.5189    2.0254   -0.8149 C   0  0  0  0  0  0  0  0  0  0  0  0
   -1.3960    2.6016   -0.5015 H   0  0  0  0  0  0  0  0  0  0  0  0
    0.3684    2.6354   -0.6154 H   0  0  0  0  0  0  0  0  0  0  0  0
   -0.5834    1.7803   -2.3395 C   0  0  0  0  0  0  0  0  0  0  0  0
   -1.4326    1.1273   -2.5675 H   0  0  0  0  0  0  0  0  0  0  0  0
   -0.8044    3.1183   -3.0549 C   0  0  0  0  0  0  0  0  0  0  0  0
    0.0306    3.8008   -2.8664 H   0  0  0  0  0  0  0  0  0  0  0  0
   -0.8888    2.9630   -4.1351 H   0  0  0  0  0  0  0  0  0  0  0  0
   -1.7274    3.5919   -2.7060 H   0  0  0  0  0  0  0  0  0  0  0  0
    0.6947    1.1245   -2.8825 C   0  0  0  0  0  0  0  0  0  0  0  0
    0.7965    0.1006   -2.5120 H   0  0  0  0  0  0  0  0  0  0  0  0
    0.6628    1.0795   -3.9756 H   0  0  0  0  0  0  0  0  0  0  0  0
    1.5796    1.6957   -2.5849 H   0  0  0  0  0  0  0  0  0  0  0  0
   -0.0719    1.0022    1.5168 C   0  0  0  0  0  0  0  0  0  0  0  0
   -0.0259    0.1059    2.3458 O   0  0  0  0  0  0  0  0  0  0  0  0
    0.0922    2.2969    1.9856 N   0  0  0  0  0  0  0  0  0  0  0  0
    0.0427    3.0513    1.3089 H   0  0  0  0  0  0  0  0  0  0  0  0
    0.3877    2.6208    3.3773 C   0  0  0  0  0  0  0  0  0  0  0  0
    1.3372    2.1682    3.6824 H   0  0  0  0  0  0  0  0  0  0  0  0
    0.4641    3.7046    3.5060 H   0  0  0  0  0  0  0  0  0  0  0  0
   -0.4062    2.2508    4.0347 H   0  0  0  0  0  0  0  0  0  0  0  0
  1  2  1  0  0  0  0
  2  3  1  0  0  0  0
  2  4  1  0  0  0  0
  2  5  1  0  0  0  0
  5  6  2  0  0  0  0
  5  7  1  0  0  0  0
  7  8  1  0  0  0  0
  7  9  1  0  0  0  0
  9 10  1  0  0  0  0
  9 11  1  0  0  0  0
  9 24  1  0  0  0  0
 11 12  1  0  0  0  0
 11 13  1  0  0  0  0
 11 14  1  0  0  0  0
 14 15  1  0  0  0  0
 14 16  1  0  0  0  0
 14 20  1  0  0  0  0
 16 17  1  0  0  0  0
 16 18  1  0  0  0  0
 16 19  1  0  0  0  0
 20 21  1  0  0  0  0
 20 22  1  0  0  0  0
 20 23  1  0  0  0  0
 24 25  2  0  0  0  0
 24 26  1  0  0  0  0
 26 27  1  0  0  0  0
 26 28  1  0  0  0  0
 28 29  1  0  0  0  0
 28 30  1  0  0  0  0
 28 31  1  0  0  0  0
M  END
$$$$

  -OEChem-01062216083D

 31 30  0     1  0  0  0  0  0999 V2000
   -3.3678   -2.7332    1.0874 H   0  0  0  0  0  0  0  0  0  0  0  0
   -3.3719   -1.7411    0.6269 C   0  0  0  0  0  0  0  0  0  0  0  0
   -3.9019   -1.0512    1.2879 H   0  0  0  0  0  0  0  0  0  0  0  0
   -3.8967   -1.7979   -0.3297 H   0  0  0  0  0  0  0  0  0  0  0  0
   -1.9485   -1.2630    0.4097 C   0  0  0  0  0  0  0  0  0  0  0  0
   -1.0216   -2.0326    0.5876 O   0  0  0  0  0  0  0  0  0  0  0  0
   -1.7265   -0.0047   -0.1170 N   0  0  0  0  0  0  0  0  0  0  0  0
   -2.5634    0.5542   -0.2438 H   0  0  0  0  0  0  0  0  0  0  0  0
   -0.4583    0.7288    0.0534 C   0  0  1  0  0  0  0  0  0  0  0  0
    0.3572    0.1044   -0.3242 H   0  0  0  0  0  0  0  0  0  0  0  0
   -0.5281    2.0211   -0.7902 C   0  0  0  0  0  0  0  0  0  0  0  0
   -1.4087    2.5961   -0.4851 H   0  0  0  0  0  0  0  0  0  0  0  0
    0.3565    2.6316   -0.5780 H   0  0  0  0  0  0  0  0  0  0  0  0
   -0.5868    1.7756   -2.3147 C   0  0  0  0  0  0  0  0  0  0  0  0
   -1.4339    1.1212   -2.5463 H   0  0  0  0  0  0  0  0  0  0  0  0
   -0.8040    3.1136   -3.0311 C   0  0  0  0  0  0  0  0  0  0  0  0
    0.0298    3.7959   -2.8368 H   0  0  0  0  0  0  0  0  0  0  0  0
   -0.8810    2.9595   -4.1120 H   0  0  0  0  0  0  0  0  0  0  0  0
   -1.7290    3.5868   -2.6877 H   0  0  0  0  0  0  0  0  0  0  0  0
    0.6962    1.1236   -2.8509 C   0  0  0  0  0  0  0  0  0  0  0  0
    0.7993    0.1001   -2.4796 H   0  0  0  0  0  0  0  0  0  0  0  0
    0.6713    1.0787   -3.9442 H   0  0  0  0  0  0  0  0  0  0  0  0
    1.5778    1.6974   -2.5483 H   0  0  0  0  0  0  0  0  0  0  0  0
   -0.0945    1.0144    1.5373 C   0  0  0  0  0  0  0  0  0  0  0  0
    0.3466    0.1429    2.2697 O   0  0  0  0  0  0  0  0  0  0  0  0
   -0.2417    2.2851    2.0719 N   0  0  0  0  0  0  0  0  0  0  0  0
   -0.5742    3.0189    1.4552 H   0  0  0  0  0  0  0  0  0  0  0  0
    0.1224    2.6282    3.4422 C   0  0  0  0  0  0  0  0  0  0  0  0
    1.1975    2.4907    3.5982 H   0  0  0  0  0  0  0  0  0  0  0  0
   -0.1273    3.6729    3.6504 H   0  0  0  0  0  0  0  0  0  0  0  0
   -0.4199    1.9961    4.1532 H   0  0  0  0  0  0  0  0  0  0  0  0
  1  2  1  0  0  0  0
  2  3  1  0  0  0  0
  2  4  1  0  0  0  0
  2  5  1  0  0  0  0
  5  6  2  0  0  0  0
  5  7  1  0  0  0  0
  7  8  1  0  0  0  0
  7  9  1  0  0  0  0
  9 10  1  0  0  0  0
  9 11  1  0  0  0  0
  9 24  1  0  0  0  0
 11 12  1  0  0  0  0
 11 13  1  0  0  0  0
 11 14  1  0  0  0  0
 14 15  1  0  0  0  0
 14 16  1  0  0  0  0
 14 20  1  0  0  0  0
 16 17  1  0  0  0  0
 16 18  1  0  0  0  0
 16 19  1  0  0  0  0
 20 21  1  0  0  0  0
 20 22  1  0  0  0  0
 20 23  1  0  0  0  0
 24 25  2  0  0  0  0
 24 26  1  0  0  0  0
 26 27  1  0  0  0  0
 26 28  1  0  0  0  0
 28 29  1  0  0  0  0
 28 30  1  0  0  0  0
 28 31  1  0  0  0  0
M  END
$$$$

  -OEChem-01062216083D

 31 30  0     1  0  0  0  0  0999 V2000
   -3.4564   -2.7842    0.9169 H   0  0  0  0  0  0  0  0  0  0  0  0
   -3.4137   -1.8071    0.4272 C   0  0  0  0  0  0  0  0  0  0  0  0
   -4.1015   -1.1289    0.9376 H   0  0  0  0  0  0  0  0  0  0  0  0
   -3.7268   -1.9211   -0.6134 H   0  0  0  0  0  0  0  0  0  0  0  0
   -2.0010   -1.2567    0.4867 C   0  0  0  0  0  0  0  0  0  0  0  0
   -1.1099   -1.9405    0.9532 O   0  0  0  0  0  0  0  0  0  0  0  0
   -1.7368   -0.0094   -0.0452 N   0  0  0  0  0  0  0  0  0  0  0  0
   -2.5311    0.4935   -0.4261 H   0  0  0  0  0  0  0  0  0  0  0  0
   -0.4621    0.7170    0.1015 C   0  0  1  0  0  0  0  0  0  0  0  0
    0.3421    0.0832   -0.2844 H   0  0  0  0  0  0  0  0  0  0  0  0
   -0.5318    2.0099   -0.7394 C   0  0  0  0  0  0  0  0  0  0  0  0
   -1.4028    2.5927   -0.4231 H   0  0  0  0  0  0  0  0  0  0  0  0
    0.3597    2.6129   -0.5328 H   0  0  0  0  0  0  0  0  0  0  0  0
   -0.6153    1.7682   -2.2627 C   0  0  0  0  0  0  0  0  0  0  0  0
   -1.4714    1.1226   -2.4846 H   0  0  0  0  0  0  0  0  0  0  0  0
   -0.8300    3.1109   -2.9707 C   0  0  0  0  0  0  0  0  0  0  0  0
    0.0092    3.7874   -2.7787 H   0  0  0  0  0  0  0  0  0  0  0  0
   -0.9163    2.9628   -4.0517 H   0  0  0  0  0  0  0  0  0  0  0  0
   -1.7495    3.5878   -2.6175 H   0  0  0  0  0  0  0  0  0  0  0  0
    0.6536    1.1043   -2.8170 C   0  0  0  0  0  0  0  0  0  0  0  0
    0.7548    0.0812   -2.4444 H   0  0  0  0  0  0  0  0  0  0  0  0
    0.6112    1.0566   -3.9096 H   0  0  0  0  0  0  0  0  0  0  0  0
    1.5445    1.6717   -2.5296 H   0  0  0  0  0  0  0  0  0  0  0  0
   -0.0768    1.0208    1.5728 C   0  0  0  0  0  0  0  0  0  0  0  0
    0.7476    0.3362    2.1604 O   0  0  0  0  0  0  0  0  0  0  0  0
   -0.4910    2.1964    2.1787 N   0  0  0  0  0  0  0  0  0  0  0  0
   -1.1491    2.7786    1.6723 H   0  0  0  0  0  0  0  0  0  0  0  0
   -0.0767    2.5977    3.5179 C   0  0  0  0  0  0  0  0  0  0  0  0
    1.0128    2.6960    3.5680 H   0  0  0  0  0  0  0  0  0  0  0  0
   -0.5224    3.5618    3.7800 H   0  0  0  0  0  0  0  0  0  0  0  0
   -0.3980    1.8551    4.2557 H   0  0  0  0  0  0  0  0  0  0  0  0
  1  2  1  0  0  0  0
  2  3  1  0  0  0  0
  2  4  1  0  0  0  0
  2  5  1  0  0  0  0
  5  6  2  0  0  0  0
  5  7  1  0  0  0  0
  7  8  1  0  0  0  0
  7  9  1  0  0  0  0
  9 10  1  0  0  0  0
  9 11  1  0  0  0  0
  9 24  1  0  0  0  0
 11 12  1  0  0  0  0
 11 13  1  0  0  0  0
 11 14  1  0  0  0  0
 14 15  1  0  0  0  0
 14 16  1  0  0  0  0
 14 20  1  0  0  0  0
 16 17  1  0  0  0  0
 16 18  1  0  0  0  0
 16 19  1  0  0  0  0
 20 21  1  0  0  0  0
 20 22  1  0  0  0  0
 20 23  1  0  0  0  0
 24 25  2  0  0  0  0
 24 26  1  0  0  0  0
 26 27  1  0  0  0  0
 26 28  1  0  0  0  0
 28 29  1  0  0  0  0
 28 30  1  0  0  0  0
 28 31  1  0  0  0  0
M  END
$$$$

  -OEChem-01062216083D

 31 30  0     1  0  0  0  0  0999 V2000
   -3.4579   -2.8361    0.8067 H   0  0  0  0  0  0  0  0  0  0  0  0
   -3.4090   -1.8546    0.3265 C   0  0  0  0  0  0  0  0  0  0  0  0
   -4.1824   -1.2142    0.7573 H   0  0  0  0  0  0  0  0  0  0  0  0
   -3.5978   -1.9776   -0.7427 H   0  0  0  0  0  0  0  0  0  0  0  0
   -2.0412   -1.2350    0.5451 C   0  0  0  0  0  0  0  0  0  0  0  0
   -1.2039   -1.8378    1.1898 O   0  0  0  0  0  0  0  0  0  0  0  0
   -1.7596    0.0007   -0.0040 N   0  0  0  0  0  0  0  0  0  0  0  0
   -2.4820    0.4181   -0.5816 H   0  0  0  0  0  0  0  0  0  0  0  0
   -0.4713    0.7059    0.1207 C   0  0  1  0  0  0  0  0  0  0  0  0
    0.3166    0.0572   -0.2746 H   0  0  0  0  0  0  0  0  0  0  0  0
   -0.5244    2.0039   -0.7110 C   0  0  0  0  0  0  0  0  0  0  0  0
   -1.3764    2.6047   -0.3763 H   0  0  0  0  0  0  0  0  0  0  0  0
    0.3829    2.5854   -0.5117 H   0  0  0  0  0  0  0  0  0  0  0  0
   -0.6359    1.7737   -2.2345 C   0  0  0  0  0  0  0  0  0  0  0  0
   -1.5092    1.1492   -2.4484 H   0  0  0  0  0  0  0  0  0  0  0  0
   -0.8308    3.1248   -2.9325 C   0  0  0  0  0  0  0  0  0  0  0  0
    0.0266    3.7809   -2.7504 H   0  0  0  0  0  0  0  0  0  0  0  0
   -0.9374    2.9850   -4.0130 H   0  0  0  0  0  0  0  0  0  0  0  0
   -1.7332    3.6212   -2.5622 H   0  0  0  0  0  0  0  0  0  0  0  0
    0.6107    1.0856   -2.8095 C   0  0  0  0  0  0  0  0  0  0  0  0
    0.6914    0.0569   -2.4476 H   0  0  0  0  0  0  0  0  0  0  0  0
    0.5562    1.0502   -3.9020 H   0  0  0  0  0  0  0  0  0  0  0  0
    1.5177    1.6286   -2.5257 H   0  0  0  0  0  0  0  0  0  0  0  0
   -0.0652    1.0174    1.5813 C   0  0  0  0  0  0  0  0  0  0  0  0
    0.9714    0.5602    2.0421 O   0  0  0  0  0  0  0  0  0  0  0  0
   -0.6970    2.0359    2.2755 N   0  0  0  0  0  0  0  0  0  0  0  0
   -1.5631    2.3923    1.8864 H   0  0  0  0  0  0  0  0  0  0  0  0
   -0.2984    2.4560    3.6134 C   0  0  0  0  0  0  0  0  0  0  0  0
    0.7405    2.8027    3.6127 H   0  0  0  0  0  0  0  0  0  0  0  0
   -0.9350    3.2762    3.9584 H   0  0  0  0  0  0  0  0  0  0  0  0
   -0.3909    1.6233    4.3185 H   0  0  0  0  0  0  0  0  0  0  0  0
  1  2  1  0  0  0  0
  2  3  1  0  0  0  0
  2  4  1  0  0  0  0
  2  5  1  0  0  0  0
  5  6  2  0  0  0  0
  5  7  1  0  0  0  0
  7  8  1  0  0  0  0
  7  9  1  0  0  0  0
  9 10  1  0  0  0  0
  9 11  1  0  0  0  0
  9 24  1  0  0  0  0
 11 12  1  0  0  0  0
 11 13  1  0  0  0  0
 11 14  1  0  0  0  0
 14 15  1  0  0  0  0
 14 16  1  0  0  0  0
 14 20  1  0  0  0  0
 16 17  1  0  0  0  0
 16 18  1  0  0  0  0
 16 19  1  0  0  0  0
 20 21  1  0  0  0  0
 20 22  1  0  0  0  0
 20 23  1  0  0  0  0
 24 25  2  0  0  0  0
 24 26  1  0  0  0  0
 26 27  1  0  0  0  0
 26 28  1  0  0  0  0
 28 29  1  0  0  0  0
 28 30  1  0  0  0  0
 28 31  1  0  0  0  0
M  END
$$$$

  -OEChem-01062216083D

 31 30  0     1  0  0  0  0  0999 V2000
   -3.4468   -2.8536    0.7775 H   0  0  0  0  0  0  0  0  0  0  0  0
   -3.3973   -1.8752    0.2907 C   0  0  0  0  0  0  0  0  0  0  0  0
   -4.2073   -1.2505    0.6742 H   0  0  0  0  0  0  0  0  0  0  0  0
   -3.5275   -2.0117   -0.7855 H   0  0  0  0  0  0  0  0  0  0  0  0
   -2.0587   -1.2190    0.5730 C   0  0  0  0  0  0  0  0  0  0  0  0
   -1.2510   -1.7793    1.2905 O   0  0  0  0  0  0  0  0  0  0  0  0
   -1.7696    0.0081    0.0086 N   0  0  0  0  0  0  0  0  0  0  0  0
   -2.4493    0.3771   -0.6486 H   0  0  0  0  0  0  0  0  0  0  0  0
   -0.4702    0.6958    0.1222 C   0  0  1  0  0  0  0  0  0  0  0  0
    0.3079    0.0377   -0.2768 H   0  0  0  0  0  0  0  0  0  0  0  0
   -0.5141    1.9991   -0.7002 C   0  0  0  0  0  0  0  0  0  0  0  0
   -1.3522    2.6103   -0.3493 H   0  0  0  0  0  0  0  0  0  0  0  0
    0.4040    2.5661   -0.5074 H   0  0  0  0  0  0  0  0  0  0  0  0
   -0.6459    1.7803   -2.2238 C   0  0  0  0  0  0  0  0  0  0  0  0
   -1.5301    1.1695   -2.4319 H   0  0  0  0  0  0  0  0  0  0  0  0
   -0.8296    3.1377   -2.9126 C   0  0  0  0  0  0  0  0  0  0  0  0
    0.0390    3.7805   -2.7371 H   0  0  0  0  0  0  0  0  0  0  0  0
   -0.9500    3.0050   -3.9924 H   0  0  0  0  0  0  0  0  0  0  0  0
   -1.7205    3.6447   -2.5292 H   0  0  0  0  0  0  0  0  0  0  0  0
    0.5847    1.0785   -2.8164 C   0  0  0  0  0  0  0  0  0  0  0  0
    0.6582    0.0480   -2.4582 H   0  0  0  0  0  0  0  0  0  0  0  0
    0.5160    1.0467   -3.9082 H   0  0  0  0  0  0  0  0  0  0  0  0
    1.5018    1.6101   -2.5430 H   0  0  0  0  0  0  0  0  0  0  0  0
   -0.0538    1.0134    1.5766 C   0  0  0  0  0  0  0  0  0  0  0  0
    1.0897    0.7845    1.9474 O   0  0  0  0  0  0  0  0  0  0  0  0
   -0.8593    1.8193    2.3625 N   0  0  0  0  0  0  0  0  0  0  0  0
   -1.8170    1.9433    2.0522 H   0  0  0  0  0  0  0  0  0  0  0  0
   -0.5027    2.2148    3.7192 C   0  0  0  0  0  0  0  0  0  0  0  0
    0.4396    2.7727    3.7209 H   0  0  0  0  0  0  0  0  0  0  0  0
   -1.2819    2.8548    4.1437 H   0  0  0  0  0  0  0  0  0  0  0  0
   -0.3909    1.3321    4.3575 H   0  0  0  0  0  0  0  0  0  0  0  0
  1  2  1  0  0  0  0
  2  3  1  0  0  0  0
  2  4  1  0  0  0  0
  2  5  1  0  0  0  0
  5  6  2  0  0  0  0
  5  7  1  0  0  0  0
  7  8  1  0  0  0  0
  7  9  1  0  0  0  0
  9 10  1  0  0  0  0
  9 11  1  0  0  0  0
  9 24  1  0  0  0  0
 11 12  1  0  0  0  0
 11 13  1  0  0  0  0
 11 14  1  0  0  0  0
 14 15  1  0  0  0  0
 14 16  1  0  0  0  0
 14 20  1  0  0  0  0
 16 17  1  0  0  0  0
 16 18  1  0  0  0  0
 16 19  1  0  0  0  0
 20 21  1  0  0  0  0
 20 22  1  0  0  0  0
 20 23  1  0  0  0  0
 24 25  2  0  0  0  0
 24 26  1  0  0  0  0
 26 27  1  0  0  0  0
 26 28  1  0  0  0  0
 28 29  1  0  0  0  0
 28 30  1  0  0  0  0
 28 31  1  0  0  0  0
M  END
$$$$

  -OEChem-01062216083D

 31 30  0     1  0  0  0  0  0999 V2000
   -3.4437   -2.8592    0.7676 H   0  0  0  0  0  0  0  0  0  0  0  0
   -3.3946   -1.8843    0.2737 C   0  0  0  0  0  0  0  0  0  0  0  0
   -4.2200   -1.2660    0.6342 H   0  0  0  0  0  0  0  0  0  0  0  0
   -3.5003   -2.0316   -0.8038 H   0  0  0  0  0  0  0  0  0  0  0  0
   -2.0693   -1.2114    0.5784 C   0  0  0  0  0  0  0  0  0  0  0  0
   -1.2761   -1.7497    1.3289 O   0  0  0  0  0  0  0  0  0  0  0  0
   -1.7757    0.0111    0.0064 N   0  0  0  0  0  0  0  0  0  0  0  0
   -2.4381    0.3641   -0.6774 H   0  0  0  0  0  0  0  0  0  0  0  0
   -0.4714    0.6912    0.1200 C   0  0  1  0  0  0  0  0  0  0  0  0
    0.3043    0.0302   -0.2784 H   0  0  0  0  0  0  0  0  0  0  0  0
   -0.5125    1.9961   -0.6991 C   0  0  0  0  0  0  0  0  0  0  0  0
   -1.3472    2.6082   -0.3416 H   0  0  0  0  0  0  0  0  0  0  0  0
    0.4076    2.5605   -0.5084 H   0  0  0  0  0  0  0  0  0  0  0  0
   -0.6495    1.7823   -2.2230 C   0  0  0  0  0  0  0  0  0  0  0  0
   -1.5366    1.1757   -2.4307 H   0  0  0  0  0  0  0  0  0  0  0  0
   -0.8296    3.1426   -2.9068 C   0  0  0  0  0  0  0  0  0  0  0  0
    0.0428    3.7808   -2.7326 H   0  0  0  0  0  0  0  0  0  0  0  0
   -0.9554    3.0142   -3.9866 H   0  0  0  0  0  0  0  0  0  0  0  0
   -1.7167    3.6526   -2.5184 H   0  0  0  0  0  0  0  0  0  0  0  0
    0.5778    1.0785   -2.8207 C   0  0  0  0  0  0  0  0  0  0  0  0
    0.6500    0.0473   -2.4643 H   0  0  0  0  0  0  0  0  0  0  0  0
    0.5059    1.0488   -3.9125 H   0  0  0  0  0  0  0  0  0  0  0  0
    1.4967    1.6079   -2.5489 H   0  0  0  0  0  0  0  0  0  0  0  0
   -0.0496    1.0170    1.5703 C   0  0  0  0  0  0  0  0  0  0  0  0
    1.1372    1.0214    1.8700 O   0  0  0  0  0  0  0  0  0  0  0  0
   -0.9673    1.5632    2.4499 N   0  0  0  0  0  0  0  0  0  0  0  0
   -1.9442    1.4553    2.1988 H   0  0  0  0  0  0  0  0  0  0  0  0
   -0.6315    1.9093    3.8251 C   0  0  0  0  0  0  0  0  0  0  0  0
    0.1745    2.6502    3.8488 H   0  0  0  0  0  0  0  0  0  0  0  0
   -1.5033    2.3338    4.3318 H   0  0  0  0  0  0  0  0  0  0  0  0
   -0.3079    1.0192    4.3749 H   0  0  0  0  0  0  0  0  0  0  0  0
  1  2  1  0  0  0  0
  2  3  1  0  0  0  0
  2  4  1  0  0  0  0
  2  5  1  0  0  0  0
  5  6  2  0  0  0  0
  5  7  1  0  0  0  0
  7  8  1  0  0  0  0
  7  9  1  0  0  0  0
  9 10  1  0  0  0  0
  9 11  1  0  0  0  0
  9 24  1  0  0  0  0
 11 12  1  0  0  0  0
 11 13  1  0  0  0  0
 11 14  1  0  0  0  0
 14 15  1  0  0  0  0
 14 16  1  0  0  0  0
 14 20  1  0  0  0  0
 16 17  1  0  0  0  0
 16 18  1  0  0  0  0
 16 19  1  0  0  0  0
 20 21  1  0  0  0  0
 20 22  1  0  0  0  0
 20 23  1  0  0  0  0
 24 25  2  0  0  0  0
 24 26  1  0  0  0  0
 26 27  1  0  0  0  0
 26 28  1  0  0  0  0
 28 29  1  0  0  0  0
 28 30  1  0  0  0  0
 28 31  1  0  0  0  0
M  END
$$$$

  -OEChem-01062216083D

 31 30  0     1  0  0  0  0  0999 V2000
   -3.4618   -2.8565    0.7310 H   0  0  0  0  0  0  0  0  0  0  0  0
   -3.4043   -1.8808    0.2398 C   0  0  0  0  0  0  0  0  0  0  0  0
   -4.2349   -1.2621    0.5879 H   0  0  0  0  0  0  0  0  0  0  0  0
   -3.4932   -2.0261   -0.8395 H   0  0  0  0  0  0  0  0  0  0  0  0
   -2.0836   -1.2092    0.5661 C   0  0  0  0  0  0  0  0  0  0  0  0
   -1.3071   -1.7406    1.3389 O   0  0  0  0  0  0  0  0  0  0  0  0
   -1.7778    0.0117   -0.0019 N   0  0  0  0  0  0  0  0  0  0  0  0
   -2.4320    0.3689   -0.6916 H   0  0  0  0  0  0  0  0  0  0  0  0
   -0.4727    0.6906    0.1240 C   0  0  1  0  0  0  0  0  0  0  0  0
    0.3057    0.0309   -0.2702 H   0  0  0  0  0  0  0  0  0  0  0  0
   -0.5208    1.9940   -0.6986 C   0  0  0  0  0  0  0  0  0  0  0  0
   -1.3604    2.6008   -0.3433 H   0  0  0  0  0  0  0  0  0  0  0  0
    0.3942    2.5668   -0.5081 H   0  0  0  0  0  0  0  0  0  0  0  0
   -0.6513    1.7764   -2.2229 C   0  0  0  0  0  0  0  0  0  0  0  0
   -1.5333    1.1633   -2.4324 H   0  0  0  0  0  0  0  0  0  0  0  0
   -0.8393    3.1341   -2.9097 C   0  0  0  0  0  0  0  0  0  0  0  0
    0.0270    3.7799   -2.7328 H   0  0  0  0  0  0  0  0  0  0  0  0
   -0.9602    3.0026   -3.9897 H   0  0  0  0  0  0  0  0  0  0  0  0
   -1.7325    3.6367   -2.5254 H   0  0  0  0  0  0  0  0  0  0  0  0
    0.5822    1.0797   -2.8162 C   0  0  0  0  0  0  0  0  0  0  0  0
    0.6624    0.0507   -2.4552 H   0  0  0  0  0  0  0  0  0  0  0  0
    0.5110    1.0446   -3.9078 H   0  0  0  0  0  0  0  0  0  0  0  0
    1.4965    1.6178   -2.5462 H   0  0  0  0  0  0  0  0  0  0  0  0
   -0.0488    1.0254    1.5733 C   0  0  0  0  0  0  0  0  0  0  0  0
    1.1279    1.2597    1.8182 O   0  0  0  0  0  0  0  0  0  0  0  0
   -1.0028    1.2844    2.5409 N   0  0  0  0  0  0  0  0  0  0  0  0
   -1.9354    0.9406    2.3369 H   0  0  0  0  0  0  0  0  0  0  0  0
   -0.6578    1.5757    3.9264 C   0  0  0  0  0  0  0  0  0  0  0  0
   -0.0264    2.4684    3.9855 H   0  0  0  0  0  0  0  0  0  0  0  0
   -1.5645    1.7570    4.5111 H   0  0  0  0  0  0  0  0  0  0  0  0
   -0.1189    0.7325    4.3712 H   0  0  0  0  0  0  0  0  0  0  0  0
  1  2  1  0  0  0  0
  2  3  1  0  0  0  0
  2  4  1  0  0  0  0
  2  5  1  0  0  0  0
  5  6  2  0  0  0  0
  5  7  1  0  0  0  0
  7  8  1  0  0  0  0
  7  9  1  0  0  0  0
  9 10  1  0  0  0  0
  9 11  1  0  0  0  0
  9 24  1  0  0  0  0
 11 12  1  0  0  0  0
 11 13  1  0  0  0  0
 11 14  1  0  0  0  0
 14 15  1  0  0  0  0
 14 16  1  0  0  0  0
 14 20  1  0  0  0  0
 16 17  1  0  0  0  0
 16 18  1  0  0  0  0
 16 19  1  0  0  0  0
 20 21  1  0  0  0  0
 20 22  1  0  0  0  0
 20 23  1  0  0  0  0
 24 25  2  0  0  0  0
 24 26  1  0  0  0  0
 26 27  1  0  0  0  0
 26 28  1  0  0  0  0
 28 29  1  0  0  0  0
 28 30  1  0  0  0  0
 28 31  1  0  0  0  0
M  END
$$$$

  -OEChem-01062216083D

 31 30  0     1  0  0  0  0  0999 V2000
   -3.5006   -2.8522    0.6692 H   0  0  0  0  0  0  0  0  0  0  0  0
   -3.4288   -1.8733    0.1865 C   0  0  0  0  0  0  0  0  0  0  0  0
   -4.2604   -1.2513    0.5264 H   0  0  0  0  0  0  0  0  0  0  0  0
   -3.5022   -2.0100   -0.8951 H   0  0  0  0  0  0  0  0  0  0  0  0
   -2.1089   -1.2134    0.5382 C   0  0  0  0  0  0  0  0  0  0  0  0
   -1.3562   -1.7458    1.3339 O   0  0  0  0  0  0  0  0  0  0  0  0
   -1.7858    0.0105   -0.0119 N   0  0  0  0  0  0  0  0  0  0  0  0
   -2.4371    0.3861   -0.6948 H   0  0  0  0  0  0  0  0  0  0  0  0
   -0.4824    0.6916    0.1334 C   0  0  1  0  0  0  0  0  0  0  0  0
    0.3002    0.0355   -0.2582 H   0  0  0  0  0  0  0  0  0  0  0  0
   -0.5385    1.9916   -0.6971 C   0  0  0  0  0  0  0  0  0  0  0  0
   -1.3868    2.5908   -0.3495 H   0  0  0  0  0  0  0  0  0  0  0  0
    0.3680    2.5774   -0.5066 H   0  0  0  0  0  0  0  0  0  0  0  0
   -0.6534    1.7671   -2.2218 C   0  0  0  0  0  0  0  0  0  0  0  0
   -1.5265    1.1435   -2.4376 H   0  0  0  0  0  0  0  0  0  0  0  0
   -0.8507    3.1210   -2.9134 C   0  0  0  0  0  0  0  0  0  0  0  0
    0.0090    3.7750   -2.7348 H   0  0  0  0  0  0  0  0  0  0  0  0
   -0.9653    2.9855   -3.9934 H   0  0  0  0  0  0  0  0  0  0  0  0
   -1.7494    3.6172   -2.5343 H   0  0  0  0  0  0  0  0  0  0  0  0
    0.5936    1.0832   -2.8017 C   0  0  0  0  0  0  0  0  0  0  0  0
    0.6844    0.0571   -2.4348 H   0  0  0  0  0  0  0  0  0  0  0  0
    0.5316    1.0419   -3.8937 H   0  0  0  0  0  0  0  0  0  0  0  0
    1.4989    1.6341   -2.5271 H   0  0  0  0  0  0  0  0  0  0  0  0
   -0.0545    1.0280    1.5849 C   0  0  0  0  0  0  0  0  0  0  0  0
    1.0614    1.4903    1.7891 O   0  0  0  0  0  0  0  0  0  0  0  0
   -0.9623    0.9885    2.6276 N   0  0  0  0  0  0  0  0  0  0  0  0
   -1.7632    0.3853    2.4642 H   0  0  0  0  0  0  0  0  0  0  0  0
   -0.5758    1.2475    4.0088 C   0  0  0  0  0  0  0  0  0  0  0  0
   -0.1570    2.2544    4.1081 H   0  0  0  0  0  0  0  0  0  0  0  0
   -1.4477    1.1719    4.6654 H   0  0  0  0  0  0  0  0  0  0  0  0
    0.1729    0.5197    4.3390 H   0  0  0  0  0  0  0  0  0  0  0  0
  1  2  1  0  0  0  0
  2  3  1  0  0  0  0
  2  4  1  0  0  0  0
  2  5  1  0  0  0  0
  5  6  2  0  0  0  0
  5  7  1  0  0  0  0
  7  8  1  0  0  0  0
  7  9  1  0  0  0  0
  9 10  1  0  0  0  0
  9 11  1  0  0  0  0
  9 24  1  0  0  0  0
 11 12  1  0  0  0  0
 11 13  1  0  0  0  0
 11 14  1  0  0  0  0
 14 15  1  0  0  0  0
 14 16  1  0  0  0  0
 14 20  1  0  0  0  0
 16 17  1  0  0  0  0
 16 18  1  0  0  0  0
 16 19  1  0  0  0  0
 20 21  1  0  0  0  0
 20 22  1  0  0  0  0
 20 23  1  0  0  0  0
 24 25  2  0  0  0  0
 24 26  1  0  0  0  0
 26 27  1  0  0  0  0
 26 28  1  0  0  0  0
 28 29  1  0  0  0  0
 28 30  1  0  0  0  0
 28 31  1  0  0  0  0
M  END
$$$$

  -OEChem-01062216083D

 31 30  0     1  0  0  0  0  0999 V2000
   -3.5439   -2.8407    0.6035 H   0  0  0  0  0  0  0  0  0  0  0  0
   -3.4585   -1.8494    0.1492 C   0  0  0  0  0  0  0  0  0  0  0  0
   -4.2741   -1.2220    0.5169 H   0  0  0  0  0  0  0  0  0  0  0  0
   -3.5465   -1.9524   -0.9351 H   0  0  0  0  0  0  0  0  0  0  0  0
   -2.1226   -1.2247    0.5048 C   0  0  0  0  0  0  0  0  0  0  0  0
   -1.3723   -1.7932    1.2786 O   0  0  0  0  0  0  0  0  0  0  0  0
   -1.7815    0.0056   -0.0191 N   0  0  0  0  0  0  0  0  0  0  0  0
   -2.4498    0.4220   -0.6605 H   0  0  0  0  0  0  0  0  0  0  0  0
   -0.4808    0.6905    0.1427 C   0  0  1  0  0  0  0  0  0  0  0  0
    0.3050    0.0398   -0.2504 H   0  0  0  0  0  0  0  0  0  0  0  0
   -0.5492    1.9891   -0.6941 C   0  0  0  0  0  0  0  0  0  0  0  0
   -1.4056    2.5796   -0.3520 H   0  0  0  0  0  0  0  0  0  0  0  0
    0.3483    2.5887   -0.5066 H   0  0  0  0  0  0  0  0  0  0  0  0
   -0.6534    1.7583   -2.2192 C   0  0  0  0  0  0  0  0  0  0  0  0
   -1.5188    1.1247   -2.4374 H   0  0  0  0  0  0  0  0  0  0  0  0
   -0.8642    3.1067   -2.9179 C   0  0  0  0  0  0  0  0  0  0  0  0
   -0.0156    3.7739   -2.7345 H   0  0  0  0  0  0  0  0  0  0  0  0
   -0.9671    2.9654   -3.9984 H   0  0  0  0  0  0  0  0  0  0  0  0
   -1.7734    3.5915   -2.5490 H   0  0  0  0  0  0  0  0  0  0  0  0
    0.6021    1.0846   -2.7913 C   0  0  0  0  0  0  0  0  0  0  0  0
    0.6950    0.0578   -2.4275 H   0  0  0  0  0  0  0  0  0  0  0  0
    0.5492    1.0470   -3.8838 H   0  0  0  0  0  0  0  0  0  0  0  0
    1.5019    1.6397   -2.5074 H   0  0  0  0  0  0  0  0  0  0  0  0
   -0.0493    1.0181    1.5999 C   0  0  0  0  0  0  0  0  0  0  0  0
    0.9574    1.6889    1.7950 O   0  0  0  0  0  0  0  0  0  0  0  0
   -0.8387    0.6851    2.6854 N   0  0  0  0  0  0  0  0  0  0  0  0
   -1.4591   -0.1048    2.5144 H   0  0  0  0  0  0  0  0  0  0  0  0
   -0.4234    0.9312    4.0608 C   0  0  0  0  0  0  0  0  0  0  0  0
   -0.2578    2.0009    4.2267 H   0  0  0  0  0  0  0  0  0  0  0  0
   -1.1988    0.5923    4.7543 H   0  0  0  0  0  0  0  0  0  0  0  0
    0.5034    0.3923    4.2839 H   0  0  0  0  0  0  0  0  0  0  0  0
  1  2  1  0  0  0  0
  2  3  1  0  0  0  0
  2  4  1  0  0  0  0
  2  5  1  0  0  0  0
  5  6  2  0  0  0  0
  5  7  1  0  0  0  0
  7  8  1  0  0  0  0
  7  9  1  0  0  0  0
  9 10  1  0  0  0  0
  9 11  1  0  0  0  0
  9 24  1  0  0  0  0
 11 12  1  0  0  0  0
 11 13  1  0  0  0  0
 11 14  1  0  0  0  0
 14 15  1  0  0  0  0
 14 16  1  0  0  0  0
 14 20  1  0  0  0  0
 16 17  1  0  0  0  0
 16 18  1  0  0  0  0
 16 19  1  0  0  0  0
 20 21  1  0  0  0  0
 20 22  1  0  0  0  0
 20 23  1  0  0  0  0
 24 25  2  0  0  0  0
 24 26  1  0  0  0  0
 26 27  1  0  0  0  0
 26 28  1  0  0  0  0
 28 29  1  0  0  0  0
 28 30  1  0  0  0  0
 28 31  1  0  0  0  0
M  END
$$$$

  -OEChem-01062216083D

 31 30  0     1  0  0  0  0  0999 V2000
   -3.5753   -2.8123    0.6340 H   0  0  0  0  0  0  0  0  0  0  0  0
   -3.4843   -1.8180    0.1874 C   0  0  0  0  0  0  0  0  0  0  0  0
   -4.2513   -1.1684    0.6160 H   0  0  0  0  0  0  0  0  0  0  0  0
   -3.6465   -1.9014   -0.8900 H   0  0  0  0  0  0  0  0  0  0  0  0
   -2.1065   -1.2459    0.4615 C   0  0  0  0  0  0  0  0  0  0  0  0
   -1.3081   -1.8802    1.1301 O   0  0  0  0  0  0  0  0  0  0  0  0
   -1.7695   -0.0037   -0.0367 N   0  0  0  0  0  0  0  0  0  0  0  0
   -2.4885    0.4765   -0.5696 H   0  0  0  0  0  0  0  0  0  0  0  0
   -0.4781    0.6958    0.1394 C   0  0  1  0  0  0  0  0  0  0  0  0
    0.3160    0.0550   -0.2532 H   0  0  0  0  0  0  0  0  0  0  0  0
   -0.5574    1.9918   -0.7037 C   0  0  0  0  0  0  0  0  0  0  0  0
   -1.4242    2.5728   -0.3711 H   0  0  0  0  0  0  0  0  0  0  0  0
    0.3306    2.6049   -0.5153 H   0  0  0  0  0  0  0  0  0  0  0  0
   -0.6436    1.7532   -2.2290 C   0  0  0  0  0  0  0  0  0  0  0  0
   -1.4967    1.1055   -2.4537 H   0  0  0  0  0  0  0  0  0  0  0  0
   -0.8673    3.0962   -2.9343 C   0  0  0  0  0  0  0  0  0  0  0  0
   -0.0302    3.7761   -2.7454 H   0  0  0  0  0  0  0  0  0  0  0  0
   -0.9585    2.9497   -4.0153 H   0  0  0  0  0  0  0  0  0  0  0  0
   -1.7868    3.5690   -2.5752 H   0  0  0  0  0  0  0  0  0  0  0  0
    0.6283    1.0970   -2.7860 C   0  0  0  0  0  0  0  0  0  0  0  0
    0.7293    0.0704   -2.4232 H   0  0  0  0  0  0  0  0  0  0  0  0
    0.5907    1.0613   -3.8793 H   0  0  0  0  0  0  0  0  0  0  0  0
    1.5168    1.6631   -2.4883 H   0  0  0  0  0  0  0  0  0  0  0  0
   -0.0531    1.0080    1.6055 C   0  0  0  0  0  0  0  0  0  0  0  0
    0.7912    1.8678    1.8282 O   0  0  0  0  0  0  0  0  0  0  0  0
   -0.6590    0.4023    2.6908 N   0  0  0  0  0  0  0  0  0  0  0  0
   -1.1242   -0.4800    2.4728 H   0  0  0  0  0  0  0  0  0  0  0  0
   -0.2241    0.6209    4.0649 C   0  0  0  0  0  0  0  0  0  0  0  0
   -0.3075    1.6801    4.3301 H   0  0  0  0  0  0  0  0  0  0  0  0
   -0.8485    0.0444    4.7537 H   0  0  0  0  0  0  0  0  0  0  0  0
    0.8167    0.3058    4.1923 H   0  0  0  0  0  0  0  0  0  0  0  0
  1  2  1  0  0  0  0
  2  3  1  0  0  0  0
  2  4  1  0  0  0  0
  2  5  1  0  0  0  0
  5  6  2  0  0  0  0
  5  7  1  0  0  0  0
  7  8  1  0  0  0  0
  7  9  1  0  0  0  0
  9 10  1  0  0  0  0
  9 11  1  0  0  0  0
  9 24  1  0  0  0  0
 11 12  1  0  0  0  0
 11 13  1  0  0  0  0
 11 14  1  0  0  0  0
 14 15  1  0  0  0  0
 14 16  1  0  0  0  0
 14 20  1  0  0  0  0
 16 17  1  0  0  0  0
 16 18  1  0  0  0  0
 16 19  1  0  0  0  0
 20 21  1  0  0  0  0
 20 22  1  0  0  0  0
 20 23  1  0  0  0  0
 24 25  2  0  0  0  0
 24 26  1  0  0  0  0
 26 27  1  0  0  0  0
 26 28  1  0  0  0  0
 28 29  1  0  0  0  0
 28 30  1  0  0  0  0
 28 31  1  0  0  0  0
M  END
$$$$

  -OEChem-01062216083D

 31 30  0     1  0  0  0  0  0999 V2000
   -3.5726   -2.7853    0.7136 H   0  0  0  0  0  0  0  0  0  0  0  0
   -3.4867   -1.7931    0.2613 C   0  0  0  0  0  0  0  0  0  0  0  0
   -4.2004   -1.1229    0.7466 H   0  0  0  0  0  0  0  0  0  0  0  0
   -3.7315   -1.8688   -0.8010 H   0  0  0  0  0  0  0  0  0  0  0  0
   -2.0763   -1.2616    0.4316 C   0  0  0  0  0  0  0  0  0  0  0  0
   -1.2316   -1.9493    0.9818 O   0  0  0  0  0  0  0  0  0  0  0  0
   -1.7544   -0.0092   -0.0514 N   0  0  0  0  0  0  0  0  0  0  0  0
   -2.5171    0.5166   -0.4679 H   0  0  0  0  0  0  0  0  0  0  0  0
   -0.4703    0.7018    0.1291 C   0  0  1  0  0  0  0  0  0  0  0  0
    0.3290    0.0691   -0.2650 H   0  0  0  0  0  0  0  0  0  0  0  0
   -0.5548    1.9971   -0.7154 C   0  0  0  0  0  0  0  0  0  0  0  0
   -1.4257    2.5741   -0.3869 H   0  0  0  0  0  0  0  0  0  0  0  0
    0.3300    2.6143   -0.5247 H   0  0  0  0  0  0  0  0  0  0  0  0
   -0.6318    1.7554   -2.2407 C   0  0  0  0  0  0  0  0  0  0  0  0
   -1.4800    1.1015   -2.4666 H   0  0  0  0  0  0  0  0  0  0  0  0
   -0.8618    3.0952   -2.9499 C   0  0  0  0  0  0  0  0  0  0  0  0
   -0.0298    3.7811   -2.7598 H   0  0  0  0  0  0  0  0  0  0  0  0
   -0.9481    2.9457   -4.0308 H   0  0  0  0  0  0  0  0  0  0  0  0
   -1.7856    3.5628   -2.5953 H   0  0  0  0  0  0  0  0  0  0  0  0
    0.6460    1.1070   -2.7930 C   0  0  0  0  0  0  0  0  0  0  0  0
    0.7569    0.0842   -2.4230 H   0  0  0  0  0  0  0  0  0  0  0  0
    0.6077    1.0624   -3.8859 H   0  0  0  0  0  0  0  0  0  0  0  0
    1.5293    1.6838   -2.5006 H   0  0  0  0  0  0  0  0  0  0  0  0
   -0.0543    0.9951    1.6033 C   0  0  0  0  0  0  0  0  0  0  0  0
    0.5747    2.0093    1.8818 O   0  0  0  0  0  0  0  0  0  0  0  0
   -0.4251    0.1684    2.6472 N   0  0  0  0  0  0  0  0  0  0  0  0
   -0.7607   -0.7565    2.3706 H   0  0  0  0  0  0  0  0  0  0  0  0
    0.0135    0.3623    4.0233 C   0  0  0  0  0  0  0  0  0  0  0  0
   -0.3128    1.3390    4.3957 H   0  0  0  0  0  0  0  0  0  0  0  0
   -0.4148   -0.4118    4.6671 H   0  0  0  0  0  0  0  0  0  0  0  0
    1.1049    0.3053    4.0895 H   0  0  0  0  0  0  0  0  0  0  0  0
  1  2  1  0  0  0  0
  2  3  1  0  0  0  0
  2  4  1  0  0  0  0
  2  5  1  0  0  0  0
  5  6  2  0  0  0  0
  5  7  1  0  0  0  0
  7  8  1  0  0  0  0
  7  9  1  0  0  0  0
  9 10  1  0  0  0  0
  9 11  1  0  0  0  0
  9 24  1  0  0  0  0
 11 12  1  0  0  0  0
 11 13  1  0  0  0  0
 11 14  1  0  0  0  0
 14 15  1  0  0  0  0
 14 16  1  0  0  0  0
 14 20  1  0  0  0  0
 16 17  1  0  0  0  0
 16 18  1  0  0  0  0
 16 19  1  0  0  0  0
 20 21  1  0  0  0  0
 20 22  1  0  0  0  0
 20 23  1  0  0  0  0
 24 25  2  0  0  0  0
 24 26  1  0  0  0  0
 26 27  1  0  0  0  0
 26 28  1  0  0  0  0
 28 29  1  0  0  0  0
 28 30  1  0  0  0  0
 28 31  1  0  0  0  0
M  END
$$$$

  -OEChem-01062216083D

 31 30  0     1  0  0  0  0  0999 V2000
   -3.5428   -2.7729    0.8020 H   0  0  0  0  0  0  0  0  0  0  0  0
   -3.4703   -1.7830    0.3424 C   0  0  0  0  0  0  0  0  0  0  0  0
   -4.1441   -1.1019    0.8681 H   0  0  0  0  0  0  0  0  0  0  0  0
   -3.7799   -1.8573   -0.7029 H   0  0  0  0  0  0  0  0  0  0  0  0
   -2.0446   -1.2712    0.4259 C   0  0  0  0  0  0  0  0  0  0  0  0
   -1.1695   -1.9854    0.8893 O   0  0  0  0  0  0  0  0  0  0  0  0
   -1.7401   -0.0142   -0.0577 N   0  0  0  0  0  0  0  0  0  0  0  0
   -2.5276    0.5334   -0.3920 H   0  0  0  0  0  0  0  0  0  0  0  0
   -0.4563    0.6989    0.1119 C   0  0  1  0  0  0  0  0  0  0  0  0
    0.3414    0.0691   -0.2905 H   0  0  0  0  0  0  0  0  0  0  0  0
   -0.5395    1.9975   -0.7267 C   0  0  0  0  0  0  0  0  0  0  0  0
   -1.4065    2.5768   -0.3919 H   0  0  0  0  0  0  0  0  0  0  0  0
    0.3496    2.6083   -0.5345 H   0  0  0  0  0  0  0  0  0  0  0  0
   -0.6248    1.7632   -2.2524 C   0  0  0  0  0  0  0  0  0  0  0  0
   -1.4761    1.1127   -2.4769 H   0  0  0  0  0  0  0  0  0  0  0  0
   -0.8527    3.1073   -2.9539 C   0  0  0  0  0  0  0  0  0  0  0  0
   -0.0163    3.7883   -2.7654 H   0  0  0  0  0  0  0  0  0  0  0  0
   -0.9464    2.9631   -4.0348 H   0  0  0  0  0  0  0  0  0  0  0  0
   -1.7721    3.5773   -2.5913 H   0  0  0  0  0  0  0  0  0  0  0  0
    0.6488    1.1138   -2.8137 C   0  0  0  0  0  0  0  0  0  0  0  0
    0.7569    0.0874   -2.4524 H   0  0  0  0  0  0  0  0  0  0  0  0
    0.6074    1.0783   -3.9069 H   0  0  0  0  0  0  0  0  0  0  0  0
    1.5353    1.6847   -2.5195 H   0  0  0  0  0  0  0  0  0  0  0  0
   -0.0385    0.9781    1.5875 C   0  0  0  0  0  0  0  0  0  0  0  0
    0.3518    2.0879    1.9310 O   0  0  0  0  0  0  0  0  0  0  0  0
   -0.1351    0.0059    2.5644 N   0  0  0  0  0  0  0  0  0  0  0  0
   -0.3840   -0.9327    2.2424 H   0  0  0  0  0  0  0  0  0  0  0  0
    0.2785    0.1924    3.9489 C   0  0  0  0  0  0  0  0  0  0  0  0
   -0.2863    1.0088    4.4109 H   0  0  0  0  0  0  0  0  0  0  0  0
    0.0954   -0.7213    4.5223 H   0  0  0  0  0  0  0  0  0  0  0  0
    1.3466    0.4272    4.0015 H   0  0  0  0  0  0  0  0  0  0  0  0
  1  2  1  0  0  0  0
  2  3  1  0  0  0  0
  2  4  1  0  0  0  0
  2  5  1  0  0  0  0
  5  6  2  0  0  0  0
  5  7  1  0  0  0  0
  7  8  1  0  0  0  0
  7  9  1  0  0  0  0
  9 10  1  0  0  0  0
  9 11  1  0  0  0  0
  9 24  1  0  0  0  0
 11 12  1  0  0  0  0
 11 13  1  0  0  0  0
 11 14  1  0  0  0  0
 14 15  1  0  0  0  0
 14 16  1  0  0  0  0
 14 20  1  0  0  0  0
 16 17  1  0  0  0  0
 16 18  1  0  0  0  0
 16 19  1  0  0  0  0
 20 21  1  0  0  0  0
 20 22  1  0  0  0  0
 20 23  1  0  0  0  0
 24 25  2  0  0  0  0
 24 26  1  0  0  0  0
 26 27  1  0  0  0  0
 26 28  1  0  0  0  0
 28 29  1  0  0  0  0
 28 30  1  0  0  0  0
 28 31  1  0  0  0  0
M  END
$$$$

  -OEChem-01062216083D

 31 30  0     1  0  0  0  0  0999 V2000
   -3.4777   -2.7663    0.8910 H   0  0  0  0  0  0  0  0  0  0  0  0
   -3.4257   -1.7747    0.4322 C   0  0  0  0  0  0  0  0  0  0  0  0
   -4.0684   -1.0938    0.9956 H   0  0  0  0  0  0  0  0  0  0  0  0
   -3.7897   -1.8430   -0.5958 H   0  0  0  0  0  0  0  0  0  0  0  0
   -1.9960   -1.2675    0.4425 C   0  0  0  0  0  0  0  0  0  0  0  0
   -1.0994   -1.9856    0.8573 O   0  0  0  0  0  0  0  0  0  0  0  0
   -1.7125   -0.0114   -0.0561 N   0  0  0  0  0  0  0  0  0  0  0  0
   -2.5149    0.5451   -0.3362 H   0  0  0  0  0  0  0  0  0  0  0  0
   -0.4258    0.6986    0.0891 C   0  0  1  0  0  0  0  0  0  0  0  0
    0.3663    0.0693   -0.3251 H   0  0  0  0  0  0  0  0  0  0  0  0
   -0.5102    2.0015   -0.7399 C   0  0  0  0  0  0  0  0  0  0  0  0
   -1.3693    2.5844   -0.3912 H   0  0  0  0  0  0  0  0  0  0  0  0
    0.3858    2.6036   -0.5510 H   0  0  0  0  0  0  0  0  0  0  0  0
   -0.6210    1.7754   -2.2649 C   0  0  0  0  0  0  0  0  0  0  0  0
   -1.4824    1.1340   -2.4770 H   0  0  0  0  0  0  0  0  0  0  0  0
   -0.8477    3.1241   -2.9576 C   0  0  0  0  0  0  0  0  0  0  0  0
   -0.0041    3.7983   -2.7767 H   0  0  0  0  0  0  0  0  0  0  0  0
   -0.9559    2.9856   -4.0379 H   0  0  0  0  0  0  0  0  0  0  0  0
   -1.7591    3.5989   -2.5814 H   0  0  0  0  0  0  0  0  0  0  0  0
    0.6364    1.1158   -2.8497 C   0  0  0  0  0  0  0  0  0  0  0  0
    0.7418    0.0882   -2.4913 H   0  0  0  0  0  0  0  0  0  0  0  0
    0.5745    1.0815   -3.9419 H   0  0  0  0  0  0  0  0  0  0  0  0
    1.5333    1.6785   -2.5715 H   0  0  0  0  0  0  0  0  0  0  0  0
   -0.0026    0.9691    1.5617 C   0  0  0  0  0  0  0  0  0  0  0  0
    0.1444    2.1126    1.9774 O   0  0  0  0  0  0  0  0  0  0  0  0
    0.1914   -0.0728    2.4471 N   0  0  0  0  0  0  0  0  0  0  0  0
   -0.0224   -1.0101    2.0961 H   0  0  0  0  0  0  0  0  0  0  0  0
    0.5320    0.0985    3.8528 C   0  0  0  0  0  0  0  0  0  0  0  0
   -0.2561    0.6527    4.3728 H   0  0  0  0  0  0  0  0  0  0  0  0
    0.6456   -0.8777    4.3340 H   0  0  0  0  0  0  0  0  0  0  0  0
    1.4753    0.6452    3.9541 H   0  0  0  0  0  0  0  0  0  0  0  0
  1  2  1  0  0  0  0
  2  3  1  0  0  0  0
  2  4  1  0  0  0  0
  2  5  1  0  0  0  0
  5  6  2  0  0  0  0
  5  7  1  0  0  0  0
  7  8  1  0  0  0  0
  7  9  1  0  0  0  0
  9 10  1  0  0  0  0
  9 11  1  0  0  0  0
  9 24  1  0  0  0  0
 11 12  1  0  0  0  0
 11 13  1  0  0  0  0
 11 14  1  0  0  0  0
 14 15  1  0  0  0  0
 14 16  1  0  0  0  0
 14 20  1  0  0  0  0
 16 17  1  0  0  0  0
 16 18  1  0  0  0  0
 16 19  1  0  0  0  0
 20 21  1  0  0  0  0
 20 22  1  0  0  0  0
 20 23  1  0  0  0  0
 24 25  2  0  0  0  0
 24 26  1  0  0  0  0
 26 27  1  0  0  0  0
 26 28  1  0  0  0  0
 28 29  1  0  0  0  0
 28 30  1  0  0  0  0
 28 31  1  0  0  0  0
M  END
$$$$

  -OEChem-01062216083D

 31 30  0     1  0  0  0  0  0999 V2000
   -3.4003   -2.7588    0.9875 H   0  0  0  0  0  0  0  0  0  0  0  0
   -3.3715   -1.7740    0.5127 C   0  0  0  0  0  0  0  0  0  0  0  0
   -4.0010   -1.0896    1.0866 H   0  0  0  0  0  0  0  0  0  0  0  0
   -3.7686   -1.8604   -0.5016 H   0  0  0  0  0  0  0  0  0  0  0  0
   -1.9463   -1.2561    0.4693 C   0  0  0  0  0  0  0  0  0  0  0  0
   -1.0296   -1.9554    0.8743 O   0  0  0  0  0  0  0  0  0  0  0  0
   -1.6868   -0.0067   -0.0584 N   0  0  0  0  0  0  0  0  0  0  0  0
   -2.4985    0.5516   -0.3061 H   0  0  0  0  0  0  0  0  0  0  0  0
   -0.3983    0.6989    0.0650 C   0  0  1  0  0  0  0  0  0  0  0  0
    0.3915    0.0700   -0.3542 H   0  0  0  0  0  0  0  0  0  0  0  0
   -0.4847    2.0047   -0.7563 C   0  0  0  0  0  0  0  0  0  0  0  0
   -1.3369    2.5907   -0.3954 H   0  0  0  0  0  0  0  0  0  0  0  0
    0.4165    2.5996   -0.5706 H   0  0  0  0  0  0  0  0  0  0  0  0
   -0.6189    1.7874   -2.2804 C   0  0  0  0  0  0  0  0  0  0  0  0
   -1.4873    1.1527   -2.4847 H   0  0  0  0  0  0  0  0  0  0  0  0
   -0.8453    3.1424   -2.9612 C   0  0  0  0  0  0  0  0  0  0  0  0
    0.0065    3.8082   -2.7891 H   0  0  0  0  0  0  0  0  0  0  0  0
   -0.9721    3.0116   -4.0405 H   0  0  0  0  0  0  0  0  0  0  0  0
   -1.7468    3.6222   -2.5675 H   0  0  0  0  0  0  0  0  0  0  0  0
    0.6266    1.1226   -2.8851 C   0  0  0  0  0  0  0  0  0  0  0  0
    0.7306    0.0927   -2.5330 H   0  0  0  0  0  0  0  0  0  0  0  0
    0.5502    1.0939   -3.9766 H   0  0  0  0  0  0  0  0  0  0  0  0
    1.5302    1.6788   -2.6158 H   0  0  0  0  0  0  0  0  0  0  0  0
    0.0143    0.9729    1.5361 C   0  0  0  0  0  0  0  0  0  0  0  0
   -0.0715    2.0959    2.0197 O   0  0  0  0  0  0  0  0  0  0  0  0
    0.4909   -0.0564    2.3239 N   0  0  0  0  0  0  0  0  0  0  0  0
    0.3315   -0.9969    1.9532 H   0  0  0  0  0  0  0  0  0  0  0  0
    0.7885    0.0904    3.7425 C   0  0  0  0  0  0  0  0  0  0  0  0
   -0.1152    0.3631    4.2972 H   0  0  0  0  0  0  0  0  0  0  0  0
    1.1737   -0.8513    4.1452 H   0  0  0  0  0  0  0  0  0  0  0  0
    1.5460    0.8658    3.8978 H   0  0  0  0  0  0  0  0  0  0  0  0
  1  2  1  0  0  0  0
  2  3  1  0  0  0  0
  2  4  1  0  0  0  0
  2  5  1  0  0  0  0
  5  6  2  0  0  0  0
  5  7  1  0  0  0  0
  7  8  1  0  0  0  0
  7  9  1  0  0  0  0
  9 10  1  0  0  0  0
  9 11  1  0  0  0  0
  9 24  1  0  0  0  0
 11 12  1  0  0  0  0
 11 13  1  0  0  0  0
 11 14  1  0  0  0  0
 14 15  1  0  0  0  0
 14 16  1  0  0  0  0
 14 20  1  0  0  0  0
 16 17  1  0  0  0  0
 16 18  1  0  0  0  0
 16 19  1  0  0  0  0
 20 21  1  0  0  0  0
 20 22  1  0  0  0  0
 20 23  1  0  0  0  0
 24 25  2  0  0  0  0
 24 26  1  0  0  0  0
 26 27  1  0  0  0  0
 26 28  1  0  0  0  0
 28 29  1  0  0  0  0
 28 30  1  0  0  0  0
 28 31  1  0  0  0  0
M  END
$$$$

  -OEChem-01062216083D

 31 30  0     1  0  0  0  0  0999 V2000
   -3.3224   -2.7580    1.0720 H   0  0  0  0  0  0  0  0  0  0  0  0
   -3.3222   -1.7808    0.5809 C   0  0  0  0  0  0  0  0  0  0  0  0
   -3.9410   -1.0945    1.1642 H   0  0  0  0  0  0  0  0  0  0  0  0
   -3.7510   -1.8888   -0.4183 H   0  0  0  0  0  0  0  0  0  0  0  0
   -1.9066   -1.2452    0.4820 C   0  0  0  0  0  0  0  0  0  0  0  0
   -0.9656   -1.9204    0.8743 O   0  0  0  0  0  0  0  0  0  0  0  0
   -1.6783   -0.0020   -0.0742 N   0  0  0  0  0  0  0  0  0  0  0  0
   -2.5011    0.5611   -0.2694 H   0  0  0  0  0  0  0  0  0  0  0  0
   -0.3901    0.7002    0.0397 C   0  0  1  0  0  0  0  0  0  0  0  0
    0.4017    0.0723   -0.3777 H   0  0  0  0  0  0  0  0  0  0  0  0
   -0.4707    2.0106   -0.7723 C   0  0  0  0  0  0  0  0  0  0  0  0
   -1.3190    2.5991   -0.4060 H   0  0  0  0  0  0  0  0  0  0  0  0
    0.4343    2.5984   -0.5830 H   0  0  0  0  0  0  0  0  0  0  0  0
   -0.6144    1.8024   -2.2962 C   0  0  0  0  0  0  0  0  0  0  0  0
   -1.4892    1.1759   -2.4982 H   0  0  0  0  0  0  0  0  0  0  0  0
   -0.8340    3.1624   -2.9686 C   0  0  0  0  0  0  0  0  0  0  0  0
    0.0239    3.8208   -2.7979 H   0  0  0  0  0  0  0  0  0  0  0  0
   -0.9680    3.0386   -4.0477 H   0  0  0  0  0  0  0  0  0  0  0  0
   -1.7293    3.6474   -2.5673 H   0  0  0  0  0  0  0  0  0  0  0  0
    0.6224    1.1302   -2.9099 C   0  0  0  0  0  0  0  0  0  0  0  0
    0.7188    0.0976   -2.5630 H   0  0  0  0  0  0  0  0  0  0  0  0
    0.5408    1.1077   -4.0011 H   0  0  0  0  0  0  0  0  0  0  0  0
    1.5320    1.6770   -2.6419 H   0  0  0  0  0  0  0  0  0  0  0  0
   -0.0034    0.9756    1.5141 C   0  0  0  0  0  0  0  0  0  0  0  0
   -0.3171    2.0263    2.0622 O   0  0  0  0  0  0  0  0  0  0  0  0
    0.7367    0.0403    2.2108 N   0  0  0  0  0  0  0  0  0  0  0  0
    0.7072   -0.9018    1.8160 H   0  0  0  0  0  0  0  0  0  0  0  0
    1.0446    0.1782    3.6282 C   0  0  0  0  0  0  0  0  0  0  0  0
    0.1238    0.1925    4.2206 H   0  0  0  0  0  0  0  0  0  0  0  0
    1.6614   -0.6614    3.9627 H   0  0  0  0  0  0  0  0  0  0  0  0
    1.5974    1.1054    3.8125 H   0  0  0  0  0  0  0  0  0  0  0  0
  1  2  1  0  0  0  0
  2  3  1  0  0  0  0
  2  4  1  0  0  0  0
  2  5  1  0  0  0  0
  5  6  2  0  0  0  0
  5  7  1  0  0  0  0
  7  8  1  0  0  0  0
  7  9  1  0  0  0  0
  9 10  1  0  0  0  0
  9 11  1  0  0  0  0
  9 24  1  0  0  0  0
 11 12  1  0  0  0  0
 11 13  1  0  0  0  0
 11 14  1  0  0  0  0
 14 15  1  0  0  0  0
 14 16  1  0  0  0  0
 14 20  1  0  0  0  0
 16 17  1  0  0  0  0
 16 18  1  0  0  0  0
 16 19  1  0  0  0  0
 20 21  1  0  0  0  0
 20 22  1  0  0  0  0
 20 23  1  0  0  0  0
 24 25  2  0  0  0  0
 24 26  1  0  0  0  0
 26 27  1  0  0  0  0
 26 28  1  0  0  0  0
 28 29  1  0  0  0  0
 28 30  1  0  0  0  0
 28 31  1  0  0  0  0
M  END
$$$$

  -OEChem-01062216083D

 31 30  0     1  0  0  0  0  0999 V2000
   -3.2760   -2.7527    1.1346 H   0  0  0  0  0  0  0  0  0  0  0  0
   -3.2962   -1.7806    0.6342 C   0  0  0  0  0  0  0  0  0  0  0  0
   -3.8958   -1.0902    1.2327 H   0  0  0  0  0  0  0  0  0  0  0  0
   -3.7593   -1.8995   -0.3483 H   0  0  0  0  0  0  0  0  0  0  0  0
   -1.8863   -1.2426    0.4809 C   0  0  0  0  0  0  0  0  0  0  0  0
   -0.9299   -1.9077    0.8531 O   0  0  0  0  0  0  0  0  0  0  0  0
   -1.6788   -0.0043   -0.0939 N   0  0  0  0  0  0  0  0  0  0  0  0
   -2.5079    0.5650   -0.2383 H   0  0  0  0  0  0  0  0  0  0  0  0
   -0.3910    0.6967    0.0171 C   0  0  1  0  0  0  0  0  0  0  0  0
    0.4008    0.0682   -0.3989 H   0  0  0  0  0  0  0  0  0  0  0  0
   -0.4644    2.0118   -0.7861 C   0  0  0  0  0  0  0  0  0  0  0  0
   -1.3111    2.6015   -0.4176 H   0  0  0  0  0  0  0  0  0  0  0  0
    0.4428    2.5946   -0.5923 H   0  0  0  0  0  0  0  0  0  0  0  0
   -0.6102    1.8132   -2.3110 C   0  0  0  0  0  0  0  0  0  0  0  0
   -1.4890    1.1928   -2.5153 H   0  0  0  0  0  0  0  0  0  0  0  0
   -0.8225    3.1786   -2.9753 C   0  0  0  0  0  0  0  0  0  0  0  0
    0.0381    3.8322   -2.8002 H   0  0  0  0  0  0  0  0  0  0  0  0
   -0.9561    3.0622   -4.0554 H   0  0  0  0  0  0  0  0  0  0  0  0
   -1.7159    3.6651   -2.5714 H   0  0  0  0  0  0  0  0  0  0  0  0
    0.6221    1.1373   -2.9298 C   0  0  0  0  0  0  0  0  0  0  0  0
    0.7142    0.1031   -2.5866 H   0  0  0  0  0  0  0  0  0  0  0  0
    0.5381    1.1194   -4.0209 H   0  0  0  0  0  0  0  0  0  0  0  0
    1.5350    1.6787   -2.6619 H   0  0  0  0  0  0  0  0  0  0  0  0
   -0.0198    0.9769    1.4926 C   0  0  0  0  0  0  0  0  0  0  0  0
   -0.5573    1.8926    2.1055 O   0  0  0  0  0  0  0  0  0  0  0  0
    0.9561    0.2187    2.1106 N   0  0  0  0  0  0  0  0  0  0  0  0
    1.1468   -0.6780    1.6660 H   0  0  0  0  0  0  0  0  0  0  0  0
    1.2729    0.3568    3.5263 C   0  0  0  0  0  0  0  0  0  0  0  0
    0.3986    0.1152    4.1397 H   0  0  0  0  0  0  0  0  0  0  0  0
    2.0869   -0.3221    3.7981 H   0  0  0  0  0  0  0  0  0  0  0  0
    1.5898    1.3808    3.7511 H   0  0  0  0  0  0  0  0  0  0  0  0
  1  2  1  0  0  0  0
  2  3  1  0  0  0  0
  2  4  1  0  0  0  0
  2  5  1  0  0  0  0
  5  6  2  0  0  0  0
  5  7  1  0  0  0  0
  7  8  1  0  0  0  0
  7  9  1  0  0  0  0
  9 10  1  0  0  0  0
  9 11  1  0  0  0  0
  9 24  1  0  0  0  0
 11 12  1  0  0  0  0
 11 13  1  0  0  0  0
 11 14  1  0  0  0  0
 14 15  1  0  0  0  0
 14 16  1  0  0  0  0
 14 20  1  0  0  0  0
 16 17  1  0  0  0  0
 16 18  1  0  0  0  0
 16 19  1  0  0  0  0
 20 21  1  0  0  0  0
 20 22  1  0  0  0  0
 20 23  1  0  0  0  0
 24 25  2  0  0  0  0
 24 26  1  0  0  0  0
 26 27  1  0  0  0  0
 26 28  1  0  0  0  0
 28 29  1  0  0  0  0
 28 30  1  0  0  0  0
 28 31  1  0  0  0  0
M  END
$$$$

  -OEChem-01062216083D

 31 30  0     1  0  0  0  0  0999 V2000
   -3.2606   -2.7471    1.1681 H   0  0  0  0  0  0  0  0  0  0  0  0
   -3.2887   -1.7731    0.6719 C   0  0  0  0  0  0  0  0  0  0  0  0
   -3.8600   -1.0791    1.2933 H   0  0  0  0  0  0  0  0  0  0  0  0
   -3.7868   -1.8834   -0.2942 H   0  0  0  0  0  0  0  0  0  0  0  0
   -1.8801   -1.2479    0.4713 C   0  0  0  0  0  0  0  0  0  0  0  0
   -0.9186   -1.9194    0.8163 O   0  0  0  0  0  0  0  0  0  0  0  0
   -1.6813   -0.0138   -0.1151 N   0  0  0  0  0  0  0  0  0  0  0  0
   -2.5120    0.5627   -0.2125 H   0  0  0  0  0  0  0  0  0  0  0  0
   -0.3943    0.6879   -0.0009 C   0  0  1  0  0  0  0  0  0  0  0  0
    0.3987    0.0580   -0.4126 H   0  0  0  0  0  0  0  0  0  0  0  0
   -0.4630    2.0075   -0.7953 C   0  0  0  0  0  0  0  0  0  0  0  0
   -1.3091    2.5959   -0.4239 H   0  0  0  0  0  0  0  0  0  0  0  0
    0.4449    2.5875   -0.5961 H   0  0  0  0  0  0  0  0  0  0  0  0
   -0.6066    1.8184   -2.3217 C   0  0  0  0  0  0  0  0  0  0  0  0
   -1.4866    1.2011   -2.5306 H   0  0  0  0  0  0  0  0  0  0  0  0
   -0.8145    3.1871   -2.9806 C   0  0  0  0  0  0  0  0  0  0  0  0
    0.0481    3.8370   -2.8022 H   0  0  0  0  0  0  0  0  0  0  0  0
   -0.9474    3.0752   -4.0613 H   0  0  0  0  0  0  0  0  0  0  0  0
   -1.7067    3.6751   -2.5759 H   0  0  0  0  0  0  0  0  0  0  0  0
    0.6246    1.1421   -2.9421 C   0  0  0  0  0  0  0  0  0  0  0  0
    0.7125    0.1056   -2.6046 H   0  0  0  0  0  0  0  0  0  0  0  0
    0.5424    1.1305   -4.0336 H   0  0  0  0  0  0  0  0  0  0  0  0
    1.5388    1.6790   -2.6697 H   0  0  0  0  0  0  0  0  0  0  0  0
   -0.0346    0.9766    1.4745 C   0  0  0  0  0  0  0  0  0  0  0  0
   -0.7528    1.7081    2.1474 O   0  0  0  0  0  0  0  0  0  0  0  0
    1.1239    0.4600    2.0238 N   0  0  0  0  0  0  0  0  0  0  0  0
    1.5542   -0.3049    1.5100 H   0  0  0  0  0  0  0  0  0  0  0  0
    1.4549    0.6104    3.4351 C   0  0  0  0  0  0  0  0  0  0  0  0
    0.6927    0.1330    4.0598 H   0  0  0  0  0  0  0  0  0  0  0  0
    2.4214    0.1437    3.6479 H   0  0  0  0  0  0  0  0  0  0  0  0
    1.5183    1.6702    3.7038 H   0  0  0  0  0  0  0  0  0  0  0  0
  1  2  1  0  0  0  0
  2  3  1  0  0  0  0
  2  4  1  0  0  0  0
  2  5  1  0  0  0  0
  5  6  2  0  0  0  0
  5  7  1  0  0  0  0
  7  8  1  0  0  0  0
  7  9  1  0  0  0  0
  9 10  1  0  0  0  0
  9 11  1  0  0  0  0
  9 24  1  0  0  0  0
 11 12  1  0  0  0  0
 11 13  1  0  0  0  0
 11 14  1  0  0  0  0
 14 15  1  0  0  0  0
 14 16  1  0  0  0  0
 14 20  1  0  0  0  0
 16 17  1  0  0  0  0
 16 18  1  0  0  0  0
 16 19  1  0  0  0  0
 20 21  1  0  0  0  0
 20 22  1  0  0  0  0
 20 23  1  0  0  0  0
 24 25  2  0  0  0  0
 24 26  1  0  0  0  0
 26 27  1  0  0  0  0
 26 28  1  0  0  0  0
 28 29  1  0  0  0  0
 28 30  1  0  0  0  0
 28 31  1  0  0  0  0
M  END
$$$$

  -OEChem-01062216083D

 31 30  0     1  0  0  0  0  0999 V2000
   -3.2556   -2.7432    1.1855 H   0  0  0  0  0  0  0  0  0  0  0  0
   -3.2883   -1.7641    0.6996 C   0  0  0  0  0  0  0  0  0  0  0  0
   -3.8260   -1.0679    1.3480 H   0  0  0  0  0  0  0  0  0  0  0  0
   -3.8233   -1.8578   -0.2483 H   0  0  0  0  0  0  0  0  0  0  0  0
   -1.8807   -1.2557    0.4530 C   0  0  0  0  0  0  0  0  0  0  0  0
   -0.9164   -1.9390    0.7651 O   0  0  0  0  0  0  0  0  0  0  0  0
   -1.6877   -0.0230   -0.1382 N   0  0  0  0  0  0  0  0  0  0  0  0
   -2.5189    0.5577   -0.1984 H   0  0  0  0  0  0  0  0  0  0  0  0
   -0.4021    0.6802   -0.0122 C   0  0  1  0  0  0  0  0  0  0  0  0
    0.3942    0.0503   -0.4176 H   0  0  0  0  0  0  0  0  0  0  0  0
   -0.4678    2.0024   -0.8002 C   0  0  0  0  0  0  0  0  0  0  0  0
   -1.3173    2.5873   -0.4306 H   0  0  0  0  0  0  0  0  0  0  0  0
    0.4380    2.5832   -0.5938 H   0  0  0  0  0  0  0  0  0  0  0  0
   -0.6014    1.8181   -2.3277 C   0  0  0  0  0  0  0  0  0  0  0  0
   -1.4791    1.2000   -2.5439 H   0  0  0  0  0  0  0  0  0  0  0  0
   -0.8074    3.1883   -2.9834 C   0  0  0  0  0  0  0  0  0  0  0  0
    0.0513    3.8406   -2.7950 H   0  0  0  0  0  0  0  0  0  0  0  0
   -0.9301    3.0792   -4.0655 H   0  0  0  0  0  0  0  0  0  0  0  0
   -1.7051    3.6714   -2.5851 H   0  0  0  0  0  0  0  0  0  0  0  0
    0.6342    1.1453   -2.9427 C   0  0  0  0  0  0  0  0  0  0  0  0
    0.7214    0.1081   -2.6074 H   0  0  0  0  0  0  0  0  0  0  0  0
    0.5574    1.1361   -4.0344 H   0  0  0  0  0  0  0  0  0  0  0  0
    1.5462    1.6828   -2.6642 H   0  0  0  0  0  0  0  0  0  0  0  0
   -0.0540    0.9746    1.4647 C   0  0  0  0  0  0  0  0  0  0  0  0
   -0.8893    1.4984    2.1944 O   0  0  0  0  0  0  0  0  0  0  0  0
    1.2203    0.7370    1.9455 N   0  0  0  0  0  0  0  0  0  0  0  0
    1.8230    0.1603    1.3653 H   0  0  0  0  0  0  0  0  0  0  0  0
    1.5769    0.9183    3.3472 C   0  0  0  0  0  0  0  0  0  0  0  0
    0.9768    0.2584    3.9827 H   0  0  0  0  0  0  0  0  0  0  0  0
    2.6340    0.6824    3.5020 H   0  0  0  0  0  0  0  0  0  0  0  0
    1.4071    1.9552    3.6557 H   0  0  0  0  0  0  0  0  0  0  0  0
  1  2  1  0  0  0  0
  2  3  1  0  0  0  0
  2  4  1  0  0  0  0
  2  5  1  0  0  0  0
  5  6  2  0  0  0  0
  5  7  1  0  0  0  0
  7  8  1  0  0  0  0
  7  9  1  0  0  0  0
  9 10  1  0  0  0  0
  9 11  1  0  0  0  0
  9 24  1  0  0  0  0
 11 12  1  0  0  0  0
 11 13  1  0  0  0  0
 11 14  1  0  0  0  0
 14 15  1  0  0  0  0
 14 16  1  0  0  0  0
 14 20  1  0  0  0  0
 16 17  1  0  0  0  0
 16 18  1  0  0  0  0
 16 19  1  0  0  0  0
 20 21  1  0  0  0  0
 20 22  1  0  0  0  0
 20 23  1  0  0  0  0
 24 25  2  0  0  0  0
 24 26  1  0  0  0  0
 26 27  1  0  0  0  0
 26 28  1  0  0  0  0
 28 29  1  0  0  0  0
 28 30  1  0  0  0  0
 28 31  1  0  0  0  0
M  END
$$$$

  -OEChem-01062216083D

 31 30  0     1  0  0  0  0  0999 V2000
   -3.2760   -2.7349    1.1964 H   0  0  0  0  0  0  0  0  0  0  0  0
   -3.3069   -1.7665    0.6895 C   0  0  0  0  0  0  0  0  0  0  0  0
   -3.8440   -1.0557    1.3226 H   0  0  0  0  0  0  0  0  0  0  0  0
   -3.8410   -1.8797   -0.2567 H   0  0  0  0  0  0  0  0  0  0  0  0
   -1.8979   -1.2672    0.4335 C   0  0  0  0  0  0  0  0  0  0  0  0
   -0.9371   -1.9667    0.7189 O   0  0  0  0  0  0  0  0  0  0  0  0
   -1.7002   -0.0323   -0.1521 N   0  0  0  0  0  0  0  0  0  0  0  0
   -2.5291    0.5531   -0.1926 H   0  0  0  0  0  0  0  0  0  0  0  0
   -0.4135    0.6668   -0.0089 C   0  0  1  0  0  0  0  0  0  0  0  0
    0.3846    0.0358   -0.4095 H   0  0  0  0  0  0  0  0  0  0  0  0
   -0.4749    1.9930   -0.7897 C   0  0  0  0  0  0  0  0  0  0  0  0
   -1.3275    2.5747   -0.4225 H   0  0  0  0  0  0  0  0  0  0  0  0
    0.4288    2.5744   -0.5758 H   0  0  0  0  0  0  0  0  0  0  0  0
   -0.5973    1.8151   -2.3186 C   0  0  0  0  0  0  0  0  0  0  0  0
   -1.4733    1.1975   -2.5437 H   0  0  0  0  0  0  0  0  0  0  0  0
   -0.8001    3.1881   -2.9694 C   0  0  0  0  0  0  0  0  0  0  0  0
    0.0561    3.8406   -2.7714 H   0  0  0  0  0  0  0  0  0  0  0  0
   -0.9146    3.0838   -4.0529 H   0  0  0  0  0  0  0  0  0  0  0  0
   -1.7015    3.6681   -2.5753 H   0  0  0  0  0  0  0  0  0  0  0  0
    0.6430    1.1444   -2.9267 C   0  0  0  0  0  0  0  0  0  0  0  0
    0.7301    0.1073   -2.5911 H   0  0  0  0  0  0  0  0  0  0  0  0
    0.5725    1.1352   -4.0189 H   0  0  0  0  0  0  0  0  0  0  0  0
    1.5525    1.6832   -2.6430 H   0  0  0  0  0  0  0  0  0  0  0  0
   -0.0675    0.9612    1.4691 C   0  0  0  0  0  0  0  0  0  0  0  0
   -0.9540    1.2822    2.2538 O   0  0  0  0  0  0  0  0  0  0  0  0
    1.2525    1.0175    1.8777 N   0  0  0  0  0  0  0  0  0  0  0  0
    1.9498    0.6524    1.2358 H   0  0  0  0  0  0  0  0  0  0  0  0
    1.6430    1.2817    3.2568 C   0  0  0  0  0  0  0  0  0  0  0  0
    1.2380    0.5127    3.9229 H   0  0  0  0  0  0  0  0  0  0  0  0
    2.7334    1.2809    3.3477 H   0  0  0  0  0  0  0  0  0  0  0  0
    1.2710    2.2596    3.5800 H   0  0  0  0  0  0  0  0  0  0  0  0
  1  2  1  0  0  0  0
  2  3  1  0  0  0  0
  2  4  1  0  0  0  0
  2  5  1  0  0  0  0
  5  6  2  0  0  0  0
  5  7  1  0  0  0  0
  7  8  1  0  0  0  0
  7  9  1  0  0  0  0
  9 10  1  0  0  0  0
  9 11  1  0  0  0  0
  9 24  1  0  0  0  0
 11 12  1  0  0  0  0
 11 13  1  0  0  0  0
 11 14  1  0  0  0  0
 14 15  1  0  0  0  0
 14 16  1  0  0  0  0
 14 20  1  0  0  0  0
 16 17  1  0  0  0  0
 16 18  1  0  0  0  0
 16 19  1  0  0  0  0
 20 21  1  0  0  0  0
 20 22  1  0  0  0  0
 20 23  1  0  0  0  0
 24 25  2  0  0  0  0
 24 26  1  0  0  0  0
 26 27  1  0  0  0  0
 26 28  1  0  0  0  0
 28 29  1  0  0  0  0
 28 30  1  0  0  0  0
 28 31  1  0  0  0  0
M  END
$$$$

  -OEChem-01062216083D

 31 30  0     1  0  0  0  0  0999 V2000
   -3.2813   -2.7498    1.1629 H   0  0  0  0  0  0  0  0  0  0  0  0
   -3.3121   -1.7599    0.6993 C   0  0  0  0  0  0  0  0  0  0  0  0
   -3.8106   -1.0678    1.3826 H   0  0  0  0  0  0  0  0  0  0  0  0
   -3.8831   -1.8221   -0.2300 H   0  0  0  0  0  0  0  0  0  0  0  0
   -1.9040   -1.2743    0.4134 C   0  0  0  0  0  0  0  0  0  0  0  0
   -0.9452   -1.9905    0.6616 O   0  0  0  0  0  0  0  0  0  0  0  0
   -1.7066   -0.0353   -0.1645 N   0  0  0  0  0  0  0  0  0  0  0  0
   -2.5350    0.5514   -0.1853 H   0  0  0  0  0  0  0  0  0  0  0  0
   -0.4203    0.6623   -0.0049 C   0  0  1  0  0  0  0  0  0  0  0  0
    0.3813    0.0332   -0.4017 H   0  0  0  0  0  0  0  0  0  0  0  0
   -0.4829    1.9885   -0.7882 C   0  0  0  0  0  0  0  0  0  0  0  0
   -1.3417    2.5649   -0.4272 H   0  0  0  0  0  0  0  0  0  0  0  0
    0.4143    2.5770   -0.5700 H   0  0  0  0  0  0  0  0  0  0  0  0
   -0.5924    1.8098   -2.3187 C   0  0  0  0  0  0  0  0  0  0  0  0
   -1.4629    1.1875   -2.5509 H   0  0  0  0  0  0  0  0  0  0  0  0
   -0.7974    3.1811   -2.9729 C   0  0  0  0  0  0  0  0  0  0  0  0
    0.0572    3.8358   -2.7750 H   0  0  0  0  0  0  0  0  0  0  0  0
   -0.9094    3.0745   -4.0564 H   0  0  0  0  0  0  0  0  0  0  0  0
   -1.7007    3.6600   -2.5823 H   0  0  0  0  0  0  0  0  0  0  0  0
    0.6559    1.1462   -2.9180 C   0  0  0  0  0  0  0  0  0  0  0  0
    0.7411    0.1071   -2.5882 H   0  0  0  0  0  0  0  0  0  0  0  0
    0.5970    1.1440   -4.0110 H   0  0  0  0  0  0  0  0  0  0  0  0
    1.5613    1.6851   -2.6214 H   0  0  0  0  0  0  0  0  0  0  0  0
   -0.0754    0.9535    1.4768 C   0  0  0  0  0  0  0  0  0  0  0  0
   -0.9668    1.0543    2.3137 O   0  0  0  0  0  0  0  0  0  0  0  0
    1.2137    1.3114    1.8304 N   0  0  0  0  0  0  0  0  0  0  0  0
    1.9414    1.1753    1.1352 H   0  0  0  0  0  0  0  0  0  0  0  0
    1.6031    1.6301    3.1989 C   0  0  0  0  0  0  0  0  0  0  0  0
    1.4128    0.7774    3.8594 H   0  0  0  0  0  0  0  0  0  0  0  0
    2.6696    1.8710    3.2424 H   0  0  0  0  0  0  0  0  0  0  0  0
    1.0392    2.4937    3.5668 H   0  0  0  0  0  0  0  0  0  0  0  0
  1  2  1  0  0  0  0
  2  3  1  0  0  0  0
  2  4  1  0  0  0  0
  2  5  1  0  0  0  0
  5  6  2  0  0  0  0
  5  7  1  0  0  0  0
  7  8  1  0  0  0  0
  7  9  1  0  0  0  0
  9 10  1  0  0  0  0
  9 11  1  0  0  0  0
  9 24  1  0  0  0  0
 11 12  1  0  0  0  0
 11 13  1  0  0  0  0
 11 14  1  0  0  0  0
 14 15  1  0  0  0  0
 14 16  1  0  0  0  0
 14 20  1  0  0  0  0
 16 17  1  0  0  0  0
 16 18  1  0  0  0  0
 16 19  1  0  0  0  0
 20 21  1  0  0  0  0
 20 22  1  0  0  0  0
 20 23  1  0  0  0  0
 24 25  2  0  0  0  0
 24 26  1  0  0  0  0
 26 27  1  0  0  0  0
 26 28  1  0  0  0  0
 28 29  1  0  0  0  0
 28 30  1  0  0  0  0
 28 31  1  0  0  0  0
M  END
$$$$

  -OEChem-01062216083D

 31 30  0     1  0  0  0  0  0999 V2000
   -3.3257   -2.7732    1.0516 H   0  0  0  0  0  0  0  0  0  0  0  0
   -3.3358   -1.7483    0.6708 C   0  0  0  0  0  0  0  0  0  0  0  0
   -3.7563   -1.0937    1.4383 H   0  0  0  0  0  0  0  0  0  0  0  0
   -3.9647   -1.7086   -0.2214 H   0  0  0  0  0  0  0  0  0  0  0  0
   -1.9250   -1.3049    0.3339 C   0  0  0  0  0  0  0  0  0  0  0  0
   -0.9938   -2.0907    0.4288 O   0  0  0  0  0  0  0  0  0  0  0  0
   -1.7016   -0.0480   -0.1964 N   0  0  0  0  0  0  0  0  0  0  0  0
   -2.5248    0.5451   -0.1925 H   0  0  0  0  0  0  0  0  0  0  0  0
   -0.4158    0.6459    0.0095 C   0  0  1  0  0  0  0  0  0  0  0  0
    0.3418    0.1627   -0.6130 H   0  0  0  0  0  0  0  0  0  0  0  0
   -0.6135    2.1128   -0.4335 C   0  0  0  0  0  0  0  0  0  0  0  0
   -1.4481    2.5377    0.1350 H   0  0  0  0  0  0  0  0  0  0  0  0
    0.2772    2.6959   -0.1784 H   0  0  0  0  0  0  0  0  0  0  0  0
   -0.8808    2.2838   -1.9457 C   0  0  0  0  0  0  0  0  0  0  0  0
   -1.7459    1.6784   -2.2361 H   0  0  0  0  0  0  0  0  0  0  0  0
   -1.2072    3.7536   -2.2347 C   0  0  0  0  0  0  0  0  0  0  0  0
   -0.3627    4.3978   -1.9694 H   0  0  0  0  0  0  0  0  0  0  0  0
   -1.4301    3.8929   -3.2973 H   0  0  0  0  0  0  0  0  0  0  0  0
   -2.0818    4.0715   -1.6583 H   0  0  0  0  0  0  0  0  0  0  0  0
    0.3234    1.8590   -2.7991 C   0  0  0  0  0  0  0  0  0  0  0  0
    0.4893    0.7803   -2.7316 H   0  0  0  0  0  0  0  0  0  0  0  0
    0.1477    2.1024   -3.8516 H   0  0  0  0  0  0  0  0  0  0  0  0
    1.2312    2.3753   -2.4716 H   0  0  0  0  0  0  0  0  0  0  0  0
    0.1326    0.6060    1.4648 C   0  0  0  0  0  0  0  0  0  0  0  0
   -0.6032    0.3356    2.4083 O   0  0  0  0  0  0  0  0  0  0  0  0
    1.3370    1.2241    1.7582 N   0  0  0  0  0  0  0  0  0  0  0  0
    1.9416    1.4576    0.9769 H   0  0  0  0  0  0  0  0  0  0  0  0
    1.8633    1.3509    3.1125 C   0  0  0  0  0  0  0  0  0  0  0  0
    1.9638    0.3647    3.5780 H   0  0  0  0  0  0  0  0  0  0  0  0
    2.8488    1.8259    3.0922 H   0  0  0  0  0  0  0  0  0  0  0  0
    1.1967    1.9649    3.7272 H   0  0  0  0  0  0  0  0  0  0  0  0
  1  2  1  0  0  0  0
  2  3  1  0  0  0  0
  2  4  1  0  0  0  0
  2  5  1  0  0  0  0
  5  6  2  0  0  0  0
  5  7  1  0  0  0  0
  7  8  1  0  0  0  0
  7  9  1  0  0  0  0
  9 10  1  0  0  0  0
  9 11  1  0  0  0  0
  9 24  1  0  0  0  0
 11 12  1  0  0  0  0
 11 13  1  0  0  0  0
 11 14  1  0  0  0  0
 14 15  1  0  0  0  0
 14 16  1  0  0  0  0
 14 20  1  0  0  0  0
 16 17  1  0  0  0  0
 16 18  1  0  0  0  0
 16 19  1  0  0  0  0
 20 21  1  0  0  0  0
 20 22  1  0  0  0  0
 20 23  1  0  0  0  0
 24 25  2  0  0  0  0
 24 26  1  0  0  0  0
 26 27  1  0  0  0  0
 26 28  1  0  0  0  0
 28 29  1  0  0  0  0
 28 30  1  0  0  0  0
 28 31  1  0  0  0  0
M  END
$$$$

  -OEChem-01062216083D

 31 30  0     1  0  0  0  0  0999 V2000
   -3.3374   -2.7760    0.9979 H   0  0  0  0  0  0  0  0  0  0  0  0
   -3.3352   -1.7308    0.6763 C   0  0  0  0  0  0  0  0  0  0  0  0
   -3.7123   -1.1119    1.4942 H   0  0  0  0  0  0  0  0  0  0  0  0
   -3.9933   -1.6254   -0.1892 H   0  0  0  0  0  0  0  0  0  0  0  0
   -1.9263   -1.3011    0.3154 C   0  0  0  0  0  0  0  0  0  0  0  0
   -1.0107   -2.1097    0.3420 O   0  0  0  0  0  0  0  0  0  0  0  0
   -1.6955   -0.0360   -0.1915 N   0  0  0  0  0  0  0  0  0  0  0  0
   -2.5177    0.5578   -0.1761 H   0  0  0  0  0  0  0  0  0  0  0  0
   -0.4102    0.6585    0.0253 C   0  0  1  0  0  0  0  0  0  0  0  0
    0.3483    0.1790   -0.5989 H   0  0  0  0  0  0  0  0  0  0  0  0
   -0.6243    2.1208   -0.4355 C   0  0  0  0  0  0  0  0  0  0  0  0
   -1.4669    2.5418    0.1238 H   0  0  0  0  0  0  0  0  0  0  0  0
    0.2559    2.7223   -0.1898 H   0  0  0  0  0  0  0  0  0  0  0  0
   -0.8829    2.2729   -1.9521 C   0  0  0  0  0  0  0  0  0  0  0  0
   -1.7383    1.6538   -2.2422 H   0  0  0  0  0  0  0  0  0  0  0  0
   -1.2265    3.7353   -2.2589 C   0  0  0  0  0  0  0  0  0  0  0  0
   -0.3915    4.3930   -1.9973 H   0  0  0  0  0  0  0  0  0  0  0  0
   -1.4462    3.8599   -3.3238 H   0  0  0  0  0  0  0  0  0  0  0  0
   -2.1076    4.0484   -1.6903 H   0  0  0  0  0  0  0  0  0  0  0  0
    0.3308    1.8543   -2.7951 C   0  0  0  0  0  0  0  0  0  0  0  0
    0.5127    0.7792   -2.7125 H   0  0  0  0  0  0  0  0  0  0  0  0
    0.1547    2.0800   -3.8516 H   0  0  0  0  0  0  0  0  0  0  0  0
    1.2297    2.3888   -2.4723 H   0  0  0  0  0  0  0  0  0  0  0  0
    0.1568    0.6116    1.4793 C   0  0  0  0  0  0  0  0  0  0  0  0
   -0.4714    0.0978    2.3978 O   0  0  0  0  0  0  0  0  0  0  0  0
    1.1780    1.4733    1.8484 N   0  0  0  0  0  0  0  0  0  0  0  0
    1.6918    1.9309    1.1023 H   0  0  0  0  0  0  0  0  0  0  0  0
    1.6656    1.6085    3.2168 C   0  0  0  0  0  0  0  0  0  0  0  0
    1.9877    0.6372    3.6071 H   0  0  0  0  0  0  0  0  0  0  0  0
    2.5185    2.2932    3.2481 H   0  0  0  0  0  0  0  0  0  0  0  0
    0.8792    2.0063    3.8668 H   0  0  0  0  0  0  0  0  0  0  0  0
  1  2  1  0  0  0  0
  2  3  1  0  0  0  0
  2  4  1  0  0  0  0
  2  5  1  0  0  0  0
  5  6  2  0  0  0  0
  5  7  1  0  0  0  0
  7  8  1  0  0  0  0
  7  9  1  0  0  0  0
  9 10  1  0  0  0  0
  9 11  1  0  0  0  0
  9 24  1  0  0  0  0
 11 12  1  0  0  0  0
 11 13  1  0  0  0  0
 11 14  1  0  0  0  0
 14 15  1  0  0  0  0
 14 16  1  0  0  0  0
 14 20  1  0  0  0  0
 16 17  1  0  0  0  0
 16 18  1  0  0  0  0
 16 19  1  0  0  0  0
 20 21  1  0  0  0  0
 20 22  1  0  0  0  0
 20 23  1  0  0  0  0
 24 25  2  0  0  0  0
 24 26  1  0  0  0  0
 26 27  1  0  0  0  0
 26 28  1  0  0  0  0
 28 29  1  0  0  0  0
 28 30  1  0  0  0  0
 28 31  1  0  0  0  0
M  END
$$$$

  -OEChem-01062216083D

 31 30  0     1  0  0  0  0  0999 V2000
   -3.3362   -2.7616    1.0062 H   0  0  0  0  0  0  0  0  0  0  0  0
   -3.3303   -1.7131    0.6957 C   0  0  0  0  0  0  0  0  0  0  0  0
   -3.6801   -1.0992    1.5292 H   0  0  0  0  0  0  0  0  0  0  0  0
   -4.0082   -1.5912   -0.1522 H   0  0  0  0  0  0  0  0  0  0  0  0
   -1.9256   -1.2960    0.3040 C   0  0  0  0  0  0  0  0  0  0  0  0
   -1.0321   -2.1266    0.2490 O   0  0  0  0  0  0  0  0  0  0  0  0
   -1.6916   -0.0235   -0.1822 N   0  0  0  0  0  0  0  0  0  0  0  0
   -2.5155    0.5672   -0.1547 H   0  0  0  0  0  0  0  0  0  0  0  0
   -0.4108    0.6807    0.0379 C   0  0  1  0  0  0  0  0  0  0  0  0
    0.3490    0.2024   -0.5859 H   0  0  0  0  0  0  0  0  0  0  0  0
   -0.6350    2.1359   -0.4451 C   0  0  0  0  0  0  0  0  0  0  0  0
   -1.4814    2.5606    0.1053 H   0  0  0  0  0  0  0  0  0  0  0  0
    0.2417    2.7464   -0.2126 H   0  0  0  0  0  0  0  0  0  0  0  0
   -0.8841    2.2655   -1.9653 C   0  0  0  0  0  0  0  0  0  0  0  0
   -1.7329    1.6362   -2.2529 H   0  0  0  0  0  0  0  0  0  0  0  0
   -1.2383    3.7210   -2.2922 C   0  0  0  0  0  0  0  0  0  0  0  0
   -0.4094    4.3887   -2.0358 H   0  0  0  0  0  0  0  0  0  0  0  0
   -1.4545    3.8304   -3.3597 H   0  0  0  0  0  0  0  0  0  0  0  0
   -2.1242    4.0346   -1.7312 H   0  0  0  0  0  0  0  0  0  0  0  0
    0.3375    1.8463   -2.7964 C   0  0  0  0  0  0  0  0  0  0  0  0
    0.5235    0.7726   -2.7041 H   0  0  0  0  0  0  0  0  0  0  0  0
    0.1680    2.0631   -3.8558 H   0  0  0  0  0  0  0  0  0  0  0  0
    1.2318    2.3871   -2.4715 H   0  0  0  0  0  0  0  0  0  0  0  0
    0.1737    0.6310    1.4896 C   0  0  0  0  0  0  0  0  0  0  0  0
   -0.2519   -0.1368    2.3426 O   0  0  0  0  0  0  0  0  0  0  0  0
    0.9524    1.6755    1.9656 N   0  0  0  0  0  0  0  0  0  0  0  0
    1.2970    2.3465    1.2871 H   0  0  0  0  0  0  0  0  0  0  0  0
    1.4056    1.7876    3.3482 C   0  0  0  0  0  0  0  0  0  0  0  0
    1.9944    0.9087    3.6314 H   0  0  0  0  0  0  0  0  0  0  0  0
    2.0313    2.6769    3.4699 H   0  0  0  0  0  0  0  0  0  0  0  0
    0.5499    1.8723    4.0263 H   0  0  0  0  0  0  0  0  0  0  0  0
  1  2  1  0  0  0  0
  2  3  1  0  0  0  0
  2  4  1  0  0  0  0
  2  5  1  0  0  0  0
  5  6  2  0  0  0  0
  5  7  1  0  0  0  0
  7  8  1  0  0  0  0
  7  9  1  0  0  0  0
  9 10  1  0  0  0  0
  9 11  1  0  0  0  0
  9 24  1  0  0  0  0
 11 12  1  0  0  0  0
 11 13  1  0  0  0  0
 11 14  1  0  0  0  0
 14 15  1  0  0  0  0
 14 16  1  0  0  0  0
 14 20  1  0  0  0  0
 16 17  1  0  0  0  0
 16 18  1  0  0  0  0
 16 19  1  0  0  0  0
 20 21  1  0  0  0  0
 20 22  1  0  0  0  0
 20 23  1  0  0  0  0
 24 25  2  0  0  0  0
 24 26  1  0  0  0  0
 26 27  1  0  0  0  0
 26 28  1  0  0  0  0
 28 29  1  0  0  0  0
 28 30  1  0  0  0  0
 28 31  1  0  0  0  0
M  END
$$$$

  -OEChem-01062216083D

 31 30  0     1  0  0  0  0  0999 V2000
   -3.3224   -2.7362    1.0612 H   0  0  0  0  0  0  0  0  0  0  0  0
   -3.3213   -1.6952    0.7264 C   0  0  0  0  0  0  0  0  0  0  0  0
   -3.6565   -1.0624    1.5516 H   0  0  0  0  0  0  0  0  0  0  0  0
   -4.0136   -1.5919   -0.1124 H   0  0  0  0  0  0  0  0  0  0  0  0
   -1.9234   -1.2888    0.3010 C   0  0  0  0  0  0  0  0  0  0  0  0
   -1.0508   -2.1338    0.1886 O   0  0  0  0  0  0  0  0  0  0  0  0
   -1.6937   -0.0122   -0.1752 N   0  0  0  0  0  0  0  0  0  0  0  0
   -2.5239    0.5698   -0.1527 H   0  0  0  0  0  0  0  0  0  0  0  0
   -0.4246    0.7121    0.0478 C   0  0  1  0  0  0  0  0  0  0  0  0
    0.3442    0.2354   -0.5661 H   0  0  0  0  0  0  0  0  0  0  0  0
   -0.6509    2.1584   -0.4582 C   0  0  0  0  0  0  0  0  0  0  0  0
   -1.5055    2.5890    0.0751 H   0  0  0  0  0  0  0  0  0  0  0  0
    0.2252    2.7709   -0.2251 H   0  0  0  0  0  0  0  0  0  0  0  0
   -0.8806    2.2634   -1.9839 C   0  0  0  0  0  0  0  0  0  0  0  0
   -1.7210    1.6234   -2.2729 H   0  0  0  0  0  0  0  0  0  0  0  0
   -1.2396    3.7111   -2.3389 C   0  0  0  0  0  0  0  0  0  0  0  0
   -0.4198    4.3884   -2.0792 H   0  0  0  0  0  0  0  0  0  0  0  0
   -1.4392    3.8028   -3.4113 H   0  0  0  0  0  0  0  0  0  0  0  0
   -2.1371    4.0264   -1.7976 H   0  0  0  0  0  0  0  0  0  0  0  0
    0.3551    1.8408   -2.7928 C   0  0  0  0  0  0  0  0  0  0  0  0
    0.5428    0.7686   -2.6887 H   0  0  0  0  0  0  0  0  0  0  0  0
    0.2018    2.0481   -3.8565 H   0  0  0  0  0  0  0  0  0  0  0  0
    1.2429    2.3869   -2.4587 H   0  0  0  0  0  0  0  0  0  0  0  0
    0.1558    0.6660    1.5009 C   0  0  0  0  0  0  0  0  0  0  0  0
    0.0605   -0.3153    2.2228 O   0  0  0  0  0  0  0  0  0  0  0  0
    0.6423    1.8147    2.1076 N   0  0  0  0  0  0  0  0  0  0  0  0
    0.7096    2.6531    1.5405 H   0  0  0  0  0  0  0  0  0  0  0  0
    1.1118    1.8656    3.4886 C   0  0  0  0  0  0  0  0  0  0  0  0
    1.9399    1.1649    3.6386 H   0  0  0  0  0  0  0  0  0  0  0  0
    1.4632    2.8728    3.7315 H   0  0  0  0  0  0  0  0  0  0  0  0
    0.3021    1.6064    4.1788 H   0  0  0  0  0  0  0  0  0  0  0  0
  1  2  1  0  0  0  0
  2  3  1  0  0  0  0
  2  4  1  0  0  0  0
  2  5  1  0  0  0  0
  5  6  2  0  0  0  0
  5  7  1  0  0  0  0
  7  8  1  0  0  0  0
  7  9  1  0  0  0  0
  9 10  1  0  0  0  0
  9 11  1  0  0  0  0
  9 24  1  0  0  0  0
 11 12  1  0  0  0  0
 11 13  1  0  0  0  0
 11 14  1  0  0  0  0
 14 15  1  0  0  0  0
 14 16  1  0  0  0  0
 14 20  1  0  0  0  0
 16 17  1  0  0  0  0
 16 18  1  0  0  0  0
 16 19  1  0  0  0  0
 20 21  1  0  0  0  0
 20 22  1  0  0  0  0
 20 23  1  0  0  0  0
 24 25  2  0  0  0  0
 24 26  1  0  0  0  0
 26 27  1  0  0  0  0
 26 28  1  0  0  0  0
 28 29  1  0  0  0  0
 28 30  1  0  0  0  0
 28 31  1  0  0  0  0
M  END
$$$$

  -OEChem-01062216083D

 31 30  0     1  0  0  0  0  0999 V2000
   -3.3796   -2.7415    1.0185 H   0  0  0  0  0  0  0  0  0  0  0  0
   -3.3656   -1.7065    0.6650 C   0  0  0  0  0  0  0  0  0  0  0  0
   -3.7715   -1.0637    1.4496 H   0  0  0  0  0  0  0  0  0  0  0  0
   -3.9938   -1.6292   -0.2254 H   0  0  0  0  0  0  0  0  0  0  0  0
   -1.9445   -1.2886    0.3372 C   0  0  0  0  0  0  0  0  0  0  0  0
   -1.0620   -2.1273    0.3194 O   0  0  0  0  0  0  0  0  0  0  0  0
   -1.7031   -0.0158   -0.1441 N   0  0  0  0  0  0  0  0  0  0  0  0
   -2.5380    0.5578   -0.1972 H   0  0  0  0  0  0  0  0  0  0  0  0
   -0.4422    0.7242    0.0727 C   0  0  1  0  0  0  0  0  0  0  0  0
    0.3334    0.2435   -0.5298 H   0  0  0  0  0  0  0  0  0  0  0  0
   -0.6591    2.1658   -0.4457 C   0  0  0  0  0  0  0  0  0  0  0  0
   -1.5178    2.6035    0.0745 H   0  0  0  0  0  0  0  0  0  0  0  0
    0.2203    2.7717   -0.2029 H   0  0  0  0  0  0  0  0  0  0  0  0
   -0.8771    2.2606   -1.9733 C   0  0  0  0  0  0  0  0  0  0  0  0
   -1.7171    1.6209   -2.2637 H   0  0  0  0  0  0  0  0  0  0  0  0
   -1.2279    3.7071   -2.3420 C   0  0  0  0  0  0  0  0  0  0  0  0
   -0.4077    4.3835   -2.0808 H   0  0  0  0  0  0  0  0  0  0  0  0
   -1.4178    3.7916   -3.4168 H   0  0  0  0  0  0  0  0  0  0  0  0
   -2.1285    4.0304   -1.8108 H   0  0  0  0  0  0  0  0  0  0  0  0
    0.3635    1.8279   -2.7692 C   0  0  0  0  0  0  0  0  0  0  0  0
    0.5502    0.7569   -2.6516 H   0  0  0  0  0  0  0  0  0  0  0  0
    0.2175    2.0230   -3.8363 H   0  0  0  0  0  0  0  0  0  0  0  0
    1.2493    2.3774   -2.4354 H   0  0  0  0  0  0  0  0  0  0  0  0
    0.1247    0.6933    1.5267 C   0  0  0  0  0  0  0  0  0  0  0  0
    0.4383   -0.3436    2.0887 O   0  0  0  0  0  0  0  0  0  0  0  0
    0.3039    1.8665    2.2447 N   0  0  0  0  0  0  0  0  0  0  0  0
    0.0630    2.7392    1.7871 H   0  0  0  0  0  0  0  0  0  0  0  0
    0.8448    1.9098    3.5991 C   0  0  0  0  0  0  0  0  0  0  0  0
    1.8579    1.4943    3.6205 H   0  0  0  0  0  0  0  0  0  0  0  0
    0.8872    2.9428    3.9570 H   0  0  0  0  0  0  0  0  0  0  0  0
    0.2131    1.3329    4.2829 H   0  0  0  0  0  0  0  0  0  0  0  0
  1  2  1  0  0  0  0
  2  3  1  0  0  0  0
  2  4  1  0  0  0  0
  2  5  1  0  0  0  0
  5  6  2  0  0  0  0
  5  7  1  0  0  0  0
  7  8  1  0  0  0  0
  7  9  1  0  0  0  0
  9 10  1  0  0  0  0
  9 11  1  0  0  0  0
  9 24  1  0  0  0  0
 11 12  1  0  0  0  0
 11 13  1  0  0  0  0
 11 14  1  0  0  0  0
 14 15  1  0  0  0  0
 14 16  1  0  0  0  0
 14 20  1  0  0  0  0
 16 17  1  0  0  0  0
 16 18  1  0  0  0  0
 16 19  1  0  0  0  0
 20 21  1  0  0  0  0
 20 22  1  0  0  0  0
 20 23  1  0  0  0  0
 24 25  2  0  0  0  0
 24 26  1  0  0  0  0
 26 27  1  0  0  0  0
 26 28  1  0  0  0  0
 28 29  1  0  0  0  0
 28 30  1  0  0  0  0
 28 31  1  0  0  0  0
M  END
$$$$

  -OEChem-01062216083D

 31 30  0     1  0  0  0  0  0999 V2000
   -3.5789   -2.7704    0.7508 H   0  0  0  0  0  0  0  0  0  0  0  0
   -3.4817   -1.7727    0.3127 C   0  0  0  0  0  0  0  0  0  0  0  0
   -4.1824   -1.1008    0.8137 H   0  0  0  0  0  0  0  0  0  0  0  0
   -3.7333   -1.8288   -0.7489 H   0  0  0  0  0  0  0  0  0  0  0  0
   -2.0621   -1.2639    0.4828 C   0  0  0  0  0  0  0  0  0  0  0  0
   -1.2368   -1.9842    1.0076 O   0  0  0  0  0  0  0  0  0  0  0  0
   -1.7374   -0.0138   -0.0102 N   0  0  0  0  0  0  0  0  0  0  0  0
   -2.4949    0.4850   -0.4647 H   0  0  0  0  0  0  0  0  0  0  0  0
   -0.4614    0.7112    0.1631 C   0  0  1  0  0  0  0  0  0  0  0  0
    0.2926    0.2076   -0.4489 H   0  0  0  0  0  0  0  0  0  0  0  0
   -0.6629    2.1490   -0.3681 C   0  0  0  0  0  0  0  0  0  0  0  0
   -1.5050    2.6063    0.1621 H   0  0  0  0  0  0  0  0  0  0  0  0
    0.2316    2.7399   -0.1403 H   0  0  0  0  0  0  0  0  0  0  0  0
   -0.9152    2.2344   -1.8906 C   0  0  0  0  0  0  0  0  0  0  0  0
   -1.7723    1.6082   -2.1584 H   0  0  0  0  0  0  0  0  0  0  0  0
   -1.2464    3.6843   -2.2633 C   0  0  0  0  0  0  0  0  0  0  0  0
   -0.4083    4.3466   -2.0235 H   0  0  0  0  0  0  0  0  0  0  0  0
   -1.4562    3.7643   -3.3346 H   0  0  0  0  0  0  0  0  0  0  0  0
   -2.1297    4.0284   -1.7163 H   0  0  0  0  0  0  0  0  0  0  0  0
    0.3014    1.7744   -2.7075 C   0  0  0  0  0  0  0  0  0  0  0  0
    0.4724    0.7013   -2.5853 H   0  0  0  0  0  0  0  0  0  0  0  0
    0.1383    1.9650   -3.7729 H   0  0  0  0  0  0  0  0  0  0  0  0
    1.2029    2.3108   -2.3945 H   0  0  0  0  0  0  0  0  0  0  0  0
    0.1356    0.7127    1.6002 C   0  0  0  0  0  0  0  0  0  0  0  0
    0.9322   -0.1487    1.9427 O   0  0  0  0  0  0  0  0  0  0  0  0
    0.0607    1.8451    2.3977 N   0  0  0  0  0  0  0  0  0  0  0  0
   -0.5571    2.5902    2.0952 H   0  0  0  0  0  0  0  0  0  0  0  0
    0.7453    1.9750    3.6792 C   0  0  0  0  0  0  0  0  0  0  0  0
    1.8301    1.9201    3.5406 H   0  0  0  0  0  0  0  0  0  0  0  0
    0.5041    2.9369    4.1415 H   0  0  0  0  0  0  0  0  0  0  0  0
    0.4365    1.1762    4.3618 H   0  0  0  0  0  0  0  0  0  0  0  0
  1  2  1  0  0  0  0
  2  3  1  0  0  0  0
  2  4  1  0  0  0  0
  2  5  1  0  0  0  0
  5  6  2  0  0  0  0
  5  7  1  0  0  0  0
  7  8  1  0  0  0  0
  7  9  1  0  0  0  0
  9 10  1  0  0  0  0
  9 11  1  0  0  0  0
  9 24  1  0  0  0  0
 11 12  1  0  0  0  0
 11 13  1  0  0  0  0
 11 14  1  0  0  0  0
 14 15  1  0  0  0  0
 14 16  1  0  0  0  0
 14 20  1  0  0  0  0
 16 17  1  0  0  0  0
 16 18  1  0  0  0  0
 16 19  1  0  0  0  0
 20 21  1  0  0  0  0
 20 22  1  0  0  0  0
 20 23  1  0  0  0  0
 24 25  2  0  0  0  0
 24 26  1  0  0  0  0
 26 27  1  0  0  0  0
 26 28  1  0  0  0  0
 28 29  1  0  0  0  0
 28 30  1  0  0  0  0
 28 31  1  0  0  0  0
M  END
$$$$

  -OEChem-01062216083D

 31 30  0     1  0  0  0  0  0999 V2000
   -3.5590   -2.8124    0.6885 H   0  0  0  0  0  0  0  0  0  0  0  0
   -3.4660   -1.8189    0.2403 C   0  0  0  0  0  0  0  0  0  0  0  0
   -4.2443   -1.1730    0.6532 H   0  0  0  0  0  0  0  0  0  0  0  0
   -3.6071   -1.9069   -0.8395 H   0  0  0  0  0  0  0  0  0  0  0  0
   -2.0970   -1.2372    0.5404 C   0  0  0  0  0  0  0  0  0  0  0  0
   -1.3196   -1.8731    1.2252 O   0  0  0  0  0  0  0  0  0  0  0  0
   -1.7667    0.0007    0.0212 N   0  0  0  0  0  0  0  0  0  0  0  0
   -2.4623    0.4245   -0.5838 H   0  0  0  0  0  0  0  0  0  0  0  0
   -0.4760    0.7031    0.1672 C   0  0  1  0  0  0  0  0  0  0  0  0
    0.2592    0.1838   -0.4541 H   0  0  0  0  0  0  0  0  0  0  0  0
   -0.6499    2.1467   -0.3537 C   0  0  0  0  0  0  0  0  0  0  0  0
   -1.4715    2.6220    0.1922 H   0  0  0  0  0  0  0  0  0  0  0  0
    0.2618    2.7134   -0.1326 H   0  0  0  0  0  0  0  0  0  0  0  0
   -0.9282    2.2466   -1.8702 C   0  0  0  0  0  0  0  0  0  0  0  0
   -1.8068    1.6455   -2.1247 H   0  0  0  0  0  0  0  0  0  0  0  0
   -1.2278    3.7073   -2.2278 C   0  0  0  0  0  0  0  0  0  0  0  0
   -0.3713    4.3467   -1.9907 H   0  0  0  0  0  0  0  0  0  0  0  0
   -1.4466    3.8029   -3.2961 H   0  0  0  0  0  0  0  0  0  0  0  0
   -2.0966    4.0679   -1.6683 H   0  0  0  0  0  0  0  0  0  0  0  0
    0.2608    1.7572   -2.7103 C   0  0  0  0  0  0  0  0  0  0  0  0
    0.4070    0.6800   -2.5922 H   0  0  0  0  0  0  0  0  0  0  0  0
    0.0834    1.9535   -3.7723 H   0  0  0  0  0  0  0  0  0  0  0  0
    1.1812    2.2699   -2.4128 H   0  0  0  0  0  0  0  0  0  0  0  0
    0.1340    0.7066    1.5943 C   0  0  0  0  0  0  0  0  0  0  0  0
    1.1167    0.0188    1.8352 O   0  0  0  0  0  0  0  0  0  0  0  0
   -0.1742    1.7200    2.4879 N   0  0  0  0  0  0  0  0  0  0  0  0
   -0.9890    2.2870    2.2805 H   0  0  0  0  0  0  0  0  0  0  0  0
    0.4734    1.8663    3.7857 C   0  0  0  0  0  0  0  0  0  0  0  0
    1.5491    2.0281    3.6605 H   0  0  0  0  0  0  0  0  0  0  0  0
    0.0561    2.7238    4.3218 H   0  0  0  0  0  0  0  0  0  0  0  0
    0.3201    0.9682    4.3934 H   0  0  0  0  0  0  0  0  0  0  0  0
  1  2  1  0  0  0  0
  2  3  1  0  0  0  0
  2  4  1  0  0  0  0
  2  5  1  0  0  0  0
  5  6  2  0  0  0  0
  5  7  1  0  0  0  0
  7  8  1  0  0  0  0
  7  9  1  0  0  0  0
  9 10  1  0  0  0  0
  9 11  1  0  0  0  0
  9 24  1  0  0  0  0
 11 12  1  0  0  0  0
 11 13  1  0  0  0  0
 11 14  1  0  0  0  0
 14 15  1  0  0  0  0
 14 16  1  0  0  0  0
 14 20  1  0  0  0  0
 16 17  1  0  0  0  0
 16 18  1  0  0  0  0
 16 19  1  0  0  0  0
 20 21  1  0  0  0  0
 20 22  1  0  0  0  0
 20 23  1  0  0  0  0
 24 25  2  0  0  0  0
 24 26  1  0  0  0  0
 26 27  1  0  0  0  0
 26 28  1  0  0  0  0
 28 29  1  0  0  0  0
 28 30  1  0  0  0  0
 28 31  1  0  0  0  0
M  END
$$$$

  -OEChem-01062216083D

 31 30  0     1  0  0  0  0  0999 V2000
   -3.5350   -2.8172    0.7217 H   0  0  0  0  0  0  0  0  0  0  0  0
   -3.4460   -1.8371    0.2438 C   0  0  0  0  0  0  0  0  0  0  0  0
   -4.2455   -1.1916    0.6148 H   0  0  0  0  0  0  0  0  0  0  0  0
   -3.5571   -1.9625   -0.8360 H   0  0  0  0  0  0  0  0  0  0  0  0
   -2.0947   -1.2235    0.5599 C   0  0  0  0  0  0  0  0  0  0  0  0
   -1.3221   -1.8253    1.2812 O   0  0  0  0  0  0  0  0  0  0  0  0
   -1.7715    0.0083    0.0223 N   0  0  0  0  0  0  0  0  0  0  0  0
   -2.4487    0.4017   -0.6231 H   0  0  0  0  0  0  0  0  0  0  0  0
   -0.4746    0.7019    0.1527 C   0  0  1  0  0  0  0  0  0  0  0  0
    0.2520    0.1759   -0.4736 H   0  0  0  0  0  0  0  0  0  0  0  0
   -0.6347    2.1502   -0.3559 C   0  0  0  0  0  0  0  0  0  0  0  0
   -1.4424    2.6338    0.2034 H   0  0  0  0  0  0  0  0  0  0  0  0
    0.2873    2.7025   -0.1401 H   0  0  0  0  0  0  0  0  0  0  0  0
   -0.9301    2.2612   -1.8686 C   0  0  0  0  0  0  0  0  0  0  0  0
   -1.8205    1.6737   -2.1129 H   0  0  0  0  0  0  0  0  0  0  0  0
   -1.2149    3.7263   -2.2189 C   0  0  0  0  0  0  0  0  0  0  0  0
   -0.3439    4.3527   -2.0007 H   0  0  0  0  0  0  0  0  0  0  0  0
   -1.4553    3.8245   -3.2822 H   0  0  0  0  0  0  0  0  0  0  0  0
   -2.0658    4.1001   -1.6411 H   0  0  0  0  0  0  0  0  0  0  0  0
    0.2395    1.7577   -2.7274 C   0  0  0  0  0  0  0  0  0  0  0  0
    0.3727    0.6783   -2.6144 H   0  0  0  0  0  0  0  0  0  0  0  0
    0.0484    1.9597   -3.7860 H   0  0  0  0  0  0  0  0  0  0  0  0
    1.1714    2.2570   -2.4428 H   0  0  0  0  0  0  0  0  0  0  0  0
    0.1397    0.7088    1.5751 C   0  0  0  0  0  0  0  0  0  0  0  0
    1.2460    0.2177    1.7575 O   0  0  0  0  0  0  0  0  0  0  0  0
   -0.3821    1.5358    2.5559 N   0  0  0  0  0  0  0  0  0  0  0  0
   -1.3206    1.8882    2.4011 H   0  0  0  0  0  0  0  0  0  0  0  0
    0.1937    1.6394    3.8911 C   0  0  0  0  0  0  0  0  0  0  0  0
    1.2258    2.0018    3.8366 H   0  0  0  0  0  0  0  0  0  0  0  0
   -0.3852    2.3404    4.4998 H   0  0  0  0  0  0  0  0  0  0  0  0
    0.1888    0.6623    4.3858 H   0  0  0  0  0  0  0  0  0  0  0  0
  1  2  1  0  0  0  0
  2  3  1  0  0  0  0
  2  4  1  0  0  0  0
  2  5  1  0  0  0  0
  5  6  2  0  0  0  0
  5  7  1  0  0  0  0
  7  8  1  0  0  0  0
  7  9  1  0  0  0  0
  9 10  1  0  0  0  0
  9 11  1  0  0  0  0
  9 24  1  0  0  0  0
 11 12  1  0  0  0  0
 11 13  1  0  0  0  0
 11 14  1  0  0  0  0
 14 15  1  0  0  0  0
 14 16  1  0  0  0  0
 14 20  1  0  0  0  0
 16 17  1  0  0  0  0
 16 18  1  0  0  0  0
 16 19  1  0  0  0  0
 20 21  1  0  0  0  0
 20 22  1  0  0  0  0
 20 23  1  0  0  0  0
 24 25  2  0  0  0  0
 24 26  1  0  0  0  0
 26 27  1  0  0  0  0
 26 28  1  0  0  0  0
 28 29  1  0  0  0  0
 28 30  1  0  0  0  0
 28 31  1  0  0  0  0
M  END
$$$$

  -OEChem-01062216083D

 31 30  0     1  0  0  0  0  0999 V2000
   -3.5283   -2.8231    0.7266 H   0  0  0  0  0  0  0  0  0  0  0  0
   -3.4439   -1.8422    0.2500 C   0  0  0  0  0  0  0  0  0  0  0  0
   -4.2449   -1.1997    0.6233 H   0  0  0  0  0  0  0  0  0  0  0  0
   -3.5576   -1.9667   -0.8296 H   0  0  0  0  0  0  0  0  0  0  0  0
   -2.0938   -1.2242    0.5629 C   0  0  0  0  0  0  0  0  0  0  0  0
   -1.3217   -1.8136    1.2958 O   0  0  0  0  0  0  0  0  0  0  0  0
   -1.7683    0.0018    0.0134 N   0  0  0  0  0  0  0  0  0  0  0  0
   -2.4406    0.3889   -0.6414 H   0  0  0  0  0  0  0  0  0  0  0  0
   -0.4681    0.6910    0.1399 C   0  0  1  0  0  0  0  0  0  0  0  0
    0.2581    0.1642   -0.4858 H   0  0  0  0  0  0  0  0  0  0  0  0
   -0.6251    2.1422   -0.3583 C   0  0  0  0  0  0  0  0  0  0  0  0
   -1.4261    2.6249    0.2115 H   0  0  0  0  0  0  0  0  0  0  0  0
    0.3001    2.6896   -0.1443 H   0  0  0  0  0  0  0  0  0  0  0  0
   -0.9291    2.2655   -1.8681 C   0  0  0  0  0  0  0  0  0  0  0  0
   -1.8234    1.6834   -2.1118 H   0  0  0  0  0  0  0  0  0  0  0  0
   -1.2091    3.7350   -2.2035 C   0  0  0  0  0  0  0  0  0  0  0  0
   -0.3347    4.3554   -1.9810 H   0  0  0  0  0  0  0  0  0  0  0  0
   -1.4519    3.8453   -3.2651 H   0  0  0  0  0  0  0  0  0  0  0  0
   -2.0569    4.1056   -1.6190 H   0  0  0  0  0  0  0  0  0  0  0  0
    0.2338    1.7644   -2.7370 C   0  0  0  0  0  0  0  0  0  0  0  0
    0.3642    0.6839   -2.6316 H   0  0  0  0  0  0  0  0  0  0  0  0
    0.0375    1.9745   -3.7931 H   0  0  0  0  0  0  0  0  0  0  0  0
    1.1686    2.2590   -2.4541 H   0  0  0  0  0  0  0  0  0  0  0  0
    0.1437    0.7080    1.5609 C   0  0  0  0  0  0  0  0  0  0  0  0
    1.3320    0.4532    1.7095 O   0  0  0  0  0  0  0  0  0  0  0  0
   -0.5492    1.2966    2.6044 N   0  0  0  0  0  0  0  0  0  0  0  0
   -1.5486    1.4066    2.4697 H   0  0  0  0  0  0  0  0  0  0  0  0
   -0.0178    1.3628    3.9598 C   0  0  0  0  0  0  0  0  0  0  0  0
    0.9256    1.9185    3.9764 H   0  0  0  0  0  0  0  0  0  0  0  0
   -0.7271    1.8711    4.6196 H   0  0  0  0  0  0  0  0  0  0  0  0
    0.1601    0.3549    4.3495 H   0  0  0  0  0  0  0  0  0  0  0  0
  1  2  1  0  0  0  0
  2  3  1  0  0  0  0
  2  4  1  0  0  0  0
  2  5  1  0  0  0  0
  5  6  2  0  0  0  0
  5  7  1  0  0  0  0
  7  8  1  0  0  0  0
  7  9  1  0  0  0  0
  9 10  1  0  0  0  0
  9 11  1  0  0  0  0
  9 24  1  0  0  0  0
 11 12  1  0  0  0  0
 11 13  1  0  0  0  0
 11 14  1  0  0  0  0
 14 15  1  0  0  0  0
 14 16  1  0  0  0  0
 14 20  1  0  0  0  0
 16 17  1  0  0  0  0
 16 18  1  0  0  0  0
 16 19  1  0  0  0  0
 20 21  1  0  0  0  0
 20 22  1  0  0  0  0
 20 23  1  0  0  0  0
 24 25  2  0  0  0  0
 24 26  1  0  0  0  0
 26 27  1  0  0  0  0
 26 28  1  0  0  0  0
 28 29  1  0  0  0  0
 28 30  1  0  0  0  0
 28 31  1  0  0  0  0
M  END
$$$$

  -OEChem-01062216083D

 31 30  0     1  0  0  0  0  0999 V2000
   -3.5463   -2.8260    0.6953 H   0  0  0  0  0  0  0  0  0  0  0  0
   -3.4560   -1.8449    0.2201 C   0  0  0  0  0  0  0  0  0  0  0  0
   -4.2647   -1.2043    0.5799 H   0  0  0  0  0  0  0  0  0  0  0  0
   -3.5511   -1.9696   -0.8612 H   0  0  0  0  0  0  0  0  0  0  0  0
   -2.1128   -1.2239    0.5551 C   0  0  0  0  0  0  0  0  0  0  0  0
   -1.3552   -1.8049    1.3101 O   0  0  0  0  0  0  0  0  0  0  0  0
   -1.7757   -0.0016    0.0050 N   0  0  0  0  0  0  0  0  0  0  0  0
   -2.4368    0.3840   -0.6621 H   0  0  0  0  0  0  0  0  0  0  0  0
   -0.4722    0.6821    0.1385 C   0  0  1  0  0  0  0  0  0  0  0  0
    0.2554    0.1554   -0.4857 H   0  0  0  0  0  0  0  0  0  0  0  0
   -0.6293    2.1349   -0.3544 C   0  0  0  0  0  0  0  0  0  0  0  0
   -1.4297    2.6145    0.2190 H   0  0  0  0  0  0  0  0  0  0  0  0
    0.2954    2.6826   -0.1385 H   0  0  0  0  0  0  0  0  0  0  0  0
   -0.9313    2.2643   -1.8643 C   0  0  0  0  0  0  0  0  0  0  0  0
   -1.8245    1.6828   -2.1126 H   0  0  0  0  0  0  0  0  0  0  0  0
   -1.2119    3.7344   -2.1966 C   0  0  0  0  0  0  0  0  0  0  0  0
   -0.3393    4.3552   -1.9694 H   0  0  0  0  0  0  0  0  0  0  0  0
   -1.4507    3.8474   -3.2588 H   0  0  0  0  0  0  0  0  0  0  0  0
   -2.0622    4.1032   -1.6145 H   0  0  0  0  0  0  0  0  0  0  0  0
    0.2348    1.7668   -2.7308 C   0  0  0  0  0  0  0  0  0  0  0  0
    0.3637    0.6857   -2.6303 H   0  0  0  0  0  0  0  0  0  0  0  0
    0.0439    1.9827   -3.7867 H   0  0  0  0  0  0  0  0  0  0  0  0
    1.1688    2.2590   -2.4406 H   0  0  0  0  0  0  0  0  0  0  0  0
    0.1416    0.7090    1.5582 C   0  0  0  0  0  0  0  0  0  0  0  0
    1.3596    0.6984    1.6841 O   0  0  0  0  0  0  0  0  0  0  0  0
   -0.6466    1.0180    2.6525 N   0  0  0  0  0  0  0  0  0  0  0  0
   -1.6421    0.8659    2.5288 H   0  0  0  0  0  0  0  0  0  0  0  0
   -0.1172    1.0547    4.0096 C   0  0  0  0  0  0  0  0  0  0  0  0
    0.6899    1.7909    4.0872 H   0  0  0  0  0  0  0  0  0  0  0  0
   -0.9052    1.3336    4.7154 H   0  0  0  0  0  0  0  0  0  0  0  0
    0.2737    0.0719    4.2936 H   0  0  0  0  0  0  0  0  0  0  0  0
  1  2  1  0  0  0  0
  2  3  1  0  0  0  0
  2  4  1  0  0  0  0
  2  5  1  0  0  0  0
  5  6  2  0  0  0  0
  5  7  1  0  0  0  0
  7  8  1  0  0  0  0
  7  9  1  0  0  0  0
  9 10  1  0  0  0  0
  9 11  1  0  0  0  0
  9 24  1  0  0  0  0
 11 12  1  0  0  0  0
 11 13  1  0  0  0  0
 11 14  1  0  0  0  0
 14 15  1  0  0  0  0
 14 16  1  0  0  0  0
 14 20  1  0  0  0  0
 16 17  1  0  0  0  0
 16 18  1  0  0  0  0
 16 19  1  0  0  0  0
 20 21  1  0  0  0  0
 20 22  1  0  0  0  0
 20 23  1  0  0  0  0
 24 25  2  0  0  0  0
 24 26  1  0  0  0  0
 26 27  1  0  0  0  0
 26 28  1  0  0  0  0
 28 29  1  0  0  0  0
 28 30  1  0  0  0  0
 28 31  1  0  0  0  0
M  END
$$$$

  -OEChem-01062216083D

 31 30  0     1  0  0  0  0  0999 V2000
   -3.5977   -2.8149    0.6297 H   0  0  0  0  0  0  0  0  0  0  0  0
   -3.4894   -1.8295    0.1678 C   0  0  0  0  0  0  0  0  0  0  0  0
   -4.2951   -1.1835    0.5243 H   0  0  0  0  0  0  0  0  0  0  0  0
   -3.5714   -1.9403   -0.9162 H   0  0  0  0  0  0  0  0  0  0  0  0
   -2.1438   -1.2283    0.5277 C   0  0  0  0  0  0  0  0  0  0  0  0
   -1.4087   -1.8177    1.2986 O   0  0  0  0  0  0  0  0  0  0  0  0
   -1.7819   -0.0079   -0.0089 N   0  0  0  0  0  0  0  0  0  0  0  0
   -2.4358    0.3955   -0.6728 H   0  0  0  0  0  0  0  0  0  0  0  0
   -0.4771    0.6716    0.1457 C   0  0  1  0  0  0  0  0  0  0  0  0
    0.2562    0.1479   -0.4739 H   0  0  0  0  0  0  0  0  0  0  0  0
   -0.6437    2.1240   -0.3491 C   0  0  0  0  0  0  0  0  0  0  0  0
   -1.4536    2.5948    0.2186 H   0  0  0  0  0  0  0  0  0  0  0  0
    0.2723    2.6833   -0.1262 H   0  0  0  0  0  0  0  0  0  0  0  0
   -0.9323    2.2532   -1.8622 C   0  0  0  0  0  0  0  0  0  0  0  0
   -1.8181    1.6647   -2.1204 H   0  0  0  0  0  0  0  0  0  0  0  0
   -1.2233    3.7216   -2.1931 C   0  0  0  0  0  0  0  0  0  0  0  0
   -0.3591    4.3500   -1.9543 H   0  0  0  0  0  0  0  0  0  0  0  0
   -1.4519    3.8364   -3.2573 H   0  0  0  0  0  0  0  0  0  0  0  0
   -2.0830    4.0799   -1.6187 H   0  0  0  0  0  0  0  0  0  0  0  0
    0.2457    1.7685   -2.7196 C   0  0  0  0  0  0  0  0  0  0  0  0
    0.3874    0.6893   -2.6161 H   0  0  0  0  0  0  0  0  0  0  0  0
    0.0589    1.9799   -3.7772 H   0  0  0  0  0  0  0  0  0  0  0  0
    1.1714    2.2729   -2.4243 H   0  0  0  0  0  0  0  0  0  0  0  0
    0.1392    0.7091    1.5670 C   0  0  0  0  0  0  0  0  0  0  0  0
    1.3353    0.9445    1.6874 O   0  0  0  0  0  0  0  0  0  0  0  0
   -0.6641    0.7184    2.6930 N   0  0  0  0  0  0  0  0  0  0  0  0
   -1.5731    0.2849    2.5608 H   0  0  0  0  0  0  0  0  0  0  0  0
   -0.1101    0.7316    4.0408 C   0  0  0  0  0  0  0  0  0  0  0  0
    0.5118    1.6200    4.1922 H   0  0  0  0  0  0  0  0  0  0  0  0
   -0.9169    0.7472    4.7795 H   0  0  0  0  0  0  0  0  0  0  0  0
    0.5019   -0.1603    4.2111 H   0  0  0  0  0  0  0  0  0  0  0  0
  1  2  1  0  0  0  0
  2  3  1  0  0  0  0
  2  4  1  0  0  0  0
  2  5  1  0  0  0  0
  5  6  2  0  0  0  0
  5  7  1  0  0  0  0
  7  8  1  0  0  0  0
  7  9  1  0  0  0  0
  9 10  1  0  0  0  0
  9 11  1  0  0  0  0
  9 24  1  0  0  0  0
 11 12  1  0  0  0  0
 11 13  1  0  0  0  0
 11 14  1  0  0  0  0
 14 15  1  0  0  0  0
 14 16  1  0  0  0  0
 14 20  1  0  0  0  0
 16 17  1  0  0  0  0
 16 18  1  0  0  0  0
 16 19  1  0  0  0  0
 20 21  1  0  0  0  0
 20 22  1  0  0  0  0
 20 23  1  0  0  0  0
 24 25  2  0  0  0  0
 24 26  1  0  0  0  0
 26 27  1  0  0  0  0
 26 28  1  0  0  0  0
 28 29  1  0  0  0  0
 28 30  1  0  0  0  0
 28 31  1  0  0  0  0
M  END
$$$$

  -OEChem-01062216083D

 31 30  0     1  0  0  0  0  0999 V2000
   -3.6700   -2.7897    0.5642 H   0  0  0  0  0  0  0  0  0  0  0  0
   -3.5388   -1.7974    0.1230 C   0  0  0  0  0  0  0  0  0  0  0  0
   -4.3192   -1.1358    0.5068 H   0  0  0  0  0  0  0  0  0  0  0  0
   -3.6408   -1.8803   -0.9620 H   0  0  0  0  0  0  0  0  0  0  0  0
   -2.1705   -1.2452    0.4757 C   0  0  0  0  0  0  0  0  0  0  0  0
   -1.4366   -1.8805    1.2111 O   0  0  0  0  0  0  0  0  0  0  0  0
   -1.7839   -0.0199   -0.0300 N   0  0  0  0  0  0  0  0  0  0  0  0
   -2.4527    0.4323   -0.6459 H   0  0  0  0  0  0  0  0  0  0  0  0
   -0.4818    0.6604    0.1530 C   0  0  1  0  0  0  0  0  0  0  0  0
    0.2589    0.1455   -0.4646 H   0  0  0  0  0  0  0  0  0  0  0  0
   -0.6633    2.1124   -0.3447 C   0  0  0  0  0  0  0  0  0  0  0  0
   -1.4872    2.5709    0.2125 H   0  0  0  0  0  0  0  0  0  0  0  0
    0.2393    2.6888   -0.1124 H   0  0  0  0  0  0  0  0  0  0  0  0
   -0.9314    2.2391   -1.8620 C   0  0  0  0  0  0  0  0  0  0  0  0
   -1.8044    1.6382   -2.1352 H   0  0  0  0  0  0  0  0  0  0  0  0
   -1.2395    3.7035   -2.1953 C   0  0  0  0  0  0  0  0  0  0  0  0
   -0.3894    4.3448   -1.9409 H   0  0  0  0  0  0  0  0  0  0  0  0
   -1.4519    3.8163   -3.2630 H   0  0  0  0  0  0  0  0  0  0  0  0
   -2.1144    4.0478   -1.6351 H   0  0  0  0  0  0  0  0  0  0  0  0
    0.2664    1.7724   -2.7017 C   0  0  0  0  0  0  0  0  0  0  0  0
    0.4177    0.6941   -2.6022 H   0  0  0  0  0  0  0  0  0  0  0  0
    0.0956    1.9880   -3.7611 H   0  0  0  0  0  0  0  0  0  0  0  0
    1.1815    2.2848   -2.3875 H   0  0  0  0  0  0  0  0  0  0  0  0
    0.1378    0.6968    1.5778 C   0  0  0  0  0  0  0  0  0  0  0  0
    1.2648    1.1568    1.7181 O   0  0  0  0  0  0  0  0  0  0  0  0
   -0.5993    0.3974    2.7090 N   0  0  0  0  0  0  0  0  0  0  0  0
   -1.3575   -0.2605    2.5374 H   0  0  0  0  0  0  0  0  0  0  0  0
   -0.0144    0.4090    4.0442 C   0  0  0  0  0  0  0  0  0  0  0  0
    0.3760    1.4035    4.2840 H   0  0  0  0  0  0  0  0  0  0  0  0
   -0.7721    0.1491    4.7895 H   0  0  0  0  0  0  0  0  0  0  0  0
    0.8030   -0.3166    4.1105 H   0  0  0  0  0  0  0  0  0  0  0  0
  1  2  1  0  0  0  0
  2  3  1  0  0  0  0
  2  4  1  0  0  0  0
  2  5  1  0  0  0  0
  5  6  2  0  0  0  0
  5  7  1  0  0  0  0
  7  8  1  0  0  0  0
  7  9  1  0  0  0  0
  9 10  1  0  0  0  0
  9 11  1  0  0  0  0
  9 24  1  0  0  0  0
 11 12  1  0  0  0  0
 11 13  1  0  0  0  0
 11 14  1  0  0  0  0
 14 15  1  0  0  0  0
 14 16  1  0  0  0  0
 14 20  1  0  0  0  0
 16 17  1  0  0  0  0
 16 18  1  0  0  0  0
 16 19  1  0  0  0  0
 20 21  1  0  0  0  0
 20 22  1  0  0  0  0
 20 23  1  0  0  0  0
 24 25  2  0  0  0  0
 24 26  1  0  0  0  0
 26 27  1  0  0  0  0
 26 28  1  0  0  0  0
 28 29  1  0  0  0  0
 28 30  1  0  0  0  0
 28 31  1  0  0  0  0
M  END
$$$$

  -OEChem-01062216083D

 31 30  0     1  0  0  0  0  0999 V2000
   -3.7251   -2.7493    0.5704 H   0  0  0  0  0  0  0  0  0  0  0  0
   -3.5763   -1.7565    0.1362 C   0  0  0  0  0  0  0  0  0  0  0  0
   -4.3034   -1.0686    0.5748 H   0  0  0  0  0  0  0  0  0  0  0  0
   -3.7449   -1.8165   -0.9418 H   0  0  0  0  0  0  0  0  0  0  0  0
   -2.1670   -1.2688    0.4151 C   0  0  0  0  0  0  0  0  0  0  0  0
   -1.3994   -1.9771    1.0427 O   0  0  0  0  0  0  0  0  0  0  0  0
   -1.7731   -0.0328   -0.0578 N   0  0  0  0  0  0  0  0  0  0  0  0
   -2.4807    0.4812   -0.5739 H   0  0  0  0  0  0  0  0  0  0  0  0
   -0.4796    0.6580    0.1541 C   0  0  1  0  0  0  0  0  0  0  0  0
    0.2730    0.1553   -0.4587 H   0  0  0  0  0  0  0  0  0  0  0  0
   -0.6806    2.1084   -0.3487 C   0  0  0  0  0  0  0  0  0  0  0  0
   -1.5215    2.5519    0.1952 H   0  0  0  0  0  0  0  0  0  0  0  0
    0.2057    2.7055   -0.1075 H   0  0  0  0  0  0  0  0  0  0  0  0
   -0.9251    2.2286   -1.8708 C   0  0  0  0  0  0  0  0  0  0  0  0
   -1.7809    1.6101   -2.1586 H   0  0  0  0  0  0  0  0  0  0  0  0
   -1.2556    3.6866   -2.2118 C   0  0  0  0  0  0  0  0  0  0  0  0
   -0.4194    4.3435   -1.9512 H   0  0  0  0  0  0  0  0  0  0  0  0
   -1.4591    3.7920   -3.2821 H   0  0  0  0  0  0  0  0  0  0  0  0
   -2.1420    4.0172   -1.6616 H   0  0  0  0  0  0  0  0  0  0  0  0
    0.2968    1.7859   -2.6890 C   0  0  0  0  0  0  0  0  0  0  0  0
    0.4696    0.7115   -2.5846 H   0  0  0  0  0  0  0  0  0  0  0  0
    0.1397    1.9959   -3.7515 H   0  0  0  0  0  0  0  0  0  0  0  0
    1.1951    2.3185   -2.3603 H   0  0  0  0  0  0  0  0  0  0  0  0
    0.1329    0.6853    1.5868 C   0  0  0  0  0  0  0  0  0  0  0  0
    1.1505    1.3391    1.7842 O   0  0  0  0  0  0  0  0  0  0  0  0
   -0.4747    0.0923    2.6782 N   0  0  0  0  0  0  0  0  0  0  0  0
   -1.0953   -0.6805    2.4358 H   0  0  0  0  0  0  0  0  0  0  0  0
    0.1340    0.0739    4.0026 C   0  0  0  0  0  0  0  0  0  0  0  0
    0.2981    1.0943    4.3641 H   0  0  0  0  0  0  0  0  0  0  0  0
   -0.5223   -0.4401    4.7111 H   0  0  0  0  0  0  0  0  0  0  0  0
    1.0952   -0.4497    3.9753 H   0  0  0  0  0  0  0  0  0  0  0  0
  1  2  1  0  0  0  0
  2  3  1  0  0  0  0
  2  4  1  0  0  0  0
  2  5  1  0  0  0  0
  5  6  2  0  0  0  0
  5  7  1  0  0  0  0
  7  8  1  0  0  0  0
  7  9  1  0  0  0  0
  9 10  1  0  0  0  0
  9 11  1  0  0  0  0
  9 24  1  0  0  0  0
 11 12  1  0  0  0  0
 11 13  1  0  0  0  0
 11 14  1  0  0  0  0
 14 15  1  0  0  0  0
 14 16  1  0  0  0  0
 14 20  1  0  0  0  0
 16 17  1  0  0  0  0
 16 18  1  0  0  0  0
 16 19  1  0  0  0  0
 20 21  1  0  0  0  0
 20 22  1  0  0  0  0
 20 23  1  0  0  0  0
 24 25  2  0  0  0  0
 24 26  1  0  0  0  0
 26 27  1  0  0  0  0
 26 28  1  0  0  0  0
 28 29  1  0  0  0  0
 28 30  1  0  0  0  0
 28 31  1  0  0  0  0
M  END
$$$$

  -OEChem-01062216083D

 31 30  0     1  0  0  0  0  0999 V2000
   -3.7432   -2.7235    0.5935 H   0  0  0  0  0  0  0  0  0  0  0  0
   -3.5929   -1.7261    0.1703 C   0  0  0  0  0  0  0  0  0  0  0  0
   -4.2720   -1.0286    0.6665 H   0  0  0  0  0  0  0  0  0  0  0  0
   -3.8284   -1.7579   -0.8964 H   0  0  0  0  0  0  0  0  0  0  0  0
   -2.1557   -1.2833    0.3705 C   0  0  0  0  0  0  0  0  0  0  0  0
   -1.3554   -2.0521    0.8751 O   0  0  0  0  0  0  0  0  0  0  0  0
   -1.7650   -0.0363   -0.0754 N   0  0  0  0  0  0  0  0  0  0  0  0
   -2.5046    0.5191   -0.4947 H   0  0  0  0  0  0  0  0  0  0  0  0
   -0.4784    0.6628    0.1553 C   0  0  1  0  0  0  0  0  0  0  0  0
    0.2819    0.1695   -0.4557 H   0  0  0  0  0  0  0  0  0  0  0  0
   -0.6915    2.1111   -0.3542 C   0  0  0  0  0  0  0  0  0  0  0  0
   -1.5422    2.5475    0.1800 H   0  0  0  0  0  0  0  0  0  0  0  0
    0.1851    2.7211   -0.1105 H   0  0  0  0  0  0  0  0  0  0  0  0
   -0.9187    2.2233   -1.8799 C   0  0  0  0  0  0  0  0  0  0  0  0
   -1.7638    1.5940   -2.1757 H   0  0  0  0  0  0  0  0  0  0  0  0
   -1.2631    3.6760   -2.2289 C   0  0  0  0  0  0  0  0  0  0  0  0
   -0.4396    4.3446   -1.9573 H   0  0  0  0  0  0  0  0  0  0  0  0
   -1.4523    3.7769   -3.3022 H   0  0  0  0  0  0  0  0  0  0  0  0
   -2.1618    3.9960   -1.6924 H   0  0  0  0  0  0  0  0  0  0  0  0
    0.3168    1.7918   -2.6834 C   0  0  0  0  0  0  0  0  0  0  0  0
    0.4969    0.7185   -2.5778 H   0  0  0  0  0  0  0  0  0  0  0  0
    0.1705    2.0009   -3.7477 H   0  0  0  0  0  0  0  0  0  0  0  0
    1.2067    2.3315   -2.3437 H   0  0  0  0  0  0  0  0  0  0  0  0
    0.1289    0.6728    1.5947 C   0  0  0  0  0  0  0  0  0  0  0  0
    0.9951    1.4928    1.8765 O   0  0  0  0  0  0  0  0  0  0  0  0
   -0.2911   -0.1703    2.6065 N   0  0  0  0  0  0  0  0  0  0  0  0
   -0.7989   -0.9980    2.2906 H   0  0  0  0  0  0  0  0  0  0  0  0
    0.3432   -0.2221    3.9181 C   0  0  0  0  0  0  0  0  0  0  0  0
    0.2839    0.7531    4.4124 H   0  0  0  0  0  0  0  0  0  0  0  0
   -0.1606   -0.9590    4.5507 H   0  0  0  0  0  0  0  0  0  0  0  0
    1.3962   -0.5068    3.8232 H   0  0  0  0  0  0  0  0  0  0  0  0
  1  2  1  0  0  0  0
  2  3  1  0  0  0  0
  2  4  1  0  0  0  0
  2  5  1  0  0  0  0
  5  6  2  0  0  0  0
  5  7  1  0  0  0  0
  7  8  1  0  0  0  0
  7  9  1  0  0  0  0
  9 10  1  0  0  0  0
  9 11  1  0  0  0  0
  9 24  1  0  0  0  0
 11 12  1  0  0  0  0
 11 13  1  0  0  0  0
 11 14  1  0  0  0  0
 14 15  1  0  0  0  0
 14 16  1  0  0  0  0
 14 20  1  0  0  0  0
 16 17  1  0  0  0  0
 16 18  1  0  0  0  0
 16 19  1  0  0  0  0
 20 21  1  0  0  0  0
 20 22  1  0  0  0  0
 20 23  1  0  0  0  0
 24 25  2  0  0  0  0
 24 26  1  0  0  0  0
 26 27  1  0  0  0  0
 26 28  1  0  0  0  0
 28 29  1  0  0  0  0
 28 30  1  0  0  0  0
 28 31  1  0  0  0  0
M  END
$$$$

  -OEChem-01062216083D

 31 30  0     1  0  0  0  0  0999 V2000
   -3.7897   -2.6462    0.7046 H   0  0  0  0  0  0  0  0  0  0  0  0
   -3.6351   -1.6469    0.2877 C   0  0  0  0  0  0  0  0  0  0  0  0
   -4.2390   -0.9336    0.8540 H   0  0  0  0  0  0  0  0  0  0  0  0
   -3.9627   -1.6462   -0.7549 H   0  0  0  0  0  0  0  0  0  0  0  0
   -2.1690   -1.2663    0.3697 C   0  0  0  0  0  0  0  0  0  0  0  0
   -1.3539   -2.0924    0.7449 O   0  0  0  0  0  0  0  0  0  0  0  0
   -1.7702   -0.0197   -0.0703 N   0  0  0  0  0  0  0  0  0  0  0  0
   -2.5282    0.5776   -0.3871 H   0  0  0  0  0  0  0  0  0  0  0  0
   -0.4683    0.6565    0.1398 C   0  0  1  0  0  0  0  0  0  0  0  0
    0.2717    0.1513   -0.4856 H   0  0  0  0  0  0  0  0  0  0  0  0
   -0.6640    2.1076   -0.3709 C   0  0  0  0  0  0  0  0  0  0  0  0
   -1.4964    2.5626    0.1761 H   0  0  0  0  0  0  0  0  0  0  0  0
    0.2289    2.7006   -0.1458 H   0  0  0  0  0  0  0  0  0  0  0  0
   -0.9122    2.2187   -1.8937 C   0  0  0  0  0  0  0  0  0  0  0  0
   -1.7722    1.6022   -2.1737 H   0  0  0  0  0  0  0  0  0  0  0  0
   -1.2370    3.6760   -2.2425 C   0  0  0  0  0  0  0  0  0  0  0  0
   -0.3974    4.3310   -1.9882 H   0  0  0  0  0  0  0  0  0  0  0  0
   -1.4438    3.7760   -3.3126 H   0  0  0  0  0  0  0  0  0  0  0  0
   -2.1203    4.0136   -1.6916 H   0  0  0  0  0  0  0  0  0  0  0  0
    0.3033    1.7661   -2.7164 C   0  0  0  0  0  0  0  0  0  0  0  0
    0.4757    0.6925   -2.6032 H   0  0  0  0  0  0  0  0  0  0  0  0
    0.1377    1.9653   -3.7797 H   0  0  0  0  0  0  0  0  0  0  0  0
    1.2045    2.3012   -2.4002 H   0  0  0  0  0  0  0  0  0  0  0  0
    0.1614    0.6329    1.5715 C   0  0  0  0  0  0  0  0  0  0  0  0
    0.8502    1.5723    1.9523 O   0  0  0  0  0  0  0  0  0  0  0  0
   -0.0362   -0.3954    2.4734 N   0  0  0  0  0  0  0  0  0  0  0  0
   -0.4644   -1.2423    2.0938 H   0  0  0  0  0  0  0  0  0  0  0  0
    0.6130   -0.4708    3.7764 C   0  0  0  0  0  0  0  0  0  0  0  0
    0.3593    0.4043    4.3836 H   0  0  0  0  0  0  0  0  0  0  0  0
    0.2818   -1.3669    4.3097 H   0  0  0  0  0  0  0  0  0  0  0  0
    1.7008   -0.5173    3.6605 H   0  0  0  0  0  0  0  0  0  0  0  0
  1  2  1  0  0  0  0
  2  3  1  0  0  0  0
  2  4  1  0  0  0  0
  2  5  1  0  0  0  0
  5  6  2  0  0  0  0
  5  7  1  0  0  0  0
  7  8  1  0  0  0  0
  7  9  1  0  0  0  0
  9 10  1  0  0  0  0
  9 11  1  0  0  0  0
  9 24  1  0  0  0  0
 11 12  1  0  0  0  0
 11 13  1  0  0  0  0
 11 14  1  0  0  0  0
 14 15  1  0  0  0  0
 14 16  1  0  0  0  0
 14 20  1  0  0  0  0
 16 17  1  0  0  0  0
 16 18  1  0  0  0  0
 16 19  1  0  0  0  0
 20 21  1  0  0  0  0
 20 22  1  0  0  0  0
 20 23  1  0  0  0  0
 24 25  2  0  0  0  0
 24 26  1  0  0  0  0
 26 27  1  0  0  0  0
 26 28  1  0  0  0  0
 28 29  1  0  0  0  0
 28 30  1  0  0  0  0
 28 31  1  0  0  0  0
M  END
$$$$

  -OEChem-01062216083D

 31 30  0     1  0  0  0  0  0999 V2000
   -3.6641   -2.7030    0.7852 H   0  0  0  0  0  0  0  0  0  0  0  0
   -3.5477   -1.7146    0.3313 C   0  0  0  0  0  0  0  0  0  0  0  0
   -4.1434   -0.9962    0.8997 H   0  0  0  0  0  0  0  0  0  0  0  0
   -3.9166   -1.7530   -0.6965 H   0  0  0  0  0  0  0  0  0  0  0  0
   -2.0876   -1.3032    0.3410 C   0  0  0  0  0  0  0  0  0  0  0  0
   -1.2351   -2.1244    0.6362 O   0  0  0  0  0  0  0  0  0  0  0  0
   -1.7368   -0.0392   -0.0911 N   0  0  0  0  0  0  0  0  0  0  0  0
   -2.5246    0.5516   -0.3397 H   0  0  0  0  0  0  0  0  0  0  0  0
   -0.4534    0.6691    0.1224 C   0  0  1  0  0  0  0  0  0  0  0  0
    0.2989    0.1853   -0.5051 H   0  0  0  0  0  0  0  0  0  0  0  0
   -0.6663    2.1203   -0.3780 C   0  0  0  0  0  0  0  0  0  0  0  0
   -1.5074    2.5604    0.1681 H   0  0  0  0  0  0  0  0  0  0  0  0
    0.2196    2.7202   -0.1415 H   0  0  0  0  0  0  0  0  0  0  0  0
   -0.9091    2.2402   -1.9004 C   0  0  0  0  0  0  0  0  0  0  0  0
   -1.7598    1.6147   -2.1887 H   0  0  0  0  0  0  0  0  0  0  0  0
   -1.2517    3.6962   -2.2374 C   0  0  0  0  0  0  0  0  0  0  0  0
   -0.4246    4.3604   -1.9659 H   0  0  0  0  0  0  0  0  0  0  0  0
   -1.4477    3.8056   -3.3086 H   0  0  0  0  0  0  0  0  0  0  0  0
   -2.1461    4.0143   -1.6926 H   0  0  0  0  0  0  0  0  0  0  0  0
    0.3152    1.8091   -2.7215 C   0  0  0  0  0  0  0  0  0  0  0  0
    0.4911    0.7341   -2.6267 H   0  0  0  0  0  0  0  0  0  0  0  0
    0.1577    2.0272   -3.7824 H   0  0  0  0  0  0  0  0  0  0  0  0
    1.2114    2.3421   -2.3881 H   0  0  0  0  0  0  0  0  0  0  0  0
    0.1652    0.6333    1.5575 C   0  0  0  0  0  0  0  0  0  0  0  0
    0.5865    1.6603    2.0772 O   0  0  0  0  0  0  0  0  0  0  0  0
    0.2404   -0.5209    2.3121 N   0  0  0  0  0  0  0  0  0  0  0  0
   -0.0996   -1.3775    1.8684 H   0  0  0  0  0  0  0  0  0  0  0  0
    0.8141   -0.5979    3.6493 C   0  0  0  0  0  0  0  0  0  0  0  0
    0.2689    0.0553    4.3383 H   0  0  0  0  0  0  0  0  0  0  0  0
    0.7541   -1.6238    4.0250 H   0  0  0  0  0  0  0  0  0  0  0  0
    1.8665   -0.2962    3.6333 H   0  0  0  0  0  0  0  0  0  0  0  0
  1  2  1  0  0  0  0
  2  3  1  0  0  0  0
  2  4  1  0  0  0  0
  2  5  1  0  0  0  0
  5  6  2  0  0  0  0
  5  7  1  0  0  0  0
  7  8  1  0  0  0  0
  7  9  1  0  0  0  0
  9 10  1  0  0  0  0
  9 11  1  0  0  0  0
  9 24  1  0  0  0  0
 11 12  1  0  0  0  0
 11 13  1  0  0  0  0
 11 14  1  0  0  0  0
 14 15  1  0  0  0  0
 14 16  1  0  0  0  0
 14 20  1  0  0  0  0
 16 17  1  0  0  0  0
 16 18  1  0  0  0  0
 16 19  1  0  0  0  0
 20 21  1  0  0  0  0
 20 22  1  0  0  0  0
 20 23  1  0  0  0  0
 24 25  2  0  0  0  0
 24 26  1  0  0  0  0
 26 27  1  0  0  0  0
 26 28  1  0  0  0  0
 28 29  1  0  0  0  0
 28 30  1  0  0  0  0
 28 31  1  0  0  0  0
M  END
$$$$

  -OEChem-01062216083D

 31 30  0     1  0  0  0  0  0999 V2000
   -3.5743   -2.7354    0.8162 H   0  0  0  0  0  0  0  0  0  0  0  0
   -3.4902   -1.7186    0.4220 C   0  0  0  0  0  0  0  0  0  0  0  0
   -4.0492   -1.0427    1.0736 H   0  0  0  0  0  0  0  0  0  0  0  0
   -3.9255   -1.6923   -0.5799 H   0  0  0  0  0  0  0  0  0  0  0  0
   -2.0334   -1.2986    0.3659 C   0  0  0  0  0  0  0  0  0  0  0  0
   -1.1620   -2.1097    0.6338 O   0  0  0  0  0  0  0  0  0  0  0  0
   -1.7089   -0.0354   -0.0881 N   0  0  0  0  0  0  0  0  0  0  0  0
   -2.5086    0.5558   -0.2948 H   0  0  0  0  0  0  0  0  0  0  0  0
   -0.4228    0.6728    0.0949 C   0  0  1  0  0  0  0  0  0  0  0  0
    0.3191    0.1884   -0.5445 H   0  0  0  0  0  0  0  0  0  0  0  0
   -0.6342    2.1257   -0.3957 C   0  0  0  0  0  0  0  0  0  0  0  0
   -1.4625    2.5694    0.1672 H   0  0  0  0  0  0  0  0  0  0  0  0
    0.2613    2.7146   -0.1682 H   0  0  0  0  0  0  0  0  0  0  0  0
   -0.9076    2.2521   -1.9120 C   0  0  0  0  0  0  0  0  0  0  0  0
   -1.7682    1.6326   -2.1838 H   0  0  0  0  0  0  0  0  0  0  0  0
   -1.2457    3.7113   -2.2390 C   0  0  0  0  0  0  0  0  0  0  0  0
   -0.4037    4.3671   -1.9949 H   0  0  0  0  0  0  0  0  0  0  0  0
   -1.4746    3.8218   -3.3037 H   0  0  0  0  0  0  0  0  0  0  0  0
   -2.1190    4.0390   -1.6664 H   0  0  0  0  0  0  0  0  0  0  0  0
    0.2973    1.8161   -2.7584 C   0  0  0  0  0  0  0  0  0  0  0  0
    0.4731    0.7411   -2.6649 H   0  0  0  0  0  0  0  0  0  0  0  0
    0.1169    2.0324   -3.8160 H   0  0  0  0  0  0  0  0  0  0  0  0
    1.2014    2.3482   -2.4457 H   0  0  0  0  0  0  0  0  0  0  0  0
    0.2040    0.6299    1.5226 C   0  0  0  0  0  0  0  0  0  0  0  0
    0.3947    1.6648    2.1515 O   0  0  0  0  0  0  0  0  0  0  0  0
    0.5489   -0.5597    2.1333 N   0  0  0  0  0  0  0  0  0  0  0  0
    0.2368   -1.4112    1.6591 H   0  0  0  0  0  0  0  0  0  0  0  0
    1.0434   -0.6613    3.4999 C   0  0  0  0  0  0  0  0  0  0  0  0
    0.2872   -0.3070    4.2079 H   0  0  0  0  0  0  0  0  0  0  0  0
    1.2811   -1.7027    3.7367 H   0  0  0  0  0  0  0  0  0  0  0  0
    1.9526   -0.0639    3.6244 H   0  0  0  0  0  0  0  0  0  0  0  0
  1  2  1  0  0  0  0
  2  3  1  0  0  0  0
  2  4  1  0  0  0  0
  2  5  1  0  0  0  0
  5  6  2  0  0  0  0
  5  7  1  0  0  0  0
  7  8  1  0  0  0  0
  7  9  1  0  0  0  0
  9 10  1  0  0  0  0
  9 11  1  0  0  0  0
  9 24  1  0  0  0  0
 11 12  1  0  0  0  0
 11 13  1  0  0  0  0
 11 14  1  0  0  0  0
 14 15  1  0  0  0  0
 14 16  1  0  0  0  0
 14 20  1  0  0  0  0
 16 17  1  0  0  0  0
 16 18  1  0  0  0  0
 16 19  1  0  0  0  0
 20 21  1  0  0  0  0
 20 22  1  0  0  0  0
 20 23  1  0  0  0  0
 24 25  2  0  0  0  0
 24 26  1  0  0  0  0
 26 27  1  0  0  0  0
 26 28  1  0  0  0  0
 28 29  1  0  0  0  0
 28 30  1  0  0  0  0
 28 31  1  0  0  0  0
M  END
$$$$

  -OEChem-01062216083D

 31 30  0     1  0  0  0  0  0999 V2000
   -3.4721   -2.7433    0.9292 H   0  0  0  0  0  0  0  0  0  0  0  0
   -3.4205   -1.7408    0.4948 C   0  0  0  0  0  0  0  0  0  0  0  0
   -3.9830   -1.0537    1.1316 H   0  0  0  0  0  0  0  0  0  0  0  0
   -3.8755   -1.7632   -0.4984 H   0  0  0  0  0  0  0  0  0  0  0  0
   -1.9761   -1.2890    0.3929 C   0  0  0  0  0  0  0  0  0  0  0  0
   -1.0763   -2.0701    0.6594 O   0  0  0  0  0  0  0  0  0  0  0  0
   -1.6888   -0.0293   -0.0947 N   0  0  0  0  0  0  0  0  0  0  0  0
   -2.5007    0.5550   -0.2713 H   0  0  0  0  0  0  0  0  0  0  0  0
   -0.4049    0.6820    0.0696 C   0  0  1  0  0  0  0  0  0  0  0  0
    0.3381    0.2004   -0.5706 H   0  0  0  0  0  0  0  0  0  0  0  0
   -0.6136    2.1368   -0.4110 C   0  0  0  0  0  0  0  0  0  0  0  0
   -1.4352    2.5813    0.1613 H   0  0  0  0  0  0  0  0  0  0  0  0
    0.2873    2.7180   -0.1839 H   0  0  0  0  0  0  0  0  0  0  0  0
   -0.9046    2.2709   -1.9230 C   0  0  0  0  0  0  0  0  0  0  0  0
   -1.7731    1.6580   -2.1845 H   0  0  0  0  0  0  0  0  0  0  0  0
   -1.2385    3.7331   -2.2410 C   0  0  0  0  0  0  0  0  0  0  0  0
   -0.3915    4.3846   -2.0025 H   0  0  0  0  0  0  0  0  0  0  0  0
   -1.4777    3.8488   -3.3028 H   0  0  0  0  0  0  0  0  0  0  0  0
   -2.1048    4.0625   -1.6587 H   0  0  0  0  0  0  0  0  0  0  0  0
    0.2860    1.8289   -2.7867 C   0  0  0  0  0  0  0  0  0  0  0  0
    0.4559    0.7525   -2.6982 H   0  0  0  0  0  0  0  0  0  0  0  0
    0.0927    2.0487   -3.8414 H   0  0  0  0  0  0  0  0  0  0  0  0
    1.1980    2.3541   -2.4854 H   0  0  0  0  0  0  0  0  0  0  0  0
    0.2015    0.6395    1.5021 C   0  0  0  0  0  0  0  0  0  0  0  0
    0.1744    1.6310    2.2228 O   0  0  0  0  0  0  0  0  0  0  0  0
    0.8052   -0.5063    1.9825 N   0  0  0  0  0  0  0  0  0  0  0  0
    0.5608   -1.3605    1.4749 H   0  0  0  0  0  0  0  0  0  0  0  0
    1.2839   -0.6385    3.3525 C   0  0  0  0  0  0  0  0  0  0  0  0
    0.4534   -0.5439    4.0596 H   0  0  0  0  0  0  0  0  0  0  0  0
    1.7518   -1.6174    3.4935 H   0  0  0  0  0  0  0  0  0  0  0  0
    2.0278    0.1334    3.5757 H   0  0  0  0  0  0  0  0  0  0  0  0
  1  2  1  0  0  0  0
  2  3  1  0  0  0  0
  2  4  1  0  0  0  0
  2  5  1  0  0  0  0
  5  6  2  0  0  0  0
  5  7  1  0  0  0  0
  7  8  1  0  0  0  0
  7  9  1  0  0  0  0
  9 10  1  0  0  0  0
  9 11  1  0  0  0  0
  9 24  1  0  0  0  0
 11 12  1  0  0  0  0
 11 13  1  0  0  0  0
 11 14  1  0  0  0  0
 14 15  1  0  0  0  0
 14 16  1  0  0  0  0
 14 20  1  0  0  0  0
 16 17  1  0  0  0  0
 16 18  1  0  0  0  0
 16 19  1  0  0  0  0
 20 21  1  0  0  0  0
 20 22  1  0  0  0  0
 20 23  1  0  0  0  0
 24 25  2  0  0  0  0
 24 26  1  0  0  0  0
 26 27  1  0  0  0  0
 26 28  1  0  0  0  0
 28 29  1  0  0  0  0
 28 30  1  0  0  0  0
 28 31  1  0  0  0  0
M  END
$$$$

  -OEChem-01062216083D

 31 30  0     1  0  0  0  0  0999 V2000
   -3.3735   -2.7571    1.0253 H   0  0  0  0  0  0  0  0  0  0  0  0
   -3.3600   -1.7674    0.5602 C   0  0  0  0  0  0  0  0  0  0  0  0
   -3.9262   -1.0765    1.1896 H   0  0  0  0  0  0  0  0  0  0  0  0
   -3.8369   -1.8323   -0.4208 H   0  0  0  0  0  0  0  0  0  0  0  0
   -1.9314   -1.2801    0.4111 C   0  0  0  0  0  0  0  0  0  0  0  0
   -1.0014   -2.0254    0.6810 O   0  0  0  0  0  0  0  0  0  0  0  0
   -1.6848   -0.0244   -0.1088 N   0  0  0  0  0  0  0  0  0  0  0  0
   -2.5082    0.5523   -0.2541 H   0  0  0  0  0  0  0  0  0  0  0  0
   -0.4040    0.6899    0.0455 C   0  0  1  0  0  0  0  0  0  0  0  0
    0.3424    0.2087   -0.5918 H   0  0  0  0  0  0  0  0  0  0  0  0
   -0.6034    2.1474   -0.4266 C   0  0  0  0  0  0  0  0  0  0  0  0
   -1.4224    2.5937    0.1482 H   0  0  0  0  0  0  0  0  0  0  0  0
    0.3017    2.7201   -0.1949 H   0  0  0  0  0  0  0  0  0  0  0  0
   -0.9007    2.2911   -1.9362 C   0  0  0  0  0  0  0  0  0  0  0  0
   -1.7747    1.6855   -2.1960 H   0  0  0  0  0  0  0  0  0  0  0  0
   -1.2245    3.7574   -2.2457 C   0  0  0  0  0  0  0  0  0  0  0  0
   -0.3724    4.4009   -2.0041 H   0  0  0  0  0  0  0  0  0  0  0  0
   -1.4630    3.8806   -3.3069 H   0  0  0  0  0  0  0  0  0  0  0  0
   -2.0881    4.0902   -1.6611 H   0  0  0  0  0  0  0  0  0  0  0  0
    0.2824    1.8443   -2.8074 C   0  0  0  0  0  0  0  0  0  0  0  0
    0.4435    0.7661   -2.7244 H   0  0  0  0  0  0  0  0  0  0  0  0
    0.0864    2.0711   -3.8602 H   0  0  0  0  0  0  0  0  0  0  0  0
    1.1997    2.3609   -2.5074 H   0  0  0  0  0  0  0  0  0  0  0  0
    0.1743    0.6469    1.4858 C   0  0  0  0  0  0  0  0  0  0  0  0
   -0.0678    1.5466    2.2828 O   0  0  0  0  0  0  0  0  0  0  0  0
    1.0233   -0.3766    1.8613 N   0  0  0  0  0  0  0  0  0  0  0  0
    0.9152   -1.2276    1.3070 H   0  0  0  0  0  0  0  0  0  0  0  0
    1.5193   -0.5206    3.2240 C   0  0  0  0  0  0  0  0  0  0  0  0
    0.6880   -0.6727    3.9202 H   0  0  0  0  0  0  0  0  0  0  0  0
    2.1910   -1.3818    3.2907 H   0  0  0  0  0  0  0  0  0  0  0  0
    2.0749    0.3728    3.5273 H   0  0  0  0  0  0  0  0  0  0  0  0
  1  2  1  0  0  0  0
  2  3  1  0  0  0  0
  2  4  1  0  0  0  0
  2  5  1  0  0  0  0
  5  6  2  0  0  0  0
  5  7  1  0  0  0  0
  7  8  1  0  0  0  0
  7  9  1  0  0  0  0
  9 10  1  0  0  0  0
  9 11  1  0  0  0  0
  9 24  1  0  0  0  0
 11 12  1  0  0  0  0
 11 13  1  0  0  0  0
 11 14  1  0  0  0  0
 14 15  1  0  0  0  0
 14 16  1  0  0  0  0
 14 20  1  0  0  0  0
 16 17  1  0  0  0  0
 16 18  1  0  0  0  0
 16 19  1  0  0  0  0
 20 21  1  0  0  0  0
 20 22  1  0  0  0  0
 20 23  1  0  0  0  0
 24 25  2  0  0  0  0
 24 26  1  0  0  0  0
 26 27  1  0  0  0  0
 26 28  1  0  0  0  0
 28 29  1  0  0  0  0
 28 30  1  0  0  0  0
 28 31  1  0  0  0  0
M  END
$$$$

  -OEChem-01062216083D

 31 30  0     1  0  0  0  0  0999 V2000
   -3.3092   -2.7592    1.0851 H   0  0  0  0  0  0  0  0  0  0  0  0
   -3.3184   -1.7721    0.6143 C   0  0  0  0  0  0  0  0  0  0  0  0
   -3.8698   -1.0820    1.2578 H   0  0  0  0  0  0  0  0  0  0  0  0
   -3.8255   -1.8459   -0.3506 H   0  0  0  0  0  0  0  0  0  0  0  0
   -1.8993   -1.2743    0.4168 C   0  0  0  0  0  0  0  0  0  0  0  0
   -0.9527   -2.0019    0.6783 O   0  0  0  0  0  0  0  0  0  0  0  0
   -1.6784   -0.0245   -0.1287 N   0  0  0  0  0  0  0  0  0  0  0  0
   -2.5081    0.5515   -0.2354 H   0  0  0  0  0  0  0  0  0  0  0  0
   -0.3993    0.6905    0.0192 C   0  0  1  0  0  0  0  0  0  0  0  0
    0.3482    0.2090   -0.6163 H   0  0  0  0  0  0  0  0  0  0  0  0
   -0.5943    2.1505   -0.4413 C   0  0  0  0  0  0  0  0  0  0  0  0
   -1.4104    2.5949    0.1390 H   0  0  0  0  0  0  0  0  0  0  0  0
    0.3131    2.7184   -0.2079 H   0  0  0  0  0  0  0  0  0  0  0  0
   -0.8993    2.3035   -1.9481 C   0  0  0  0  0  0  0  0  0  0  0  0
   -1.7780    1.7028   -2.2053 H   0  0  0  0  0  0  0  0  0  0  0  0
   -1.2186    3.7726   -2.2490 C   0  0  0  0  0  0  0  0  0  0  0  0
   -0.3613    4.4113   -2.0128 H   0  0  0  0  0  0  0  0  0  0  0  0
   -1.4659    3.9009   -3.3076 H   0  0  0  0  0  0  0  0  0  0  0  0
   -2.0752    4.1070   -1.6555 H   0  0  0  0  0  0  0  0  0  0  0  0
    0.2766    1.8553   -2.8281 C   0  0  0  0  0  0  0  0  0  0  0  0
    0.4329    0.7758   -2.7518 H   0  0  0  0  0  0  0  0  0  0  0  0
    0.0757    2.0886   -3.8785 H   0  0  0  0  0  0  0  0  0  0  0  0
    1.1980    2.3658   -2.5305 H   0  0  0  0  0  0  0  0  0  0  0  0
    0.1578    0.6525    1.4650 C   0  0  0  0  0  0  0  0  0  0  0  0
   -0.3019    1.3987    2.3226 O   0  0  0  0  0  0  0  0  0  0  0  0
    1.2229   -0.1714    1.7764 N   0  0  0  0  0  0  0  0  0  0  0  0
    1.3506   -0.9566    1.1408 H   0  0  0  0  0  0  0  0  0  0  0  0
    1.7156   -0.3221    3.1397 C   0  0  0  0  0  0  0  0  0  0  0  0
    0.9332   -0.7337    3.7859 H   0  0  0  0  0  0  0  0  0  0  0  0
    2.5739   -1.0006    3.1569 H   0  0  0  0  0  0  0  0  0  0  0  0
    2.0342    0.6450    3.5429 H   0  0  0  0  0  0  0  0  0  0  0  0
  1  2  1  0  0  0  0
  2  3  1  0  0  0  0
  2  4  1  0  0  0  0
  2  5  1  0  0  0  0
  5  6  2  0  0  0  0
  5  7  1  0  0  0  0
  7  8  1  0  0  0  0
  7  9  1  0  0  0  0
  9 10  1  0  0  0  0
  9 11  1  0  0  0  0
  9 24  1  0  0  0  0
 11 12  1  0  0  0  0
 11 13  1  0  0  0  0
 11 14  1  0  0  0  0
 14 15  1  0  0  0  0
 14 16  1  0  0  0  0
 14 20  1  0  0  0  0
 16 17  1  0  0  0  0
 16 18  1  0  0  0  0
 16 19  1  0  0  0  0
 20 21  1  0  0  0  0
 20 22  1  0  0  0  0
 20 23  1  0  0  0  0
 24 25  2  0  0  0  0
 24 26  1  0  0  0  0
 26 27  1  0  0  0  0
 26 28  1  0  0  0  0
 28 29  1  0  0  0  0
 28 30  1  0  0  0  0
 28 31  1  0  0  0  0
M  END
$$$$

  -OEChem-01062216083D

 31 30  0     1  0  0  0  0  0999 V2000
   -3.2868   -2.7632    1.1047 H   0  0  0  0  0  0  0  0  0  0  0  0
   -3.3052   -1.7710    0.6450 C   0  0  0  0  0  0  0  0  0  0  0  0
   -3.8361   -1.0855    1.3104 H   0  0  0  0  0  0  0  0  0  0  0  0
   -3.8382   -1.8327   -0.3069 H   0  0  0  0  0  0  0  0  0  0  0  0
   -1.8902   -1.2755    0.4154 C   0  0  0  0  0  0  0  0  0  0  0  0
   -0.9380   -1.9989    0.6677 O   0  0  0  0  0  0  0  0  0  0  0  0
   -1.6803   -0.0309   -0.1457 N   0  0  0  0  0  0  0  0  0  0  0  0
   -2.5124    0.5455   -0.2275 H   0  0  0  0  0  0  0  0  0  0  0  0
   -0.4023    0.6850    0.0021 C   0  0  1  0  0  0  0  0  0  0  0  0
    0.3456    0.2005   -0.6304 H   0  0  0  0  0  0  0  0  0  0  0  0
   -0.5925    2.1464   -0.4506 C   0  0  0  0  0  0  0  0  0  0  0  0
   -1.4063    2.5900    0.1333 H   0  0  0  0  0  0  0  0  0  0  0  0
    0.3169    2.7103   -0.2152 H   0  0  0  0  0  0  0  0  0  0  0  0
   -0.8981    2.3072   -1.9560 C   0  0  0  0  0  0  0  0  0  0  0  0
   -1.7792    1.7109   -2.2149 H   0  0  0  0  0  0  0  0  0  0  0  0
   -1.2123    3.7790   -2.2483 C   0  0  0  0  0  0  0  0  0  0  0  0
   -0.3496    4.4117   -2.0156 H   0  0  0  0  0  0  0  0  0  0  0  0
   -1.4672    3.9130   -3.3042 H   0  0  0  0  0  0  0  0  0  0  0  0
   -2.0625    4.1158   -1.6468 H   0  0  0  0  0  0  0  0  0  0  0  0
    0.2752    1.8583   -2.8392 C   0  0  0  0  0  0  0  0  0  0  0  0
    0.4268    0.7778   -2.7682 H   0  0  0  0  0  0  0  0  0  0  0  0
    0.0744    2.0977   -3.8881 H   0  0  0  0  0  0  0  0  0  0  0  0
    1.1992    2.3631   -2.5400 H   0  0  0  0  0  0  0  0  0  0  0  0
    0.1440    0.6576    1.4509 C   0  0  0  0  0  0  0  0  0  0  0  0
   -0.4823    1.2120    2.3478 O   0  0  0  0  0  0  0  0  0  0  0  0
    1.3757    0.0926    1.7248 N   0  0  0  0  0  0  0  0  0  0  0  0
    1.7369   -0.5399    1.0159 H   0  0  0  0  0  0  0  0  0  0  0  0
    1.8812   -0.0473    3.0845 C   0  0  0  0  0  0  0  0  0  0  0  0
    1.2167   -0.6870    3.6749 H   0  0  0  0  0  0  0  0  0  0  0  0
    2.8780   -0.4983    3.0723 H   0  0  0  0  0  0  0  0  0  0  0  0
    1.9532    0.9315    3.5705 H   0  0  0  0  0  0  0  0  0  0  0  0
  1  2  1  0  0  0  0
  2  3  1  0  0  0  0
  2  4  1  0  0  0  0
  2  5  1  0  0  0  0
  5  6  2  0  0  0  0
  5  7  1  0  0  0  0
  7  8  1  0  0  0  0
  7  9  1  0  0  0  0
  9 10  1  0  0  0  0
  9 11  1  0  0  0  0
  9 24  1  0  0  0  0
 11 12  1  0  0  0  0
 11 13  1  0  0  0  0
 11 14  1  0  0  0  0
 14 15  1  0  0  0  0
 14 16  1  0  0  0  0
 14 20  1  0  0  0  0
 16 17  1  0  0  0  0
 16 18  1  0  0  0  0
 16 19  1  0  0  0  0
 20 21  1  0  0  0  0
 20 22  1  0  0  0  0
 20 23  1  0  0  0  0
 24 25  2  0  0  0  0
 24 26  1  0  0  0  0
 26 27  1  0  0  0  0
 26 28  1  0  0  0  0
 28 29  1  0  0  0  0
 28 30  1  0  0  0  0
 28 31  1  0  0  0  0
M  END
$$$$

  -OEChem-01062216083D

 31 30  0     1  0  0  0  0  0999 V2000
   -3.2822   -2.7530    1.1438 H   0  0  0  0  0  0  0  0  0  0  0  0
   -3.3069   -1.7701    0.6651 C   0  0  0  0  0  0  0  0  0  0  0  0
   -3.8205   -1.0701    1.3287 H   0  0  0  0  0  0  0  0  0  0  0  0
   -3.8604   -1.8473   -0.2737 H   0  0  0  0  0  0  0  0  0  0  0  0
   -1.8953   -1.2847    0.3969 C   0  0  0  0  0  0  0  0  0  0  0  0
   -0.9420   -2.0158    0.6220 O   0  0  0  0  0  0  0  0  0  0  0  0
   -1.6896   -0.0405   -0.1676 N   0  0  0  0  0  0  0  0  0  0  0  0
   -2.5217    0.5383   -0.2252 H   0  0  0  0  0  0  0  0  0  0  0  0
   -0.4116    0.6738   -0.0073 C   0  0  1  0  0  0  0  0  0  0  0  0
    0.3400    0.1877   -0.6343 H   0  0  0  0  0  0  0  0  0  0  0  0
   -0.5974    2.1381   -0.4511 C   0  0  0  0  0  0  0  0  0  0  0  0
   -1.4146    2.5780    0.1313 H   0  0  0  0  0  0  0  0  0  0  0  0
    0.3109    2.6999   -0.2072 H   0  0  0  0  0  0  0  0  0  0  0  0
   -0.8936    2.3083   -1.9573 C   0  0  0  0  0  0  0  0  0  0  0  0
   -1.7737    1.7143   -2.2254 H   0  0  0  0  0  0  0  0  0  0  0  0
   -1.2049    3.7819   -2.2442 C   0  0  0  0  0  0  0  0  0  0  0  0
   -0.3460    4.4142   -1.9972 H   0  0  0  0  0  0  0  0  0  0  0  0
   -1.4467    3.9227   -3.3024 H   0  0  0  0  0  0  0  0  0  0  0  0
   -2.0628    4.1136   -1.6510 H   0  0  0  0  0  0  0  0  0  0  0  0
    0.2855    1.8613   -2.8338 C   0  0  0  0  0  0  0  0  0  0  0  0
    0.4354    0.7803   -2.7651 H   0  0  0  0  0  0  0  0  0  0  0  0
    0.0922    2.1037   -3.8835 H   0  0  0  0  0  0  0  0  0  0  0  0
    1.2080    2.3642   -2.5269 H   0  0  0  0  0  0  0  0  0  0  0  0
    0.1241    0.6493    1.4452 C   0  0  0  0  0  0  0  0  0  0  0  0
   -0.6047    1.0001    2.3674 O   0  0  0  0  0  0  0  0  0  0  0  0
    1.4562    0.3754    1.6959 N   0  0  0  0  0  0  0  0  0  0  0  0
    1.9803   -0.0533    0.9388 H   0  0  0  0  0  0  0  0  0  0  0  0
    1.9966    0.2874    3.0467 C   0  0  0  0  0  0  0  0  0  0  0  0
    1.4935   -0.5066    3.6086 H   0  0  0  0  0  0  0  0  0  0  0  0
    3.0671    0.0638    3.0116 H   0  0  0  0  0  0  0  0  0  0  0  0
    1.8599    1.2357    3.5771 H   0  0  0  0  0  0  0  0  0  0  0  0
  1  2  1  0  0  0  0
  2  3  1  0  0  0  0
  2  4  1  0  0  0  0
  2  5  1  0  0  0  0
  5  6  2  0  0  0  0
  5  7  1  0  0  0  0
  7  8  1  0  0  0  0
  7  9  1  0  0  0  0
  9 10  1  0  0  0  0
  9 11  1  0  0  0  0
  9 24  1  0  0  0  0
 11 12  1  0  0  0  0
 11 13  1  0  0  0  0
 11 14  1  0  0  0  0
 14 15  1  0  0  0  0
 14 16  1  0  0  0  0
 14 20  1  0  0  0  0
 16 17  1  0  0  0  0
 16 18  1  0  0  0  0
 16 19  1  0  0  0  0
 20 21  1  0  0  0  0
 20 22  1  0  0  0  0
 20 23  1  0  0  0  0
 24 25  2  0  0  0  0
 24 26  1  0  0  0  0
 26 27  1  0  0  0  0
 26 28  1  0  0  0  0
 28 29  1  0  0  0  0
 28 30  1  0  0  0  0
 28 31  1  0  0  0  0
M  END
$$$$

  -OEChem-01062216083D

 31 30  0     1  0  0  0  0  0999 V2000
   -3.2948   -2.7696    1.1035 H   0  0  0  0  0  0  0  0  0  0  0  0
   -3.3169   -1.7661    0.6697 C   0  0  0  0  0  0  0  0  0  0  0  0
   -3.7971   -1.0877    1.3790 H   0  0  0  0  0  0  0  0  0  0  0  0
   -3.9000   -1.7926   -0.2537 H   0  0  0  0  0  0  0  0  0  0  0  0
   -1.9055   -1.2927    0.3799 C   0  0  0  0  0  0  0  0  0  0  0  0
   -0.9556   -2.0369    0.5735 O   0  0  0  0  0  0  0  0  0  0  0  0
   -1.6973   -0.0470   -0.1811 N   0  0  0  0  0  0  0  0  0  0  0  0
   -2.5274    0.5361   -0.2164 H   0  0  0  0  0  0  0  0  0  0  0  0
   -0.4180    0.6627   -0.0057 C   0  0  1  0  0  0  0  0  0  0  0  0
    0.3373    0.1759   -0.6276 H   0  0  0  0  0  0  0  0  0  0  0  0
   -0.6029    2.1281   -0.4463 C   0  0  0  0  0  0  0  0  0  0  0  0
   -1.4261    2.5637    0.1310 H   0  0  0  0  0  0  0  0  0  0  0  0
    0.3012    2.6931   -0.1943 H   0  0  0  0  0  0  0  0  0  0  0  0
   -0.8874    2.3016   -1.9546 C   0  0  0  0  0  0  0  0  0  0  0  0
   -1.7642    1.7068   -2.2311 H   0  0  0  0  0  0  0  0  0  0  0  0
   -1.1992    3.7750   -2.2408 C   0  0  0  0  0  0  0  0  0  0  0  0
   -0.3417    4.4076   -1.9900 H   0  0  0  0  0  0  0  0  0  0  0  0
   -1.4375    3.9164   -3.2996 H   0  0  0  0  0  0  0  0  0  0  0  0
   -2.0596    4.1057   -1.6509 H   0  0  0  0  0  0  0  0  0  0  0  0
    0.2983    1.8593   -2.8245 C   0  0  0  0  0  0  0  0  0  0  0  0
    0.4491    0.7783   -2.7584 H   0  0  0  0  0  0  0  0  0  0  0  0
    0.1115    2.1052   -3.8746 H   0  0  0  0  0  0  0  0  0  0  0  0
    1.2178    2.3629   -2.5095 H   0  0  0  0  0  0  0  0  0  0  0  0
    0.1138    0.6388    1.4492 C   0  0  0  0  0  0  0  0  0  0  0  0
   -0.6632    0.7875    2.3869 O   0  0  0  0  0  0  0  0  0  0  0  0
    1.4753    0.6720    1.6923 N   0  0  0  0  0  0  0  0  0  0  0  0
    2.0862    0.4589    0.9098 H   0  0  0  0  0  0  0  0  0  0  0  0
    2.0369    0.6541    3.0374 C   0  0  0  0  0  0  0  0  0  0  0  0
    1.7297   -0.2533    3.5680 H   0  0  0  0  0  0  0  0  0  0  0  0
    3.1298    0.6757    2.9908 H   0  0  0  0  0  0  0  0  0  0  0  0
    1.6994    1.5268    3.6063 H   0  0  0  0  0  0  0  0  0  0  0  0
  1  2  1  0  0  0  0
  2  3  1  0  0  0  0
  2  4  1  0  0  0  0
  2  5  1  0  0  0  0
  5  6  2  0  0  0  0
  5  7  1  0  0  0  0
  7  8  1  0  0  0  0
  7  9  1  0  0  0  0
  9 10  1  0  0  0  0
  9 11  1  0  0  0  0
  9 24  1  0  0  0  0
 11 12  1  0  0  0  0
 11 13  1  0  0  0  0
 11 14  1  0  0  0  0
 14 15  1  0  0  0  0
 14 16  1  0  0  0  0
 14 20  1  0  0  0  0
 16 17  1  0  0  0  0
 16 18  1  0  0  0  0
 16 19  1  0  0  0  0
 20 21  1  0  0  0  0
 20 22  1  0  0  0  0
 20 23  1  0  0  0  0
 24 25  2  0  0  0  0
 24 26  1  0  0  0  0
 26 27  1  0  0  0  0
 26 28  1  0  0  0  0
 28 29  1  0  0  0  0
 28 30  1  0  0  0  0
 28 31  1  0  0  0  0
M  END
$$$$

  -OEChem-01062216083D

 31 30  0     1  0  0  0  0  0999 V2000
   -3.3113   -2.7797    1.0695 H   0  0  0  0  0  0  0  0  0  0  0  0
   -3.3274   -1.7613    0.6716 C   0  0  0  0  0  0  0  0  0  0  0  0
   -3.7742   -1.0999    1.4182 H   0  0  0  0  0  0  0  0  0  0  0  0
   -3.9373   -1.7449   -0.2346 H   0  0  0  0  0  0  0  0  0  0  0  0
   -1.9164   -1.3023    0.3577 C   0  0  0  0  0  0  0  0  0  0  0  0
   -0.9733   -2.0648    0.5096 O   0  0  0  0  0  0  0  0  0  0  0  0
   -1.7029   -0.0524   -0.1924 N   0  0  0  0  0  0  0  0  0  0  0  0
   -2.5300    0.5355   -0.2076 H   0  0  0  0  0  0  0  0  0  0  0  0
   -0.4208    0.6498   -0.0010 C   0  0  1  0  0  0  0  0  0  0  0  0
    0.3367    0.1637   -0.6212 H   0  0  0  0  0  0  0  0  0  0  0  0
   -0.6078    2.1170   -0.4388 C   0  0  0  0  0  0  0  0  0  0  0  0
   -1.4352    2.5483    0.1351 H   0  0  0  0  0  0  0  0  0  0  0  0
    0.2920    2.6863   -0.1820 H   0  0  0  0  0  0  0  0  0  0  0  0
   -0.8824    2.2940   -1.9488 C   0  0  0  0  0  0  0  0  0  0  0  0
   -1.7546    1.6964   -2.2344 H   0  0  0  0  0  0  0  0  0  0  0  0
   -1.1975    3.7670   -2.2335 C   0  0  0  0  0  0  0  0  0  0  0  0
   -0.3455    4.4028   -1.9728 H   0  0  0  0  0  0  0  0  0  0  0  0
   -1.4260    3.9104   -3.2943 H   0  0  0  0  0  0  0  0  0  0  0  0
   -2.0652    4.0921   -1.6509 H   0  0  0  0  0  0  0  0  0  0  0  0
    0.3131    1.8598   -2.8097 C   0  0  0  0  0  0  0  0  0  0  0  0
    0.4702    0.7796   -2.7441 H   0  0  0  0  0  0  0  0  0  0  0  0
    0.1335    2.1061   -3.8610 H   0  0  0  0  0  0  0  0  0  0  0  0
    1.2272    2.3682   -2.4870 H   0  0  0  0  0  0  0  0  0  0  0  0
    0.1144    0.6202    1.4548 C   0  0  0  0  0  0  0  0  0  0  0  0
   -0.6652    0.5674    2.4009 O   0  0  0  0  0  0  0  0  0  0  0  0
    1.4326    0.9570    1.7085 N   0  0  0  0  0  0  0  0  0  0  0  0
    2.0686    0.9668    0.9171 H   0  0  0  0  0  0  0  0  0  0  0  0
    1.9901    1.0226    3.0541 C   0  0  0  0  0  0  0  0  0  0  0  0
    1.8811    0.0578    3.5607 H   0  0  0  0  0  0  0  0  0  0  0  0
    3.0543    1.2732    3.0108 H   0  0  0  0  0  0  0  0  0  0  0  0
    1.4785    1.7902    3.6442 H   0  0  0  0  0  0  0  0  0  0  0  0
  1  2  1  0  0  0  0
  2  3  1  0  0  0  0
  2  4  1  0  0  0  0
  2  5  1  0  0  0  0
  5  6  2  0  0  0  0
  5  7  1  0  0  0  0
  7  8  1  0  0  0  0
  7  9  1  0  0  0  0
  9 10  1  0  0  0  0
  9 11  1  0  0  0  0
  9 24  1  0  0  0  0
 11 12  1  0  0  0  0
 11 13  1  0  0  0  0
 11 14  1  0  0  0  0
 14 15  1  0  0  0  0
 14 16  1  0  0  0  0
 14 20  1  0  0  0  0
 16 17  1  0  0  0  0
 16 18  1  0  0  0  0
 16 19  1  0  0  0  0
 20 21  1  0  0  0  0
 20 22  1  0  0  0  0
 20 23  1  0  0  0  0
 24 25  2  0  0  0  0
 24 26  1  0  0  0  0
 26 27  1  0  0  0  0
 26 28  1  0  0  0  0
 28 29  1  0  0  0  0
 28 30  1  0  0  0  0
 28 31  1  0  0  0  0
M  END
$$$$

  -OEChem-01062216083D

 31 30  0     1  0  0  0  0  0999 V2000
   -3.4173   -2.7456    0.9719 H   0  0  0  0  0  0  0  0  0  0  0  0
   -3.3833   -1.7036    0.6421 C   0  0  0  0  0  0  0  0  0  0  0  0
   -3.7315   -1.0663    1.4585 H   0  0  0  0  0  0  0  0  0  0  0  0
   -4.0462   -1.5824   -0.2176 H   0  0  0  0  0  0  0  0  0  0  0  0
   -1.9639   -1.3249    0.2642 C   0  0  0  0  0  0  0  0  0  0  0  0
   -1.0892   -2.1770    0.2325 O   0  0  0  0  0  0  0  0  0  0  0  0
   -1.6904   -0.0616   -0.2260 N   0  0  0  0  0  0  0  0  0  0  0  0
   -2.5000    0.5494   -0.2192 H   0  0  0  0  0  0  0  0  0  0  0  0
   -0.3989    0.6180    0.0105 C   0  0  1  0  0  0  0  0  0  0  0  0
    0.2839    0.3295   -0.7922 H   0  0  0  0  0  0  0  0  0  0  0  0
   -0.6853    2.1364   -0.0483 C   0  0  0  0  0  0  0  0  0  0  0  0
   -1.4620    2.3712    0.6879 H   0  0  0  0  0  0  0  0  0  0  0  0
    0.2108    2.6919    0.2463 H   0  0  0  0  0  0  0  0  0  0  0  0
   -1.1235    2.6446   -1.4406 C   0  0  0  0  0  0  0  0  0  0  0  0
   -1.9981    2.0804   -1.7806 H   0  0  0  0  0  0  0  0  0  0  0  0
   -1.5202    4.1216   -1.3349 C   0  0  0  0  0  0  0  0  0  0  0  0
   -0.6703    4.7289   -1.0074 H   0  0  0  0  0  0  0  0  0  0  0  0
   -1.8610    4.4958   -2.3055 H   0  0  0  0  0  0  0  0  0  0  0  0
   -2.3358    4.2479   -0.6159 H   0  0  0  0  0  0  0  0  0  0  0  0
   -0.0089    2.4981   -2.4870 C   0  0  0  0  0  0  0  0  0  0  0  0
    0.1931    1.4443   -2.6978 H   0  0  0  0  0  0  0  0  0  0  0  0
   -0.3056    2.9738   -3.4270 H   0  0  0  0  0  0  0  0  0  0  0  0
    0.9147    2.9700   -2.1372 H   0  0  0  0  0  0  0  0  0  0  0  0
    0.3491    0.2869    1.3369 C   0  0  0  0  0  0  0  0  0  0  0  0
   -0.2553   -0.1488    2.3108 O   0  0  0  0  0  0  0  0  0  0  0  0
    1.5671    0.8961    1.5949 N   0  0  0  0  0  0  0  0  0  0  0  0
    2.0588    1.3044    0.8064 H   0  0  0  0  0  0  0  0  0  0  0  0
    2.2565    0.8056    2.8777 C   0  0  0  0  0  0  0  0  0  0  0  0
    2.4130   -0.2421    3.1557 H   0  0  0  0  0  0  0  0  0  0  0  0
    3.2326    1.2963    2.8182 H   0  0  0  0  0  0  0  0  0  0  0  0
    1.6710    1.2948    3.6633 H   0  0  0  0  0  0  0  0  0  0  0  0
  1  2  1  0  0  0  0
  2  3  1  0  0  0  0
  2  4  1  0  0  0  0
  2  5  1  0  0  0  0
  5  6  2  0  0  0  0
  5  7  1  0  0  0  0
  7  8  1  0  0  0  0
  7  9  1  0  0  0  0
  9 10  1  0  0  0  0
  9 11  1  0  0  0  0
  9 24  1  0  0  0  0
 11 12  1  0  0  0  0
 11 13  1  0  0  0  0
 11 14  1  0  0  0  0
 14 15  1  0  0  0  0
 14 16  1  0  0  0  0
 14 20  1  0  0  0  0
 16 17  1  0  0  0  0
 16 18  1  0  0  0  0
 16 19  1  0  0  0  0
 20 21  1  0  0  0  0
 20 22  1  0  0  0  0
 20 23  1  0  0  0  0
 24 25  2  0  0  0  0
 24 26  1  0  0  0  0
 26 27  1  0  0  0  0
 26 28  1  0  0  0  0
 28 29  1  0  0  0  0
 28 30  1  0  0  0  0
 28 31  1  0  0  0  0
M  END
$$$$

  -OEChem-01062216083D

 31 30  0     1  0  0  0  0  0999 V2000
   -3.4240   -2.7382    0.9426 H   0  0  0  0  0  0  0  0  0  0  0  0
   -3.3760   -1.6826    0.6610 C   0  0  0  0  0  0  0  0  0  0  0  0
   -3.6752   -1.0776    1.5202 H   0  0  0  0  0  0  0  0  0  0  0  0
   -4.0686   -1.5047   -0.1647 H   0  0  0  0  0  0  0  0  0  0  0  0
   -1.9631   -1.3208    0.2447 C   0  0  0  0  0  0  0  0  0  0  0  0
   -1.1182   -2.1940    0.1232 O   0  0  0  0  0  0  0  0  0  0  0  0
   -1.6799   -0.0497   -0.2180 N   0  0  0  0  0  0  0  0  0  0  0  0
   -2.4882    0.5622   -0.1912 H   0  0  0  0  0  0  0  0  0  0  0  0
   -0.3897    0.6318    0.0302 C   0  0  1  0  0  0  0  0  0  0  0  0
    0.2944    0.3485   -0.7732 H   0  0  0  0  0  0  0  0  0  0  0  0
   -0.6996    2.1483   -0.0492 C   0  0  0  0  0  0  0  0  0  0  0  0
   -1.4861    2.3804    0.6773 H   0  0  0  0  0  0  0  0  0  0  0  0
    0.1820    2.7276    0.2397 H   0  0  0  0  0  0  0  0  0  0  0  0
   -1.1284    2.6348   -1.4530 C   0  0  0  0  0  0  0  0  0  0  0  0
   -1.9905    2.0544   -1.7978 H   0  0  0  0  0  0  0  0  0  0  0  0
   -1.5487    4.1067   -1.3671 C   0  0  0  0  0  0  0  0  0  0  0  0
   -0.7105    4.7305   -1.0407 H   0  0  0  0  0  0  0  0  0  0  0  0
   -1.8876    4.4647   -2.3445 H   0  0  0  0  0  0  0  0  0  0  0  0
   -2.3712    4.2289   -0.6554 H   0  0  0  0  0  0  0  0  0  0  0  0
   -0.0002    2.4942   -2.4858 C   0  0  0  0  0  0  0  0  0  0  0  0
    0.2162    1.4415   -2.6874 H   0  0  0  0  0  0  0  0  0  0  0  0
   -0.2917    2.9599   -3.4325 H   0  0  0  0  0  0  0  0  0  0  0  0
    0.9141    2.9790   -2.1294 H   0  0  0  0  0  0  0  0  0  0  0  0
    0.3806    0.2988    1.3508 C   0  0  0  0  0  0  0  0  0  0  0  0
   -0.1083   -0.3980    2.2314 O   0  0  0  0  0  0  0  0  0  0  0  0
    1.4174    1.1237    1.7615 N   0  0  0  0  0  0  0  0  0  0  0  0
    1.8110    1.7539    1.0703 H   0  0  0  0  0  0  0  0  0  0  0  0
    2.0720    1.0187    3.0617 C   0  0  0  0  0  0  0  0  0  0  0  0
    2.4559    0.0048    3.2172 H   0  0  0  0  0  0  0  0  0  0  0  0
    2.9116    1.7180    3.1205 H   0  0  0  0  0  0  0  0  0  0  0  0
    1.3676    1.2562    3.8657 H   0  0  0  0  0  0  0  0  0  0  0  0
  1  2  1  0  0  0  0
  2  3  1  0  0  0  0
  2  4  1  0  0  0  0
  2  5  1  0  0  0  0
  5  6  2  0  0  0  0
  5  7  1  0  0  0  0
  7  8  1  0  0  0  0
  7  9  1  0  0  0  0
  9 10  1  0  0  0  0
  9 11  1  0  0  0  0
  9 24  1  0  0  0  0
 11 12  1  0  0  0  0
 11 13  1  0  0  0  0
 11 14  1  0  0  0  0
 14 15  1  0  0  0  0
 14 16  1  0  0  0  0
 14 20  1  0  0  0  0
 16 17  1  0  0  0  0
 16 18  1  0  0  0  0
 16 19  1  0  0  0  0
 20 21  1  0  0  0  0
 20 22  1  0  0  0  0
 20 23  1  0  0  0  0
 24 25  2  0  0  0  0
 24 26  1  0  0  0  0
 26 27  1  0  0  0  0
 26 28  1  0  0  0  0
 28 29  1  0  0  0  0
 28 30  1  0  0  0  0
 28 31  1  0  0  0  0
M  END
$$$$

  -OEChem-01062216083D

 31 30  0     1  0  0  0  0  0999 V2000
   -3.4083   -2.7128    0.9856 H   0  0  0  0  0  0  0  0  0  0  0  0
   -3.3590   -1.6598    0.6945 C   0  0  0  0  0  0  0  0  0  0  0  0
   -3.6248   -1.0459    1.5582 H   0  0  0  0  0  0  0  0  0  0  0  0
   -4.0755   -1.4805   -0.1104 H   0  0  0  0  0  0  0  0  0  0  0  0
   -1.9565   -1.3156    0.2306 C   0  0  0  0  0  0  0  0  0  0  0  0
   -1.1524   -2.2069    0.0128 O   0  0  0  0  0  0  0  0  0  0  0  0
   -1.6697   -0.0375   -0.2083 N   0  0  0  0  0  0  0  0  0  0  0  0
   -2.4820    0.5682   -0.1712 H   0  0  0  0  0  0  0  0  0  0  0  0
   -0.3903    0.6610    0.0532 C   0  0  1  0  0  0  0  0  0  0  0  0
    0.3030    0.3799   -0.7434 H   0  0  0  0  0  0  0  0  0  0  0  0
   -0.7220    2.1724   -0.0572 C   0  0  0  0  0  0  0  0  0  0  0  0
   -1.5216    2.4074    0.6539 H   0  0  0  0  0  0  0  0  0  0  0  0
    0.1479    2.7705    0.2264 H   0  0  0  0  0  0  0  0  0  0  0  0
   -1.1332    2.6304   -1.4761 C   0  0  0  0  0  0  0  0  0  0  0  0
   -1.9807    2.0320   -1.8262 H   0  0  0  0  0  0  0  0  0  0  0  0
   -1.5768    4.0970   -1.4199 C   0  0  0  0  0  0  0  0  0  0  0  0
   -0.7550    4.7384   -1.0855 H   0  0  0  0  0  0  0  0  0  0  0  0
   -1.9009    4.4359   -2.4090 H   0  0  0  0  0  0  0  0  0  0  0  0
   -2.4158    4.2167   -0.7272 H   0  0  0  0  0  0  0  0  0  0  0  0
    0.0126    2.4922   -2.4894 C   0  0  0  0  0  0  0  0  0  0  0  0
    0.2520    1.4404   -2.6680 H   0  0  0  0  0  0  0  0  0  0  0  0
   -0.2744    2.9342   -3.4488 H   0  0  0  0  0  0  0  0  0  0  0  0
    0.9122    3.0014   -2.1297 H   0  0  0  0  0  0  0  0  0  0  0  0
    0.3905    0.3346    1.3740 C   0  0  0  0  0  0  0  0  0  0  0  0
    0.1430   -0.6347    2.0762 O   0  0  0  0  0  0  0  0  0  0  0  0
    1.1861    1.3019    1.9718 N   0  0  0  0  0  0  0  0  0  0  0  0
    1.3970    2.1328    1.4294 H   0  0  0  0  0  0  0  0  0  0  0  0
    1.8368    1.1338    3.2676 C   0  0  0  0  0  0  0  0  0  0  0  0
    2.4959    0.2593    3.2551 H   0  0  0  0  0  0  0  0  0  0  0  0
    2.4380    2.0162    3.5065 H   0  0  0  0  0  0  0  0  0  0  0  0
    1.0900    1.0011    4.0574 H   0  0  0  0  0  0  0  0  0  0  0  0
  1  2  1  0  0  0  0
  2  3  1  0  0  0  0
  2  4  1  0  0  0  0
  2  5  1  0  0  0  0
  5  6  2  0  0  0  0
  5  7  1  0  0  0  0
  7  8  1  0  0  0  0
  7  9  1  0  0  0  0
  9 10  1  0  0  0  0
  9 11  1  0  0  0  0
  9 24  1  0  0  0  0
 11 12  1  0  0  0  0
 11 13  1  0  0  0  0
 11 14  1  0  0  0  0
 14 15  1  0  0  0  0
 14 16  1  0  0  0  0
 14 20  1  0  0  0  0
 16 17  1  0  0  0  0
 16 18  1  0  0  0  0
 16 19  1  0  0  0  0
 20 21  1  0  0  0  0
 20 22  1  0  0  0  0
 20 23  1  0  0  0  0
 24 25  2  0  0  0  0
 24 26  1  0  0  0  0
 26 27  1  0  0  0  0
 26 28  1  0  0  0  0
 28 29  1  0  0  0  0
 28 30  1  0  0  0  0
 28 31  1  0  0  0  0
M  END
$$$$

  -OEChem-01062216083D

 31 30  0     1  0  0  0  0  0999 V2000
   -3.4235   -2.7136    0.9609 H   0  0  0  0  0  0  0  0  0  0  0  0
   -3.3590   -1.6502    0.7132 C   0  0  0  0  0  0  0  0  0  0  0  0
   -3.6042   -1.0684    1.6048 H   0  0  0  0  0  0  0  0  0  0  0  0
   -4.0821   -1.4267   -0.0745 H   0  0  0  0  0  0  0  0  0  0  0  0
   -1.9564   -1.3105    0.2454 C   0  0  0  0  0  0  0  0  0  0  0  0
   -1.1672   -2.2101    0.0184 O   0  0  0  0  0  0  0  0  0  0  0  0
   -1.6727   -0.0302   -0.1901 N   0  0  0  0  0  0  0  0  0  0  0  0
   -2.4937    0.5648   -0.1813 H   0  0  0  0  0  0  0  0  0  0  0  0
   -0.4086    0.6934    0.0781 C   0  0  1  0  0  0  0  0  0  0  0  0
    0.3006    0.4079   -0.7032 H   0  0  0  0  0  0  0  0  0  0  0  0
   -0.7398    2.2011   -0.0636 C   0  0  0  0  0  0  0  0  0  0  0  0
   -1.5496    2.4504    0.6304 H   0  0  0  0  0  0  0  0  0  0  0  0
    0.1313    2.7992    0.2194 H   0  0  0  0  0  0  0  0  0  0  0  0
   -1.1274    2.6330   -1.4971 C   0  0  0  0  0  0  0  0  0  0  0  0
   -1.9684    2.0268   -1.8495 H   0  0  0  0  0  0  0  0  0  0  0  0
   -1.5739    4.0999   -1.4749 C   0  0  0  0  0  0  0  0  0  0  0  0
   -0.7584    4.7485   -1.1394 H   0  0  0  0  0  0  0  0  0  0  0  0
   -1.8820    4.4203   -2.4751 H   0  0  0  0  0  0  0  0  0  0  0  0
   -2.4241    4.2313   -0.7983 H   0  0  0  0  0  0  0  0  0  0  0  0
    0.0354    2.4774   -2.4891 C   0  0  0  0  0  0  0  0  0  0  0  0
    0.2779    1.4228   -2.6463 H   0  0  0  0  0  0  0  0  0  0  0  0
   -0.2348    2.9028   -3.4607 H   0  0  0  0  0  0  0  0  0  0  0  0
    0.9295    2.9920   -2.1233 H   0  0  0  0  0  0  0  0  0  0  0  0
    0.3546    0.3762    1.4087 C   0  0  0  0  0  0  0  0  0  0  0  0
    0.4939   -0.7529    1.8495 O   0  0  0  0  0  0  0  0  0  0  0  0
    0.8673    1.3966    2.1970 N   0  0  0  0  0  0  0  0  0  0  0  0
    0.7675    2.3476    1.8591 H   0  0  0  0  0  0  0  0  0  0  0  0
    1.5705    1.1732    3.4564 C   0  0  0  0  0  0  0  0  0  0  0  0
    2.4557    0.5485    3.2961 H   0  0  0  0  0  0  0  0  0  0  0  0
    1.8940    2.1271    3.8835 H   0  0  0  0  0  0  0  0  0  0  0  0
    0.9145    0.6759    4.1787 H   0  0  0  0  0  0  0  0  0  0  0  0
  1  2  1  0  0  0  0
  2  3  1  0  0  0  0
  2  4  1  0  0  0  0
  2  5  1  0  0  0  0
  5  6  2  0  0  0  0
  5  7  1  0  0  0  0
  7  8  1  0  0  0  0
  7  9  1  0  0  0  0
  9 10  1  0  0  0  0
  9 11  1  0  0  0  0
  9 24  1  0  0  0  0
 11 12  1  0  0  0  0
 11 13  1  0  0  0  0
 11 14  1  0  0  0  0
 14 15  1  0  0  0  0
 14 16  1  0  0  0  0
 14 20  1  0  0  0  0
 16 17  1  0  0  0  0
 16 18  1  0  0  0  0
 16 19  1  0  0  0  0
 20 21  1  0  0  0  0
 20 22  1  0  0  0  0
 20 23  1  0  0  0  0
 24 25  2  0  0  0  0
 24 26  1  0  0  0  0
 26 27  1  0  0  0  0
 26 28  1  0  0  0  0
 28 29  1  0  0  0  0
 28 30  1  0  0  0  0
 28 31  1  0  0  0  0
M  END
$$$$

  -OEChem-01062216083D

 31 30  0     1  0  0  0  0  0999 V2000
   -3.6539   -2.7653    0.5381 H   0  0  0  0  0  0  0  0  0  0  0  0
   -3.4918   -1.7792    0.0936 C   0  0  0  0  0  0  0  0  0  0  0  0
   -4.3487   -1.1426    0.3261 H   0  0  0  0  0  0  0  0  0  0  0  0
   -3.4120   -1.8935   -0.9899 H   0  0  0  0  0  0  0  0  0  0  0  0
   -2.2207   -1.1608    0.6457 C   0  0  0  0  0  0  0  0  0  0  0  0
   -1.6630   -1.7130    1.5730 O   0  0  0  0  0  0  0  0  0  0  0  0
   -1.8072    0.0564    0.1326 N   0  0  0  0  0  0  0  0  0  0  0  0
   -2.3912    0.3990   -0.6228 H   0  0  0  0  0  0  0  0  0  0  0  0
   -0.4859    0.7133    0.2622 C   0  0  1  0  0  0  0  0  0  0  0  0
    0.1469    0.3434   -0.5490 H   0  0  0  0  0  0  0  0  0  0  0  0
   -0.7260    2.2300    0.0634 C   0  0  0  0  0  0  0  0  0  0  0  0
   -1.4659    2.5661    0.7979 H   0  0  0  0  0  0  0  0  0  0  0  0
    0.2054    2.7724    0.2584 H   0  0  0  0  0  0  0  0  0  0  0  0
   -1.1955    2.6209   -1.3568 C   0  0  0  0  0  0  0  0  0  0  0  0
   -2.1026    2.0641   -1.6113 H   0  0  0  0  0  0  0  0  0  0  0  0
   -1.5384    4.1149   -1.3769 C   0  0  0  0  0  0  0  0  0  0  0  0
   -0.6560    4.7179   -1.1391 H   0  0  0  0  0  0  0  0  0  0  0  0
   -1.9037    4.4095   -2.3657 H   0  0  0  0  0  0  0  0  0  0  0  0
   -2.3203    4.3386   -0.6445 H   0  0  0  0  0  0  0  0  0  0  0  0
   -0.1290    2.3340   -2.4240 C   0  0  0  0  0  0  0  0  0  0  0  0
    0.0276    1.2585   -2.5432 H   0  0  0  0  0  0  0  0  0  0  0  0
   -0.4449    2.7325   -3.3933 H   0  0  0  0  0  0  0  0  0  0  0  0
    0.8242    2.7990   -2.1530 H   0  0  0  0  0  0  0  0  0  0  0  0
    0.3476    0.4304    1.5475 C   0  0  0  0  0  0  0  0  0  0  0  0
    1.0333   -0.5826    1.5903 O   0  0  0  0  0  0  0  0  0  0  0  0
    0.7160    1.4511    2.4118 N   0  0  0  0  0  0  0  0  0  0  0  0
    0.1722    2.3063    2.3717 H   0  0  0  0  0  0  0  0  0  0  0  0
    1.6425    1.2645    3.5229 C   0  0  0  0  0  0  0  0  0  0  0  0
    2.6432    1.0224    3.1503 H   0  0  0  0  0  0  0  0  0  0  0  0
    1.7080    2.1796    4.1188 H   0  0  0  0  0  0  0  0  0  0  0  0
    1.3021    0.4514    4.1730 H   0  0  0  0  0  0  0  0  0  0  0  0
  1  2  1  0  0  0  0
  2  3  1  0  0  0  0
  2  4  1  0  0  0  0
  2  5  1  0  0  0  0
  5  6  2  0  0  0  0
  5  7  1  0  0  0  0
  7  8  1  0  0  0  0
  7  9  1  0  0  0  0
  9 10  1  0  0  0  0
  9 11  1  0  0  0  0
  9 24  1  0  0  0  0
 11 12  1  0  0  0  0
 11 13  1  0  0  0  0
 11 14  1  0  0  0  0
 14 15  1  0  0  0  0
 14 16  1  0  0  0  0
 14 20  1  0  0  0  0
 16 17  1  0  0  0  0
 16 18  1  0  0  0  0
 16 19  1  0  0  0  0
 20 21  1  0  0  0  0
 20 22  1  0  0  0  0
 20 23  1  0  0  0  0
 24 25  2  0  0  0  0
 24 26  1  0  0  0  0
 26 27  1  0  0  0  0
 26 28  1  0  0  0  0
 28 29  1  0  0  0  0
 28 30  1  0  0  0  0
 28 31  1  0  0  0  0
M  END
$$$$

  -OEChem-01062216083D

 31 30  0     1  0  0  0  0  0999 V2000
   -3.6389   -2.7793    0.5841 H   0  0  0  0  0  0  0  0  0  0  0  0
   -3.4952   -1.7918    0.1358 C   0  0  0  0  0  0  0  0  0  0  0  0
   -4.3332   -1.1510    0.4204 H   0  0  0  0  0  0  0  0  0  0  0  0
   -3.4788   -1.9008   -0.9512 H   0  0  0  0  0  0  0  0  0  0  0  0
   -2.1904   -1.1842    0.6176 C   0  0  0  0  0  0  0  0  0  0  0  0
   -1.5666   -1.7587    1.4883 O   0  0  0  0  0  0  0  0  0  0  0  0
   -1.7976    0.0368    0.0976 N   0  0  0  0  0  0  0  0  0  0  0  0
   -2.4070    0.3954   -0.6300 H   0  0  0  0  0  0  0  0  0  0  0  0
   -0.4818    0.7024    0.2276 C   0  0  1  0  0  0  0  0  0  0  0  0
    0.1535    0.3389   -0.5846 H   0  0  0  0  0  0  0  0  0  0  0  0
   -0.7155    2.2206    0.0460 C   0  0  0  0  0  0  0  0  0  0  0  0
   -1.4557    2.5517    0.7822 H   0  0  0  0  0  0  0  0  0  0  0  0
    0.2198    2.7522    0.2557 H   0  0  0  0  0  0  0  0  0  0  0  0
   -1.1863    2.6320   -1.3676 C   0  0  0  0  0  0  0  0  0  0  0  0
   -2.0956    2.0815   -1.6280 H   0  0  0  0  0  0  0  0  0  0  0  0
   -1.5218    4.1283   -1.3667 C   0  0  0  0  0  0  0  0  0  0  0  0
   -0.6370    4.7234   -1.1181 H   0  0  0  0  0  0  0  0  0  0  0  0
   -1.8837    4.4397   -2.3518 H   0  0  0  0  0  0  0  0  0  0  0  0
   -2.3042    4.3447   -0.6324 H   0  0  0  0  0  0  0  0  0  0  0  0
   -0.1210    2.3558   -2.4390 C   0  0  0  0  0  0  0  0  0  0  0  0
    0.0328    1.2814   -2.5711 H   0  0  0  0  0  0  0  0  0  0  0  0
   -0.4358    2.7674   -3.4031 H   0  0  0  0  0  0  0  0  0  0  0  0
    0.8336    2.8147   -2.1624 H   0  0  0  0  0  0  0  0  0  0  0  0
    0.3409    0.4200    1.5168 C   0  0  0  0  0  0  0  0  0  0  0  0
    1.1851   -0.4665    1.4934 O   0  0  0  0  0  0  0  0  0  0  0  0
    0.4392    1.3610    2.5304 N   0  0  0  0  0  0  0  0  0  0  0  0
   -0.2775    2.0782    2.5594 H   0  0  0  0  0  0  0  0  0  0  0  0
    1.3013    1.1887    3.6938 C   0  0  0  0  0  0  0  0  0  0  0  0
    2.3518    1.1391    3.3886 H   0  0  0  0  0  0  0  0  0  0  0  0
    1.1815    2.0314    4.3812 H   0  0  0  0  0  0  0  0  0  0  0  0
    1.0451    0.2666    4.2265 H   0  0  0  0  0  0  0  0  0  0  0  0
  1  2  1  0  0  0  0
  2  3  1  0  0  0  0
  2  4  1  0  0  0  0
  2  5  1  0  0  0  0
  5  6  2  0  0  0  0
  5  7  1  0  0  0  0
  7  8  1  0  0  0  0
  7  9  1  0  0  0  0
  9 10  1  0  0  0  0
  9 11  1  0  0  0  0
  9 24  1  0  0  0  0
 11 12  1  0  0  0  0
 11 13  1  0  0  0  0
 11 14  1  0  0  0  0
 14 15  1  0  0  0  0
 14 16  1  0  0  0  0
 14 20  1  0  0  0  0
 16 17  1  0  0  0  0
 16 18  1  0  0  0  0
 16 19  1  0  0  0  0
 20 21  1  0  0  0  0
 20 22  1  0  0  0  0
 20 23  1  0  0  0  0
 24 25  2  0  0  0  0
 24 26  1  0  0  0  0
 26 27  1  0  0  0  0
 26 28  1  0  0  0  0
 28 29  1  0  0  0  0
 28 30  1  0  0  0  0
 28 31  1  0  0  0  0
M  END
$$$$

  -OEChem-01062216083D

 31 30  0     1  0  0  0  0  0999 V2000
   -3.6227   -2.7869    0.6111 H   0  0  0  0  0  0  0  0  0  0  0  0
   -3.4931   -1.7966    0.1650 C   0  0  0  0  0  0  0  0  0  0  0  0
   -4.3155   -1.1545    0.4889 H   0  0  0  0  0  0  0  0  0  0  0  0
   -3.5224   -1.8961   -0.9225 H   0  0  0  0  0  0  0  0  0  0  0  0
   -2.1668   -1.1988    0.5970 C   0  0  0  0  0  0  0  0  0  0  0  0
   -1.4990   -1.7878    1.4253 O   0  0  0  0  0  0  0  0  0  0  0  0
   -1.7879    0.0239    0.0716 N   0  0  0  0  0  0  0  0  0  0  0  0
   -2.4155    0.3952   -0.6342 H   0  0  0  0  0  0  0  0  0  0  0  0
   -0.4762    0.6954    0.2013 C   0  0  1  0  0  0  0  0  0  0  0  0
    0.1599    0.3370   -0.6127 H   0  0  0  0  0  0  0  0  0  0  0  0
   -0.7059    2.2144    0.0358 C   0  0  0  0  0  0  0  0  0  0  0  0
   -1.4451    2.5403    0.7751 H   0  0  0  0  0  0  0  0  0  0  0  0
    0.2310    2.7395    0.2551 H   0  0  0  0  0  0  0  0  0  0  0  0
   -1.1802    2.6392   -1.3726 C   0  0  0  0  0  0  0  0  0  0  0  0
   -2.0906    2.0918   -1.6357 H   0  0  0  0  0  0  0  0  0  0  0  0
   -1.5122    4.1358   -1.3577 C   0  0  0  0  0  0  0  0  0  0  0  0
   -0.6256    4.7259   -1.1040 H   0  0  0  0  0  0  0  0  0  0  0  0
   -1.8741    4.4570   -2.3395 H   0  0  0  0  0  0  0  0  0  0  0  0
   -2.2935    4.3474   -0.6210 H   0  0  0  0  0  0  0  0  0  0  0  0
   -0.1172    2.3712   -2.4483 C   0  0  0  0  0  0  0  0  0  0  0  0
    0.0363    1.2979   -2.5894 H   0  0  0  0  0  0  0  0  0  0  0  0
   -0.4337    2.7905   -3.4085 H   0  0  0  0  0  0  0  0  0  0  0  0
    0.8379    2.8278   -2.1694 H   0  0  0  0  0  0  0  0  0  0  0  0
    0.3401    0.4160    1.4918 C   0  0  0  0  0  0  0  0  0  0  0  0
    1.3332   -0.2968    1.4205 O   0  0  0  0  0  0  0  0  0  0  0  0
    0.1859    1.2074    2.6185 N   0  0  0  0  0  0  0  0  0  0  0  0
   -0.6789    1.7331    2.6857 H   0  0  0  0  0  0  0  0  0  0  0  0
    0.9847    1.0248    3.8243 C   0  0  0  0  0  0  0  0  0  0  0  0
    2.0475    1.1743    3.6064 H   0  0  0  0  0  0  0  0  0  0  0  0
    0.6857    1.7476    4.5892 H   0  0  0  0  0  0  0  0  0  0  0  0
    0.8459    0.0153    4.2255 H   0  0  0  0  0  0  0  0  0  0  0  0
  1  2  1  0  0  0  0
  2  3  1  0  0  0  0
  2  4  1  0  0  0  0
  2  5  1  0  0  0  0
  5  6  2  0  0  0  0
  5  7  1  0  0  0  0
  7  8  1  0  0  0  0
  7  9  1  0  0  0  0
  9 10  1  0  0  0  0
  9 11  1  0  0  0  0
  9 24  1  0  0  0  0
 11 12  1  0  0  0  0
 11 13  1  0  0  0  0
 11 14  1  0  0  0  0
 14 15  1  0  0  0  0
 14 16  1  0  0  0  0
 14 20  1  0  0  0  0
 16 17  1  0  0  0  0
 16 18  1  0  0  0  0
 16 19  1  0  0  0  0
 20 21  1  0  0  0  0
 20 22  1  0  0  0  0
 20 23  1  0  0  0  0
 24 25  2  0  0  0  0
 24 26  1  0  0  0  0
 26 27  1  0  0  0  0
 26 28  1  0  0  0  0
 28 29  1  0  0  0  0
 28 30  1  0  0  0  0
 28 31  1  0  0  0  0
M  END
$$$$

  -OEChem-01062216083D

 31 30  0     1  0  0  0  0  0999 V2000
   -3.6169   -2.7892    0.6435 H   0  0  0  0  0  0  0  0  0  0  0  0
   -3.4908   -1.8042    0.1849 C   0  0  0  0  0  0  0  0  0  0  0  0
   -4.3041   -1.1548    0.5172 H   0  0  0  0  0  0  0  0  0  0  0  0
   -3.5411   -1.9152   -0.9009 H   0  0  0  0  0  0  0  0  0  0  0  0
   -2.1537   -1.2083    0.5855 C   0  0  0  0  0  0  0  0  0  0  0  0
   -1.4582   -1.8048    1.3858 O   0  0  0  0  0  0  0  0  0  0  0  0
   -1.7817    0.0129    0.0519 N   0  0  0  0  0  0  0  0  0  0  0  0
   -2.4238    0.3945   -0.6353 H   0  0  0  0  0  0  0  0  0  0  0  0
   -0.4715    0.6880    0.1792 C   0  0  1  0  0  0  0  0  0  0  0  0
    0.1648    0.3320   -0.6356 H   0  0  0  0  0  0  0  0  0  0  0  0
   -0.6954    2.2083    0.0287 C   0  0  0  0  0  0  0  0  0  0  0  0
   -1.4283    2.5316    0.7755 H   0  0  0  0  0  0  0  0  0  0  0  0
    0.2450    2.7263    0.2502 H   0  0  0  0  0  0  0  0  0  0  0  0
   -1.1750    2.6468   -1.3732 C   0  0  0  0  0  0  0  0  0  0  0  0
   -2.0890    2.1051   -1.6359 H   0  0  0  0  0  0  0  0  0  0  0  0
   -1.5008    4.1447   -1.3443 C   0  0  0  0  0  0  0  0  0  0  0  0
   -0.6102    4.7295   -1.0920 H   0  0  0  0  0  0  0  0  0  0  0  0
   -1.8675    4.4751   -2.3213 H   0  0  0  0  0  0  0  0  0  0  0  0
   -2.2761    4.3538   -0.6005 H   0  0  0  0  0  0  0  0  0  0  0  0
   -0.1183    2.3837   -2.4562 C   0  0  0  0  0  0  0  0  0  0  0  0
    0.0318    1.3110   -2.6056 H   0  0  0  0  0  0  0  0  0  0  0  0
   -0.4382    2.8109   -3.4118 H   0  0  0  0  0  0  0  0  0  0  0  0
    0.8397    2.8356   -2.1792 H   0  0  0  0  0  0  0  0  0  0  0  0
    0.3404    0.4165    1.4712 C   0  0  0  0  0  0  0  0  0  0  0  0
    1.4528   -0.0878    1.3812 O   0  0  0  0  0  0  0  0  0  0  0  0
   -0.0308    1.0012    2.6701 N   0  0  0  0  0  0  0  0  0  0  0  0
   -0.9970    1.3034    2.7354 H   0  0  0  0  0  0  0  0  0  0  0  0
    0.7128    0.7892    3.9056 C   0  0  0  0  0  0  0  0  0  0  0  0
    1.7432    1.1442    3.7996 H   0  0  0  0  0  0  0  0  0  0  0  0
    0.2434    1.3372    4.7279 H   0  0  0  0  0  0  0  0  0  0  0  0
    0.7316   -0.2754    4.1616 H   0  0  0  0  0  0  0  0  0  0  0  0
  1  2  1  0  0  0  0
  2  3  1  0  0  0  0
  2  4  1  0  0  0  0
  2  5  1  0  0  0  0
  5  6  2  0  0  0  0
  5  7  1  0  0  0  0
  7  8  1  0  0  0  0
  7  9  1  0  0  0  0
  9 10  1  0  0  0  0
  9 11  1  0  0  0  0
  9 24  1  0  0  0  0
 11 12  1  0  0  0  0
 11 13  1  0  0  0  0
 11 14  1  0  0  0  0
 14 15  1  0  0  0  0
 14 16  1  0  0  0  0
 14 20  1  0  0  0  0
 16 17  1  0  0  0  0
 16 18  1  0  0  0  0
 16 19  1  0  0  0  0
 20 21  1  0  0  0  0
 20 22  1  0  0  0  0
 20 23  1  0  0  0  0
 24 25  2  0  0  0  0
 24 26  1  0  0  0  0
 26 27  1  0  0  0  0
 26 28  1  0  0  0  0
 28 29  1  0  0  0  0
 28 30  1  0  0  0  0
 28 31  1  0  0  0  0
M  END
$$$$

  -OEChem-01062216083D

 31 30  0     1  0  0  0  0  0999 V2000
   -3.6326   -2.7813    0.6434 H   0  0  0  0  0  0  0  0  0  0  0  0
   -3.5039   -1.7953    0.1878 C   0  0  0  0  0  0  0  0  0  0  0  0
   -4.3028   -1.1385    0.5398 H   0  0  0  0  0  0  0  0  0  0  0  0
   -3.5770   -1.8993   -0.8973 H   0  0  0  0  0  0  0  0  0  0  0  0
   -2.1523   -1.2175    0.5644 C   0  0  0  0  0  0  0  0  0  0  0  0
   -1.4432   -1.8278    1.3424 O   0  0  0  0  0  0  0  0  0  0  0  0
   -1.7753    0.0017    0.0308 N   0  0  0  0  0  0  0  0  0  0  0  0
   -2.4245    0.3986   -0.6412 H   0  0  0  0  0  0  0  0  0  0  0  0
   -0.4665    0.6786    0.1661 C   0  0  1  0  0  0  0  0  0  0  0  0
    0.1760    0.3265   -0.6459 H   0  0  0  0  0  0  0  0  0  0  0  0
   -0.6931    2.1986    0.0274 C   0  0  0  0  0  0  0  0  0  0  0  0
   -1.4261    2.5140    0.7775 H   0  0  0  0  0  0  0  0  0  0  0  0
    0.2457    2.7172    0.2542 H   0  0  0  0  0  0  0  0  0  0  0  0
   -1.1712    2.6461   -1.3724 C   0  0  0  0  0  0  0  0  0  0  0  0
   -2.0838    2.1045   -1.6399 H   0  0  0  0  0  0  0  0  0  0  0  0
   -1.5006    4.1430   -1.3346 C   0  0  0  0  0  0  0  0  0  0  0  0
   -0.6138    4.7270   -1.0680 H   0  0  0  0  0  0  0  0  0  0  0  0
   -1.8574    4.4806   -2.3126 H   0  0  0  0  0  0  0  0  0  0  0  0
   -2.2841    4.3446   -0.5975 H   0  0  0  0  0  0  0  0  0  0  0  0
   -0.1128    2.3908   -2.4555 C   0  0  0  0  0  0  0  0  0  0  0  0
    0.0410    1.3192   -2.6090 H   0  0  0  0  0  0  0  0  0  0  0  0
   -0.4335    2.8205   -3.4096 H   0  0  0  0  0  0  0  0  0  0  0  0
    0.8432    2.8447   -2.1756 H   0  0  0  0  0  0  0  0  0  0  0  0
    0.3395    0.4173    1.4622 C   0  0  0  0  0  0  0  0  0  0  0  0
    1.5352    0.1652    1.3788 O   0  0  0  0  0  0  0  0  0  0  0  0
   -0.1969    0.7431    2.6958 N   0  0  0  0  0  0  0  0  0  0  0  0
   -1.2105    0.7799    2.7309 H   0  0  0  0  0  0  0  0  0  0  0  0
    0.5231    0.5063    3.9404 C   0  0  0  0  0  0  0  0  0  0  0  0
    1.4712    1.0543    3.9459 H   0  0  0  0  0  0  0  0  0  0  0  0
   -0.0737    0.8444    4.7928 H   0  0  0  0  0  0  0  0  0  0  0  0
    0.7320   -0.5618    4.0627 H   0  0  0  0  0  0  0  0  0  0  0  0
  1  2  1  0  0  0  0
  2  3  1  0  0  0  0
  2  4  1  0  0  0  0
  2  5  1  0  0  0  0
  5  6  2  0  0  0  0
  5  7  1  0  0  0  0
  7  8  1  0  0  0  0
  7  9  1  0  0  0  0
  9 10  1  0  0  0  0
  9 11  1  0  0  0  0
  9 24  1  0  0  0  0
 11 12  1  0  0  0  0
 11 13  1  0  0  0  0
 11 14  1  0  0  0  0
 14 15  1  0  0  0  0
 14 16  1  0  0  0  0
 14 20  1  0  0  0  0
 16 17  1  0  0  0  0
 16 18  1  0  0  0  0
 16 19  1  0  0  0  0
 20 21  1  0  0  0  0
 20 22  1  0  0  0  0
 20 23  1  0  0  0  0
 24 25  2  0  0  0  0
 24 26  1  0  0  0  0
 26 27  1  0  0  0  0
 26 28  1  0  0  0  0
 28 29  1  0  0  0  0
 28 30  1  0  0  0  0
 28 31  1  0  0  0  0
M  END
$$$$

  -OEChem-01062216083D

 31 30  0     1  0  0  0  0  0999 V2000
   -3.6933   -2.7630    0.6108 H   0  0  0  0  0  0  0  0  0  0  0  0
   -3.5458   -1.7789    0.1567 C   0  0  0  0  0  0  0  0  0  0  0  0
   -4.3303   -1.1067    0.5123 H   0  0  0  0  0  0  0  0  0  0  0  0
   -3.6241   -1.8794   -0.9286 H   0  0  0  0  0  0  0  0  0  0  0  0
   -2.1816   -1.2295    0.5302 C   0  0  0  0  0  0  0  0  0  0  0  0
   -1.4771   -1.8603    1.2962 O   0  0  0  0  0  0  0  0  0  0  0  0
   -1.7830   -0.0131    0.0074 N   0  0  0  0  0  0  0  0  0  0  0  0
   -2.4332    0.4095   -0.6480 H   0  0  0  0  0  0  0  0  0  0  0  0
   -0.4729    0.6599    0.1627 C   0  0  1  0  0  0  0  0  0  0  0  0
    0.1774    0.3116   -0.6446 H   0  0  0  0  0  0  0  0  0  0  0  0
   -0.7043    2.1799    0.0313 C   0  0  0  0  0  0  0  0  0  0  0  0
   -1.4447    2.4861    0.7781 H   0  0  0  0  0  0  0  0  0  0  0  0
    0.2295    2.7020    0.2704 H   0  0  0  0  0  0  0  0  0  0  0  0
   -1.1689    2.6363   -1.3702 C   0  0  0  0  0  0  0  0  0  0  0  0
   -2.0756    2.0931   -1.6538 H   0  0  0  0  0  0  0  0  0  0  0  0
   -1.5047    4.1314   -1.3241 C   0  0  0  0  0  0  0  0  0  0  0  0
   -0.6210    4.7179   -1.0526 H   0  0  0  0  0  0  0  0  0  0  0  0
   -1.8616    4.4732   -2.3007 H   0  0  0  0  0  0  0  0  0  0  0  0
   -2.2902    4.3250   -0.5871 H   0  0  0  0  0  0  0  0  0  0  0  0
   -0.0953    2.3958   -2.4417 C   0  0  0  0  0  0  0  0  0  0  0  0
    0.0642    1.3264   -2.6043 H   0  0  0  0  0  0  0  0  0  0  0  0
   -0.4044    2.8351   -3.3953 H   0  0  0  0  0  0  0  0  0  0  0  0
    0.8554    2.8498   -2.1439 H   0  0  0  0  0  0  0  0  0  0  0  0
    0.3333    0.4135    1.4626 C   0  0  0  0  0  0  0  0  0  0  0  0
    1.5569    0.4318    1.4076 O   0  0  0  0  0  0  0  0  0  0  0  0
   -0.2864    0.4487    2.6990 N   0  0  0  0  0  0  0  0  0  0  0  0
   -1.2683    0.1892    2.6794 H   0  0  0  0  0  0  0  0  0  0  0  0
    0.4470    0.2135    3.9361 C   0  0  0  0  0  0  0  0  0  0  0  0
    1.2492    0.9495    4.0540 H   0  0  0  0  0  0  0  0  0  0  0  0
   -0.2253    0.2984    4.7950 H   0  0  0  0  0  0  0  0  0  0  0  0
    0.8859   -0.7897    3.9343 H   0  0  0  0  0  0  0  0  0  0  0  0
  1  2  1  0  0  0  0
  2  3  1  0  0  0  0
  2  4  1  0  0  0  0
  2  5  1  0  0  0  0
  5  6  2  0  0  0  0
  5  7  1  0  0  0  0
  7  8  1  0  0  0  0
  7  9  1  0  0  0  0
  9 10  1  0  0  0  0
  9 11  1  0  0  0  0
  9 24  1  0  0  0  0
 11 12  1  0  0  0  0
 11 13  1  0  0  0  0
 11 14  1  0  0  0  0
 14 15  1  0  0  0  0
 14 16  1  0  0  0  0
 14 20  1  0  0  0  0
 16 17  1  0  0  0  0
 16 18  1  0  0  0  0
 16 19  1  0  0  0  0
 20 21  1  0  0  0  0
 20 22  1  0  0  0  0
 20 23  1  0  0  0  0
 24 25  2  0  0  0  0
 24 26  1  0  0  0  0
 26 27  1  0  0  0  0
 26 28  1  0  0  0  0
 28 29  1  0  0  0  0
 28 30  1  0  0  0  0
 28 31  1  0  0  0  0
M  END
$$$$

  -OEChem-01062216083D

 31 30  0     1  0  0  0  0  0999 V2000
   -3.7872   -2.7253    0.5403 H   0  0  0  0  0  0  0  0  0  0  0  0
   -3.6097   -1.7369    0.1066 C   0  0  0  0  0  0  0  0  0  0  0  0
   -4.3654   -1.0453    0.4868 H   0  0  0  0  0  0  0  0  0  0  0  0
   -3.7043   -1.8093   -0.9796 H   0  0  0  0  0  0  0  0  0  0  0  0
   -2.2227   -1.2448    0.4755 C   0  0  0  0  0  0  0  0  0  0  0  0
   -1.5250   -1.9256    1.2044 O   0  0  0  0  0  0  0  0  0  0  0  0
   -1.7907   -0.0290   -0.0194 N   0  0  0  0  0  0  0  0  0  0  0  0
   -2.4479    0.4413   -0.6341 H   0  0  0  0  0  0  0  0  0  0  0  0
   -0.4796    0.6372    0.1662 C   0  0  1  0  0  0  0  0  0  0  0  0
    0.1798    0.2963   -0.6366 H   0  0  0  0  0  0  0  0  0  0  0  0
   -0.7243    2.1568    0.0382 C   0  0  0  0  0  0  0  0  0  0  0  0
   -1.4801    2.4506    0.7744 H   0  0  0  0  0  0  0  0  0  0  0  0
    0.1981    2.6907    0.2949 H   0  0  0  0  0  0  0  0  0  0  0  0
   -1.1683    2.6182   -1.3687 C   0  0  0  0  0  0  0  0  0  0  0  0
   -2.0646    2.0690   -1.6733 H   0  0  0  0  0  0  0  0  0  0  0  0
   -1.5192    4.1097   -1.3183 C   0  0  0  0  0  0  0  0  0  0  0  0
   -0.6462    4.7022   -1.0255 H   0  0  0  0  0  0  0  0  0  0  0  0
   -1.8604    4.4554   -2.2992 H   0  0  0  0  0  0  0  0  0  0  0  0
   -2.3204    4.2904   -0.5950 H   0  0  0  0  0  0  0  0  0  0  0  0
   -0.0735    2.3948   -2.4219 C   0  0  0  0  0  0  0  0  0  0  0  0
    0.0979    1.3279   -2.5887 H   0  0  0  0  0  0  0  0  0  0  0  0
   -0.3692    2.8382   -3.3779 H   0  0  0  0  0  0  0  0  0  0  0  0
    0.8677    2.8547   -2.1035 H   0  0  0  0  0  0  0  0  0  0  0  0
    0.3304    0.3993    1.4692 C   0  0  0  0  0  0  0  0  0  0  0  0
    1.5266    0.6646    1.4645 O   0  0  0  0  0  0  0  0  0  0  0  0
   -0.2853    0.1280    2.6773 N   0  0  0  0  0  0  0  0  0  0  0  0
   -1.1594   -0.3855    2.5777 H   0  0  0  0  0  0  0  0  0  0  0  0
    0.4757   -0.0872    3.9017 C   0  0  0  0  0  0  0  0  0  0  0  0
    1.0771    0.7960    4.1411 H   0  0  0  0  0  0  0  0  0  0  0  0
   -0.2031   -0.2771    4.7384 H   0  0  0  0  0  0  0  0  0  0  0  0
    1.1424   -0.9488    3.7911 H   0  0  0  0  0  0  0  0  0  0  0  0
  1  2  1  0  0  0  0
  2  3  1  0  0  0  0
  2  4  1  0  0  0  0
  2  5  1  0  0  0  0
  5  6  2  0  0  0  0
  5  7  1  0  0  0  0
  7  8  1  0  0  0  0
  7  9  1  0  0  0  0
  9 10  1  0  0  0  0
  9 11  1  0  0  0  0
  9 24  1  0  0  0  0
 11 12  1  0  0  0  0
 11 13  1  0  0  0  0
 11 14  1  0  0  0  0
 14 15  1  0  0  0  0
 14 16  1  0  0  0  0
 14 20  1  0  0  0  0
 16 17  1  0  0  0  0
 16 18  1  0  0  0  0
 16 19  1  0  0  0  0
 20 21  1  0  0  0  0
 20 22  1  0  0  0  0
 20 23  1  0  0  0  0
 24 25  2  0  0  0  0
 24 26  1  0  0  0  0
 26 27  1  0  0  0  0
 26 28  1  0  0  0  0
 28 29  1  0  0  0  0
 28 30  1  0  0  0  0
 28 31  1  0  0  0  0
M  END
$$$$

  -OEChem-01062216083D

 31 30  0     1  0  0  0  0  0999 V2000
   -3.8680   -2.6702    0.5193 H   0  0  0  0  0  0  0  0  0  0  0  0
   -3.6633   -1.6811    0.0989 C   0  0  0  0  0  0  0  0  0  0  0  0
   -4.3644   -0.9635    0.5320 H   0  0  0  0  0  0  0  0  0  0  0  0
   -3.8146   -1.7223   -0.9826 H   0  0  0  0  0  0  0  0  0  0  0  0
   -2.2373   -1.2650    0.4081 C   0  0  0  0  0  0  0  0  0  0  0  0
   -1.5200   -2.0256    1.0323 O   0  0  0  0  0  0  0  0  0  0  0  0
   -1.7825   -0.0446   -0.0535 N   0  0  0  0  0  0  0  0  0  0  0  0
   -2.4648    0.4869   -0.5851 H   0  0  0  0  0  0  0  0  0  0  0  0
   -0.4762    0.6232    0.1668 C   0  0  1  0  0  0  0  0  0  0  0  0
    0.1978    0.2947   -0.6286 H   0  0  0  0  0  0  0  0  0  0  0  0
   -0.7458    2.1412    0.0372 C   0  0  0  0  0  0  0  0  0  0  0  0
   -1.5217    2.4186    0.7589 H   0  0  0  0  0  0  0  0  0  0  0  0
    0.1586    2.6952    0.3132 H   0  0  0  0  0  0  0  0  0  0  0  0
   -1.1666    2.6009   -1.3778 C   0  0  0  0  0  0  0  0  0  0  0  0
   -2.0458    2.0383   -1.7057 H   0  0  0  0  0  0  0  0  0  0  0  0
   -1.5446    4.0859   -1.3285 C   0  0  0  0  0  0  0  0  0  0  0  0
   -0.6917    4.6916   -1.0051 H   0  0  0  0  0  0  0  0  0  0  0  0
   -1.8618    4.4333   -2.3167 H   0  0  0  0  0  0  0  0  0  0  0  0
   -2.3705    4.2471   -0.6287 H   0  0  0  0  0  0  0  0  0  0  0  0
   -0.0449    2.4009   -2.4072 C   0  0  0  0  0  0  0  0  0  0  0  0
    0.1454    1.3377   -2.5770 H   0  0  0  0  0  0  0  0  0  0  0  0
   -0.3253    2.8466   -3.3669 H   0  0  0  0  0  0  0  0  0  0  0  0
    0.8822    2.8720   -2.0649 H   0  0  0  0  0  0  0  0  0  0  0  0
    0.3297    0.3884    1.4780 C   0  0  0  0  0  0  0  0  0  0  0  0
    1.4627    0.8501    1.5510 O   0  0  0  0  0  0  0  0  0  0  0  0
   -0.2149   -0.1797    2.6144 N   0  0  0  0  0  0  0  0  0  0  0  0
   -0.9864   -0.8197    2.4240 H   0  0  0  0  0  0  0  0  0  0  0  0
    0.5661   -0.4168    3.8222 C   0  0  0  0  0  0  0  0  0  0  0  0
    0.9665    0.5250    4.2117 H   0  0  0  0  0  0  0  0  0  0  0  0
   -0.0642   -0.8676    4.5945 H   0  0  0  0  0  0  0  0  0  0  0  0
    1.3998   -1.0950    3.6129 H   0  0  0  0  0  0  0  0  0  0  0  0
  1  2  1  0  0  0  0
  2  3  1  0  0  0  0
  2  4  1  0  0  0  0
  2  5  1  0  0  0  0
  5  6  2  0  0  0  0
  5  7  1  0  0  0  0
  7  8  1  0  0  0  0
  7  9  1  0  0  0  0
  9 10  1  0  0  0  0
  9 11  1  0  0  0  0
  9 24  1  0  0  0  0
 11 12  1  0  0  0  0
 11 13  1  0  0  0  0
 11 14  1  0  0  0  0
 14 15  1  0  0  0  0
 14 16  1  0  0  0  0
 14 20  1  0  0  0  0
 16 17  1  0  0  0  0
 16 18  1  0  0  0  0
 16 19  1  0  0  0  0
 20 21  1  0  0  0  0
 20 22  1  0  0  0  0
 20 23  1  0  0  0  0
 24 25  2  0  0  0  0
 24 26  1  0  0  0  0
 26 27  1  0  0  0  0
 26 28  1  0  0  0  0
 28 29  1  0  0  0  0
 28 30  1  0  0  0  0
 28 31  1  0  0  0  0
M  END
$$$$

  -OEChem-01062216083D

 31 30  0     1  0  0  0  0  0999 V2000
   -3.9207   -2.6163    0.5400 H   0  0  0  0  0  0  0  0  0  0  0  0
   -3.7000   -1.6306    0.1202 C   0  0  0  0  0  0  0  0  0  0  0  0
   -4.3418   -0.8914    0.6058 H   0  0  0  0  0  0  0  0  0  0  0  0
   -3.9195   -1.6477   -0.9501 H   0  0  0  0  0  0  0  0  0  0  0  0
   -2.2410   -1.2796    0.3448 C   0  0  0  0  0  0  0  0  0  0  0  0
   -1.5008   -2.1120    0.8372 O   0  0  0  0  0  0  0  0  0  0  0  0
   -1.7764   -0.0507   -0.0826 N   0  0  0  0  0  0  0  0  0  0  0  0
   -2.4849    0.5318   -0.5184 H   0  0  0  0  0  0  0  0  0  0  0  0
   -0.4753    0.6181    0.1690 C   0  0  1  0  0  0  0  0  0  0  0  0
    0.2108    0.3008   -0.6205 H   0  0  0  0  0  0  0  0  0  0  0  0
   -0.7655    2.1346    0.0352 C   0  0  0  0  0  0  0  0  0  0  0  0
   -1.5598    2.3990    0.7415 H   0  0  0  0  0  0  0  0  0  0  0  0
    0.1218    2.7073    0.3264 H   0  0  0  0  0  0  0  0  0  0  0  0
   -1.1636    2.5892   -1.3886 C   0  0  0  0  0  0  0  0  0  0  0  0
   -2.0267    2.0132   -1.7362 H   0  0  0  0  0  0  0  0  0  0  0  0
   -1.5654    4.0684   -1.3474 C   0  0  0  0  0  0  0  0  0  0  0  0
   -0.7262    4.6879   -1.0144 H   0  0  0  0  0  0  0  0  0  0  0  0
   -1.8747    4.4084   -2.3407 H   0  0  0  0  0  0  0  0  0  0  0  0
   -2.4029    4.2189   -0.6590 H   0  0  0  0  0  0  0  0  0  0  0  0
   -0.0164    2.4084   -2.3936 C   0  0  0  0  0  0  0  0  0  0  0  0
    0.1962    1.3489   -2.5595 H   0  0  0  0  0  0  0  0  0  0  0  0
   -0.2833    2.8492   -3.3592 H   0  0  0  0  0  0  0  0  0  0  0  0
    0.8945    2.8956   -2.0309 H   0  0  0  0  0  0  0  0  0  0  0  0
    0.3253    0.3720    1.4863 C   0  0  0  0  0  0  0  0  0  0  0  0
    1.3640    0.9990    1.6607 O   0  0  0  0  0  0  0  0  0  0  0  0
   -0.0881   -0.4621    2.5078 N   0  0  0  0  0  0  0  0  0  0  0  0
   -0.7681   -1.1705    2.2290 H   0  0  0  0  0  0  0  0  0  0  0  0
    0.7212   -0.7322    3.6899 C   0  0  0  0  0  0  0  0  0  0  0  0
    0.9256    0.1951    4.2351 H   0  0  0  0  0  0  0  0  0  0  0  0
    0.1911   -1.4150    4.3605 H   0  0  0  0  0  0  0  0  0  0  0  0
    1.6731   -1.1926    3.4059 H   0  0  0  0  0  0  0  0  0  0  0  0
  1  2  1  0  0  0  0
  2  3  1  0  0  0  0
  2  4  1  0  0  0  0
  2  5  1  0  0  0  0
  5  6  2  0  0  0  0
  5  7  1  0  0  0  0
  7  8  1  0  0  0  0
  7  9  1  0  0  0  0
  9 10  1  0  0  0  0
  9 11  1  0  0  0  0
  9 24  1  0  0  0  0
 11 12  1  0  0  0  0
 11 13  1  0  0  0  0
 11 14  1  0  0  0  0
 14 15  1  0  0  0  0
 14 16  1  0  0  0  0
 14 20  1  0  0  0  0
 16 17  1  0  0  0  0
 16 18  1  0  0  0  0
 16 19  1  0  0  0  0
 20 21  1  0  0  0  0
 20 22  1  0  0  0  0
 20 23  1  0  0  0  0
 24 25  2  0  0  0  0
 24 26  1  0  0  0  0
 26 27  1  0  0  0  0
 26 28  1  0  0  0  0
 28 29  1  0  0  0  0
 28 30  1  0  0  0  0
 28 31  1  0  0  0  0
M  END
$$$$

  -OEChem-01062216083D

 31 30  0     1  0  0  0  0  0999 V2000
   -3.9689   -2.5466    0.6745 H   0  0  0  0  0  0  0  0  0  0  0  0
   -3.7451   -1.5598    0.2587 C   0  0  0  0  0  0  0  0  0  0  0  0
   -4.3172   -0.8098    0.8104 H   0  0  0  0  0  0  0  0  0  0  0  0
   -4.0503   -1.5428   -0.7905 H   0  0  0  0  0  0  0  0  0  0  0  0
   -2.2605   -1.2679    0.3710 C   0  0  0  0  0  0  0  0  0  0  0  0
   -1.5096   -2.1529    0.7412 O   0  0  0  0  0  0  0  0  0  0  0  0
   -1.7884   -0.0436   -0.0610 N   0  0  0  0  0  0  0  0  0  0  0  0
   -2.5165    0.5718   -0.4110 H   0  0  0  0  0  0  0  0  0  0  0  0
   -0.4768    0.6143    0.1672 C   0  0  1  0  0  0  0  0  0  0  0  0
    0.1928    0.2796   -0.6286 H   0  0  0  0  0  0  0  0  0  0  0  0
   -0.7602    2.1318    0.0034 C   0  0  0  0  0  0  0  0  0  0  0  0
   -1.5447    2.4183    0.7119 H   0  0  0  0  0  0  0  0  0  0  0  0
    0.1322    2.7088    0.2678 H   0  0  0  0  0  0  0  0  0  0  0  0
   -1.1681    2.5568   -1.4273 C   0  0  0  0  0  0  0  0  0  0  0  0
   -2.0371    1.9778   -1.7545 H   0  0  0  0  0  0  0  0  0  0  0  0
   -1.5619    4.0387   -1.4164 C   0  0  0  0  0  0  0  0  0  0  0  0
   -0.7161    4.6612   -1.1065 H   0  0  0  0  0  0  0  0  0  0  0  0
   -1.8796    4.3572   -2.4143 H   0  0  0  0  0  0  0  0  0  0  0  0
   -2.3916    4.2097   -0.7234 H   0  0  0  0  0  0  0  0  0  0  0  0
   -0.0312    2.3475   -2.4382 C   0  0  0  0  0  0  0  0  0  0  0  0
    0.1700    1.2832   -2.5867 H   0  0  0  0  0  0  0  0  0  0  0  0
   -0.3024    2.7731   -3.4093 H   0  0  0  0  0  0  0  0  0  0  0  0
    0.8873    2.8326   -2.0921 H   0  0  0  0  0  0  0  0  0  0  0  0
    0.3464    0.3596    1.4735 C   0  0  0  0  0  0  0  0  0  0  0  0
    1.2687    1.1187    1.7484 O   0  0  0  0  0  0  0  0  0  0  0  0
    0.1142   -0.6717    2.3629 N   0  0  0  0  0  0  0  0  0  0  0  0
   -0.4979   -1.4156    2.0249 H   0  0  0  0  0  0  0  0  0  0  0  0
    0.9654   -0.9560    3.5117 C   0  0  0  0  0  0  0  0  0  0  0  0
    1.0018   -0.0936    4.1855 H   0  0  0  0  0  0  0  0  0  0  0  0
    0.5714   -1.8113    4.0690 H   0  0  0  0  0  0  0  0  0  0  0  0
    1.9832   -1.1928    3.1847 H   0  0  0  0  0  0  0  0  0  0  0  0
  1  2  1  0  0  0  0
  2  3  1  0  0  0  0
  2  4  1  0  0  0  0
  2  5  1  0  0  0  0
  5  6  2  0  0  0  0
  5  7  1  0  0  0  0
  7  8  1  0  0  0  0
  7  9  1  0  0  0  0
  9 10  1  0  0  0  0
  9 11  1  0  0  0  0
  9 24  1  0  0  0  0
 11 12  1  0  0  0  0
 11 13  1  0  0  0  0
 11 14  1  0  0  0  0
 14 15  1  0  0  0  0
 14 16  1  0  0  0  0
 14 20  1  0  0  0  0
 16 17  1  0  0  0  0
 16 18  1  0  0  0  0
 16 19  1  0  0  0  0
 20 21  1  0  0  0  0
 20 22  1  0  0  0  0
 20 23  1  0  0  0  0
 24 25  2  0  0  0  0
 24 26  1  0  0  0  0
 26 27  1  0  0  0  0
 26 28  1  0  0  0  0
 28 29  1  0  0  0  0
 28 30  1  0  0  0  0
 28 31  1  0  0  0  0
M  END
$$$$

  -OEChem-01062216083D

 31 30  0     1  0  0  0  0  0999 V2000
   -3.7454   -0.9316    1.5329 H   0  0  0  0  0  0  0  0  0  0  0  0
   -3.3751   -1.6360    0.7842 C   0  0  0  0  0  0  0  0  0  0  0  0
   -3.4697   -2.6513    1.1800 H   0  0  0  0  0  0  0  0  0  0  0  0
   -3.9838   -1.5522   -0.1195 H   0  0  0  0  0  0  0  0  0  0  0  0
   -1.9238   -1.3354    0.4597 C   0  0  0  0  0  0  0  0  0  0  0  0
   -1.1147   -2.2440    0.4557 O   0  0  0  0  0  0  0  0  0  0  0  0
   -1.5864   -0.0815   -0.0049 N   0  0  0  0  0  0  0  0  0  0  0  0
   -2.3782    0.5483   -0.0841 H   0  0  0  0  0  0  0  0  0  0  0  0
   -0.2632    0.5853    0.0081 C   0  0  1  0  0  0  0  0  0  0  0  0
    0.2431    0.2916   -0.9149 H   0  0  0  0  0  0  0  0  0  0  0  0
   -0.5899    2.1017   -0.0345 C   0  0  0  0  0  0  0  0  0  0  0  0
   -1.2347    2.3436    0.8170 H   0  0  0  0  0  0  0  0  0  0  0  0
    0.3291    2.6846    0.0885 H   0  0  0  0  0  0  0  0  0  0  0  0
   -1.2588    2.5763   -1.3465 C   0  0  0  0  0  0  0  0  0  0  0  0
   -2.1654    1.9928   -1.5347 H   0  0  0  0  0  0  0  0  0  0  0  0
   -1.6617    4.0481   -1.1988 C   0  0  0  0  0  0  0  0  0  0  0  0
   -0.7803    4.6744   -1.0262 H   0  0  0  0  0  0  0  0  0  0  0  0
   -2.1645    4.3990   -2.1055 H   0  0  0  0  0  0  0  0  0  0  0  0
   -2.3489    4.1749   -0.3565 H   0  0  0  0  0  0  0  0  0  0  0  0
   -0.3245    2.4334   -2.5572 C   0  0  0  0  0  0  0  0  0  0  0  0
   -0.1374    1.3810   -2.7864 H   0  0  0  0  0  0  0  0  0  0  0  0
   -0.7768    2.8908   -3.4426 H   0  0  0  0  0  0  0  0  0  0  0  0
    0.6344    2.9256   -2.3652 H   0  0  0  0  0  0  0  0  0  0  0  0
    0.8153    0.3157    1.1134 C   0  0  0  0  0  0  0  0  0  0  0  0
    1.8152    1.0186    1.1337 O   0  0  0  0  0  0  0  0  0  0  0  0
    1.0516   -0.8182    1.8529 N   0  0  0  0  0  0  0  0  0  0  0  0
    2.0342   -0.8576    2.1098 H   0  0  0  0  0  0  0  0  0  0  0  0
    0.1449   -1.1912    2.9313 C   0  0  0  0  0  0  0  0  0  0  0  0
   -0.8020   -0.6461    2.8697 H   0  0  0  0  0  0  0  0  0  0  0  0
   -0.0651   -2.2648    2.8942 H   0  0  0  0  0  0  0  0  0  0  0  0
    0.6033   -0.9614    3.8982 H   0  0  0  0  0  0  0  0  0  0  0  0
  1  2  1  0  0  0  0
  2  3  1  0  0  0  0
  2  4  1  0  0  0  0
  2  5  1  0  0  0  0
  5  6  2  0  0  0  0
  5  7  1  0  0  0  0
  7  8  1  0  0  0  0
  7  9  1  0  0  0  0
  9 10  1  0  0  0  0
  9 11  1  0  0  0  0
  9 24  1  0  0  0  0
 11 12  1  0  0  0  0
 11 13  1  0  0  0  0
 11 14  1  0  0  0  0
 14 15  1  0  0  0  0
 14 16  1  0  0  0  0
 14 20  1  0  0  0  0
 16 17  1  0  0  0  0
 16 18  1  0  0  0  0
 16 19  1  0  0  0  0
 20 21  1  0  0  0  0
 20 22  1  0  0  0  0
 20 23  1  0  0  0  0
 24 25  2  0  0  0  0
 24 26  1  0  0  0  0
 26 27  1  0  0  0  0
 26 28  1  0  0  0  0
 28 29  1  0  0  0  0
 28 30  1  0  0  0  0
 28 31  1  0  0  0  0
M  END
$$$$

  -OEChem-01062216083D

 31 30  0     1  0  0  0  0  0999 V2000
   -3.8171   -2.6275    0.6587 H   0  0  0  0  0  0  0  0  0  0  0  0
   -3.6430   -1.6054    0.3104 C   0  0  0  0  0  0  0  0  0  0  0  0
   -4.1580   -0.9144    0.9822 H   0  0  0  0  0  0  0  0  0  0  0  0
   -4.0557   -1.5015   -0.6961 H   0  0  0  0  0  0  0  0  0  0  0  0
   -2.1563   -1.3032    0.2952 C   0  0  0  0  0  0  0  0  0  0  0  0
   -1.3663   -2.2081    0.4995 O   0  0  0  0  0  0  0  0  0  0  0  0
   -1.7353   -0.0472   -0.0969 N   0  0  0  0  0  0  0  0  0  0  0  0
   -2.5020    0.5803   -0.3201 H   0  0  0  0  0  0  0  0  0  0  0  0
   -0.4361    0.6323    0.1329 C   0  0  1  0  0  0  0  0  0  0  0  0
    0.2301    0.3333   -0.6795 H   0  0  0  0  0  0  0  0  0  0  0  0
   -0.7337    2.1497    0.0066 C   0  0  0  0  0  0  0  0  0  0  0  0
   -1.5097    2.4163    0.7323 H   0  0  0  0  0  0  0  0  0  0  0  0
    0.1621    2.7224    0.2697 H   0  0  0  0  0  0  0  0  0  0  0  0
   -1.1586    2.6030   -1.4102 C   0  0  0  0  0  0  0  0  0  0  0  0
   -2.0271    2.0237   -1.7390 H   0  0  0  0  0  0  0  0  0  0  0  0
   -1.5645    4.0807   -1.3598 C   0  0  0  0  0  0  0  0  0  0  0  0
   -0.7199    4.7031   -1.0464 H   0  0  0  0  0  0  0  0  0  0  0  0
   -1.8988    4.4197   -2.3454 H   0  0  0  0  0  0  0  0  0  0  0  0
   -2.3860    4.2280   -0.6518 H   0  0  0  0  0  0  0  0  0  0  0  0
   -0.0339    2.4273   -2.4417 C   0  0  0  0  0  0  0  0  0  0  0  0
    0.1729    1.3687   -2.6199 H   0  0  0  0  0  0  0  0  0  0  0  0
   -0.3220    2.8745   -3.3982 H   0  0  0  0  0  0  0  0  0  0  0  0
    0.8856    2.9110   -2.0971 H   0  0  0  0  0  0  0  0  0  0  0  0
    0.3935    0.3130    1.4221 C   0  0  0  0  0  0  0  0  0  0  0  0
    0.8934    1.2232    2.0737 O   0  0  0  0  0  0  0  0  0  0  0  0
    0.6092   -0.9665    1.8940 N   0  0  0  0  0  0  0  0  0  0  0  0
    0.1248   -1.7201    1.4011 H   0  0  0  0  0  0  0  0  0  0  0  0
    1.3356   -1.2832    3.1172 C   0  0  0  0  0  0  0  0  0  0  0  0
    0.8374   -0.8390    3.9851 H   0  0  0  0  0  0  0  0  0  0  0  0
    1.3781   -2.3673    3.2588 H   0  0  0  0  0  0  0  0  0  0  0  0
    2.3608   -0.9023    3.0639 H   0  0  0  0  0  0  0  0  0  0  0  0
  1  2  1  0  0  0  0
  2  3  1  0  0  0  0
  2  4  1  0  0  0  0
  2  5  1  0  0  0  0
  5  6  2  0  0  0  0
  5  7  1  0  0  0  0
  7  8  1  0  0  0  0
  7  9  1  0  0  0  0
  9 10  1  0  0  0  0
  9 11  1  0  0  0  0
  9 24  1  0  0  0  0
 11 12  1  0  0  0  0
 11 13  1  0  0  0  0
 11 14  1  0  0  0  0
 14 15  1  0  0  0  0
 14 16  1  0  0  0  0
 14 20  1  0  0  0  0
 16 17  1  0  0  0  0
 16 18  1  0  0  0  0
 16 19  1  0  0  0  0
 20 21  1  0  0  0  0
 20 22  1  0  0  0  0
 20 23  1  0  0  0  0
 24 25  2  0  0  0  0
 24 26  1  0  0  0  0
 26 27  1  0  0  0  0
 26 28  1  0  0  0  0
 28 29  1  0  0  0  0
 28 30  1  0  0  0  0
 28 31  1  0  0  0  0
M  END
$$$$

  -OEChem-01062216083D

 31 30  0     1  0  0  0  0  0999 V2000
   -3.7037   -2.6660    0.7638 H   0  0  0  0  0  0  0  0  0  0  0  0
   -3.5696   -1.6451    0.3948 C   0  0  0  0  0  0  0  0  0  0  0  0
   -4.0803   -0.9577    1.0736 H   0  0  0  0  0  0  0  0  0  0  0  0
   -4.0184   -1.5681   -0.5985 H   0  0  0  0  0  0  0  0  0  0  0  0
   -2.0931   -1.3038    0.3243 C   0  0  0  0  0  0  0  0  0  0  0  0
   -1.2709   -2.1830    0.5162 O   0  0  0  0  0  0  0  0  0  0  0  0
   -1.7143   -0.0429   -0.0950 N   0  0  0  0  0  0  0  0  0  0  0  0
   -2.4982    0.5745   -0.2841 H   0  0  0  0  0  0  0  0  0  0  0  0
   -0.4186    0.6477    0.1077 C   0  0  1  0  0  0  0  0  0  0  0  0
    0.2397    0.3501   -0.7118 H   0  0  0  0  0  0  0  0  0  0  0  0
   -0.7081    2.1654   -0.0108 C   0  0  0  0  0  0  0  0  0  0  0  0
   -1.4711    2.4349    0.7274 H   0  0  0  0  0  0  0  0  0  0  0  0
    0.1979    2.7265    0.2439 H   0  0  0  0  0  0  0  0  0  0  0  0
   -1.1562    2.6242   -1.4182 C   0  0  0  0  0  0  0  0  0  0  0  0
   -2.0339    2.0499   -1.7313 H   0  0  0  0  0  0  0  0  0  0  0  0
   -1.5513    4.1045   -1.3592 C   0  0  0  0  0  0  0  0  0  0  0  0
   -0.6970    4.7211   -1.0611 H   0  0  0  0  0  0  0  0  0  0  0  0
   -1.9010    4.4464   -2.3384 H   0  0  0  0  0  0  0  0  0  0  0  0
   -2.3586    4.2568   -0.6363 H   0  0  0  0  0  0  0  0  0  0  0  0
   -0.0513    2.4428   -2.4696 C   0  0  0  0  0  0  0  0  0  0  0  0
    0.1475    1.3830   -2.6505 H   0  0  0  0  0  0  0  0  0  0  0  0
   -0.3549    2.8908   -3.4210 H   0  0  0  0  0  0  0  0  0  0  0  0
    0.8764    2.9229   -2.1420 H   0  0  0  0  0  0  0  0  0  0  0  0
    0.4102    0.3225    1.3914 C   0  0  0  0  0  0  0  0  0  0  0  0
    0.6968    1.2101    2.1874 O   0  0  0  0  0  0  0  0  0  0  0  0
    0.8650   -0.9507    1.6730 N   0  0  0  0  0  0  0  0  0  0  0  0
    0.4173   -1.6989    1.1376 H   0  0  0  0  0  0  0  0  0  0  0  0
    1.5447   -1.3073    2.9117 C   0  0  0  0  0  0  0  0  0  0  0  0
    0.8827   -1.1514    3.7697 H   0  0  0  0  0  0  0  0  0  0  0  0
    1.8411   -2.3603    2.8874 H   0  0  0  0  0  0  0  0  0  0  0  0
    2.4459   -0.6997    3.0450 H   0  0  0  0  0  0  0  0  0  0  0  0
  1  2  1  0  0  0  0
  2  3  1  0  0  0  0
  2  4  1  0  0  0  0
  2  5  1  0  0  0  0
  5  6  2  0  0  0  0
  5  7  1  0  0  0  0
  7  8  1  0  0  0  0
  7  9  1  0  0  0  0
  9 10  1  0  0  0  0
  9 11  1  0  0  0  0
  9 24  1  0  0  0  0
 11 12  1  0  0  0  0
 11 13  1  0  0  0  0
 11 14  1  0  0  0  0
 14 15  1  0  0  0  0
 14 16  1  0  0  0  0
 14 20  1  0  0  0  0
 16 17  1  0  0  0  0
 16 18  1  0  0  0  0
 16 19  1  0  0  0  0
 20 21  1  0  0  0  0
 20 22  1  0  0  0  0
 20 23  1  0  0  0  0
 24 25  2  0  0  0  0
 24 26  1  0  0  0  0
 26 27  1  0  0  0  0
 26 28  1  0  0  0  0
 28 29  1  0  0  0  0
 28 30  1  0  0  0  0
 28 31  1  0  0  0  0
M  END
$$$$

  -OEChem-01062216083D

 31 30  0     1  0  0  0  0  0999 V2000
   -3.5834   -2.6953    0.8699 H   0  0  0  0  0  0  0  0  0  0  0  0
   -3.4914   -1.6870    0.4565 C   0  0  0  0  0  0  0  0  0  0  0  0
   -4.0174   -0.9901    1.1137 H   0  0  0  0  0  0  0  0  0  0  0  0
   -3.9560   -1.6677   -0.5323 H   0  0  0  0  0  0  0  0  0  0  0  0
   -2.0290   -1.2977    0.3499 C   0  0  0  0  0  0  0  0  0  0  0  0
   -1.1687   -2.1392    0.5497 O   0  0  0  0  0  0  0  0  0  0  0  0
   -1.6954   -0.0368   -0.1061 N   0  0  0  0  0  0  0  0  0  0  0  0
   -2.4942    0.5667   -0.2767 H   0  0  0  0  0  0  0  0  0  0  0  0
   -0.4056    0.6633    0.0830 C   0  0  1  0  0  0  0  0  0  0  0  0
    0.2572    0.3688   -0.7339 H   0  0  0  0  0  0  0  0  0  0  0  0
   -0.6913    2.1804   -0.0261 C   0  0  0  0  0  0  0  0  0  0  0  0
   -1.4490    2.4491    0.7181 H   0  0  0  0  0  0  0  0  0  0  0  0
    0.2197    2.7333    0.2296 H   0  0  0  0  0  0  0  0  0  0  0  0
   -1.1526    2.6454   -1.4266 C   0  0  0  0  0  0  0  0  0  0  0  0
   -2.0352    2.0743   -1.7319 H   0  0  0  0  0  0  0  0  0  0  0  0
   -1.5426    4.1266   -1.3574 C   0  0  0  0  0  0  0  0  0  0  0  0
   -0.6834    4.7390   -1.0656 H   0  0  0  0  0  0  0  0  0  0  0  0
   -1.9019    4.4734   -2.3312 H   0  0  0  0  0  0  0  0  0  0  0  0
   -2.3418    4.2784   -0.6253 H   0  0  0  0  0  0  0  0  0  0  0  0
   -0.0594    2.4638   -2.4899 C   0  0  0  0  0  0  0  0  0  0  0  0
    0.1351    1.4039   -2.6743 H   0  0  0  0  0  0  0  0  0  0  0  0
   -0.3721    2.9138   -3.4373 H   0  0  0  0  0  0  0  0  0  0  0  0
    0.8726    2.9415   -2.1712 H   0  0  0  0  0  0  0  0  0  0  0  0
    0.3952    0.3358    1.3789 C   0  0  0  0  0  0  0  0  0  0  0  0
    0.4809    1.1581    2.2846 O   0  0  0  0  0  0  0  0  0  0  0  0
    1.0816   -0.8563    1.5085 N   0  0  0  0  0  0  0  0  0  0  0  0
    0.7169   -1.6079    0.9188 H   0  0  0  0  0  0  0  0  0  0  0  0
    1.7601   -1.2421    2.7396 C   0  0  0  0  0  0  0  0  0  0  0  0
    1.0423   -1.3252    3.5624 H   0  0  0  0  0  0  0  0  0  0  0  0
    2.2537   -2.2099    2.6093 H   0  0  0  0  0  0  0  0  0  0  0  0
    2.5211   -0.5018    3.0080 H   0  0  0  0  0  0  0  0  0  0  0  0
  1  2  1  0  0  0  0
  2  3  1  0  0  0  0
  2  4  1  0  0  0  0
  2  5  1  0  0  0  0
  5  6  2  0  0  0  0
  5  7  1  0  0  0  0
  7  8  1  0  0  0  0
  7  9  1  0  0  0  0
  9 10  1  0  0  0  0
  9 11  1  0  0  0  0
  9 24  1  0  0  0  0
 11 12  1  0  0  0  0
 11 13  1  0  0  0  0
 11 14  1  0  0  0  0
 14 15  1  0  0  0  0
 14 16  1  0  0  0  0
 14 20  1  0  0  0  0
 16 17  1  0  0  0  0
 16 18  1  0  0  0  0
 16 19  1  0  0  0  0
 20 21  1  0  0  0  0
 20 22  1  0  0  0  0
 20 23  1  0  0  0  0
 24 25  2  0  0  0  0
 24 26  1  0  0  0  0
 26 27  1  0  0  0  0
 26 28  1  0  0  0  0
 28 29  1  0  0  0  0
 28 30  1  0  0  0  0
 28 31  1  0  0  0  0
M  END
$$$$

  -OEChem-01062216083D

 31 30  0     1  0  0  0  0  0999 V2000
   -3.4646   -2.7283    0.9474 H   0  0  0  0  0  0  0  0  0  0  0  0
   -3.4168   -1.7192    0.5279 C   0  0  0  0  0  0  0  0  0  0  0  0
   -3.9302   -1.0335    1.2064 H   0  0  0  0  0  0  0  0  0  0  0  0
   -3.9254   -1.7149   -0.4392 H   0  0  0  0  0  0  0  0  0  0  0  0
   -1.9710   -1.2933    0.3563 C   0  0  0  0  0  0  0  0  0  0  0  0
   -1.0757   -2.1011    0.5470 O   0  0  0  0  0  0  0  0  0  0  0  0
   -1.6835   -0.0334   -0.1329 N   0  0  0  0  0  0  0  0  0  0  0  0
   -2.4967    0.5605   -0.2644 H   0  0  0  0  0  0  0  0  0  0  0  0
   -0.4006    0.6747    0.0527 C   0  0  1  0  0  0  0  0  0  0  0  0
    0.2704    0.3842   -0.7592 H   0  0  0  0  0  0  0  0  0  0  0  0
   -0.6821    2.1914   -0.0441 C   0  0  0  0  0  0  0  0  0  0  0  0
   -1.4405    2.4547    0.7016 H   0  0  0  0  0  0  0  0  0  0  0  0
    0.2306    2.7378    0.2192 H   0  0  0  0  0  0  0  0  0  0  0  0
   -1.1481    2.6660   -1.4393 C   0  0  0  0  0  0  0  0  0  0  0  0
   -2.0335    2.0988   -1.7433 H   0  0  0  0  0  0  0  0  0  0  0  0
   -1.5343    4.1478   -1.3606 C   0  0  0  0  0  0  0  0  0  0  0  0
   -0.6723    4.7573   -1.0704 H   0  0  0  0  0  0  0  0  0  0  0  0
   -1.8979    4.5005   -2.3309 H   0  0  0  0  0  0  0  0  0  0  0  0
   -2.3294    4.2976   -0.6233 H   0  0  0  0  0  0  0  0  0  0  0  0
   -0.0599    2.4866   -2.5078 C   0  0  0  0  0  0  0  0  0  0  0  0
    0.1291    1.4270   -2.6993 H   0  0  0  0  0  0  0  0  0  0  0  0
   -0.3743    2.9440   -3.4511 H   0  0  0  0  0  0  0  0  0  0  0  0
    0.8754    2.9582   -2.1898 H   0  0  0  0  0  0  0  0  0  0  0  0
    0.3654    0.3437    1.3641 C   0  0  0  0  0  0  0  0  0  0  0  0
    0.2327    1.0506    2.3574 O   0  0  0  0  0  0  0  0  0  0  0  0
    1.2784   -0.6936    1.3929 N   0  0  0  0  0  0  0  0  0  0  0  0
    1.0881   -1.4250    0.7082 H   0  0  0  0  0  0  0  0  0  0  0  0
    1.9560   -1.0932    2.6198 C   0  0  0  0  0  0  0  0  0  0  0  0
    1.2290   -1.4327    3.3648 H   0  0  0  0  0  0  0  0  0  0  0  0
    2.6530   -1.9115    2.4155 H   0  0  0  0  0  0  0  0  0  0  0  0
    2.5234   -0.2547    3.0368 H   0  0  0  0  0  0  0  0  0  0  0  0
  1  2  1  0  0  0  0
  2  3  1  0  0  0  0
  2  4  1  0  0  0  0
  2  5  1  0  0  0  0
  5  6  2  0  0  0  0
  5  7  1  0  0  0  0
  7  8  1  0  0  0  0
  7  9  1  0  0  0  0
  9 10  1  0  0  0  0
  9 11  1  0  0  0  0
  9 24  1  0  0  0  0
 11 12  1  0  0  0  0
 11 13  1  0  0  0  0
 11 14  1  0  0  0  0
 14 15  1  0  0  0  0
 14 16  1  0  0  0  0
 14 20  1  0  0  0  0
 16 17  1  0  0  0  0
 16 18  1  0  0  0  0
 16 19  1  0  0  0  0
 20 21  1  0  0  0  0
 20 22  1  0  0  0  0
 20 23  1  0  0  0  0
 24 25  2  0  0  0  0
 24 26  1  0  0  0  0
 26 27  1  0  0  0  0
 26 28  1  0  0  0  0
 28 29  1  0  0  0  0
 28 30  1  0  0  0  0
 28 31  1  0  0  0  0
M  END
$$$$

  -OEChem-01062216083D

 31 30  0     1  0  0  0  0  0999 V2000
   -3.3909   -2.7368    1.0147 H   0  0  0  0  0  0  0  0  0  0  0  0
   -3.3694   -1.7344    0.5781 C   0  0  0  0  0  0  0  0  0  0  0  0
   -3.8748   -1.0451    1.2591 H   0  0  0  0  0  0  0  0  0  0  0  0
   -3.9031   -1.7530   -0.3751 H   0  0  0  0  0  0  0  0  0  0  0  0
   -1.9351   -1.2900    0.3622 C   0  0  0  0  0  0  0  0  0  0  0  0
   -1.0210   -2.0796    0.5423 O   0  0  0  0  0  0  0  0  0  0  0  0
   -1.6777   -0.0327   -0.1508 N   0  0  0  0  0  0  0  0  0  0  0  0
   -2.5000    0.5550   -0.2475 H   0  0  0  0  0  0  0  0  0  0  0  0
   -0.3993    0.6820    0.0299 C   0  0  1  0  0  0  0  0  0  0  0  0
    0.2736    0.3913   -0.7801 H   0  0  0  0  0  0  0  0  0  0  0  0
   -0.6764    2.1987   -0.0575 C   0  0  0  0  0  0  0  0  0  0  0  0
   -1.4324    2.4604    0.6912 H   0  0  0  0  0  0  0  0  0  0  0  0
    0.2389    2.7403    0.2068 H   0  0  0  0  0  0  0  0  0  0  0  0
   -1.1481    2.6793   -1.4486 C   0  0  0  0  0  0  0  0  0  0  0  0
   -2.0363    2.1147   -1.7498 H   0  0  0  0  0  0  0  0  0  0  0  0
   -1.5305    4.1616   -1.3639 C   0  0  0  0  0  0  0  0  0  0  0  0
   -0.6666    4.7678   -1.0728 H   0  0  0  0  0  0  0  0  0  0  0  0
   -1.8949    4.5183   -2.3324 H   0  0  0  0  0  0  0  0  0  0  0  0
   -2.3242    4.3104   -0.6249 H   0  0  0  0  0  0  0  0  0  0  0  0
   -0.0660    2.5002   -2.5235 C   0  0  0  0  0  0  0  0  0  0  0  0
    0.1197    1.4405   -2.7188 H   0  0  0  0  0  0  0  0  0  0  0  0
   -0.3847    2.9605   -3.4641 H   0  0  0  0  0  0  0  0  0  0  0  0
    0.8718    2.9693   -2.2093 H   0  0  0  0  0  0  0  0  0  0  0  0
    0.3488    0.3551    1.3497 C   0  0  0  0  0  0  0  0  0  0  0  0
    0.0045    0.8879    2.3993 O   0  0  0  0  0  0  0  0  0  0  0  0
    1.4663   -0.4590    1.3337 N   0  0  0  0  0  0  0  0  0  0  0  0
    1.5306   -1.0783    0.5295 H   0  0  0  0  0  0  0  0  0  0  0  0
    2.1340   -0.8787    2.5594 C   0  0  0  0  0  0  0  0  0  0  0  0
    1.4507   -1.4616    3.1860 H   0  0  0  0  0  0  0  0  0  0  0  0
    3.0032   -1.4992    2.3216 H   0  0  0  0  0  0  0  0  0  0  0  0
    2.4784   -0.0081    3.1275 H   0  0  0  0  0  0  0  0  0  0  0  0
  1  2  1  0  0  0  0
  2  3  1  0  0  0  0
  2  4  1  0  0  0  0
  2  5  1  0  0  0  0
  5  6  2  0  0  0  0
  5  7  1  0  0  0  0
  7  8  1  0  0  0  0
  7  9  1  0  0  0  0
  9 10  1  0  0  0  0
  9 11  1  0  0  0  0
  9 24  1  0  0  0  0
 11 12  1  0  0  0  0
 11 13  1  0  0  0  0
 11 14  1  0  0  0  0
 14 15  1  0  0  0  0
 14 16  1  0  0  0  0
 14 20  1  0  0  0  0
 16 17  1  0  0  0  0
 16 18  1  0  0  0  0
 16 19  1  0  0  0  0
 20 21  1  0  0  0  0
 20 22  1  0  0  0  0
 20 23  1  0  0  0  0
 24 25  2  0  0  0  0
 24 26  1  0  0  0  0
 26 27  1  0  0  0  0
 26 28  1  0  0  0  0
 28 29  1  0  0  0  0
 28 30  1  0  0  0  0
 28 31  1  0  0  0  0
M  END
$$$$

  -OEChem-01062216083D

 31 30  0     1  0  0  0  0  0999 V2000
   -3.3671   -2.7393    1.0406 H   0  0  0  0  0  0  0  0  0  0  0  0
   -3.3547   -1.7365    0.6045 C   0  0  0  0  0  0  0  0  0  0  0  0
   -3.8433   -1.0473    1.2977 H   0  0  0  0  0  0  0  0  0  0  0  0
   -3.9094   -1.7538   -0.3366 H   0  0  0  0  0  0  0  0  0  0  0  0
   -1.9253   -1.2931    0.3568 C   0  0  0  0  0  0  0  0  0  0  0  0
   -1.0063   -2.0807    0.5218 O   0  0  0  0  0  0  0  0  0  0  0  0
   -1.6785   -0.0393   -0.1704 N   0  0  0  0  0  0  0  0  0  0  0  0
   -2.5032    0.5474   -0.2482 H   0  0  0  0  0  0  0  0  0  0  0  0
   -0.4016    0.6766    0.0131 C   0  0  1  0  0  0  0  0  0  0  0  0
    0.2740    0.3841   -0.7940 H   0  0  0  0  0  0  0  0  0  0  0  0
   -0.6753    2.1930   -0.0652 C   0  0  0  0  0  0  0  0  0  0  0  0
   -1.4303    2.4512    0.6858 H   0  0  0  0  0  0  0  0  0  0  0  0
    0.2409    2.7316    0.2017 H   0  0  0  0  0  0  0  0  0  0  0  0
   -1.1467    2.6816   -1.4530 C   0  0  0  0  0  0  0  0  0  0  0  0
   -2.0364    2.1201   -1.7558 H   0  0  0  0  0  0  0  0  0  0  0  0
   -1.5261    4.1642   -1.3604 C   0  0  0  0  0  0  0  0  0  0  0  0
   -0.6594    4.7683   -1.0734 H   0  0  0  0  0  0  0  0  0  0  0  0
   -1.8978    4.5250   -2.3247 H   0  0  0  0  0  0  0  0  0  0  0  0
   -2.3141    4.3107   -0.6150 H   0  0  0  0  0  0  0  0  0  0  0  0
   -0.0659    2.5049   -2.5293 C   0  0  0  0  0  0  0  0  0  0  0  0
    0.1147    1.4457   -2.7315 H   0  0  0  0  0  0  0  0  0  0  0  0
   -0.3827    2.9730   -3.4666 H   0  0  0  0  0  0  0  0  0  0  0  0
    0.8742    2.9673   -2.2123 H   0  0  0  0  0  0  0  0  0  0  0  0
    0.3336    0.3574    1.3401 C   0  0  0  0  0  0  0  0  0  0  0  0
   -0.1632    0.7004    2.4078 O   0  0  0  0  0  0  0  0  0  0  0  0
    1.6042   -0.1881    1.3239 N   0  0  0  0  0  0  0  0  0  0  0  0
    1.8813   -0.6366    0.4557 H   0  0  0  0  0  0  0  0  0  0  0  0
    2.2931   -0.5852    2.5455 C   0  0  0  0  0  0  0  0  0  0  0  0
    1.7247   -1.3611    3.0694 H   0  0  0  0  0  0  0  0  0  0  0  0
    3.2849   -0.9814    2.3079 H   0  0  0  0  0  0  0  0  0  0  0  0
    2.4171    0.2733    3.2139 H   0  0  0  0  0  0  0  0  0  0  0  0
  1  2  1  0  0  0  0
  2  3  1  0  0  0  0
  2  4  1  0  0  0  0
  2  5  1  0  0  0  0
  5  6  2  0  0  0  0
  5  7  1  0  0  0  0
  7  8  1  0  0  0  0
  7  9  1  0  0  0  0
  9 10  1  0  0  0  0
  9 11  1  0  0  0  0
  9 24  1  0  0  0  0
 11 12  1  0  0  0  0
 11 13  1  0  0  0  0
 11 14  1  0  0  0  0
 14 15  1  0  0  0  0
 14 16  1  0  0  0  0
 14 20  1  0  0  0  0
 16 17  1  0  0  0  0
 16 18  1  0  0  0  0
 16 19  1  0  0  0  0
 20 21  1  0  0  0  0
 20 22  1  0  0  0  0
 20 23  1  0  0  0  0
 24 25  2  0  0  0  0
 24 26  1  0  0  0  0
 26 27  1  0  0  0  0
 26 28  1  0  0  0  0
 28 29  1  0  0  0  0
 28 30  1  0  0  0  0
 28 31  1  0  0  0  0
M  END
$$$$

  -OEChem-01062216083D

 31 30  0     1  0  0  0  0  0999 V2000
   -3.3607   -2.7414    1.0628 H   0  0  0  0  0  0  0  0  0  0  0  0
   -3.3567   -1.7397    0.6237 C   0  0  0  0  0  0  0  0  0  0  0  0
   -3.8220   -1.0468    1.3289 H   0  0  0  0  0  0  0  0  0  0  0  0
   -3.9379   -1.7567   -0.3012 H   0  0  0  0  0  0  0  0  0  0  0  0
   -1.9326   -1.3039    0.3355 C   0  0  0  0  0  0  0  0  0  0  0  0
   -1.0141   -2.0988    0.4647 O   0  0  0  0  0  0  0  0  0  0  0  0
   -1.6892   -0.0498   -0.1931 N   0  0  0  0  0  0  0  0  0  0  0  0
   -2.5135    0.5398   -0.2466 H   0  0  0  0  0  0  0  0  0  0  0  0
   -0.4114    0.6618    0.0034 C   0  0  1  0  0  0  0  0  0  0  0  0
    0.2682    0.3681   -0.8000 H   0  0  0  0  0  0  0  0  0  0  0  0
   -0.6797    2.1789   -0.0664 C   0  0  0  0  0  0  0  0  0  0  0  0
   -1.4387    2.4335    0.6818 H   0  0  0  0  0  0  0  0  0  0  0  0
    0.2355    2.7138    0.2106 H   0  0  0  0  0  0  0  0  0  0  0  0
   -1.1405    2.6788   -1.4537 C   0  0  0  0  0  0  0  0  0  0  0  0
   -2.0294    2.1220   -1.7674 H   0  0  0  0  0  0  0  0  0  0  0  0
   -1.5156    4.1619   -1.3526 C   0  0  0  0  0  0  0  0  0  0  0  0
   -0.6503    4.7598   -1.0491 H   0  0  0  0  0  0  0  0  0  0  0  0
   -1.8725    4.5328   -2.3185 H   0  0  0  0  0  0  0  0  0  0  0  0
   -2.3127    4.3059   -0.6166 H   0  0  0  0  0  0  0  0  0  0  0  0
   -0.0522    2.5078   -2.5235 C   0  0  0  0  0  0  0  0  0  0  0  0
    0.1329    1.4495   -2.7269 H   0  0  0  0  0  0  0  0  0  0  0  0
   -0.3652    2.9768   -3.4617 H   0  0  0  0  0  0  0  0  0  0  0  0
    0.8845    2.9727   -2.2001 H   0  0  0  0  0  0  0  0  0  0  0  0
    0.3158    0.3437    1.3352 C   0  0  0  0  0  0  0  0  0  0  0  0
   -0.2742    0.4995    2.3995 O   0  0  0  0  0  0  0  0  0  0  0  0
    1.6763    0.0935    1.3471 N   0  0  0  0  0  0  0  0  0  0  0  0
    2.1008   -0.1485    0.4570 H   0  0  0  0  0  0  0  0  0  0  0  0
    2.4001   -0.2340    2.5693 C   0  0  0  0  0  0  0  0  0  0  0  0
    1.9921   -1.1434    3.0230 H   0  0  0  0  0  0  0  0  0  0  0  0
    3.4587   -0.4010    2.3488 H   0  0  0  0  0  0  0  0  0  0  0  0
    2.3242    0.5851    3.2920 H   0  0  0  0  0  0  0  0  0  0  0  0
  1  2  1  0  0  0  0
  2  3  1  0  0  0  0
  2  4  1  0  0  0  0
  2  5  1  0  0  0  0
  5  6  2  0  0  0  0
  5  7  1  0  0  0  0
  7  8  1  0  0  0  0
  7  9  1  0  0  0  0
  9 10  1  0  0  0  0
  9 11  1  0  0  0  0
  9 24  1  0  0  0  0
 11 12  1  0  0  0  0
 11 13  1  0  0  0  0
 11 14  1  0  0  0  0
 14 15  1  0  0  0  0
 14 16  1  0  0  0  0
 14 20  1  0  0  0  0
 16 17  1  0  0  0  0
 16 18  1  0  0  0  0
 16 19  1  0  0  0  0
 20 21  1  0  0  0  0
 20 22  1  0  0  0  0
 20 23  1  0  0  0  0
 24 25  2  0  0  0  0
 24 26  1  0  0  0  0
 26 27  1  0  0  0  0
 26 28  1  0  0  0  0
 28 29  1  0  0  0  0
 28 30  1  0  0  0  0
 28 31  1  0  0  0  0
M  END
$$$$

  -OEChem-01062216083D

 31 30  0     1  0  0  0  0  0999 V2000
   -3.3677   -2.7475    1.0528 H   0  0  0  0  0  0  0  0  0  0  0  0
   -3.3611   -1.7358    0.6377 C   0  0  0  0  0  0  0  0  0  0  0  0
   -3.7864   -1.0518    1.3763 H   0  0  0  0  0  0  0  0  0  0  0  0
   -3.9761   -1.7191   -0.2650 H   0  0  0  0  0  0  0  0  0  0  0  0
   -1.9409   -1.3180    0.3081 C   0  0  0  0  0  0  0  0  0  0  0  0
   -1.0297   -2.1274    0.3932 O   0  0  0  0  0  0  0  0  0  0  0  0
   -1.6957   -0.0623   -0.2161 N   0  0  0  0  0  0  0  0  0  0  0  0
   -2.5176    0.5322   -0.2452 H   0  0  0  0  0  0  0  0  0  0  0  0
   -0.4160    0.6421   -0.0040 C   0  0  1  0  0  0  0  0  0  0  0  0
    0.2681    0.3481   -0.8037 H   0  0  0  0  0  0  0  0  0  0  0  0
   -0.6819    2.1599   -0.0636 C   0  0  0  0  0  0  0  0  0  0  0  0
   -1.4456    2.4084    0.6819 H   0  0  0  0  0  0  0  0  0  0  0  0
    0.2318    2.6924    0.2228 H   0  0  0  0  0  0  0  0  0  0  0  0
   -1.1318    2.6716   -1.4501 C   0  0  0  0  0  0  0  0  0  0  0  0
   -2.0190    2.1180   -1.7747 H   0  0  0  0  0  0  0  0  0  0  0  0
   -1.5060    4.1544   -1.3407 C   0  0  0  0  0  0  0  0  0  0  0  0
   -0.6422    4.7489   -1.0262 H   0  0  0  0  0  0  0  0  0  0  0  0
   -1.8548    4.5328   -2.3067 H   0  0  0  0  0  0  0  0  0  0  0  0
   -2.3087    4.2940   -0.6098 H   0  0  0  0  0  0  0  0  0  0  0  0
   -0.0351    2.5079   -2.5126 C   0  0  0  0  0  0  0  0  0  0  0  0
    0.1529    1.4511   -2.7211 H   0  0  0  0  0  0  0  0  0  0  0  0
   -0.3410    2.9822   -3.4505 H   0  0  0  0  0  0  0  0  0  0  0  0
    0.8985    2.9719   -2.1791 H   0  0  0  0  0  0  0  0  0  0  0  0
    0.3064    0.3223    1.3310 C   0  0  0  0  0  0  0  0  0  0  0  0
   -0.3327    0.2903    2.3780 O   0  0  0  0  0  0  0  0  0  0  0  0
    1.6873    0.3764    1.3987 N   0  0  0  0  0  0  0  0  0  0  0  0
    2.1926    0.3503    0.5186 H   0  0  0  0  0  0  0  0  0  0  0  0
    2.4260    0.1406    2.6331 C   0  0  0  0  0  0  0  0  0  0  0  0
    2.1972   -0.8536    3.0312 H   0  0  0  0  0  0  0  0  0  0  0  0
    3.5025    0.2003    2.4472 H   0  0  0  0  0  0  0  0  0  0  0  0
    2.1642    0.8909    3.3864 H   0  0  0  0  0  0  0  0  0  0  0  0
  1  2  1  0  0  0  0
  2  3  1  0  0  0  0
  2  4  1  0  0  0  0
  2  5  1  0  0  0  0
  5  6  2  0  0  0  0
  5  7  1  0  0  0  0
  7  8  1  0  0  0  0
  7  9  1  0  0  0  0
  9 10  1  0  0  0  0
  9 11  1  0  0  0  0
  9 24  1  0  0  0  0
 11 12  1  0  0  0  0
 11 13  1  0  0  0  0
 11 14  1  0  0  0  0
 14 15  1  0  0  0  0
 14 16  1  0  0  0  0
 14 20  1  0  0  0  0
 16 17  1  0  0  0  0
 16 18  1  0  0  0  0
 16 19  1  0  0  0  0
 20 21  1  0  0  0  0
 20 22  1  0  0  0  0
 20 23  1  0  0  0  0
 24 25  2  0  0  0  0
 24 26  1  0  0  0  0
 26 27  1  0  0  0  0
 26 28  1  0  0  0  0
 28 29  1  0  0  0  0
 28 30  1  0  0  0  0
 28 31  1  0  0  0  0
M  END
$$$$

  -OEChem-01062216083D

 31 30  0     1  0  0  0  0  0999 V2000
   -3.3906   -2.7383    1.0430 H   0  0  0  0  0  0  0  0  0  0  0  0
   -3.3776   -1.7259    0.6295 C   0  0  0  0  0  0  0  0  0  0  0  0
   -3.7873   -1.0393    1.3742 H   0  0  0  0  0  0  0  0  0  0  0  0
   -4.0018   -1.7006   -0.2666 H   0  0  0  0  0  0  0  0  0  0  0  0
   -1.9561   -1.3239    0.2856 C   0  0  0  0  0  0  0  0  0  0  0  0
   -1.0593   -2.1526    0.3250 O   0  0  0  0  0  0  0  0  0  0  0  0
   -1.6968   -0.0653   -0.2244 N   0  0  0  0  0  0  0  0  0  0  0  0
   -2.5125    0.5377   -0.2400 H   0  0  0  0  0  0  0  0  0  0  0  0
   -0.4104    0.6248    0.0006 C   0  0  1  0  0  0  0  0  0  0  0  0
    0.2738    0.3334   -0.7998 H   0  0  0  0  0  0  0  0  0  0  0  0
   -0.6808    2.1434   -0.0518 C   0  0  0  0  0  0  0  0  0  0  0  0
   -1.4492    2.3851    0.6911 H   0  0  0  0  0  0  0  0  0  0  0  0
    0.2270    2.6818    0.2409 H   0  0  0  0  0  0  0  0  0  0  0  0
   -1.1244    2.6591   -1.4390 C   0  0  0  0  0  0  0  0  0  0  0  0
   -2.0083    2.1046   -1.7709 H   0  0  0  0  0  0  0  0  0  0  0  0
   -1.5044    4.1401   -1.3261 C   0  0  0  0  0  0  0  0  0  0  0  0
   -0.6438    4.7374   -1.0080 H   0  0  0  0  0  0  0  0  0  0  0  0
   -1.8529    4.5193   -2.2920 H   0  0  0  0  0  0  0  0  0  0  0  0
   -2.3096    4.2741   -0.5967 H   0  0  0  0  0  0  0  0  0  0  0  0
   -0.0218    2.5009   -2.4962 C   0  0  0  0  0  0  0  0  0  0  0  0
    0.1695    1.4451   -2.7067 H   0  0  0  0  0  0  0  0  0  0  0  0
   -0.3249    2.9769   -3.4341 H   0  0  0  0  0  0  0  0  0  0  0  0
    0.9091    2.9662   -2.1568 H   0  0  0  0  0  0  0  0  0  0  0  0
    0.3205    0.2991    1.3321 C   0  0  0  0  0  0  0  0  0  0  0  0
   -0.3232    0.0801    2.3533 O   0  0  0  0  0  0  0  0  0  0  0  0
    1.6535    0.6448    1.4766 N   0  0  0  0  0  0  0  0  0  0  0  0
    2.1791    0.8316    0.6284 H   0  0  0  0  0  0  0  0  0  0  0  0
    2.3801    0.5049    2.7333 C   0  0  0  0  0  0  0  0  0  0  0  0
    2.3462   -0.5330    3.0814 H   0  0  0  0  0  0  0  0  0  0  0  0
    3.4275    0.7911    2.5986 H   0  0  0  0  0  0  0  0  0  0  0  0
    1.9424    1.1491    3.5031 H   0  0  0  0  0  0  0  0  0  0  0  0
  1  2  1  0  0  0  0
  2  3  1  0  0  0  0
  2  4  1  0  0  0  0
  2  5  1  0  0  0  0
  5  6  2  0  0  0  0
  5  7  1  0  0  0  0
  7  8  1  0  0  0  0
  7  9  1  0  0  0  0
  9 10  1  0  0  0  0
  9 11  1  0  0  0  0
  9 24  1  0  0  0  0
 11 12  1  0  0  0  0
 11 13  1  0  0  0  0
 11 14  1  0  0  0  0
 14 15  1  0  0  0  0
 14 16  1  0  0  0  0
 14 20  1  0  0  0  0
 16 17  1  0  0  0  0
 16 18  1  0  0  0  0
 16 19  1  0  0  0  0
 20 21  1  0  0  0  0
 20 22  1  0  0  0  0
 20 23  1  0  0  0  0
 24 25  2  0  0  0  0
 24 26  1  0  0  0  0
 26 27  1  0  0  0  0
 26 28  1  0  0  0  0
 28 29  1  0  0  0  0
 28 30  1  0  0  0  0
 28 31  1  0  0  0  0
M  END
$$$$

  -OEChem-01062216083D

 31 30  0     1  0  0  0  0  0999 V2000
   -3.5196   -2.6702    0.9480 H   0  0  0  0  0  0  0  0  0  0  0  0
   -3.4319   -1.6207    0.6536 C   0  0  0  0  0  0  0  0  0  0  0  0
   -3.6812   -0.9949    1.5137 H   0  0  0  0  0  0  0  0  0  0  0  0
   -4.1373   -1.4196   -0.1558 H   0  0  0  0  0  0  0  0  0  0  0  0
   -2.0156   -1.3272    0.1971 C   0  0  0  0  0  0  0  0  0  0  0  0
   -1.2310   -2.2450    0.0179 O   0  0  0  0  0  0  0  0  0  0  0  0
   -1.6838   -0.0655   -0.2588 N   0  0  0  0  0  0  0  0  0  0  0  0
   -2.4727    0.5710   -0.2316 H   0  0  0  0  0  0  0  0  0  0  0  0
   -0.3799    0.5879   -0.0033 C   0  0  1  0  0  0  0  0  0  0  0  0
    0.2053    0.5253   -0.9236 H   0  0  0  0  0  0  0  0  0  0  0  0
   -0.7038    2.0648    0.3275 C   0  0  0  0  0  0  0  0  0  0  0  0
   -1.3982    2.0841    1.1749 H   0  0  0  0  0  0  0  0  0  0  0  0
    0.2060    2.5796    0.6516 H   0  0  0  0  0  0  0  0  0  0  0  0
   -1.3032    2.8658   -0.8510 C   0  0  0  0  0  0  0  0  0  0  0  0
   -2.1994    2.3598   -1.2240 H   0  0  0  0  0  0  0  0  0  0  0  0
   -1.7143    4.2560   -0.3525 C   0  0  0  0  0  0  0  0  0  0  0  0
   -0.8454    4.8046    0.0250 H   0  0  0  0  0  0  0  0  0  0  0  0
   -2.1643    4.8356   -1.1646 H   0  0  0  0  0  0  0  0  0  0  0  0
   -2.4493    4.1718    0.4542 H   0  0  0  0  0  0  0  0  0  0  0  0
   -0.3106    3.0207   -2.0123 C   0  0  0  0  0  0  0  0  0  0  0  0
   -0.1057    2.0557   -2.4837 H   0  0  0  0  0  0  0  0  0  0  0  0
   -0.7247    3.6830   -2.7791 H   0  0  0  0  0  0  0  0  0  0  0  0
    0.6337    3.4477   -1.6602 H   0  0  0  0  0  0  0  0  0  0  0  0
    0.5502    0.0130    1.1091 C   0  0  0  0  0  0  0  0  0  0  0  0
    0.0950   -0.6148    2.0578 O   0  0  0  0  0  0  0  0  0  0  0  0
    1.7732    0.6264    1.3348 N   0  0  0  0  0  0  0  0  0  0  0  0
    2.1401    1.2189    0.5970 H   0  0  0  0  0  0  0  0  0  0  0  0
    2.6205    0.3423    2.4883 C   0  0  0  0  0  0  0  0  0  0  0  0
    2.8417   -0.7287    2.5466 H   0  0  0  0  0  0  0  0  0  0  0  0
    3.5661    0.8863    2.4060 H   0  0  0  0  0  0  0  0  0  0  0  0
    2.1234    0.6507    3.4140 H   0  0  0  0  0  0  0  0  0  0  0  0
  1  2  1  0  0  0  0
  2  3  1  0  0  0  0
  2  4  1  0  0  0  0
  2  5  1  0  0  0  0
  5  6  2  0  0  0  0
  5  7  1  0  0  0  0
  7  8  1  0  0  0  0
  7  9  1  0  0  0  0
  9 10  1  0  0  0  0
  9 11  1  0  0  0  0
  9 24  1  0  0  0  0
 11 12  1  0  0  0  0
 11 13  1  0  0  0  0
 11 14  1  0  0  0  0
 14 15  1  0  0  0  0
 14 16  1  0  0  0  0
 14 20  1  0  0  0  0
 16 17  1  0  0  0  0
 16 18  1  0  0  0  0
 16 19  1  0  0  0  0
 20 21  1  0  0  0  0
 20 22  1  0  0  0  0
 20 23  1  0  0  0  0
 24 25  2  0  0  0  0
 24 26  1  0  0  0  0
 26 27  1  0  0  0  0
 26 28  1  0  0  0  0
 28 29  1  0  0  0  0
 28 30  1  0  0  0  0
 28 31  1  0  0  0  0
M  END
$$$$

  -OEChem-01062216083D

 31 30  0     1  0  0  0  0  0999 V2000
   -3.5168   -2.6493    0.9522 H   0  0  0  0  0  0  0  0  0  0  0  0
   -3.4153   -1.5955    0.6770 C   0  0  0  0  0  0  0  0  0  0  0  0
   -3.6252   -0.9827    1.5567 H   0  0  0  0  0  0  0  0  0  0  0  0
   -4.1398   -1.3626   -0.1068 H   0  0  0  0  0  0  0  0  0  0  0  0
   -2.0077   -1.3219    0.1828 C   0  0  0  0  0  0  0  0  0  0  0  0
   -1.2748   -2.2551   -0.1002 O   0  0  0  0  0  0  0  0  0  0  0  0
   -1.6635   -0.0539   -0.2434 N   0  0  0  0  0  0  0  0  0  0  0  0
   -2.4521    0.5818   -0.1983 H   0  0  0  0  0  0  0  0  0  0  0  0
   -0.3641    0.6057    0.0273 C   0  0  1  0  0  0  0  0  0  0  0  0
    0.2248    0.5480   -0.8910 H   0  0  0  0  0  0  0  0  0  0  0  0
   -0.7251    2.0833    0.3327 C   0  0  0  0  0  0  0  0  0  0  0  0
   -1.4357    2.1006    1.1665 H   0  0  0  0  0  0  0  0  0  0  0  0
    0.1630    2.6300    0.6620 H   0  0  0  0  0  0  0  0  0  0  0  0
   -1.3155    2.8571   -0.8695 C   0  0  0  0  0  0  0  0  0  0  0  0
   -2.1940    2.3298   -1.2551 H   0  0  0  0  0  0  0  0  0  0  0  0
   -1.7654    4.2457   -0.3999 C   0  0  0  0  0  0  0  0  0  0  0  0
   -0.9155    4.8197   -0.0170 H   0  0  0  0  0  0  0  0  0  0  0  0
   -2.2148    4.8020   -1.2287 H   0  0  0  0  0  0  0  0  0  0  0  0
   -2.5124    4.1576    0.3953 H   0  0  0  0  0  0  0  0  0  0  0  0
   -0.3015    3.0152   -2.0121 C   0  0  0  0  0  0  0  0  0  0  0  0
   -0.0797    2.0494   -2.4746 H   0  0  0  0  0  0  0  0  0  0  0  0
   -0.7056    3.6699   -2.7907 H   0  0  0  0  0  0  0  0  0  0  0  0
    0.6325    3.4515   -1.6441 H   0  0  0  0  0  0  0  0  0  0  0  0
    0.5888    0.0404    1.1343 C   0  0  0  0  0  0  0  0  0  0  0  0
    0.2617   -0.8614    1.8929 O   0  0  0  0  0  0  0  0  0  0  0  0
    1.6410    0.8239    1.5865 N   0  0  0  0  0  0  0  0  0  0  0  0
    1.9080    1.6181    1.0141 H   0  0  0  0  0  0  0  0  0  0  0  0
    2.4697    0.4883    2.7405 C   0  0  0  0  0  0  0  0  0  0  0  0
    2.9187   -0.5028    2.6152 H   0  0  0  0  0  0  0  0  0  0  0  0
    3.2751    1.2203    2.8529 H   0  0  0  0  0  0  0  0  0  0  0  0
    1.8705    0.4903    3.6571 H   0  0  0  0  0  0  0  0  0  0  0  0
  1  2  1  0  0  0  0
  2  3  1  0  0  0  0
  2  4  1  0  0  0  0
  2  5  1  0  0  0  0
  5  6  2  0  0  0  0
  5  7  1  0  0  0  0
  7  8  1  0  0  0  0
  7  9  1  0  0  0  0
  9 10  1  0  0  0  0
  9 11  1  0  0  0  0
  9 24  1  0  0  0  0
 11 12  1  0  0  0  0
 11 13  1  0  0  0  0
 11 14  1  0  0  0  0
 14 15  1  0  0  0  0
 14 16  1  0  0  0  0
 14 20  1  0  0  0  0
 16 17  1  0  0  0  0
 16 18  1  0  0  0  0
 16 19  1  0  0  0  0
 20 21  1  0  0  0  0
 20 22  1  0  0  0  0
 20 23  1  0  0  0  0
 24 25  2  0  0  0  0
 24 26  1  0  0  0  0
 26 27  1  0  0  0  0
 26 28  1  0  0  0  0
 28 29  1  0  0  0  0
 28 30  1  0  0  0  0
 28 31  1  0  0  0  0
M  END
$$$$

  -OEChem-01062216083D

 31 30  0     1  0  0  0  0  0999 V2000
   -3.4779   -2.8105    0.7068 H   0  0  0  0  0  0  0  0  0  0  0  0
   -3.2856   -1.9125    0.1126 C   0  0  0  0  0  0  0  0  0  0  0  0
   -4.2300   -1.3896   -0.0546 H   0  0  0  0  0  0  0  0  0  0  0  0
   -2.8652   -2.2144   -0.8495 H   0  0  0  0  0  0  0  0  0  0  0  0
   -2.3116   -1.0062    0.8416 C   0  0  0  0  0  0  0  0  0  0  0  0
   -2.1162   -1.1811    2.0321 O   0  0  0  0  0  0  0  0  0  0  0  0
   -1.9019    0.1704    0.2418 N   0  0  0  0  0  0  0  0  0  0  0  0
   -2.3639    0.3191   -0.6489 H   0  0  0  0  0  0  0  0  0  0  0  0
   -0.5310    0.7330    0.2929 C   0  0  1  0  0  0  0  0  0  0  0  0
   -0.0442    0.5335   -0.6645 H   0  0  0  0  0  0  0  0  0  0  0  0
   -0.7219    2.2610    0.4692 C   0  0  0  0  0  0  0  0  0  0  0  0
   -1.3237    2.4328    1.3688 H   0  0  0  0  0  0  0  0  0  0  0  0
    0.2468    2.7440    0.6255 H   0  0  0  0  0  0  0  0  0  0  0  0
   -1.3840    2.9638   -0.7388 C   0  0  0  0  0  0  0  0  0  0  0  0
   -2.3466    2.4905   -0.9565 H   0  0  0  0  0  0  0  0  0  0  0  0
   -1.6511    4.4308   -0.3810 C   0  0  0  0  0  0  0  0  0  0  0  0
   -0.7142    4.9542   -0.1646 H   0  0  0  0  0  0  0  0  0  0  0  0
   -2.1502    4.9415   -1.2106 H   0  0  0  0  0  0  0  0  0  0  0  0
   -2.2985    4.4977    0.4990 H   0  0  0  0  0  0  0  0  0  0  0  0
   -0.5091    2.9048   -1.9996 C   0  0  0  0  0  0  0  0  0  0  0  0
   -0.4198    1.8793   -2.3677 H   0  0  0  0  0  0  0  0  0  0  0  0
   -0.9535    3.5069   -2.7984 H   0  0  0  0  0  0  0  0  0  0  0  0
    0.4939    3.2917   -1.7929 H   0  0  0  0  0  0  0  0  0  0  0  0
    0.4611    0.1554    1.3486 C   0  0  0  0  0  0  0  0  0  0  0  0
    0.6875   -1.0486    1.3341 O   0  0  0  0  0  0  0  0  0  0  0  0
    1.4626    0.9383    1.9039 N   0  0  0  0  0  0  0  0  0  0  0  0
    1.3178    1.9421    1.8989 H   0  0  0  0  0  0  0  0  0  0  0  0
    2.5365    0.3980    2.7313 C   0  0  0  0  0  0  0  0  0  0  0  0
    3.1691   -0.2774    2.1459 H   0  0  0  0  0  0  0  0  0  0  0  0
    3.1620    1.2089    3.1161 H   0  0  0  0  0  0  0  0  0  0  0  0
    2.1235   -0.1543    3.5821 H   0  0  0  0  0  0  0  0  0  0  0  0
  1  2  1  0  0  0  0
  2  3  1  0  0  0  0
  2  4  1  0  0  0  0
  2  5  1  0  0  0  0
  5  6  2  0  0  0  0
  5  7  1  0  0  0  0
  7  8  1  0  0  0  0
  7  9  1  0  0  0  0
  9 10  1  0  0  0  0
  9 11  1  0  0  0  0
  9 24  1  0  0  0  0
 11 12  1  0  0  0  0
 11 13  1  0  0  0  0
 11 14  1  0  0  0  0
 14 15  1  0  0  0  0
 14 16  1  0  0  0  0
 14 20  1  0  0  0  0
 16 17  1  0  0  0  0
 16 18  1  0  0  0  0
 16 19  1  0  0  0  0
 20 21  1  0  0  0  0
 20 22  1  0  0  0  0
 20 23  1  0  0  0  0
 24 25  2  0  0  0  0
 24 26  1  0  0  0  0
 26 27  1  0  0  0  0
 26 28  1  0  0  0  0
 28 29  1  0  0  0  0
 28 30  1  0  0  0  0
 28 31  1  0  0  0  0
M  END
$$$$

  -OEChem-01062216083D

 31 30  0     1  0  0  0  0  0999 V2000
   -3.5319   -2.7896    0.7100 H   0  0  0  0  0  0  0  0  0  0  0  0
   -3.3347   -1.8889    0.1217 C   0  0  0  0  0  0  0  0  0  0  0  0
   -4.2646   -1.3255    0.0153 H   0  0  0  0  0  0  0  0  0  0  0  0
   -2.9800   -2.1892   -0.8670 H   0  0  0  0  0  0  0  0  0  0  0  0
   -2.2858   -1.0369    0.8115 C   0  0  0  0  0  0  0  0  0  0  0  0
   -1.9814   -1.2918    1.9637 O   0  0  0  0  0  0  0  0  0  0  0  0
   -1.8872    0.1499    0.2225 N   0  0  0  0  0  0  0  0  0  0  0  0
   -2.3763    0.3307   -0.6478 H   0  0  0  0  0  0  0  0  0  0  0  0
   -0.5254    0.7322    0.2771 C   0  0  1  0  0  0  0  0  0  0  0  0
   -0.0345    0.5377   -0.6795 H   0  0  0  0  0  0  0  0  0  0  0  0
   -0.7182    2.2589    0.4524 C   0  0  0  0  0  0  0  0  0  0  0  0
   -1.3198    2.4319    1.3518 H   0  0  0  0  0  0  0  0  0  0  0  0
    0.2541    2.7368    0.6074 H   0  0  0  0  0  0  0  0  0  0  0  0
   -1.3797    2.9611   -0.7559 C   0  0  0  0  0  0  0  0  0  0  0  0
   -2.3416    2.4860   -0.9736 H   0  0  0  0  0  0  0  0  0  0  0  0
   -1.6479    4.4277   -0.3971 C   0  0  0  0  0  0  0  0  0  0  0  0
   -0.7107    4.9524   -0.1854 H   0  0  0  0  0  0  0  0  0  0  0  0
   -2.1517    4.9378   -1.2243 H   0  0  0  0  0  0  0  0  0  0  0  0
   -2.2908    4.4945    0.4864 H   0  0  0  0  0  0  0  0  0  0  0  0
   -0.5049    2.9040   -2.0174 C   0  0  0  0  0  0  0  0  0  0  0  0
   -0.4095    1.8784   -2.3838 H   0  0  0  0  0  0  0  0  0  0  0  0
   -0.9531    3.5017   -2.8174 H   0  0  0  0  0  0  0  0  0  0  0  0
    0.4959    3.2970   -1.8120 H   0  0  0  0  0  0  0  0  0  0  0  0
    0.4612    0.1514    1.3334 C   0  0  0  0  0  0  0  0  0  0  0  0
    0.8485   -1.0006    1.1769 O   0  0  0  0  0  0  0  0  0  0  0  0
    1.2494    0.9643    2.1339 N   0  0  0  0  0  0  0  0  0  0  0  0
    0.9239    1.9138    2.2804 H   0  0  0  0  0  0  0  0  0  0  0  0
    2.2866    0.4437    3.0175 C   0  0  0  0  0  0  0  0  0  0  0  0
    3.0699   -0.0553    2.4375 H   0  0  0  0  0  0  0  0  0  0  0  0
    2.7451    1.2593    3.5847 H   0  0  0  0  0  0  0  0  0  0  0  0
    1.8606   -0.2750    3.7256 H   0  0  0  0  0  0  0  0  0  0  0  0
  1  2  1  0  0  0  0
  2  3  1  0  0  0  0
  2  4  1  0  0  0  0
  2  5  1  0  0  0  0
  5  6  2  0  0  0  0
  5  7  1  0  0  0  0
  7  8  1  0  0  0  0
  7  9  1  0  0  0  0
  9 10  1  0  0  0  0
  9 11  1  0  0  0  0
  9 24  1  0  0  0  0
 11 12  1  0  0  0  0
 11 13  1  0  0  0  0
 11 14  1  0  0  0  0
 14 15  1  0  0  0  0
 14 16  1  0  0  0  0
 14 20  1  0  0  0  0
 16 17  1  0  0  0  0
 16 18  1  0  0  0  0
 16 19  1  0  0  0  0
 20 21  1  0  0  0  0
 20 22  1  0  0  0  0
 20 23  1  0  0  0  0
 24 25  2  0  0  0  0
 24 26  1  0  0  0  0
 26 27  1  0  0  0  0
 26 28  1  0  0  0  0
 28 29  1  0  0  0  0
 28 30  1  0  0  0  0
 28 31  1  0  0  0  0
M  END
$$$$

  -OEChem-01062216083D

 31 30  0     1  0  0  0  0  0999 V2000
   -3.5675   -2.7886    0.6478 H   0  0  0  0  0  0  0  0  0  0  0  0
   -3.4178   -1.8344    0.1350 C   0  0  0  0  0  0  0  0  0  0  0  0
   -4.3304   -1.2402    0.2220 H   0  0  0  0  0  0  0  0  0  0  0  0
   -3.2169   -2.0335   -0.9204 H   0  0  0  0  0  0  0  0  0  0  0  0
   -2.2511   -1.0877    0.7547 C   0  0  0  0  0  0  0  0  0  0  0  0
   -1.8155   -1.4656    1.8273 O   0  0  0  0  0  0  0  0  0  0  0  0
   -1.8486    0.1087    0.1871 N   0  0  0  0  0  0  0  0  0  0  0  0
   -2.3788    0.3516   -0.6432 H   0  0  0  0  0  0  0  0  0  0  0  0
   -0.4997    0.7175    0.2580 C   0  0  1  0  0  0  0  0  0  0  0  0
    0.0018    0.5371   -0.6962 H   0  0  0  0  0  0  0  0  0  0  0  0
   -0.7132    2.2393    0.4403 C   0  0  0  0  0  0  0  0  0  0  0  0
   -1.3267    2.4008    1.3337 H   0  0  0  0  0  0  0  0  0  0  0  0
    0.2551    2.7219    0.6114 H   0  0  0  0  0  0  0  0  0  0  0  0
   -1.3728    2.9398   -0.7700 C   0  0  0  0  0  0  0  0  0  0  0  0
   -2.3264    2.4539   -0.9993 H   0  0  0  0  0  0  0  0  0  0  0  0
   -1.6630    4.4005   -0.4055 C   0  0  0  0  0  0  0  0  0  0  0  0
   -0.7353    4.9344   -0.1760 H   0  0  0  0  0  0  0  0  0  0  0  0
   -2.1603    4.9102   -1.2366 H   0  0  0  0  0  0  0  0  0  0  0  0
   -2.3203    4.4532    0.4682 H   0  0  0  0  0  0  0  0  0  0  0  0
   -0.4862    2.8999   -2.0235 C   0  0  0  0  0  0  0  0  0  0  0  0
   -0.3844    1.8783   -2.3993 H   0  0  0  0  0  0  0  0  0  0  0  0
   -0.9289    3.5047   -2.8210 H   0  0  0  0  0  0  0  0  0  0  0  0
    0.5113    3.2937   -1.8043 H   0  0  0  0  0  0  0  0  0  0  0  0
    0.4877    0.1502    1.3183 C   0  0  0  0  0  0  0  0  0  0  0  0
    1.0605   -0.9015    1.0589 O   0  0  0  0  0  0  0  0  0  0  0  0
    1.0219    0.9348    2.3285 N   0  0  0  0  0  0  0  0  0  0  0  0
    0.5057    1.7739    2.5709 H   0  0  0  0  0  0  0  0  0  0  0  0
    2.0160    0.4368    3.2720 C   0  0  0  0  0  0  0  0  0  0  0  0
    2.9406    0.1692    2.7498 H   0  0  0  0  0  0  0  0  0  0  0  0
    2.2498    1.2051    4.0149 H   0  0  0  0  0  0  0  0  0  0  0  0
    1.6378   -0.4481    3.7949 H   0  0  0  0  0  0  0  0  0  0  0  0
  1  2  1  0  0  0  0
  2  3  1  0  0  0  0
  2  4  1  0  0  0  0
  2  5  1  0  0  0  0
  5  6  2  0  0  0  0
  5  7  1  0  0  0  0
  7  8  1  0  0  0  0
  7  9  1  0  0  0  0
  9 10  1  0  0  0  0
  9 11  1  0  0  0  0
  9 24  1  0  0  0  0
 11 12  1  0  0  0  0
 11 13  1  0  0  0  0
 11 14  1  0  0  0  0
 14 15  1  0  0  0  0
 14 16  1  0  0  0  0
 14 20  1  0  0  0  0
 16 17  1  0  0  0  0
 16 18  1  0  0  0  0
 16 19  1  0  0  0  0
 20 21  1  0  0  0  0
 20 22  1  0  0  0  0
 20 23  1  0  0  0  0
 24 25  2  0  0  0  0
 24 26  1  0  0  0  0
 26 27  1  0  0  0  0
 26 28  1  0  0  0  0
 28 29  1  0  0  0  0
 28 30  1  0  0  0  0
 28 31  1  0  0  0  0
M  END
$$$$

  -OEChem-01062216083D

 31 30  0     1  0  0  0  0  0999 V2000
   -3.6191   -2.7667    0.6647 H   0  0  0  0  0  0  0  0  0  0  0  0
   -3.4537   -1.8157    0.1501 C   0  0  0  0  0  0  0  0  0  0  0  0
   -4.3324   -1.1816    0.2898 H   0  0  0  0  0  0  0  0  0  0  0  0
   -3.3191   -2.0143   -0.9159 H   0  0  0  0  0  0  0  0  0  0  0  0
   -2.2224   -1.1272    0.7091 C   0  0  0  0  0  0  0  0  0  0  0  0
   -1.6953   -1.5880    1.7052 O   0  0  0  0  0  0  0  0  0  0  0  0
   -1.8261    0.0782    0.1547 N   0  0  0  0  0  0  0  0  0  0  0  0
   -2.3911    0.3659   -0.6377 H   0  0  0  0  0  0  0  0  0  0  0  0
   -0.4882    0.7084    0.2370 C   0  0  1  0  0  0  0  0  0  0  0  0
    0.0183    0.5390   -0.7167 H   0  0  0  0  0  0  0  0  0  0  0  0
   -0.7088    2.2267    0.4305 C   0  0  0  0  0  0  0  0  0  0  0  0
   -1.3307    2.3783    1.3193 H   0  0  0  0  0  0  0  0  0  0  0  0
    0.2579    2.7076    0.6179 H   0  0  0  0  0  0  0  0  0  0  0  0
   -1.3667    2.9352   -0.7757 C   0  0  0  0  0  0  0  0  0  0  0  0
   -2.3172    2.4469   -1.0126 H   0  0  0  0  0  0  0  0  0  0  0  0
   -1.6643    4.3919   -0.4003 C   0  0  0  0  0  0  0  0  0  0  0  0
   -0.7391    4.9276   -0.1645 H   0  0  0  0  0  0  0  0  0  0  0  0
   -2.1609    4.9062   -1.2294 H   0  0  0  0  0  0  0  0  0  0  0  0
   -2.3238    4.4359    0.4722 H   0  0  0  0  0  0  0  0  0  0  0  0
   -0.4753    2.9105   -2.0262 C   0  0  0  0  0  0  0  0  0  0  0  0
   -0.3647    1.8925   -2.4093 H   0  0  0  0  0  0  0  0  0  0  0  0
   -0.9193    3.5182   -2.8211 H   0  0  0  0  0  0  0  0  0  0  0  0
    0.5186    3.3097   -1.8002 H   0  0  0  0  0  0  0  0  0  0  0  0
    0.5019    0.1545    1.2988 C   0  0  0  0  0  0  0  0  0  0  0  0
    1.2506   -0.7576    0.9691 O   0  0  0  0  0  0  0  0  0  0  0  0
    0.7781    0.8368    2.4728 N   0  0  0  0  0  0  0  0  0  0  0  0
    0.0827    1.5128    2.7708 H   0  0  0  0  0  0  0  0  0  0  0  0
    1.7200    0.3332    3.4651 C   0  0  0  0  0  0  0  0  0  0  0  0
    2.7248    0.2573    3.0365 H   0  0  0  0  0  0  0  0  0  0  0  0
    1.7625    1.0095    4.3239 H   0  0  0  0  0  0  0  0  0  0  0  0
    1.4109   -0.6568    3.8169 H   0  0  0  0  0  0  0  0  0  0  0  0
  1  2  1  0  0  0  0
  2  3  1  0  0  0  0
  2  4  1  0  0  0  0
  2  5  1  0  0  0  0
  5  6  2  0  0  0  0
  5  7  1  0  0  0  0
  7  8  1  0  0  0  0
  7  9  1  0  0  0  0
  9 10  1  0  0  0  0
  9 11  1  0  0  0  0
  9 24  1  0  0  0  0
 11 12  1  0  0  0  0
 11 13  1  0  0  0  0
 11 14  1  0  0  0  0
 14 15  1  0  0  0  0
 14 16  1  0  0  0  0
 14 20  1  0  0  0  0
 16 17  1  0  0  0  0
 16 18  1  0  0  0  0
 16 19  1  0  0  0  0
 20 21  1  0  0  0  0
 20 22  1  0  0  0  0
 20 23  1  0  0  0  0
 24 25  2  0  0  0  0
 24 26  1  0  0  0  0
 26 27  1  0  0  0  0
 26 28  1  0  0  0  0
 28 29  1  0  0  0  0
 28 30  1  0  0  0  0
 28 31  1  0  0  0  0
M  END
$$$$

  -OEChem-01062216083D

 31 30  0     1  0  0  0  0  0999 V2000
   -3.6338   -2.7759    0.6359 H   0  0  0  0  0  0  0  0  0  0  0  0
   -3.4910   -1.7997    0.1637 C   0  0  0  0  0  0  0  0  0  0  0  0
   -4.3452   -1.1633    0.4060 H   0  0  0  0  0  0  0  0  0  0  0  0
   -3.4426   -1.9393   -0.9188 H   0  0  0  0  0  0  0  0  0  0  0  0
   -2.2085   -1.1608    0.6636 C   0  0  0  0  0  0  0  0  0  0  0  0
   -1.6158   -1.6836    1.5895 O   0  0  0  0  0  0  0  0  0  0  0  0
   -1.8113    0.0480    0.1177 N   0  0  0  0  0  0  0  0  0  0  0  0
   -2.4044    0.3770   -0.6375 H   0  0  0  0  0  0  0  0  0  0  0  0
   -0.4811    0.6914    0.2152 C   0  0  1  0  0  0  0  0  0  0  0  0
    0.0323    0.5309   -0.7365 H   0  0  0  0  0  0  0  0  0  0  0  0
   -0.7062    2.2060    0.4224 C   0  0  0  0  0  0  0  0  0  0  0  0
   -1.3353    2.3479    1.3077 H   0  0  0  0  0  0  0  0  0  0  0  0
    0.2588    2.6837    0.6265 H   0  0  0  0  0  0  0  0  0  0  0  0
   -1.3577    2.9266   -0.7788 C   0  0  0  0  0  0  0  0  0  0  0  0
   -2.3050    2.4391   -1.0293 H   0  0  0  0  0  0  0  0  0  0  0  0
   -1.6593    4.3777   -0.3866 C   0  0  0  0  0  0  0  0  0  0  0  0
   -0.7367    4.9090   -0.1309 H   0  0  0  0  0  0  0  0  0  0  0  0
   -2.1450    4.9041   -1.2142 H   0  0  0  0  0  0  0  0  0  0  0  0
   -2.3299    4.4095    0.4778 H   0  0  0  0  0  0  0  0  0  0  0  0
   -0.4551    2.9188   -2.0214 C   0  0  0  0  0  0  0  0  0  0  0  0
   -0.3430    1.9063   -2.4187 H   0  0  0  0  0  0  0  0  0  0  0  0
   -0.8901    3.5394   -2.8112 H   0  0  0  0  0  0  0  0  0  0  0  0
    0.5377    3.3123   -1.7803 H   0  0  0  0  0  0  0  0  0  0  0  0
    0.5068    0.1539    1.2846 C   0  0  0  0  0  0  0  0  0  0  0  0
    1.4279   -0.5674    0.9211 O   0  0  0  0  0  0  0  0  0  0  0  0
    0.5316    0.6732    2.5684 N   0  0  0  0  0  0  0  0  0  0  0  0
   -0.3177    1.1387    2.8711 H   0  0  0  0  0  0  0  0  0  0  0  0
    1.4436    0.1766    3.5909 C   0  0  0  0  0  0  0  0  0  0  0  0
    2.4838    0.3169    3.2785 H   0  0  0  0  0  0  0  0  0  0  0  0
    1.2908    0.7182    4.5293 H   0  0  0  0  0  0  0  0  0  0  0  0
    1.2700   -0.8896    3.7712 H   0  0  0  0  0  0  0  0  0  0  0  0
  1  2  1  0  0  0  0
  2  3  1  0  0  0  0
  2  4  1  0  0  0  0
  2  5  1  0  0  0  0
  5  6  2  0  0  0  0
  5  7  1  0  0  0  0
  7  8  1  0  0  0  0
  7  9  1  0  0  0  0
  9 10  1  0  0  0  0
  9 11  1  0  0  0  0
  9 24  1  0  0  0  0
 11 12  1  0  0  0  0
 11 13  1  0  0  0  0
 11 14  1  0  0  0  0
 14 15  1  0  0  0  0
 14 16  1  0  0  0  0
 14 20  1  0  0  0  0
 16 17  1  0  0  0  0
 16 18  1  0  0  0  0
 16 19  1  0  0  0  0
 20 21  1  0  0  0  0
 20 22  1  0  0  0  0
 20 23  1  0  0  0  0
 24 25  2  0  0  0  0
 24 26  1  0  0  0  0
 26 27  1  0  0  0  0
 26 28  1  0  0  0  0
 28 29  1  0  0  0  0
 28 30  1  0  0  0  0
 28 31  1  0  0  0  0
M  END
$$$$

  -OEChem-01062216083D

 31 30  0     1  0  0  0  0  0999 V2000
   -3.6720   -2.7612    0.6194 H   0  0  0  0  0  0  0  0  0  0  0  0
   -3.5256   -1.7753    0.1687 C   0  0  0  0  0  0  0  0  0  0  0  0
   -4.3498   -1.1245    0.4703 H   0  0  0  0  0  0  0  0  0  0  0  0
   -3.5333   -1.8839   -0.9186 H   0  0  0  0  0  0  0  0  0  0  0  0
   -2.2040   -1.1838    0.6233 C   0  0  0  0  0  0  0  0  0  0  0  0
   -1.5741   -1.7552    1.4942 O   0  0  0  0  0  0  0  0  0  0  0  0
   -1.7971    0.0253    0.0861 N   0  0  0  0  0  0  0  0  0  0  0  0
   -2.4124    0.3941   -0.6321 H   0  0  0  0  0  0  0  0  0  0  0  0
   -0.4718    0.6770    0.1991 C   0  0  1  0  0  0  0  0  0  0  0  0
    0.0505    0.5241   -0.7494 H   0  0  0  0  0  0  0  0  0  0  0  0
   -0.7035    2.1878    0.4198 C   0  0  0  0  0  0  0  0  0  0  0  0
   -1.3368    2.3197    1.3037 H   0  0  0  0  0  0  0  0  0  0  0  0
    0.2595    2.6651    0.6350 H   0  0  0  0  0  0  0  0  0  0  0  0
   -1.3505    2.9170   -0.7794 C   0  0  0  0  0  0  0  0  0  0  0  0
   -2.2937    2.4274   -1.0411 H   0  0  0  0  0  0  0  0  0  0  0  0
   -1.6608    4.3633   -0.3771 C   0  0  0  0  0  0  0  0  0  0  0  0
   -0.7426    4.8946   -0.1066 H   0  0  0  0  0  0  0  0  0  0  0  0
   -2.1389    4.8961   -1.2050 H   0  0  0  0  0  0  0  0  0  0  0  0
   -2.3407    4.3852    0.4803 H   0  0  0  0  0  0  0  0  0  0  0  0
   -0.4403    2.9253   -2.0162 C   0  0  0  0  0  0  0  0  0  0  0  0
   -0.3113    1.9159   -2.4162 H   0  0  0  0  0  0  0  0  0  0  0  0
   -0.8790    3.5423   -2.8066 H   0  0  0  0  0  0  0  0  0  0  0  0
    0.5454    3.3318   -1.7675 H   0  0  0  0  0  0  0  0  0  0  0  0
    0.5111    0.1540    1.2778 C   0  0  0  0  0  0  0  0  0  0  0  0
    1.5803   -0.3246    0.9195 O   0  0  0  0  0  0  0  0  0  0  0  0
    0.3188    0.4501    2.6163 N   0  0  0  0  0  0  0  0  0  0  0  0
   -0.6421    0.6496    2.8762 H   0  0  0  0  0  0  0  0  0  0  0  0
    1.2120   -0.0504    3.6531 C   0  0  0  0  0  0  0  0  0  0  0  0
    2.2352    0.2994    3.4806 H   0  0  0  0  0  0  0  0  0  0  0  0
    0.8880    0.3065    4.6352 H   0  0  0  0  0  0  0  0  0  0  0  0
    1.2097   -1.1455    3.6624 H   0  0  0  0  0  0  0  0  0  0  0  0
  1  2  1  0  0  0  0
  2  3  1  0  0  0  0
  2  4  1  0  0  0  0
  2  5  1  0  0  0  0
  5  6  2  0  0  0  0
  5  7  1  0  0  0  0
  7  8  1  0  0  0  0
  7  9  1  0  0  0  0
  9 10  1  0  0  0  0
  9 11  1  0  0  0  0
  9 24  1  0  0  0  0
 11 12  1  0  0  0  0
 11 13  1  0  0  0  0
 11 14  1  0  0  0  0
 14 15  1  0  0  0  0
 14 16  1  0  0  0  0
 14 20  1  0  0  0  0
 16 17  1  0  0  0  0
 16 18  1  0  0  0  0
 16 19  1  0  0  0  0
 20 21  1  0  0  0  0
 20 22  1  0  0  0  0
 20 23  1  0  0  0  0
 24 25  2  0  0  0  0
 24 26  1  0  0  0  0
 26 27  1  0  0  0  0
 26 28  1  0  0  0  0
 28 29  1  0  0  0  0
 28 30  1  0  0  0  0
 28 31  1  0  0  0  0
M  END
$$$$

  -OEChem-01062216083D

 31 30  0     1  0  0  0  0  0999 V2000
   -3.7565   -2.7262    0.5912 H   0  0  0  0  0  0  0  0  0  0  0  0
   -3.5822   -1.7433    0.1439 C   0  0  0  0  0  0  0  0  0  0  0  0
   -4.3765   -1.0650    0.4646 H   0  0  0  0  0  0  0  0  0  0  0  0
   -3.6131   -1.8440   -0.9438 H   0  0  0  0  0  0  0  0  0  0  0  0
   -2.2321   -1.2028    0.5774 C   0  0  0  0  0  0  0  0  0  0  0  0
   -1.5898   -1.8194    1.4070 O   0  0  0  0  0  0  0  0  0  0  0  0
   -1.8008    0.0033    0.0548 N   0  0  0  0  0  0  0  0  0  0  0  0
   -2.4257    0.4115   -0.6336 H   0  0  0  0  0  0  0  0  0  0  0  0
   -0.4754    0.6524    0.1897 C   0  0  1  0  0  0  0  0  0  0  0  0
    0.0558    0.5064   -0.7548 H   0  0  0  0  0  0  0  0  0  0  0  0
   -0.7117    2.1595    0.4236 C   0  0  0  0  0  0  0  0  0  0  0  0
   -1.3529    2.2801    1.3034 H   0  0  0  0  0  0  0  0  0  0  0  0
    0.2478    2.6368    0.6547 H   0  0  0  0  0  0  0  0  0  0  0  0
   -1.3457    2.9006   -0.7750 C   0  0  0  0  0  0  0  0  0  0  0  0
   -2.2853    2.4133   -1.0532 H   0  0  0  0  0  0  0  0  0  0  0  0
   -1.6626    4.3422   -0.3607 C   0  0  0  0  0  0  0  0  0  0  0  0
   -0.7478    4.8731   -0.0772 H   0  0  0  0  0  0  0  0  0  0  0  0
   -2.1352    4.8821   -1.1872 H   0  0  0  0  0  0  0  0  0  0  0  0
   -2.3496    4.3536    0.4913 H   0  0  0  0  0  0  0  0  0  0  0  0
   -0.4192    2.9219   -1.9998 C   0  0  0  0  0  0  0  0  0  0  0  0
   -0.2892    1.9176   -2.4119 H   0  0  0  0  0  0  0  0  0  0  0  0
   -0.8443    3.5517   -2.7876 H   0  0  0  0  0  0  0  0  0  0  0  0
    0.5648    3.3203   -1.7327 H   0  0  0  0  0  0  0  0  0  0  0  0
    0.5081    0.1468    1.2761 C   0  0  0  0  0  0  0  0  0  0  0  0
    1.6767   -0.0481    0.9638 O   0  0  0  0  0  0  0  0  0  0  0  0
    0.1633    0.1766    2.6157 N   0  0  0  0  0  0  0  0  0  0  0  0
   -0.8332    0.0700    2.7863 H   0  0  0  0  0  0  0  0  0  0  0  0
    1.0723   -0.2916    3.6540 C   0  0  0  0  0  0  0  0  0  0  0  0
    2.0068    0.2787    3.6345 H   0  0  0  0  0  0  0  0  0  0  0  0
    0.6151   -0.1664    4.6400 H   0  0  0  0  0  0  0  0  0  0  0  0
    1.3028   -1.3521    3.5087 H   0  0  0  0  0  0  0  0  0  0  0  0
  1  2  1  0  0  0  0
  2  3  1  0  0  0  0
  2  4  1  0  0  0  0
  2  5  1  0  0  0  0
  5  6  2  0  0  0  0
  5  7  1  0  0  0  0
  7  8  1  0  0  0  0
  7  9  1  0  0  0  0
  9 10  1  0  0  0  0
  9 11  1  0  0  0  0
  9 24  1  0  0  0  0
 11 12  1  0  0  0  0
 11 13  1  0  0  0  0
 11 14  1  0  0  0  0
 14 15  1  0  0  0  0
 14 16  1  0  0  0  0
 14 20  1  0  0  0  0
 16 17  1  0  0  0  0
 16 18  1  0  0  0  0
 16 19  1  0  0  0  0
 20 21  1  0  0  0  0
 20 22  1  0  0  0  0
 20 23  1  0  0  0  0
 24 25  2  0  0  0  0
 24 26  1  0  0  0  0
 26 27  1  0  0  0  0
 26 28  1  0  0  0  0
 28 29  1  0  0  0  0
 28 30  1  0  0  0  0
 28 31  1  0  0  0  0
M  END
$$$$

  -OEChem-01062216083D

 31 30  0     1  0  0  0  0  0999 V2000
   -3.8735   -2.6656    0.5465 H   0  0  0  0  0  0  0  0  0  0  0  0
   -3.6600   -1.6848    0.1116 C   0  0  0  0  0  0  0  0  0  0  0  0
   -4.4089   -0.9725    0.4664 H   0  0  0  0  0  0  0  0  0  0  0  0
   -3.7266   -1.7628   -0.9764 H   0  0  0  0  0  0  0  0  0  0  0  0
   -2.2722   -1.2227    0.5155 C   0  0  0  0  0  0  0  0  0  0  0  0
   -1.6257   -1.9079    1.2858 O   0  0  0  0  0  0  0  0  0  0  0  0
   -1.8034   -0.0204    0.0186 N   0  0  0  0  0  0  0  0  0  0  0  0
   -2.4397    0.4446   -0.6215 H   0  0  0  0  0  0  0  0  0  0  0  0
   -0.4771    0.6231    0.1842 C   0  0  1  0  0  0  0  0  0  0  0  0
    0.0671    0.4847   -0.7539 H   0  0  0  0  0  0  0  0  0  0  0  0
   -0.7283    2.1267    0.4274 C   0  0  0  0  0  0  0  0  0  0  0  0
   -1.3847    2.2327    1.2980 H   0  0  0  0  0  0  0  0  0  0  0  0
    0.2226    2.6098    0.6805 H   0  0  0  0  0  0  0  0  0  0  0  0
   -1.3436    2.8773   -0.7754 C   0  0  0  0  0  0  0  0  0  0  0  0
   -2.2746    2.3885   -1.0782 H   0  0  0  0  0  0  0  0  0  0  0  0
   -1.6775    4.3122   -0.3516 C   0  0  0  0  0  0  0  0  0  0  0  0
   -0.7702    4.8485   -0.0549 H   0  0  0  0  0  0  0  0  0  0  0  0
   -2.1475    4.8553   -1.1775 H   0  0  0  0  0  0  0  0  0  0  0  0
   -2.3721    4.3097    0.4943 H   0  0  0  0  0  0  0  0  0  0  0  0
   -0.3926    2.9165   -1.9806 C   0  0  0  0  0  0  0  0  0  0  0  0
   -0.2524    1.9177   -2.4026 H   0  0  0  0  0  0  0  0  0  0  0  0
   -0.8027    3.5562   -2.7683 H   0  0  0  0  0  0  0  0  0  0  0  0
    0.5851    3.3125   -1.6876 H   0  0  0  0  0  0  0  0  0  0  0  0
    0.5087    0.1364    1.2793 C   0  0  0  0  0  0  0  0  0  0  0  0
    1.7097    0.2160    1.0504 O   0  0  0  0  0  0  0  0  0  0  0  0
    0.0922   -0.1266    2.5713 N   0  0  0  0  0  0  0  0  0  0  0  0
   -0.8573   -0.4943    2.6181 H   0  0  0  0  0  0  0  0  0  0  0  0
    1.0213   -0.5625    3.6060 C   0  0  0  0  0  0  0  0  0  0  0  0
    1.8038    0.1874    3.7618 H   0  0  0  0  0  0  0  0  0  0  0  0
    0.4909   -0.7066    4.5519 H   0  0  0  0  0  0  0  0  0  0  0  0
    1.4918   -1.5095    3.3224 H   0  0  0  0  0  0  0  0  0  0  0  0
  1  2  1  0  0  0  0
  2  3  1  0  0  0  0
  2  4  1  0  0  0  0
  2  5  1  0  0  0  0
  5  6  2  0  0  0  0
  5  7  1  0  0  0  0
  7  8  1  0  0  0  0
  7  9  1  0  0  0  0
  9 10  1  0  0  0  0
  9 11  1  0  0  0  0
  9 24  1  0  0  0  0
 11 12  1  0  0  0  0
 11 13  1  0  0  0  0
 11 14  1  0  0  0  0
 14 15  1  0  0  0  0
 14 16  1  0  0  0  0
 14 20  1  0  0  0  0
 16 17  1  0  0  0  0
 16 18  1  0  0  0  0
 16 19  1  0  0  0  0
 20 21  1  0  0  0  0
 20 22  1  0  0  0  0
 20 23  1  0  0  0  0
 24 25  2  0  0  0  0
 24 26  1  0  0  0  0
 26 27  1  0  0  0  0
 26 28  1  0  0  0  0
 28 29  1  0  0  0  0
 28 30  1  0  0  0  0
 28 31  1  0  0  0  0
M  END
$$$$

  -OEChem-01062216083D

 31 30  0     1  0  0  0  0  0999 V2000
   -3.9831   -2.5930    0.5171 H   0  0  0  0  0  0  0  0  0  0  0  0
   -3.7348   -1.6131    0.0993 C   0  0  0  0  0  0  0  0  0  0  0  0
   -4.4224   -0.8712    0.5126 H   0  0  0  0  0  0  0  0  0  0  0  0
   -3.8601   -1.6530   -0.9855 H   0  0  0  0  0  0  0  0  0  0  0  0
   -2.3037   -1.2434    0.4433 C   0  0  0  0  0  0  0  0  0  0  0  0
   -1.6411   -2.0202    1.1051 O   0  0  0  0  0  0  0  0  0  0  0  0
   -1.8018   -0.0415   -0.0207 N   0  0  0  0  0  0  0  0  0  0  0  0
   -2.4582    0.4911   -0.5831 H   0  0  0  0  0  0  0  0  0  0  0  0
   -0.4770    0.5982    0.1811 C   0  0  1  0  0  0  0  0  0  0  0  0
    0.0832    0.4704   -0.7490 H   0  0  0  0  0  0  0  0  0  0  0  0
   -0.7530    2.0992    0.4271 C   0  0  0  0  0  0  0  0  0  0  0  0
   -1.4319    2.1910    1.2819 H   0  0  0  0  0  0  0  0  0  0  0  0
    0.1830    2.5957    0.7080 H   0  0  0  0  0  0  0  0  0  0  0  0
   -1.3456    2.8531   -0.7855 C   0  0  0  0  0  0  0  0  0  0  0  0
   -2.2623    2.3575   -1.1194 H   0  0  0  0  0  0  0  0  0  0  0  0
   -1.7064    4.2805   -0.3579 C   0  0  0  0  0  0  0  0  0  0  0  0
   -0.8165    4.8182   -0.0146 H   0  0  0  0  0  0  0  0  0  0  0  0
   -2.1434    4.8323   -1.1960 H   0  0  0  0  0  0  0  0  0  0  0  0
   -2.4371    4.2624    0.4566 H   0  0  0  0  0  0  0  0  0  0  0  0
   -0.3618    2.9149   -1.9632 C   0  0  0  0  0  0  0  0  0  0  0  0
   -0.1964    1.9215   -2.3886 H   0  0  0  0  0  0  0  0  0  0  0  0
   -0.7584    3.5553   -2.7572 H   0  0  0  0  0  0  0  0  0  0  0  0
    0.6020    3.3216   -1.6399 H   0  0  0  0  0  0  0  0  0  0  0  0
    0.5114    0.1280    1.2857 C   0  0  0  0  0  0  0  0  0  0  0  0
    1.6939    0.4227    1.1552 O   0  0  0  0  0  0  0  0  0  0  0  0
    0.1041   -0.4274    2.4837 N   0  0  0  0  0  0  0  0  0  0  0  0
   -0.7820   -0.9303    2.4212 H   0  0  0  0  0  0  0  0  0  0  0  0
    1.0491   -0.8663    3.5027 C   0  0  0  0  0  0  0  0  0  0  0  0
    1.6672   -0.0279    3.8405 H   0  0  0  0  0  0  0  0  0  0  0  0
    0.5107   -1.2659    4.3673 H   0  0  0  0  0  0  0  0  0  0  0  0
    1.7031   -1.6500    3.1065 H   0  0  0  0  0  0  0  0  0  0  0  0
  1  2  1  0  0  0  0
  2  3  1  0  0  0  0
  2  4  1  0  0  0  0
  2  5  1  0  0  0  0
  5  6  2  0  0  0  0
  5  7  1  0  0  0  0
  7  8  1  0  0  0  0
  7  9  1  0  0  0  0
  9 10  1  0  0  0  0
  9 11  1  0  0  0  0
  9 24  1  0  0  0  0
 11 12  1  0  0  0  0
 11 13  1  0  0  0  0
 11 14  1  0  0  0  0
 14 15  1  0  0  0  0
 14 16  1  0  0  0  0
 14 20  1  0  0  0  0
 16 17  1  0  0  0  0
 16 18  1  0  0  0  0
 16 19  1  0  0  0  0
 20 21  1  0  0  0  0
 20 22  1  0  0  0  0
 20 23  1  0  0  0  0
 24 25  2  0  0  0  0
 24 26  1  0  0  0  0
 26 27  1  0  0  0  0
 26 28  1  0  0  0  0
 28 29  1  0  0  0  0
 28 30  1  0  0  0  0
 28 31  1  0  0  0  0
M  END
$$$$

  -OEChem-01062216083D

 31 30  0     1  0  0  0  0  0999 V2000
   -4.0788   -2.5119    0.5058 H   0  0  0  0  0  0  0  0  0  0  0  0
   -3.7960   -1.5374    0.0972 C   0  0  0  0  0  0  0  0  0  0  0  0
   -4.4236   -0.7695    0.5559 H   0  0  0  0  0  0  0  0  0  0  0  0
   -3.9705   -1.5455   -0.9814 H   0  0  0  0  0  0  0  0  0  0  0  0
   -2.3333   -1.2522    0.3835 C   0  0  0  0  0  0  0  0  0  0  0  0
   -1.6678   -2.1096    0.9335 O   0  0  0  0  0  0  0  0  0  0  0  0
   -1.8020   -0.0510   -0.0475 N   0  0  0  0  0  0  0  0  0  0  0  0
   -2.4714    0.5348   -0.5370 H   0  0  0  0  0  0  0  0  0  0  0  0
   -0.4768    0.5805    0.1832 C   0  0  1  0  0  0  0  0  0  0  0  0
    0.0950    0.4606   -0.7406 H   0  0  0  0  0  0  0  0  0  0  0  0
   -0.7738    2.0802    0.4289 C   0  0  0  0  0  0  0  0  0  0  0  0
   -1.4712    2.1624    1.2695 H   0  0  0  0  0  0  0  0  0  0  0  0
    0.1483    2.5905    0.7299 H   0  0  0  0  0  0  0  0  0  0  0  0
   -1.3475    2.8336   -0.7939 C   0  0  0  0  0  0  0  0  0  0  0  0
   -2.2523    2.3315   -1.1495 H   0  0  0  0  0  0  0  0  0  0  0  0
   -1.7318    4.2557   -0.3687 C   0  0  0  0  0  0  0  0  0  0  0  0
   -0.8520    4.8047   -0.0173 H   0  0  0  0  0  0  0  0  0  0  0  0
   -2.1683    4.8019   -1.2108 H   0  0  0  0  0  0  0  0  0  0  0  0
   -2.4696    4.2278    0.4393 H   0  0  0  0  0  0  0  0  0  0  0  0
   -0.3404    2.9101   -1.9509 C   0  0  0  0  0  0  0  0  0  0  0  0
   -0.1551    1.9202   -2.3762 H   0  0  0  0  0  0  0  0  0  0  0  0
   -0.7275    3.5489   -2.7509 H   0  0  0  0  0  0  0  0  0  0  0  0
    0.6117    3.3265   -1.6064 H   0  0  0  0  0  0  0  0  0  0  0  0
    0.5126    0.1115    1.2929 C   0  0  0  0  0  0  0  0  0  0  0  0
    1.6478    0.5735    1.2716 O   0  0  0  0  0  0  0  0  0  0  0  0
    0.1788   -0.7090    2.3528 N   0  0  0  0  0  0  0  0  0  0  0  0
   -0.6531   -1.2820    2.2038 H   0  0  0  0  0  0  0  0  0  0  0  0
    1.1506   -1.1712    3.3359 C   0  0  0  0  0  0  0  0  0  0  0  0
    1.6073   -0.3209    3.8526 H   0  0  0  0  0  0  0  0  0  0  0  0
    0.6592   -1.8032    4.0818 H   0  0  0  0  0  0  0  0  0  0  0  0
    1.9395   -1.7550    2.8505 H   0  0  0  0  0  0  0  0  0  0  0  0
  1  2  1  0  0  0  0
  2  3  1  0  0  0  0
  2  4  1  0  0  0  0
  2  5  1  0  0  0  0
  5  6  2  0  0  0  0
  5  7  1  0  0  0  0
  7  8  1  0  0  0  0
  7  9  1  0  0  0  0
  9 10  1  0  0  0  0
  9 11  1  0  0  0  0
  9 24  1  0  0  0  0
 11 12  1  0  0  0  0
 11 13  1  0  0  0  0
 11 14  1  0  0  0  0
 14 15  1  0  0  0  0
 14 16  1  0  0  0  0
 14 20  1  0  0  0  0
 16 17  1  0  0  0  0
 16 18  1  0  0  0  0
 16 19  1  0  0  0  0
 20 21  1  0  0  0  0
 20 22  1  0  0  0  0
 20 23  1  0  0  0  0
 24 25  2  0  0  0  0
 24 26  1  0  0  0  0
 26 27  1  0  0  0  0
 26 28  1  0  0  0  0
 28 29  1  0  0  0  0
 28 30  1  0  0  0  0
 28 31  1  0  0  0  0
M  END
$$$$

  -OEChem-01062216083D

 31 30  0     1  0  0  0  0  0999 V2000
   -3.6930   -2.6171    0.8925 H   0  0  0  0  0  0  0  0  0  0  0  0
   -3.5128   -1.6376    0.4406 C   0  0  0  0  0  0  0  0  0  0  0  0
   -4.0808   -0.8871    0.9953 H   0  0  0  0  0  0  0  0  0  0  0  0
   -3.8599   -1.6574   -0.5952 H   0  0  0  0  0  0  0  0  0  0  0  0
   -2.0327   -1.3068    0.4846 C   0  0  0  0  0  0  0  0  0  0  0  0
   -1.2399   -2.1959    0.7264 O   0  0  0  0  0  0  0  0  0  0  0  0
   -1.6104   -0.0831    0.0072 N   0  0  0  0  0  0  0  0  0  0  0  0
   -2.3797    0.4715   -0.3537 H   0  0  0  0  0  0  0  0  0  0  0  0
   -0.4402    0.7335    0.4126 C   0  0  1  0  0  0  0  0  0  0  0  0
    0.3179    0.6009   -0.3630 H   0  0  0  0  0  0  0  0  0  0  0  0
   -0.9626    2.1955    0.3865 C   0  0  0  0  0  0  0  0  0  0  0  0
   -1.8279    2.2677    1.0541 H   0  0  0  0  0  0  0  0  0  0  0  0
   -0.1989    2.8727    0.7828 H   0  0  0  0  0  0  0  0  0  0  0  0
   -1.3429    2.7178   -1.0194 C   0  0  0  0  0  0  0  0  0  0  0  0
   -2.0809    2.0526   -1.4783 H   0  0  0  0  0  0  0  0  0  0  0  0
   -1.9784    4.1063   -0.8805 C   0  0  0  0  0  0  0  0  0  0  0  0
   -1.2702    4.8131   -0.4358 H   0  0  0  0  0  0  0  0  0  0  0  0
   -2.2804    4.4882   -1.8608 H   0  0  0  0  0  0  0  0  0  0  0  0
   -2.8675    4.0587   -0.2442 H   0  0  0  0  0  0  0  0  0  0  0  0
   -0.1252    2.8131   -1.9505 C   0  0  0  0  0  0  0  0  0  0  0  0
    0.2572    1.8191   -2.1974 H   0  0  0  0  0  0  0  0  0  0  0  0
   -0.4009    3.3056   -2.8883 H   0  0  0  0  0  0  0  0  0  0  0  0
    0.6772    3.3902   -1.4797 H   0  0  0  0  0  0  0  0  0  0  0  0
    0.3527    0.4763    1.7391 C   0  0  0  0  0  0  0  0  0  0  0  0
    1.1033    1.3383    2.1734 O   0  0  0  0  0  0  0  0  0  0  0  0
    0.1231   -0.4820    2.6962 N   0  0  0  0  0  0  0  0  0  0  0  0
    0.2425   -0.0537    3.6098 H   0  0  0  0  0  0  0  0  0  0  0  0
    0.9121   -1.7054    2.5905 C   0  0  0  0  0  0  0  0  0  0  0  0
    1.8335   -1.6096    3.1736 H   0  0  0  0  0  0  0  0  0  0  0  0
    0.3404   -2.5555    2.9758 H   0  0  0  0  0  0  0  0  0  0  0  0
    1.1885   -1.9184    1.5520 H   0  0  0  0  0  0  0  0  0  0  0  0
  1  2  1  0  0  0  0
  2  3  1  0  0  0  0
  2  4  1  0  0  0  0
  2  5  1  0  0  0  0
  5  6  2  0  0  0  0
  5  7  1  0  0  0  0
  7  8  1  0  0  0  0
  7  9  1  0  0  0  0
  9 10  1  0  0  0  0
  9 11  1  0  0  0  0
  9 24  1  0  0  0  0
 11 12  1  0  0  0  0
 11 13  1  0  0  0  0
 11 14  1  0  0  0  0
 14 15  1  0  0  0  0
 14 16  1  0  0  0  0
 14 20  1  0  0  0  0
 16 17  1  0  0  0  0
 16 18  1  0  0  0  0
 16 19  1  0  0  0  0
 20 21  1  0  0  0  0
 20 22  1  0  0  0  0
 20 23  1  0  0  0  0
 24 25  2  0  0  0  0
 24 26  1  0  0  0  0
 26 27  1  0  0  0  0
 26 28  1  0  0  0  0
 28 29  1  0  0  0  0
 28 30  1  0  0  0  0
 28 31  1  0  0  0  0
M  END
$$$$

  -OEChem-01062216083D

 31 30  0     1  0  0  0  0  0999 V2000
   -3.4610   -2.7342    1.0863 H   0  0  0  0  0  0  0  0  0  0  0  0
   -3.3622   -1.7244    0.6776 C   0  0  0  0  0  0  0  0  0  0  0  0
   -3.7582   -1.0121    1.4052 H   0  0  0  0  0  0  0  0  0  0  0  0
   -3.9462   -1.6586   -0.2437 H   0  0  0  0  0  0  0  0  0  0  0  0
   -1.9044   -1.4184    0.3894 C   0  0  0  0  0  0  0  0  0  0  0  0
   -1.1008   -2.3305    0.3996 O   0  0  0  0  0  0  0  0  0  0  0  0
   -1.5683   -0.1615   -0.0708 N   0  0  0  0  0  0  0  0  0  0  0  0
   -2.3747    0.4425   -0.1903 H   0  0  0  0  0  0  0  0  0  0  0  0
   -0.2737    0.5623   -0.0216 C   0  0  1  0  0  0  0  0  0  0  0  0
    0.1443    0.5093   -1.0302 H   0  0  0  0  0  0  0  0  0  0  0  0
   -0.6566    2.0269    0.3144 C   0  0  0  0  0  0  0  0  0  0  0  0
   -1.2224    2.0321    1.2522 H   0  0  0  0  0  0  0  0  0  0  0  0
    0.2516    2.6143    0.4894 H   0  0  0  0  0  0  0  0  0  0  0  0
   -1.4689    2.7509   -0.7856 C   0  0  0  0  0  0  0  0  0  0  0  0
   -2.3701    2.1777   -1.0233 H   0  0  0  0  0  0  0  0  0  0  0  0
   -1.9046    4.1252   -0.2634 C   0  0  0  0  0  0  0  0  0  0  0  0
   -1.0326    4.7421   -0.0233 H   0  0  0  0  0  0  0  0  0  0  0  0
   -2.5027    4.6481   -1.0164 H   0  0  0  0  0  0  0  0  0  0  0  0
   -2.5130    4.0164    0.6400 H   0  0  0  0  0  0  0  0  0  0  0  0
   -0.6551    2.9407   -2.0740 C   0  0  0  0  0  0  0  0  0  0  0  0
   -0.4536    1.9801   -2.5556 H   0  0  0  0  0  0  0  0  0  0  0  0
   -1.2094    3.5599   -2.7863 H   0  0  0  0  0  0  0  0  0  0  0  0
    0.2998    3.4313   -1.8591 H   0  0  0  0  0  0  0  0  0  0  0  0
    0.9362    0.1633    0.8882 C   0  0  0  0  0  0  0  0  0  0  0  0
    1.9745    0.7957    0.7600 O   0  0  0  0  0  0  0  0  0  0  0  0
    1.1863   -0.9971    1.5792 N   0  0  0  0  0  0  0  0  0  0  0  0
    2.1866   -1.1108    1.7180 H   0  0  0  0  0  0  0  0  0  0  0  0
    0.3754   -1.3407    2.7408 C   0  0  0  0  0  0  0  0  0  0  0  0
    0.9081   -1.0747    3.6590 H   0  0  0  0  0  0  0  0  0  0  0  0
   -0.5797   -0.8067    2.7374 H   0  0  0  0  0  0  0  0  0  0  0  0
    0.1733   -2.4165    2.7547 H   0  0  0  0  0  0  0  0  0  0  0  0
  1  2  1  0  0  0  0
  2  3  1  0  0  0  0
  2  4  1  0  0  0  0
  2  5  1  0  0  0  0
  5  6  2  0  0  0  0
  5  7  1  0  0  0  0
  7  8  1  0  0  0  0
  7  9  1  0  0  0  0
  9 10  1  0  0  0  0
  9 11  1  0  0  0  0
  9 24  1  0  0  0  0
 11 12  1  0  0  0  0
 11 13  1  0  0  0  0
 11 14  1  0  0  0  0
 14 15  1  0  0  0  0
 14 16  1  0  0  0  0
 14 20  1  0  0  0  0
 16 17  1  0  0  0  0
 16 18  1  0  0  0  0
 16 19  1  0  0  0  0
 20 21  1  0  0  0  0
 20 22  1  0  0  0  0
 20 23  1  0  0  0  0
 24 25  2  0  0  0  0
 24 26  1  0  0  0  0
 26 27  1  0  0  0  0
 26 28  1  0  0  0  0
 28 29  1  0  0  0  0
 28 30  1  0  0  0  0
 28 31  1  0  0  0  0
M  END
$$$$

  -OEChem-01062216083D

 31 30  0     1  0  0  0  0  0999 V2000
   -4.0460   -2.5039    0.5033 H   0  0  0  0  0  0  0  0  0  0  0  0
   -3.7702   -1.5059    0.1503 C   0  0  0  0  0  0  0  0  0  0  0  0
   -4.3134   -0.7640    0.7409 H   0  0  0  0  0  0  0  0  0  0  0  0
   -4.0606   -1.4118   -0.8990 H   0  0  0  0  0  0  0  0  0  0  0  0
   -2.2747   -1.2919    0.2962 C   0  0  0  0  0  0  0  0  0  0  0  0
   -1.5857   -2.2360    0.6326 O   0  0  0  0  0  0  0  0  0  0  0  0
   -1.7546   -0.0634   -0.0681 N   0  0  0  0  0  0  0  0  0  0  0  0
   -2.4685    0.5763   -0.4022 H   0  0  0  0  0  0  0  0  0  0  0  0
   -0.4348    0.5819    0.1673 C   0  0  1  0  0  0  0  0  0  0  0  0
    0.1249    0.4977   -0.7668 H   0  0  0  0  0  0  0  0  0  0  0  0
   -0.7873    2.0746    0.4217 C   0  0  0  0  0  0  0  0  0  0  0  0
   -1.4843    2.1279    1.2649 H   0  0  0  0  0  0  0  0  0  0  0  0
    0.1099    2.6287    0.7165 H   0  0  0  0  0  0  0  0  0  0  0  0
   -1.3841    2.8146   -0.8001 C   0  0  0  0  0  0  0  0  0  0  0  0
   -2.2688    2.2843   -1.1649 H   0  0  0  0  0  0  0  0  0  0  0  0
   -1.8202    4.2192   -0.3673 C   0  0  0  0  0  0  0  0  0  0  0  0
   -0.9622    4.7967   -0.0083 H   0  0  0  0  0  0  0  0  0  0  0  0
   -2.2723    4.7549   -1.2079 H   0  0  0  0  0  0  0  0  0  0  0  0
   -2.5600    4.1600    0.4371 H   0  0  0  0  0  0  0  0  0  0  0  0
   -0.3760    2.9361   -1.9524 C   0  0  0  0  0  0  0  0  0  0  0  0
   -0.1567    1.9573   -2.3870 H   0  0  0  0  0  0  0  0  0  0  0  0
   -0.7822    3.5693   -2.7473 H   0  0  0  0  0  0  0  0  0  0  0  0
    0.5607    3.3808   -1.6009 H   0  0  0  0  0  0  0  0  0  0  0  0
    0.5908    0.0641    1.2344 C   0  0  0  0  0  0  0  0  0  0  0  0
    1.3928    0.8492    1.7277 O   0  0  0  0  0  0  0  0  0  0  0  0
    0.7224   -1.2514    1.6306 N   0  0  0  0  0  0  0  0  0  0  0  0
    0.0363   -1.9108    1.2599 H   0  0  0  0  0  0  0  0  0  0  0  0
    1.6683   -1.7209    2.6353 C   0  0  0  0  0  0  0  0  0  0  0  0
    1.4840   -1.2273    3.5951 H   0  0  0  0  0  0  0  0  0  0  0  0
    1.5620   -2.8007    2.7755 H   0  0  0  0  0  0  0  0  0  0  0  0
    2.6963   -1.5128    2.3214 H   0  0  0  0  0  0  0  0  0  0  0  0
  1  2  1  0  0  0  0
  2  3  1  0  0  0  0
  2  4  1  0  0  0  0
  2  5  1  0  0  0  0
  5  6  2  0  0  0  0
  5  7  1  0  0  0  0
  7  8  1  0  0  0  0
  7  9  1  0  0  0  0
  9 10  1  0  0  0  0
  9 11  1  0  0  0  0
  9 24  1  0  0  0  0
 11 12  1  0  0  0  0
 11 13  1  0  0  0  0
 11 14  1  0  0  0  0
 14 15  1  0  0  0  0
 14 16  1  0  0  0  0
 14 20  1  0  0  0  0
 16 17  1  0  0  0  0
 16 18  1  0  0  0  0
 16 19  1  0  0  0  0
 20 21  1  0  0  0  0
 20 22  1  0  0  0  0
 20 23  1  0  0  0  0
 24 25  2  0  0  0  0
 24 26  1  0  0  0  0
 26 27  1  0  0  0  0
 26 28  1  0  0  0  0
 28 29  1  0  0  0  0
 28 30  1  0  0  0  0
 28 31  1  0  0  0  0
M  END
$$$$

  -OEChem-01062216083D

 31 30  0     1  0  0  0  0  0999 V2000
   -4.0036   -2.4870    0.6536 H   0  0  0  0  0  0  0  0  0  0  0  0
   -3.7503   -1.4926    0.2748 C   0  0  0  0  0  0  0  0  0  0  0  0
   -4.2683   -0.7456    0.8812 H   0  0  0  0  0  0  0  0  0  0  0  0
   -4.0911   -1.4135   -0.7604 H   0  0  0  0  0  0  0  0  0  0  0  0
   -2.2508   -1.2705    0.3463 C   0  0  0  0  0  0  0  0  0  0  0  0
   -1.5389   -2.2094    0.6486 O   0  0  0  0  0  0  0  0  0  0  0  0
   -1.7527   -0.0402   -0.0418 N   0  0  0  0  0  0  0  0  0  0  0  0
   -2.4813    0.6053   -0.3305 H   0  0  0  0  0  0  0  0  0  0  0  0
   -0.4228    0.5961    0.1490 C   0  0  1  0  0  0  0  0  0  0  0  0
    0.1100    0.5003   -0.7997 H   0  0  0  0  0  0  0  0  0  0  0  0
   -0.7346    2.0965    0.4023 C   0  0  0  0  0  0  0  0  0  0  0  0
   -1.4008    2.1729    1.2684 H   0  0  0  0  0  0  0  0  0  0  0  0
    0.1872    2.6292    0.6598 H   0  0  0  0  0  0  0  0  0  0  0  0
   -1.3544    2.8385   -0.8062 C   0  0  0  0  0  0  0  0  0  0  0  0
   -2.2625    2.3236   -1.1345 H   0  0  0  0  0  0  0  0  0  0  0  0
   -1.7461    4.2556   -0.3714 C   0  0  0  0  0  0  0  0  0  0  0  0
   -0.8650    4.8169   -0.0438 H   0  0  0  0  0  0  0  0  0  0  0  0
   -2.2128    4.7955   -1.2012 H   0  0  0  0  0  0  0  0  0  0  0  0
   -2.4612    4.2179    0.4563 H   0  0  0  0  0  0  0  0  0  0  0  0
   -0.3847    2.9271   -1.9943 C   0  0  0  0  0  0  0  0  0  0  0  0
   -0.2065    1.9401   -2.4295 H   0  0  0  0  0  0  0  0  0  0  0  0
   -0.8027    3.5656   -2.7791 H   0  0  0  0  0  0  0  0  0  0  0  0
    0.5748    3.3498   -1.6789 H   0  0  0  0  0  0  0  0  0  0  0  0
    0.6124    0.0446    1.1876 C   0  0  0  0  0  0  0  0  0  0  0  0
    1.2611    0.8198    1.8816 O   0  0  0  0  0  0  0  0  0  0  0  0
    0.9079   -1.2968    1.3288 N   0  0  0  0  0  0  0  0  0  0  0  0
    0.2359   -1.9406    0.9060 H   0  0  0  0  0  0  0  0  0  0  0  0
    1.8176   -1.8244    2.3386 C   0  0  0  0  0  0  0  0  0  0  0  0
    1.4534   -1.5875    3.3435 H   0  0  0  0  0  0  0  0  0  0  0  0
    1.8935   -2.9119    2.2441 H   0  0  0  0  0  0  0  0  0  0  0  0
    2.8186   -1.3979    2.2150 H   0  0  0  0  0  0  0  0  0  0  0  0
  1  2  1  0  0  0  0
  2  3  1  0  0  0  0
  2  4  1  0  0  0  0
  2  5  1  0  0  0  0
  5  6  2  0  0  0  0
  5  7  1  0  0  0  0
  7  8  1  0  0  0  0
  7  9  1  0  0  0  0
  9 10  1  0  0  0  0
  9 11  1  0  0  0  0
  9 24  1  0  0  0  0
 11 12  1  0  0  0  0
 11 13  1  0  0  0  0
 11 14  1  0  0  0  0
 14 15  1  0  0  0  0
 14 16  1  0  0  0  0
 14 20  1  0  0  0  0
 16 17  1  0  0  0  0
 16 18  1  0  0  0  0
 16 19  1  0  0  0  0
 20 21  1  0  0  0  0
 20 22  1  0  0  0  0
 20 23  1  0  0  0  0
 24 25  2  0  0  0  0
 24 26  1  0  0  0  0
 26 27  1  0  0  0  0
 26 28  1  0  0  0  0
 28 29  1  0  0  0  0
 28 30  1  0  0  0  0
 28 31  1  0  0  0  0
M  END
$$$$

  -OEChem-01062216083D

 31 30  0     1  0  0  0  0  0999 V2000
   -3.8522   -2.5599    0.7630 H   0  0  0  0  0  0  0  0  0  0  0  0
   -3.6584   -1.5616    0.3601 C   0  0  0  0  0  0  0  0  0  0  0  0
   -4.1748   -0.8272    0.9831 H   0  0  0  0  0  0  0  0  0  0  0  0
   -4.0532   -1.5099   -0.6575 H   0  0  0  0  0  0  0  0  0  0  0  0
   -2.1673   -1.2804    0.3535 C   0  0  0  0  0  0  0  0  0  0  0  0
   -1.3990   -2.1899    0.6072 O   0  0  0  0  0  0  0  0  0  0  0  0
   -1.7284   -0.0361   -0.0608 N   0  0  0  0  0  0  0  0  0  0  0  0
   -2.4848    0.5969   -0.3020 H   0  0  0  0  0  0  0  0  0  0  0  0
   -0.4108    0.6219    0.1244 C   0  0  1  0  0  0  0  0  0  0  0  0
    0.1283    0.5312   -0.8212 H   0  0  0  0  0  0  0  0  0  0  0  0
   -0.7178    2.1199    0.3839 C   0  0  0  0  0  0  0  0  0  0  0  0
   -1.3779    2.1950    1.2548 H   0  0  0  0  0  0  0  0  0  0  0  0
    0.2110    2.6424    0.6385 H   0  0  0  0  0  0  0  0  0  0  0  0
   -1.3460    2.8662   -0.8164 C   0  0  0  0  0  0  0  0  0  0  0  0
   -2.2569    2.3520   -1.1374 H   0  0  0  0  0  0  0  0  0  0  0  0
   -1.7321    4.2829   -0.3748 C   0  0  0  0  0  0  0  0  0  0  0  0
   -0.8474    4.8422   -0.0532 H   0  0  0  0  0  0  0  0  0  0  0  0
   -2.2047    4.8255   -1.1996 H   0  0  0  0  0  0  0  0  0  0  0  0
   -2.4404    4.2445    0.4588 H   0  0  0  0  0  0  0  0  0  0  0  0
   -0.3868    2.9571   -2.0123 C   0  0  0  0  0  0  0  0  0  0  0  0
   -0.2118    1.9709   -2.4503 H   0  0  0  0  0  0  0  0  0  0  0  0
   -0.8115    3.5966   -2.7925 H   0  0  0  0  0  0  0  0  0  0  0  0
    0.5751    3.3799   -1.7048 H   0  0  0  0  0  0  0  0  0  0  0  0
    0.6006    0.0598    1.1754 C   0  0  0  0  0  0  0  0  0  0  0  0
    1.0550    0.7847    2.0543 O   0  0  0  0  0  0  0  0  0  0  0  0
    1.0933   -1.2286    1.0965 N   0  0  0  0  0  0  0  0  0  0  0  0
    0.4829   -1.8755    0.5921 H   0  0  0  0  0  0  0  0  0  0  0  0
    1.9802   -1.7968    2.1044 C   0  0  0  0  0  0  0  0  0  0  0  0
    1.4873   -1.8154    3.0820 H   0  0  0  0  0  0  0  0  0  0  0  0
    2.2512   -2.8212    1.8318 H   0  0  0  0  0  0  0  0  0  0  0  0
    2.8996   -1.2074    2.1834 H   0  0  0  0  0  0  0  0  0  0  0  0
  1  2  1  0  0  0  0
  2  3  1  0  0  0  0
  2  4  1  0  0  0  0
  2  5  1  0  0  0  0
  5  6  2  0  0  0  0
  5  7  1  0  0  0  0
  7  8  1  0  0  0  0
  7  9  1  0  0  0  0
  9 10  1  0  0  0  0
  9 11  1  0  0  0  0
  9 24  1  0  0  0  0
 11 12  1  0  0  0  0
 11 13  1  0  0  0  0
 11 14  1  0  0  0  0
 14 15  1  0  0  0  0
 14 16  1  0  0  0  0
 14 20  1  0  0  0  0
 16 17  1  0  0  0  0
 16 18  1  0  0  0  0
 16 19  1  0  0  0  0
 20 21  1  0  0  0  0
 20 22  1  0  0  0  0
 20 23  1  0  0  0  0
 24 25  2  0  0  0  0
 24 26  1  0  0  0  0
 26 27  1  0  0  0  0
 26 28  1  0  0  0  0
 28 29  1  0  0  0  0
 28 30  1  0  0  0  0
 28 31  1  0  0  0  0
M  END
$$$$

  -OEChem-01062216083D

 31 30  0     1  0  0  0  0  0999 V2000
   -3.6888   -2.6323    0.8343 H   0  0  0  0  0  0  0  0  0  0  0  0
   -3.5572   -1.6163    0.4510 C   0  0  0  0  0  0  0  0  0  0  0  0
   -4.0441   -0.9184    1.1364 H   0  0  0  0  0  0  0  0  0  0  0  0
   -4.0322   -1.5458   -0.5305 H   0  0  0  0  0  0  0  0  0  0  0  0
   -2.0807   -1.2870    0.3386 C   0  0  0  0  0  0  0  0  0  0  0  0
   -1.2593   -2.1685    0.5222 O   0  0  0  0  0  0  0  0  0  0  0  0
   -1.7044   -0.0326   -0.1038 N   0  0  0  0  0  0  0  0  0  0  0  0
   -2.4872    0.5900   -0.2782 H   0  0  0  0  0  0  0  0  0  0  0  0
   -0.4021    0.6448    0.0925 C   0  0  1  0  0  0  0  0  0  0  0  0
    0.1564    0.5637   -0.8427 H   0  0  0  0  0  0  0  0  0  0  0  0
   -0.7125    2.1374    0.3632 C   0  0  0  0  0  0  0  0  0  0  0  0
   -1.3797    2.2034    1.2298 H   0  0  0  0  0  0  0  0  0  0  0  0
    0.2168    2.6522    0.6325 H   0  0  0  0  0  0  0  0  0  0  0  0
   -1.3388    2.8906   -0.8330 C   0  0  0  0  0  0  0  0  0  0  0  0
   -2.2471    2.3751   -1.1599 H   0  0  0  0  0  0  0  0  0  0  0  0
   -1.7300    4.3030   -0.3832 C   0  0  0  0  0  0  0  0  0  0  0  0
   -0.8474    4.8630   -0.0573 H   0  0  0  0  0  0  0  0  0  0  0  0
   -2.2037    4.8489   -1.2053 H   0  0  0  0  0  0  0  0  0  0  0  0
   -2.4392    4.2571    0.4492 H   0  0  0  0  0  0  0  0  0  0  0  0
   -0.3758    2.9919   -2.0252 C   0  0  0  0  0  0  0  0  0  0  0  0
   -0.1964    2.0087   -2.4685 H   0  0  0  0  0  0  0  0  0  0  0  0
   -0.7997    3.6348   -2.8030 H   0  0  0  0  0  0  0  0  0  0  0  0
    0.5835    3.4157   -1.7114 H   0  0  0  0  0  0  0  0  0  0  0  0
    0.5665    0.0721    1.1710 C   0  0  0  0  0  0  0  0  0  0  0  0
    0.8040    0.6999    2.1976 O   0  0  0  0  0  0  0  0  0  0  0  0
    1.2731   -1.0915    0.9313 N   0  0  0  0  0  0  0  0  0  0  0  0
    0.7891   -1.7328    0.3015 H   0  0  0  0  0  0  0  0  0  0  0  0
    2.1466   -1.6879    1.9345 C   0  0  0  0  0  0  0  0  0  0  0  0
    1.5725   -1.9673    2.8241 H   0  0  0  0  0  0  0  0  0  0  0  0
    2.6235   -2.5864    1.5315 H   0  0  0  0  0  0  0  0  0  0  0  0
    2.9328   -0.9845    2.2283 H   0  0  0  0  0  0  0  0  0  0  0  0
  1  2  1  0  0  0  0
  2  3  1  0  0  0  0
  2  4  1  0  0  0  0
  2  5  1  0  0  0  0
  5  6  2  0  0  0  0
  5  7  1  0  0  0  0
  7  8  1  0  0  0  0
  7  9  1  0  0  0  0
  9 10  1  0  0  0  0
  9 11  1  0  0  0  0
  9 24  1  0  0  0  0
 11 12  1  0  0  0  0
 11 13  1  0  0  0  0
 11 14  1  0  0  0  0
 14 15  1  0  0  0  0
 14 16  1  0  0  0  0
 14 20  1  0  0  0  0
 16 17  1  0  0  0  0
 16 18  1  0  0  0  0
 16 19  1  0  0  0  0
 20 21  1  0  0  0  0
 20 22  1  0  0  0  0
 20 23  1  0  0  0  0
 24 25  2  0  0  0  0
 24 26  1  0  0  0  0
 26 27  1  0  0  0  0
 26 28  1  0  0  0  0
 28 29  1  0  0  0  0
 28 30  1  0  0  0  0
 28 31  1  0  0  0  0
M  END
$$$$

  -OEChem-01062216083D

 31 30  0     1  0  0  0  0  0999 V2000
   -3.5664   -2.6721    0.9114 H   0  0  0  0  0  0  0  0  0  0  0  0
   -3.4797   -1.6582    0.5104 C   0  0  0  0  0  0  0  0  0  0  0  0
   -3.9636   -0.9655    1.2032 H   0  0  0  0  0  0  0  0  0  0  0  0
   -3.9895   -1.6157   -0.4550 H   0  0  0  0  0  0  0  0  0  0  0  0
   -2.0186   -1.2867    0.3426 C   0  0  0  0  0  0  0  0  0  0  0  0
   -1.1621   -2.1403    0.5023 O   0  0  0  0  0  0  0  0  0  0  0  0
   -1.6899   -0.0289   -0.1284 N   0  0  0  0  0  0  0  0  0  0  0  0
   -2.4901    0.5810   -0.2651 H   0  0  0  0  0  0  0  0  0  0  0  0
   -0.3972    0.6626    0.0661 C   0  0  1  0  0  0  0  0  0  0  0  0
    0.1673    0.5863   -0.8659 H   0  0  0  0  0  0  0  0  0  0  0  0
   -0.7042    2.1519    0.3473 C   0  0  0  0  0  0  0  0  0  0  0  0
   -1.3712    2.2130    1.2145 H   0  0  0  0  0  0  0  0  0  0  0  0
    0.2272    2.6597    0.6222 H   0  0  0  0  0  0  0  0  0  0  0  0
   -1.3370    2.9104   -0.8415 C   0  0  0  0  0  0  0  0  0  0  0  0
   -2.2467    2.3948   -1.1647 H   0  0  0  0  0  0  0  0  0  0  0  0
   -1.7258    4.3212   -0.3846 C   0  0  0  0  0  0  0  0  0  0  0  0
   -0.8422    4.8797   -0.0586 H   0  0  0  0  0  0  0  0  0  0  0  0
   -2.2012    4.8708   -1.2031 H   0  0  0  0  0  0  0  0  0  0  0  0
   -2.4327    4.2720    0.4495 H   0  0  0  0  0  0  0  0  0  0  0  0
   -0.3815    3.0166   -2.0389 C   0  0  0  0  0  0  0  0  0  0  0  0
   -0.2050    2.0354   -2.4875 H   0  0  0  0  0  0  0  0  0  0  0  0
   -0.8108    3.6627   -2.8110 H   0  0  0  0  0  0  0  0  0  0  0  0
    0.5797    3.4393   -1.7297 H   0  0  0  0  0  0  0  0  0  0  0  0
    0.5464    0.0875    1.1600 C   0  0  0  0  0  0  0  0  0  0  0  0
    0.5626    0.5717    2.2869 O   0  0  0  0  0  0  0  0  0  0  0  0
    1.4711   -0.8868    0.8316 N   0  0  0  0  0  0  0  0  0  0  0  0
    1.2047   -1.4560    0.0312 H   0  0  0  0  0  0  0  0  0  0  0  0
    2.3166   -1.5147    1.8391 C   0  0  0  0  0  0  0  0  0  0  0  0
    1.7033   -2.0365    2.5812 H   0  0  0  0  0  0  0  0  0  0  0  0
    2.9866   -2.2407    1.3690 H   0  0  0  0  0  0  0  0  0  0  0  0
    2.9280   -0.7645    2.3512 H   0  0  0  0  0  0  0  0  0  0  0  0
  1  2  1  0  0  0  0
  2  3  1  0  0  0  0
  2  4  1  0  0  0  0
  2  5  1  0  0  0  0
  5  6  2  0  0  0  0
  5  7  1  0  0  0  0
  7  8  1  0  0  0  0
  7  9  1  0  0  0  0
  9 10  1  0  0  0  0
  9 11  1  0  0  0  0
  9 24  1  0  0  0  0
 11 12  1  0  0  0  0
 11 13  1  0  0  0  0
 11 14  1  0  0  0  0
 14 15  1  0  0  0  0
 14 16  1  0  0  0  0
 14 20  1  0  0  0  0
 16 17  1  0  0  0  0
 16 18  1  0  0  0  0
 16 19  1  0  0  0  0
 20 21  1  0  0  0  0
 20 22  1  0  0  0  0
 20 23  1  0  0  0  0
 24 25  2  0  0  0  0
 24 26  1  0  0  0  0
 26 27  1  0  0  0  0
 26 28  1  0  0  0  0
 28 29  1  0  0  0  0
 28 30  1  0  0  0  0
 28 31  1  0  0  0  0
M  END
$$$$

  -OEChem-01062216083D

 31 30  0     1  0  0  0  0  0999 V2000
   -3.4953   -2.6884    0.9618 H   0  0  0  0  0  0  0  0  0  0  0  0
   -3.4342   -1.6728    0.5604 C   0  0  0  0  0  0  0  0  0  0  0  0
   -3.8909   -0.9857    1.2770 H   0  0  0  0  0  0  0  0  0  0  0  0
   -3.9874   -1.6313   -0.3807 H   0  0  0  0  0  0  0  0  0  0  0  0
   -1.9846   -1.2902    0.3285 C   0  0  0  0  0  0  0  0  0  0  0  0
   -1.1131   -2.1356    0.4503 O   0  0  0  0  0  0  0  0  0  0  0  0
   -1.6831   -0.0318   -0.1600 N   0  0  0  0  0  0  0  0  0  0  0  0
   -2.4921    0.5735   -0.2578 H   0  0  0  0  0  0  0  0  0  0  0  0
   -0.3965    0.6673    0.0402 C   0  0  1  0  0  0  0  0  0  0  0  0
    0.1740    0.5948   -0.8883 H   0  0  0  0  0  0  0  0  0  0  0  0
   -0.7036    2.1529    0.3322 C   0  0  0  0  0  0  0  0  0  0  0  0
   -1.3731    2.2070    1.1979 H   0  0  0  0  0  0  0  0  0  0  0  0
    0.2273    2.6575    0.6145 H   0  0  0  0  0  0  0  0  0  0  0  0
   -1.3369    2.9192   -0.8512 C   0  0  0  0  0  0  0  0  0  0  0  0
   -2.2463    2.4050   -1.1779 H   0  0  0  0  0  0  0  0  0  0  0  0
   -1.7267    4.3268   -0.3849 C   0  0  0  0  0  0  0  0  0  0  0  0
   -0.8432    4.8848   -0.0581 H   0  0  0  0  0  0  0  0  0  0  0  0
   -2.2057    4.8806   -1.1985 H   0  0  0  0  0  0  0  0  0  0  0  0
   -2.4312    4.2712    0.4509 H   0  0  0  0  0  0  0  0  0  0  0  0
   -0.3813    3.0332   -2.0478 C   0  0  0  0  0  0  0  0  0  0  0  0
   -0.2082    2.0552   -2.5049 H   0  0  0  0  0  0  0  0  0  0  0  0
   -0.8087    3.6874   -2.8143 H   0  0  0  0  0  0  0  0  0  0  0  0
    0.5814    3.4501   -1.7352 H   0  0  0  0  0  0  0  0  0  0  0  0
    0.5286    0.0946    1.1481 C   0  0  0  0  0  0  0  0  0  0  0  0
    0.3430    0.3990    2.3218 O   0  0  0  0  0  0  0  0  0  0  0  0
    1.6501   -0.6395    0.8071 N   0  0  0  0  0  0  0  0  0  0  0  0
    1.6270   -1.0595   -0.1177 H   0  0  0  0  0  0  0  0  0  0  0  0
    2.4906   -1.2741    1.8148 C   0  0  0  0  0  0  0  0  0  0  0  0
    1.9128   -2.0087    2.3857 H   0  0  0  0  0  0  0  0  0  0  0  0
    3.3306   -1.7872    1.3372 H   0  0  0  0  0  0  0  0  0  0  0  0
    2.8931   -0.5266    2.5064 H   0  0  0  0  0  0  0  0  0  0  0  0
  1  2  1  0  0  0  0
  2  3  1  0  0  0  0
  2  4  1  0  0  0  0
  2  5  1  0  0  0  0
  5  6  2  0  0  0  0
  5  7  1  0  0  0  0
  7  8  1  0  0  0  0
  7  9  1  0  0  0  0
  9 10  1  0  0  0  0
  9 11  1  0  0  0  0
  9 24  1  0  0  0  0
 11 12  1  0  0  0  0
 11 13  1  0  0  0  0
 11 14  1  0  0  0  0
 14 15  1  0  0  0  0
 14 16  1  0  0  0  0
 14 20  1  0  0  0  0
 16 17  1  0  0  0  0
 16 18  1  0  0  0  0
 16 19  1  0  0  0  0
 20 21  1  0  0  0  0
 20 22  1  0  0  0  0
 20 23  1  0  0  0  0
 24 25  2  0  0  0  0
 24 26  1  0  0  0  0
 26 27  1  0  0  0  0
 26 28  1  0  0  0  0
 28 29  1  0  0  0  0
 28 30  1  0  0  0  0
 28 31  1  0  0  0  0
M  END
$$$$

  -OEChem-01062216083D

 31 30  0     1  0  0  0  0  0999 V2000
   -3.4788   -2.6810    1.0086 H   0  0  0  0  0  0  0  0  0  0  0  0
   -3.4273   -1.6773    0.5773 C   0  0  0  0  0  0  0  0  0  0  0  0
   -3.8743   -0.9710    1.2811 H   0  0  0  0  0  0  0  0  0  0  0  0
   -3.9955   -1.6636   -0.3557 H   0  0  0  0  0  0  0  0  0  0  0  0
   -1.9825   -1.2982    0.3119 C   0  0  0  0  0  0  0  0  0  0  0  0
   -1.1102   -2.1472    0.4016 O   0  0  0  0  0  0  0  0  0  0  0  0
   -1.6884   -0.0405   -0.1830 N   0  0  0  0  0  0  0  0  0  0  0  0
   -2.4991    0.5653   -0.2588 H   0  0  0  0  0  0  0  0  0  0  0  0
   -0.4028    0.6578    0.0257 C   0  0  1  0  0  0  0  0  0  0  0  0
    0.1716    0.5856   -0.9004 H   0  0  0  0  0  0  0  0  0  0  0  0
   -0.7050    2.1411    0.3280 C   0  0  0  0  0  0  0  0  0  0  0  0
   -1.3762    2.1902    1.1929 H   0  0  0  0  0  0  0  0  0  0  0  0
    0.2268    2.6402    0.6165 H   0  0  0  0  0  0  0  0  0  0  0  0
   -1.3334    2.9170   -0.8516 C   0  0  0  0  0  0  0  0  0  0  0  0
   -2.2439    2.4080   -1.1834 H   0  0  0  0  0  0  0  0  0  0  0  0
   -1.7193    4.3228   -0.3766 C   0  0  0  0  0  0  0  0  0  0  0  0
   -0.8340    4.8757   -0.0459 H   0  0  0  0  0  0  0  0  0  0  0  0
   -2.1959    4.8831   -1.1871 H   0  0  0  0  0  0  0  0  0  0  0  0
   -2.4246    4.2648    0.4584 H   0  0  0  0  0  0  0  0  0  0  0  0
   -0.3745    3.0355   -2.0453 C   0  0  0  0  0  0  0  0  0  0  0  0
   -0.2027    2.0596   -2.5075 H   0  0  0  0  0  0  0  0  0  0  0  0
   -0.7985    3.6950   -2.8091 H   0  0  0  0  0  0  0  0  0  0  0  0
    0.5886    3.4484   -1.7282 H   0  0  0  0  0  0  0  0  0  0  0  0
    0.5123    0.0883    1.1416 C   0  0  0  0  0  0  0  0  0  0  0  0
    0.1863    0.2133    2.3176 O   0  0  0  0  0  0  0  0  0  0  0  0
    1.7807   -0.3728    0.8373 N   0  0  0  0  0  0  0  0  0  0  0  0
    1.9479   -0.6113   -0.1353 H   0  0  0  0  0  0  0  0  0  0  0  0
    2.6558   -0.9580    1.8455 C   0  0  0  0  0  0  0  0  0  0  0  0
    2.1859   -1.8408    2.2919 H   0  0  0  0  0  0  0  0  0  0  0  0
    3.6051   -1.2605    1.3930 H   0  0  0  0  0  0  0  0  0  0  0  0
    2.8682   -0.2330    2.6383 H   0  0  0  0  0  0  0  0  0  0  0  0
  1  2  1  0  0  0  0
  2  3  1  0  0  0  0
  2  4  1  0  0  0  0
  2  5  1  0  0  0  0
  5  6  2  0  0  0  0
  5  7  1  0  0  0  0
  7  8  1  0  0  0  0
  7  9  1  0  0  0  0
  9 10  1  0  0  0  0
  9 11  1  0  0  0  0
  9 24  1  0  0  0  0
 11 12  1  0  0  0  0
 11 13  1  0  0  0  0
 11 14  1  0  0  0  0
 14 15  1  0  0  0  0
 14 16  1  0  0  0  0
 14 20  1  0  0  0  0
 16 17  1  0  0  0  0
 16 18  1  0  0  0  0
 16 19  1  0  0  0  0
 20 21  1  0  0  0  0
 20 22  1  0  0  0  0
 20 23  1  0  0  0  0
 24 25  2  0  0  0  0
 24 26  1  0  0  0  0
 26 27  1  0  0  0  0
 26 28  1  0  0  0  0
 28 29  1  0  0  0  0
 28 30  1  0  0  0  0
 28 31  1  0  0  0  0
M  END
$$$$

  -OEChem-01062216083D

 31 30  0     1  0  0  0  0  0999 V2000
   -3.4769   -2.6974    0.9798 H   0  0  0  0  0  0  0  0  0  0  0  0
   -3.4240   -1.6739    0.5978 C   0  0  0  0  0  0  0  0  0  0  0  0
   -3.8233   -0.9963    1.3562 H   0  0  0  0  0  0  0  0  0  0  0  0
   -4.0330   -1.6017   -0.3063 H   0  0  0  0  0  0  0  0  0  0  0  0
   -1.9855   -1.3077    0.2865 C   0  0  0  0  0  0  0  0  0  0  0  0
   -1.1203   -2.1681    0.3256 O   0  0  0  0  0  0  0  0  0  0  0  0
   -1.6930   -0.0506   -0.2104 N   0  0  0  0  0  0  0  0  0  0  0  0
   -2.5023    0.5595   -0.2588 H   0  0  0  0  0  0  0  0  0  0  0  0
   -0.4063    0.6417    0.0106 C   0  0  1  0  0  0  0  0  0  0  0  0
    0.1736    0.5688   -0.9120 H   0  0  0  0  0  0  0  0  0  0  0  0
   -0.7061    2.1225    0.3231 C   0  0  0  0  0  0  0  0  0  0  0  0
   -1.3812    2.1660    1.1855 H   0  0  0  0  0  0  0  0  0  0  0  0
    0.2254    2.6178    0.6197 H   0  0  0  0  0  0  0  0  0  0  0  0
   -1.3260    2.9090   -0.8536 C   0  0  0  0  0  0  0  0  0  0  0  0
   -2.2356    2.4042   -1.1944 H   0  0  0  0  0  0  0  0  0  0  0  0
   -1.7111    4.3117   -0.3692 C   0  0  0  0  0  0  0  0  0  0  0  0
   -0.8266    4.8604   -0.0296 H   0  0  0  0  0  0  0  0  0  0  0  0
   -2.1831    4.8793   -1.1773 H   0  0  0  0  0  0  0  0  0  0  0  0
   -2.4205    4.2477    0.4619 H   0  0  0  0  0  0  0  0  0  0  0  0
   -0.3599    3.0343   -2.0407 C   0  0  0  0  0  0  0  0  0  0  0  0
   -0.1831    2.0608   -2.5058 H   0  0  0  0  0  0  0  0  0  0  0  0
   -0.7805    3.6960   -2.8044 H   0  0  0  0  0  0  0  0  0  0  0  0
    0.6001    3.4478   -1.7159 H   0  0  0  0  0  0  0  0  0  0  0  0
    0.4997    0.0729    1.1339 C   0  0  0  0  0  0  0  0  0  0  0  0
    0.0791    0.0268    2.2855 O   0  0  0  0  0  0  0  0  0  0  0  0
    1.8543   -0.1006    0.9117 N   0  0  0  0  0  0  0  0  0  0  0  0
    2.1534   -0.1492   -0.0570 H   0  0  0  0  0  0  0  0  0  0  0  0
    2.7558   -0.6072    1.9391 C   0  0  0  0  0  0  0  0  0  0  0  0
    2.4373   -1.6015    2.2706 H   0  0  0  0  0  0  0  0  0  0  0  0
    3.7738   -0.6817    1.5451 H   0  0  0  0  0  0  0  0  0  0  0  0
    2.7699    0.0649    2.8037 H   0  0  0  0  0  0  0  0  0  0  0  0
  1  2  1  0  0  0  0
  2  3  1  0  0  0  0
  2  4  1  0  0  0  0
  2  5  1  0  0  0  0
  5  6  2  0  0  0  0
  5  7  1  0  0  0  0
  7  8  1  0  0  0  0
  7  9  1  0  0  0  0
  9 10  1  0  0  0  0
  9 11  1  0  0  0  0
  9 24  1  0  0  0  0
 11 12  1  0  0  0  0
 11 13  1  0  0  0  0
 11 14  1  0  0  0  0
 14 15  1  0  0  0  0
 14 16  1  0  0  0  0
 14 20  1  0  0  0  0
 16 17  1  0  0  0  0
 16 18  1  0  0  0  0
 16 19  1  0  0  0  0
 20 21  1  0  0  0  0
 20 22  1  0  0  0  0
 20 23  1  0  0  0  0
 24 25  2  0  0  0  0
 24 26  1  0  0  0  0
 26 27  1  0  0  0  0
 26 28  1  0  0  0  0
 28 29  1  0  0  0  0
 28 30  1  0  0  0  0
 28 31  1  0  0  0  0
M  END
$$$$

  -OEChem-01062216083D

 31 30  0     1  0  0  0  0  0999 V2000
   -3.4816   -2.6884    1.0009 H   0  0  0  0  0  0  0  0  0  0  0  0
   -3.4302   -1.6669    0.6136 C   0  0  0  0  0  0  0  0  0  0  0  0
   -3.7958   -0.9824    1.3829 H   0  0  0  0  0  0  0  0  0  0  0  0
   -4.0678   -1.5907   -0.2702 H   0  0  0  0  0  0  0  0  0  0  0  0
   -1.9987   -1.3193    0.2531 C   0  0  0  0  0  0  0  0  0  0  0  0
   -1.1489   -2.1957    0.2297 O   0  0  0  0  0  0  0  0  0  0  0  0
   -1.6999   -0.0611   -0.2364 N   0  0  0  0  0  0  0  0  0  0  0  0
   -2.5043    0.5569   -0.2559 H   0  0  0  0  0  0  0  0  0  0  0  0
   -0.4082    0.6182   -0.0010 C   0  0  1  0  0  0  0  0  0  0  0  0
    0.1756    0.5463   -0.9214 H   0  0  0  0  0  0  0  0  0  0  0  0
   -0.7054    2.0970    0.3239 C   0  0  0  0  0  0  0  0  0  0  0  0
   -1.3860    2.1330    1.1819 H   0  0  0  0  0  0  0  0  0  0  0  0
    0.2244    2.5879    0.6323 H   0  0  0  0  0  0  0  0  0  0  0  0
   -1.3145    2.8973   -0.8493 C   0  0  0  0  0  0  0  0  0  0  0  0
   -2.2229    2.3989   -1.2026 H   0  0  0  0  0  0  0  0  0  0  0  0
   -1.6992    4.2972   -0.3561 C   0  0  0  0  0  0  0  0  0  0  0  0
   -0.8161    4.8400   -0.0038 H   0  0  0  0  0  0  0  0  0  0  0  0
   -2.1615    4.8734   -1.1638 H   0  0  0  0  0  0  0  0  0  0  0  0
   -2.4168    4.2290    0.4675 H   0  0  0  0  0  0  0  0  0  0  0  0
   -0.3382    3.0305   -2.0270 C   0  0  0  0  0  0  0  0  0  0  0  0
   -0.1606    2.0605   -2.4992 H   0  0  0  0  0  0  0  0  0  0  0  0
   -0.7503    3.7003   -2.7883 H   0  0  0  0  0  0  0  0  0  0  0  0
    0.6203    3.4382   -1.6902 H   0  0  0  0  0  0  0  0  0  0  0  0
    0.4967    0.0462    1.1230 C   0  0  0  0  0  0  0  0  0  0  0  0
    0.0230   -0.1723    2.2334 O   0  0  0  0  0  0  0  0  0  0  0  0
    1.8722    0.1606    1.0160 N   0  0  0  0  0  0  0  0  0  0  0  0
    2.2509    0.3252    0.0887 H   0  0  0  0  0  0  0  0  0  0  0  0
    2.7845   -0.2447    2.0790 C   0  0  0  0  0  0  0  0  0  0  0  0
    2.6325   -1.2991    2.3330 H   0  0  0  0  0  0  0  0  0  0  0  0
    3.8221   -0.1120    1.7580 H   0  0  0  0  0  0  0  0  0  0  0  0
    2.6207    0.3611    2.9764 H   0  0  0  0  0  0  0  0  0  0  0  0
  1  2  1  0  0  0  0
  2  3  1  0  0  0  0
  2  4  1  0  0  0  0
  2  5  1  0  0  0  0
  5  6  2  0  0  0  0
  5  7  1  0  0  0  0
  7  8  1  0  0  0  0
  7  9  1  0  0  0  0
  9 10  1  0  0  0  0
  9 11  1  0  0  0  0
  9 24  1  0  0  0  0
 11 12  1  0  0  0  0
 11 13  1  0  0  0  0
 11 14  1  0  0  0  0
 14 15  1  0  0  0  0
 14 16  1  0  0  0  0
 14 20  1  0  0  0  0
 16 17  1  0  0  0  0
 16 18  1  0  0  0  0
 16 19  1  0  0  0  0
 20 21  1  0  0  0  0
 20 22  1  0  0  0  0
 20 23  1  0  0  0  0
 24 25  2  0  0  0  0
 24 26  1  0  0  0  0
 26 27  1  0  0  0  0
 26 28  1  0  0  0  0
 28 29  1  0  0  0  0
 28 30  1  0  0  0  0
 28 31  1  0  0  0  0
M  END
$$$$

  -OEChem-01062216083D

 31 30  0     1  0  0  0  0  0999 V2000
   -3.5127   -2.6726    0.9932 H   0  0  0  0  0  0  0  0  0  0  0  0
   -3.4460   -1.6459    0.6225 C   0  0  0  0  0  0  0  0  0  0  0  0
   -3.7733   -0.9671    1.4137 H   0  0  0  0  0  0  0  0  0  0  0  0
   -4.1055   -1.5375   -0.2416 H   0  0  0  0  0  0  0  0  0  0  0  0
   -2.0159   -1.3271    0.2296 C   0  0  0  0  0  0  0  0  0  0  0  0
   -1.1926   -2.2251    0.1487 O   0  0  0  0  0  0  0  0  0  0  0  0
   -1.6980   -0.0696   -0.2488 N   0  0  0  0  0  0  0  0  0  0  0  0
   -2.4936    0.5594   -0.2545 H   0  0  0  0  0  0  0  0  0  0  0  0
   -0.3982    0.5934   -0.0059 C   0  0  1  0  0  0  0  0  0  0  0  0
    0.1851    0.5238   -0.9268 H   0  0  0  0  0  0  0  0  0  0  0  0
   -0.6990    2.0713    0.3275 C   0  0  0  0  0  0  0  0  0  0  0  0
   -1.3837    2.0999    1.1825 H   0  0  0  0  0  0  0  0  0  0  0  0
    0.2256    2.5669    0.6429 H   0  0  0  0  0  0  0  0  0  0  0  0
   -1.3034    2.8789   -0.8429 C   0  0  0  0  0  0  0  0  0  0  0  0
   -2.2099    2.3828   -1.2041 H   0  0  0  0  0  0  0  0  0  0  0  0
   -1.6911    4.2741   -0.3398 C   0  0  0  0  0  0  0  0  0  0  0  0
   -0.8108    4.8124    0.0260 H   0  0  0  0  0  0  0  0  0  0  0  0
   -2.1456    4.8587   -1.1458 H   0  0  0  0  0  0  0  0  0  0  0  0
   -2.4161    4.1981    0.4766 H   0  0  0  0  0  0  0  0  0  0  0  0
   -0.3222    3.0220   -2.0156 C   0  0  0  0  0  0  0  0  0  0  0  0
   -0.1387    2.0553   -2.4925 H   0  0  0  0  0  0  0  0  0  0  0  0
   -0.7337    3.6942   -2.7752 H   0  0  0  0  0  0  0  0  0  0  0  0
    0.6332    3.4317   -1.6727 H   0  0  0  0  0  0  0  0  0  0  0  0
    0.5159    0.0208    1.1136 C   0  0  0  0  0  0  0  0  0  0  0  0
    0.0300   -0.3818    2.1652 O   0  0  0  0  0  0  0  0  0  0  0  0
    1.8465    0.4047    1.1493 N   0  0  0  0  0  0  0  0  0  0  0  0
    2.2444    0.7829    0.2956 H   0  0  0  0  0  0  0  0  0  0  0  0
    2.7403    0.0938    2.2592 C   0  0  0  0  0  0  0  0  0  0  0  0
    2.7802   -0.9877    2.4272 H   0  0  0  0  0  0  0  0  0  0  0  0
    3.7522    0.4478    2.0403 H   0  0  0  0  0  0  0  0  0  0  0  0
    2.3953    0.5806    3.1775 H   0  0  0  0  0  0  0  0  0  0  0  0
  1  2  1  0  0  0  0
  2  3  1  0  0  0  0
  2  4  1  0  0  0  0
  2  5  1  0  0  0  0
  5  6  2  0  0  0  0
  5  7  1  0  0  0  0
  7  8  1  0  0  0  0
  7  9  1  0  0  0  0
  9 10  1  0  0  0  0
  9 11  1  0  0  0  0
  9 24  1  0  0  0  0
 11 12  1  0  0  0  0
 11 13  1  0  0  0  0
 11 14  1  0  0  0  0
 14 15  1  0  0  0  0
 14 16  1  0  0  0  0
 14 20  1  0  0  0  0
 16 17  1  0  0  0  0
 16 18  1  0  0  0  0
 16 19  1  0  0  0  0
 20 21  1  0  0  0  0
 20 22  1  0  0  0  0
 20 23  1  0  0  0  0
 24 25  2  0  0  0  0
 24 26  1  0  0  0  0
 26 27  1  0  0  0  0
 26 28  1  0  0  0  0
 28 29  1  0  0  0  0
 28 30  1  0  0  0  0
 28 31  1  0  0  0  0
M  END
$$$$

  -OEChem-01062216083D

 31 30  0     1  0  0  0  0  0999 V2000
   -3.5171   -2.8041    0.8033 H   0  0  0  0  0  0  0  0  0  0  0  0
   -3.2750   -1.9553    0.1574 C   0  0  0  0  0  0  0  0  0  0  0  0
   -4.1995   -1.4384   -0.1101 H   0  0  0  0  0  0  0  0  0  0  0  0
   -2.7967   -2.3326   -0.7495 H   0  0  0  0  0  0  0  0  0  0  0  0
   -2.3371   -1.0062    0.8786 C   0  0  0  0  0  0  0  0  0  0  0  0
   -2.1985   -1.1025    2.0866 O   0  0  0  0  0  0  0  0  0  0  0  0
   -1.9099    0.1463    0.2477 N   0  0  0  0  0  0  0  0  0  0  0  0
   -2.3557    0.2628   -0.6558 H   0  0  0  0  0  0  0  0  0  0  0  0
   -0.5261    0.6787    0.2895 C   0  0  1  0  0  0  0  0  0  0  0  0
   -0.1512    0.7162   -0.7357 H   0  0  0  0  0  0  0  0  0  0  0  0
   -0.6657    2.1133    0.8561 C   0  0  0  0  0  0  0  0  0  0  0  0
   -1.1793    2.0484    1.8225 H   0  0  0  0  0  0  0  0  0  0  0  0
    0.3224    2.5419    1.0476 H   0  0  0  0  0  0  0  0  0  0  0  0
   -1.4315    3.0916   -0.0641 C   0  0  0  0  0  0  0  0  0  0  0  0
   -2.4210    2.6817   -0.2915 H   0  0  0  0  0  0  0  0  0  0  0  0
   -1.6290    4.4218    0.6722 C   0  0  0  0  0  0  0  0  0  0  0  0
   -0.6641    4.8799    0.9116 H   0  0  0  0  0  0  0  0  0  0  0  0
   -2.2011    5.1199    0.0531 H   0  0  0  0  0  0  0  0  0  0  0  0
   -2.1799    4.2633    1.6047 H   0  0  0  0  0  0  0  0  0  0  0  0
   -0.6895    3.3519   -1.3833 C   0  0  0  0  0  0  0  0  0  0  0  0
   -0.6590    2.4504   -2.0009 H   0  0  0  0  0  0  0  0  0  0  0  0
   -1.1999    4.1311   -1.9581 H   0  0  0  0  0  0  0  0  0  0  0  0
    0.3366    3.6809   -1.1912 H   0  0  0  0  0  0  0  0  0  0  0  0
    0.5884   -0.0751    1.0792 C   0  0  0  0  0  0  0  0  0  0  0  0
    0.5425   -1.2844    1.2589 O   0  0  0  0  0  0  0  0  0  0  0  0
    1.8658    0.4658    1.0937 N   0  0  0  0  0  0  0  0  0  0  0  0
    1.9596    1.4458    0.8487 H   0  0  0  0  0  0  0  0  0  0  0  0
    3.0462   -0.2507    1.5669 C   0  0  0  0  0  0  0  0  0  0  0  0
    3.2528   -1.1146    0.9264 H   0  0  0  0  0  0  0  0  0  0  0  0
    3.9199    0.4075    1.5511 H   0  0  0  0  0  0  0  0  0  0  0  0
    2.8958   -0.6007    2.5937 H   0  0  0  0  0  0  0  0  0  0  0  0
  1  2  1  0  0  0  0
  2  3  1  0  0  0  0
  2  4  1  0  0  0  0
  2  5  1  0  0  0  0
  5  6  2  0  0  0  0
  5  7  1  0  0  0  0
  7  8  1  0  0  0  0
  7  9  1  0  0  0  0
  9 10  1  0  0  0  0
  9 11  1  0  0  0  0
  9 24  1  0  0  0  0
 11 12  1  0  0  0  0
 11 13  1  0  0  0  0
 11 14  1  0  0  0  0
 14 15  1  0  0  0  0
 14 16  1  0  0  0  0
 14 20  1  0  0  0  0
 16 17  1  0  0  0  0
 16 18  1  0  0  0  0
 16 19  1  0  0  0  0
 20 21  1  0  0  0  0
 20 22  1  0  0  0  0
 20 23  1  0  0  0  0
 24 25  2  0  0  0  0
 24 26  1  0  0  0  0
 26 27  1  0  0  0  0
 26 28  1  0  0  0  0
 28 29  1  0  0  0  0
 28 30  1  0  0  0  0
 28 31  1  0  0  0  0
M  END
$$$$

  -OEChem-01062216083D

 31 30  0     1  0  0  0  0  0999 V2000
   -3.4895   -2.8012    0.8191 H   0  0  0  0  0  0  0  0  0  0  0  0
   -3.2869   -1.9327    0.1862 C   0  0  0  0  0  0  0  0  0  0  0  0
   -4.2243   -1.4036   -0.0005 H   0  0  0  0  0  0  0  0  0  0  0  0
   -2.8740   -2.2815   -0.7634 H   0  0  0  0  0  0  0  0  0  0  0  0
   -2.2960   -1.0116    0.8721 C   0  0  0  0  0  0  0  0  0  0  0  0
   -2.0601   -1.1583    2.0603 O   0  0  0  0  0  0  0  0  0  0  0  0
   -1.8940    0.1518    0.2433 N   0  0  0  0  0  0  0  0  0  0  0  0
   -2.3614    0.2815   -0.6475 H   0  0  0  0  0  0  0  0  0  0  0  0
   -0.5168    0.6999    0.2760 C   0  0  1  0  0  0  0  0  0  0  0  0
   -0.1390    0.7385   -0.7480 H   0  0  0  0  0  0  0  0  0  0  0  0
   -0.6674    2.1368    0.8358 C   0  0  0  0  0  0  0  0  0  0  0  0
   -1.1696    2.0744    1.8082 H   0  0  0  0  0  0  0  0  0  0  0  0
    0.3166    2.5803    1.0087 H   0  0  0  0  0  0  0  0  0  0  0  0
   -1.4484    3.1015   -0.0861 C   0  0  0  0  0  0  0  0  0  0  0  0
   -2.4356    2.6812   -0.3038 H   0  0  0  0  0  0  0  0  0  0  0  0
   -1.6547    4.4342    0.6437 C   0  0  0  0  0  0  0  0  0  0  0  0
   -0.6930    4.9026    0.8764 H   0  0  0  0  0  0  0  0  0  0  0  0
   -2.2358    5.1236    0.0231 H   0  0  0  0  0  0  0  0  0  0  0  0
   -2.2003    4.2765    1.5795 H   0  0  0  0  0  0  0  0  0  0  0  0
   -0.7195    3.3597   -1.4130 C   0  0  0  0  0  0  0  0  0  0  0  0
   -0.6869    2.4543   -2.0247 H   0  0  0  0  0  0  0  0  0  0  0  0
   -1.2416    4.1306   -1.9884 H   0  0  0  0  0  0  0  0  0  0  0  0
    0.3056    3.6982   -1.2321 H   0  0  0  0  0  0  0  0  0  0  0  0
    0.5801   -0.0824    1.0630 C   0  0  0  0  0  0  0  0  0  0  0  0
    0.6316   -1.3035    0.9743 O   0  0  0  0  0  0  0  0  0  0  0  0
    1.7800    0.5332    1.3874 N   0  0  0  0  0  0  0  0  0  0  0  0
    1.7925    1.5474    1.4006 H   0  0  0  0  0  0  0  0  0  0  0  0
    2.9372   -0.1833    1.9142 C   0  0  0  0  0  0  0  0  0  0  0  0
    3.3291   -0.8812    1.1669 H   0  0  0  0  0  0  0  0  0  0  0  0
    3.7311    0.5218    2.1778 H   0  0  0  0  0  0  0  0  0  0  0  0
    2.6621   -0.7461    2.8125 H   0  0  0  0  0  0  0  0  0  0  0  0
  1  2  1  0  0  0  0
  2  3  1  0  0  0  0
  2  4  1  0  0  0  0
  2  5  1  0  0  0  0
  5  6  2  0  0  0  0
  5  7  1  0  0  0  0
  7  8  1  0  0  0  0
  7  9  1  0  0  0  0
  9 10  1  0  0  0  0
  9 11  1  0  0  0  0
  9 24  1  0  0  0  0
 11 12  1  0  0  0  0
 11 13  1  0  0  0  0
 11 14  1  0  0  0  0
 14 15  1  0  0  0  0
 14 16  1  0  0  0  0
 14 20  1  0  0  0  0
 16 17  1  0  0  0  0
 16 18  1  0  0  0  0
 16 19  1  0  0  0  0
 20 21  1  0  0  0  0
 20 22  1  0  0  0  0
 20 23  1  0  0  0  0
 24 25  2  0  0  0  0
 24 26  1  0  0  0  0
 26 27  1  0  0  0  0
 26 28  1  0  0  0  0
 28 29  1  0  0  0  0
 28 30  1  0  0  0  0
 28 31  1  0  0  0  0
M  END
$$$$

  -OEChem-01062216083D

 31 30  0     1  0  0  0  0  0999 V2000
   -3.4920   -2.7971    0.8122 H   0  0  0  0  0  0  0  0  0  0  0  0
   -3.3062   -1.9133    0.1953 C   0  0  0  0  0  0  0  0  0  0  0  0
   -4.2409   -1.3598    0.0798 H   0  0  0  0  0  0  0  0  0  0  0  0
   -2.9572   -2.2405   -0.7870 H   0  0  0  0  0  0  0  0  0  0  0  0
   -2.2568   -1.0344    0.8494 C   0  0  0  0  0  0  0  0  0  0  0  0
   -1.9313   -1.2488    2.0057 O   0  0  0  0  0  0  0  0  0  0  0  0
   -1.8758    0.1449    0.2355 N   0  0  0  0  0  0  0  0  0  0  0  0
   -2.3691    0.3021   -0.6370 H   0  0  0  0  0  0  0  0  0  0  0  0
   -0.5085    0.7166    0.2661 C   0  0  1  0  0  0  0  0  0  0  0  0
   -0.1306    0.7609   -0.7579 H   0  0  0  0  0  0  0  0  0  0  0  0
   -0.6670    2.1538    0.8218 C   0  0  0  0  0  0  0  0  0  0  0  0
   -1.1610    2.0938    1.7984 H   0  0  0  0  0  0  0  0  0  0  0  0
    0.3171    2.6042    0.9786 H   0  0  0  0  0  0  0  0  0  0  0  0
   -1.4599    3.1075   -0.1014 C   0  0  0  0  0  0  0  0  0  0  0  0
   -2.4442    2.6769   -0.3123 H   0  0  0  0  0  0  0  0  0  0  0  0
   -1.6743    4.4420    0.6225 C   0  0  0  0  0  0  0  0  0  0  0  0
   -0.7153    4.9220    0.8425 H   0  0  0  0  0  0  0  0  0  0  0  0
   -2.2687    5.1211    0.0032 H   0  0  0  0  0  0  0  0  0  0  0  0
   -2.2088    4.2841    1.5647 H   0  0  0  0  0  0  0  0  0  0  0  0
   -0.7402    3.3674   -1.4332 C   0  0  0  0  0  0  0  0  0  0  0  0
   -0.7022    2.4602   -2.0420 H   0  0  0  0  0  0  0  0  0  0  0  0
   -1.2722    4.1316   -2.0087 H   0  0  0  0  0  0  0  0  0  0  0  0
    0.2826    3.7160   -1.2585 H   0  0  0  0  0  0  0  0  0  0  0  0
    0.5825   -0.0813    1.0429 C   0  0  0  0  0  0  0  0  0  0  0  0
    0.7537   -1.2599    0.7516 O   0  0  0  0  0  0  0  0  0  0  0  0
    1.6470    0.5538    1.6644 N   0  0  0  0  0  0  0  0  0  0  0  0
    1.5176    1.5290    1.9116 H   0  0  0  0  0  0  0  0  0  0  0  0
    2.7711   -0.1660    2.2537 C   0  0  0  0  0  0  0  0  0  0  0  0
    3.3201   -0.7178    1.4835 H   0  0  0  0  0  0  0  0  0  0  0  0
    3.4610    0.5360    2.7314 H   0  0  0  0  0  0  0  0  0  0  0  0
    2.4177   -0.8743    3.0105 H   0  0  0  0  0  0  0  0  0  0  0  0
  1  2  1  0  0  0  0
  2  3  1  0  0  0  0
  2  4  1  0  0  0  0
  2  5  1  0  0  0  0
  5  6  2  0  0  0  0
  5  7  1  0  0  0  0
  7  8  1  0  0  0  0
  7  9  1  0  0  0  0
  9 10  1  0  0  0  0
  9 11  1  0  0  0  0
  9 24  1  0  0  0  0
 11 12  1  0  0  0  0
 11 13  1  0  0  0  0
 11 14  1  0  0  0  0
 14 15  1  0  0  0  0
 14 16  1  0  0  0  0
 14 20  1  0  0  0  0
 16 17  1  0  0  0  0
 16 18  1  0  0  0  0
 16 19  1  0  0  0  0
 20 21  1  0  0  0  0
 20 22  1  0  0  0  0
 20 23  1  0  0  0  0
 24 25  2  0  0  0  0
 24 26  1  0  0  0  0
 26 27  1  0  0  0  0
 26 28  1  0  0  0  0
 28 29  1  0  0  0  0
 28 30  1  0  0  0  0
 28 31  1  0  0  0  0
M  END
$$$$

  -OEChem-01062216083D

 31 30  0     1  0  0  0  0  0999 V2000
   -3.4659   -2.8170    0.7813 H   0  0  0  0  0  0  0  0  0  0  0  0
   -3.3247   -1.8993    0.2035 C   0  0  0  0  0  0  0  0  0  0  0  0
   -4.2642   -1.3420    0.1889 H   0  0  0  0  0  0  0  0  0  0  0  0
   -3.0499   -2.1694   -0.8190 H   0  0  0  0  0  0  0  0  0  0  0  0
   -2.2300   -1.0555    0.8285 C   0  0  0  0  0  0  0  0  0  0  0  0
   -1.8336   -1.3267    1.9499 O   0  0  0  0  0  0  0  0  0  0  0  0
   -1.8638    0.1345    0.2251 N   0  0  0  0  0  0  0  0  0  0  0  0
   -2.3813    0.3168   -0.6284 H   0  0  0  0  0  0  0  0  0  0  0  0
   -0.5053    0.7245    0.2540 C   0  0  1  0  0  0  0  0  0  0  0  0
   -0.1309    0.7727   -0.7711 H   0  0  0  0  0  0  0  0  0  0  0  0
   -0.6640    2.1608    0.8085 C   0  0  0  0  0  0  0  0  0  0  0  0
   -1.1513    2.1029    1.7882 H   0  0  0  0  0  0  0  0  0  0  0  0
    0.3235    2.6091    0.9557 H   0  0  0  0  0  0  0  0  0  0  0  0
   -1.4640    3.1111   -0.1112 C   0  0  0  0  0  0  0  0  0  0  0  0
   -2.4479    2.6770   -0.3167 H   0  0  0  0  0  0  0  0  0  0  0  0
   -1.6782    4.4463    0.6115 C   0  0  0  0  0  0  0  0  0  0  0  0
   -0.7197    4.9305    0.8241 H   0  0  0  0  0  0  0  0  0  0  0  0
   -2.2795    5.1220   -0.0051 H   0  0  0  0  0  0  0  0  0  0  0  0
   -2.2060    4.2883    1.5574 H   0  0  0  0  0  0  0  0  0  0  0  0
   -0.7499    3.3706   -1.4462 C   0  0  0  0  0  0  0  0  0  0  0  0
   -0.7126    2.4627   -2.0540 H   0  0  0  0  0  0  0  0  0  0  0  0
   -1.2852    4.1331   -2.0206 H   0  0  0  0  0  0  0  0  0  0  0  0
    0.2733    3.7209   -1.2763 H   0  0  0  0  0  0  0  0  0  0  0  0
    0.5869   -0.0760    1.0220 C   0  0  0  0  0  0  0  0  0  0  0  0
    0.8852   -1.1861    0.5958 O   0  0  0  0  0  0  0  0  0  0  0  0
    1.4727    0.5272    1.9007 N   0  0  0  0  0  0  0  0  0  0  0  0
    1.1875    1.4194    2.2906 H   0  0  0  0  0  0  0  0  0  0  0  0
    2.5500   -0.2027    2.5590 C   0  0  0  0  0  0  0  0  0  0  0  0
    3.2557   -0.5947    1.8191 H   0  0  0  0  0  0  0  0  0  0  0  0
    3.0955    0.4589    3.2386 H   0  0  0  0  0  0  0  0  0  0  0  0
    2.1461   -1.0396    3.1387 H   0  0  0  0  0  0  0  0  0  0  0  0
  1  2  1  0  0  0  0
  2  3  1  0  0  0  0
  2  4  1  0  0  0  0
  2  5  1  0  0  0  0
  5  6  2  0  0  0  0
  5  7  1  0  0  0  0
  7  8  1  0  0  0  0
  7  9  1  0  0  0  0
  9 10  1  0  0  0  0
  9 11  1  0  0  0  0
  9 24  1  0  0  0  0
 11 12  1  0  0  0  0
 11 13  1  0  0  0  0
 11 14  1  0  0  0  0
 14 15  1  0  0  0  0
 14 16  1  0  0  0  0
 14 20  1  0  0  0  0
 16 17  1  0  0  0  0
 16 18  1  0  0  0  0
 16 19  1  0  0  0  0
 20 21  1  0  0  0  0
 20 22  1  0  0  0  0
 20 23  1  0  0  0  0
 24 25  2  0  0  0  0
 24 26  1  0  0  0  0
 26 27  1  0  0  0  0
 26 28  1  0  0  0  0
 28 29  1  0  0  0  0
 28 30  1  0  0  0  0
 28 31  1  0  0  0  0
M  END
$$$$

  -OEChem-01062216083D

 31 30  0     1  0  0  0  0  0999 V2000
   -3.4819   -2.8194    0.7475 H   0  0  0  0  0  0  0  0  0  0  0  0
   -3.3658   -1.8738    0.2101 C   0  0  0  0  0  0  0  0  0  0  0  0
   -4.2929   -1.3021    0.2958 H   0  0  0  0  0  0  0  0  0  0  0  0
   -3.1734   -2.0922   -0.8430 H   0  0  0  0  0  0  0  0  0  0  0  0
   -2.2116   -1.0820    0.7950 C   0  0  0  0  0  0  0  0  0  0  0  0
   -1.7473   -1.4173    1.8717 O   0  0  0  0  0  0  0  0  0  0  0  0
   -1.8457    0.1142    0.2029 N   0  0  0  0  0  0  0  0  0  0  0  0
   -2.3858    0.3299   -0.6287 H   0  0  0  0  0  0  0  0  0  0  0  0
   -0.4950    0.7204    0.2401 C   0  0  1  0  0  0  0  0  0  0  0  0
   -0.1174    0.7750   -0.7839 H   0  0  0  0  0  0  0  0  0  0  0  0
   -0.6609    2.1532    0.7978 C   0  0  0  0  0  0  0  0  0  0  0  0
   -1.1532    2.0908    1.7747 H   0  0  0  0  0  0  0  0  0  0  0  0
    0.3280    2.5982    0.9524 H   0  0  0  0  0  0  0  0  0  0  0  0
   -1.4630    3.1036   -0.1197 C   0  0  0  0  0  0  0  0  0  0  0  0
   -2.4445    2.6662   -0.3292 H   0  0  0  0  0  0  0  0  0  0  0  0
   -1.6825    4.4346    0.6088 C   0  0  0  0  0  0  0  0  0  0  0  0
   -0.7249    4.9160    0.8316 H   0  0  0  0  0  0  0  0  0  0  0  0
   -2.2779    5.1144   -0.0086 H   0  0  0  0  0  0  0  0  0  0  0  0
   -2.2180    4.2721    1.5494 H   0  0  0  0  0  0  0  0  0  0  0  0
   -0.7485    3.3719   -1.4523 C   0  0  0  0  0  0  0  0  0  0  0  0
   -0.7088    2.4673   -2.0649 H   0  0  0  0  0  0  0  0  0  0  0  0
   -1.2844    4.1365   -2.0233 H   0  0  0  0  0  0  0  0  0  0  0  0
    0.2736    3.7232   -1.2785 H   0  0  0  0  0  0  0  0  0  0  0  0
    0.6017   -0.0694    1.0090 C   0  0  0  0  0  0  0  0  0  0  0  0
    1.0548   -1.0769    0.4780 O   0  0  0  0  0  0  0  0  0  0  0  0
    1.2720    0.4543    2.1026 N   0  0  0  0  0  0  0  0  0  0  0  0
    0.8071    1.2138    2.5894 H   0  0  0  0  0  0  0  0  0  0  0  0
    2.3082   -0.2863    2.8122 C   0  0  0  0  0  0  0  0  0  0  0  0
    3.1483   -0.5055    2.1450 H   0  0  0  0  0  0  0  0  0  0  0  0
    2.6829    0.3014    3.6554 H   0  0  0  0  0  0  0  0  0  0  0  0
    1.9079   -1.2305    3.1969 H   0  0  0  0  0  0  0  0  0  0  0  0
  1  2  1  0  0  0  0
  2  3  1  0  0  0  0
  2  4  1  0  0  0  0
  2  5  1  0  0  0  0
  5  6  2  0  0  0  0
  5  7  1  0  0  0  0
  7  8  1  0  0  0  0
  7  9  1  0  0  0  0
  9 10  1  0  0  0  0
  9 11  1  0  0  0  0
  9 24  1  0  0  0  0
 11 12  1  0  0  0  0
 11 13  1  0  0  0  0
 11 14  1  0  0  0  0
 14 15  1  0  0  0  0
 14 16  1  0  0  0  0
 14 20  1  0  0  0  0
 16 17  1  0  0  0  0
 16 18  1  0  0  0  0
 16 19  1  0  0  0  0
 20 21  1  0  0  0  0
 20 22  1  0  0  0  0
 20 23  1  0  0  0  0
 24 25  2  0  0  0  0
 24 26  1  0  0  0  0
 26 27  1  0  0  0  0
 26 28  1  0  0  0  0
 28 29  1  0  0  0  0
 28 30  1  0  0  0  0
 28 31  1  0  0  0  0
M  END
$$$$

  -OEChem-01062216083D

 31 30  0     1  0  0  0  0  0999 V2000
   -3.5372   -2.7944    0.7579 H   0  0  0  0  0  0  0  0  0  0  0  0
   -3.3935   -1.8595    0.2088 C   0  0  0  0  0  0  0  0  0  0  0  0
   -4.2979   -1.2536    0.3010 H   0  0  0  0  0  0  0  0  0  0  0  0
   -3.2246   -2.0958   -0.8444 H   0  0  0  0  0  0  0  0  0  0  0  0
   -2.2022   -1.1043    0.7676 C   0  0  0  0  0  0  0  0  0  0  0  0
   -1.6855   -1.4940    1.8009 O   0  0  0  0  0  0  0  0  0  0  0  0
   -1.8341    0.0960    0.1845 N   0  0  0  0  0  0  0  0  0  0  0  0
   -2.3959    0.3430   -0.6240 H   0  0  0  0  0  0  0  0  0  0  0  0
   -0.4895    0.7146    0.2283 C   0  0  1  0  0  0  0  0  0  0  0  0
   -0.1133    0.7752   -0.7962 H   0  0  0  0  0  0  0  0  0  0  0  0
   -0.6572    2.1440    0.7919 C   0  0  0  0  0  0  0  0  0  0  0  0
   -1.1520    2.0777    1.7671 H   0  0  0  0  0  0  0  0  0  0  0  0
    0.3335    2.5831    0.9537 H   0  0  0  0  0  0  0  0  0  0  0  0
   -1.4606    3.0986   -0.1204 C   0  0  0  0  0  0  0  0  0  0  0  0
   -2.4413    2.6611   -0.3332 H   0  0  0  0  0  0  0  0  0  0  0  0
   -1.6819    4.4262    0.6142 C   0  0  0  0  0  0  0  0  0  0  0  0
   -0.7249    4.9070    0.8417 H   0  0  0  0  0  0  0  0  0  0  0  0
   -2.2759    5.1093   -0.0013 H   0  0  0  0  0  0  0  0  0  0  0  0
   -2.2193    4.2590    1.5529 H   0  0  0  0  0  0  0  0  0  0  0  0
   -0.7447    3.3748   -1.4509 C   0  0  0  0  0  0  0  0  0  0  0  0
   -0.7033    2.4740   -2.0690 H   0  0  0  0  0  0  0  0  0  0  0  0
   -1.2803    4.1424   -2.0182 H   0  0  0  0  0  0  0  0  0  0  0  0
    0.2771    3.7258   -1.2742 H   0  0  0  0  0  0  0  0  0  0  0  0
    0.6154   -0.0599    0.9970 C   0  0  0  0  0  0  0  0  0  0  0  0
    1.2308   -0.9325    0.3959 O   0  0  0  0  0  0  0  0  0  0  0  0
    1.0577    0.3311    2.2498 N   0  0  0  0  0  0  0  0  0  0  0  0
    0.4215    0.9231    2.7741 H   0  0  0  0  0  0  0  0  0  0  0  0
    2.0476   -0.4355    2.9956 C   0  0  0  0  0  0  0  0  0  0  0  0
    2.9907   -0.4880    2.4416 H   0  0  0  0  0  0  0  0  0  0  0  0
    2.2424    0.0385    3.9622 H   0  0  0  0  0  0  0  0  0  0  0  0
    1.6856   -1.4538    3.1734 H   0  0  0  0  0  0  0  0  0  0  0  0
  1  2  1  0  0  0  0
  2  3  1  0  0  0  0
  2  4  1  0  0  0  0
  2  5  1  0  0  0  0
  5  6  2  0  0  0  0
  5  7  1  0  0  0  0
  7  8  1  0  0  0  0
  7  9  1  0  0  0  0
  9 10  1  0  0  0  0
  9 11  1  0  0  0  0
  9 24  1  0  0  0  0
 11 12  1  0  0  0  0
 11 13  1  0  0  0  0
 11 14  1  0  0  0  0
 14 15  1  0  0  0  0
 14 16  1  0  0  0  0
 14 20  1  0  0  0  0
 16 17  1  0  0  0  0
 16 18  1  0  0  0  0
 16 19  1  0  0  0  0
 20 21  1  0  0  0  0
 20 22  1  0  0  0  0
 20 23  1  0  0  0  0
 24 25  2  0  0  0  0
 24 26  1  0  0  0  0
 26 27  1  0  0  0  0
 26 28  1  0  0  0  0
 28 29  1  0  0  0  0
 28 30  1  0  0  0  0
 28 31  1  0  0  0  0
M  END
$$$$

  -OEChem-01062216083D

 31 30  0     1  0  0  0  0  0999 V2000
   -3.6147   -2.7612    0.7338 H   0  0  0  0  0  0  0  0  0  0  0  0
   -3.4572   -1.8168    0.2050 C   0  0  0  0  0  0  0  0  0  0  0  0
   -4.3273   -1.1751    0.3631 H   0  0  0  0  0  0  0  0  0  0  0  0
   -3.3549   -2.0267   -0.8624 H   0  0  0  0  0  0  0  0  0  0  0  0
   -2.2059   -1.1320    0.7218 C   0  0  0  0  0  0  0  0  0  0  0  0
   -1.6458   -1.5884    1.7032 O   0  0  0  0  0  0  0  0  0  0  0  0
   -1.8171    0.0682    0.1529 N   0  0  0  0  0  0  0  0  0  0  0  0
   -2.3992    0.3631   -0.6250 H   0  0  0  0  0  0  0  0  0  0  0  0
   -0.4775    0.6963    0.2178 C   0  0  1  0  0  0  0  0  0  0  0  0
   -0.0927    0.7654   -0.8033 H   0  0  0  0  0  0  0  0  0  0  0  0
   -0.6571    2.1200    0.7901 C   0  0  0  0  0  0  0  0  0  0  0  0
   -1.1634    2.0457    1.7586 H   0  0  0  0  0  0  0  0  0  0  0  0
    0.3312    2.5582    0.9695 H   0  0  0  0  0  0  0  0  0  0  0  0
   -1.4542    3.0782   -0.1233 C   0  0  0  0  0  0  0  0  0  0  0  0
   -2.4309    2.6385   -0.3495 H   0  0  0  0  0  0  0  0  0  0  0  0
   -1.6885    4.3989    0.6192 C   0  0  0  0  0  0  0  0  0  0  0  0
   -0.7361    4.8812    0.8613 H   0  0  0  0  0  0  0  0  0  0  0  0
   -2.2778    5.0847    0.0024 H   0  0  0  0  0  0  0  0  0  0  0  0
   -2.2356    4.2226    1.5506 H   0  0  0  0  0  0  0  0  0  0  0  0
   -0.7257    3.3676   -1.4441 C   0  0  0  0  0  0  0  0  0  0  0  0
   -0.6757    2.4721   -2.0690 H   0  0  0  0  0  0  0  0  0  0  0  0
   -1.2577    4.1388   -2.0102 H   0  0  0  0  0  0  0  0  0  0  0  0
    0.2932    3.7197   -1.2540 H   0  0  0  0  0  0  0  0  0  0  0  0
    0.6311   -0.0572    1.0003 C   0  0  0  0  0  0  0  0  0  0  0  0
    1.4414   -0.7224    0.3662 O   0  0  0  0  0  0  0  0  0  0  0  0
    0.8369    0.1509    2.3535 N   0  0  0  0  0  0  0  0  0  0  0  0
    0.0259    0.4964    2.8578 H   0  0  0  0  0  0  0  0  0  0  0  0
    1.8232   -0.6125    3.1074 C   0  0  0  0  0  0  0  0  0  0  0  0
    2.8264   -0.4559    2.6976 H   0  0  0  0  0  0  0  0  0  0  0  0
    1.8264   -0.2950    4.1544 H   0  0  0  0  0  0  0  0  0  0  0  0
    1.5889   -1.6817    3.0681 H   0  0  0  0  0  0  0  0  0  0  0  0
  1  2  1  0  0  0  0
  2  3  1  0  0  0  0
  2  4  1  0  0  0  0
  2  5  1  0  0  0  0
  5  6  2  0  0  0  0
  5  7  1  0  0  0  0
  7  8  1  0  0  0  0
  7  9  1  0  0  0  0
  9 10  1  0  0  0  0
  9 11  1  0  0  0  0
  9 24  1  0  0  0  0
 11 12  1  0  0  0  0
 11 13  1  0  0  0  0
 11 14  1  0  0  0  0
 14 15  1  0  0  0  0
 14 16  1  0  0  0  0
 14 20  1  0  0  0  0
 16 17  1  0  0  0  0
 16 18  1  0  0  0  0
 16 19  1  0  0  0  0
 20 21  1  0  0  0  0
 20 22  1  0  0  0  0
 20 23  1  0  0  0  0
 24 25  2  0  0  0  0
 24 26  1  0  0  0  0
 26 27  1  0  0  0  0
 26 28  1  0  0  0  0
 28 29  1  0  0  0  0
 28 30  1  0  0  0  0
 28 31  1  0  0  0  0
M  END
$$$$

  -OEChem-01062216083D

 31 30  0     1  0  0  0  0  0999 V2000
   -3.7111   -2.7390    0.6515 H   0  0  0  0  0  0  0  0  0  0  0  0
   -3.5492   -1.7649    0.1807 C   0  0  0  0  0  0  0  0  0  0  0  0
   -4.3850   -1.1080    0.4335 H   0  0  0  0  0  0  0  0  0  0  0  0
   -3.5156   -1.9022   -0.9028 H   0  0  0  0  0  0  0  0  0  0  0  0
   -2.2468   -1.1583    0.6689 C   0  0  0  0  0  0  0  0  0  0  0  0
   -1.6643   -1.6847    1.6000 O   0  0  0  0  0  0  0  0  0  0  0  0
   -1.8208    0.0368    0.1175 N   0  0  0  0  0  0  0  0  0  0  0  0
   -2.4169    0.3873   -0.6261 H   0  0  0  0  0  0  0  0  0  0  0  0
   -0.4803    0.6609    0.2081 C   0  0  1  0  0  0  0  0  0  0  0  0
   -0.0859    0.7353   -0.8090 H   0  0  0  0  0  0  0  0  0  0  0  0
   -0.6638    2.0783    0.7917 C   0  0  0  0  0  0  0  0  0  0  0  0
   -1.1825    1.9949    1.7530 H   0  0  0  0  0  0  0  0  0  0  0  0
    0.3235    2.5103    0.9910 H   0  0  0  0  0  0  0  0  0  0  0  0
   -1.4446    3.0494   -0.1216 C   0  0  0  0  0  0  0  0  0  0  0  0
   -2.4198    2.6170   -0.3669 H   0  0  0  0  0  0  0  0  0  0  0  0
   -1.6838    4.3621    0.6336 C   0  0  0  0  0  0  0  0  0  0  0  0
   -0.7323    4.8351    0.8973 H   0  0  0  0  0  0  0  0  0  0  0  0
   -2.2591    5.0590    0.0162 H   0  0  0  0  0  0  0  0  0  0  0  0
   -2.2471    4.1773    1.5536 H   0  0  0  0  0  0  0  0  0  0  0  0
   -0.6951    3.3492   -1.4279 C   0  0  0  0  0  0  0  0  0  0  0  0
   -0.6406    2.4599   -2.0615 H   0  0  0  0  0  0  0  0  0  0  0  0
   -1.2145    4.1291   -1.9936 H   0  0  0  0  0  0  0  0  0  0  0  0
    0.3229    3.6933   -1.2185 H   0  0  0  0  0  0  0  0  0  0  0  0
    0.6326   -0.0691    1.0054 C   0  0  0  0  0  0  0  0  0  0  0  0
    1.6206   -0.4668    0.3998 O   0  0  0  0  0  0  0  0  0  0  0  0
    0.6333   -0.0879    2.3891 N   0  0  0  0  0  0  0  0  0  0  0  0
   -0.2960   -0.0392    2.8002 H   0  0  0  0  0  0  0  0  0  0  0  0
    1.6612   -0.7887    3.1479 C   0  0  0  0  0  0  0  0  0  0  0  0
    2.6530   -0.3888    2.9127 H   0  0  0  0  0  0  0  0  0  0  0  0
    1.4873   -0.6650    4.2210 H   0  0  0  0  0  0  0  0  0  0  0  0
    1.6472   -1.8581    2.9131 H   0  0  0  0  0  0  0  0  0  0  0  0
  1  2  1  0  0  0  0
  2  3  1  0  0  0  0
  2  4  1  0  0  0  0
  2  5  1  0  0  0  0
  5  6  2  0  0  0  0
  5  7  1  0  0  0  0
  7  8  1  0  0  0  0
  7  9  1  0  0  0  0
  9 10  1  0  0  0  0
  9 11  1  0  0  0  0
  9 24  1  0  0  0  0
 11 12  1  0  0  0  0
 11 13  1  0  0  0  0
 11 14  1  0  0  0  0
 14 15  1  0  0  0  0
 14 16  1  0  0  0  0
 14 20  1  0  0  0  0
 16 17  1  0  0  0  0
 16 18  1  0  0  0  0
 16 19  1  0  0  0  0
 20 21  1  0  0  0  0
 20 22  1  0  0  0  0
 20 23  1  0  0  0  0
 24 25  2  0  0  0  0
 24 26  1  0  0  0  0
 26 27  1  0  0  0  0
 26 28  1  0  0  0  0
 28 29  1  0  0  0  0
 28 30  1  0  0  0  0
 28 31  1  0  0  0  0
M  END
$$$$

  -OEChem-01062216083D

 31 30  0     1  0  0  0  0  0999 V2000
   -3.8616   -2.6686    0.5993 H   0  0  0  0  0  0  0  0  0  0  0  0
   -3.6533   -1.6930    0.1506 C   0  0  0  0  0  0  0  0  0  0  0  0
   -4.4364   -0.9930    0.4512 H   0  0  0  0  0  0  0  0  0  0  0  0
   -3.6653   -1.7988   -0.9369 H   0  0  0  0  0  0  0  0  0  0  0  0
   -2.2990   -1.1840    0.6087 C   0  0  0  0  0  0  0  0  0  0  0  0
   -1.7057   -1.7969    1.4771 O   0  0  0  0  0  0  0  0  0  0  0  0
   -1.8252    0.0040    0.0821 N   0  0  0  0  0  0  0  0  0  0  0  0
   -2.4377    0.4232   -0.6110 H   0  0  0  0  0  0  0  0  0  0  0  0
   -0.4819    0.6220    0.1986 C   0  0  1  0  0  0  0  0  0  0  0  0
   -0.0782    0.7032   -0.8143 H   0  0  0  0  0  0  0  0  0  0  0  0
   -0.6748    2.0333    0.7934 C   0  0  0  0  0  0  0  0  0  0  0  0
   -1.2056    1.9387    1.7470 H   0  0  0  0  0  0  0  0  0  0  0  0
    0.3092    2.4639    1.0123 H   0  0  0  0  0  0  0  0  0  0  0  0
   -1.4403    3.0157   -0.1210 C   0  0  0  0  0  0  0  0  0  0  0  0
   -2.4117    2.5875   -0.3875 H   0  0  0  0  0  0  0  0  0  0  0  0
   -1.6899    4.3191    0.6463 C   0  0  0  0  0  0  0  0  0  0  0  0
   -0.7422    4.7873    0.9314 H   0  0  0  0  0  0  0  0  0  0  0  0
   -2.2539    5.0248    0.0285 H   0  0  0  0  0  0  0  0  0  0  0  0
   -2.2681    4.1231    1.5548 H   0  0  0  0  0  0  0  0  0  0  0  0
   -0.6693    3.3311   -1.4111 C   0  0  0  0  0  0  0  0  0  0  0  0
   -0.6039    2.4498   -2.0546 H   0  0  0  0  0  0  0  0  0  0  0  0
   -1.1790    4.1181   -1.9756 H   0  0  0  0  0  0  0  0  0  0  0  0
    0.3451    3.6724   -1.1809 H   0  0  0  0  0  0  0  0  0  0  0  0
    0.6412   -0.0805    1.0072 C   0  0  0  0  0  0  0  0  0  0  0  0
    1.7460   -0.1894    0.4889 O   0  0  0  0  0  0  0  0  0  0  0  0
    0.5019   -0.3619    2.3537 N   0  0  0  0  0  0  0  0  0  0  0  0
   -0.4592   -0.5792    2.6183 H   0  0  0  0  0  0  0  0  0  0  0  0
    1.5604   -1.0037    3.1223 C   0  0  0  0  0  0  0  0  0  0  0  0
    2.4724   -0.3981    3.1006 H   0  0  0  0  0  0  0  0  0  0  0  0
    1.2501   -1.1191    4.1650 H   0  0  0  0  0  0  0  0  0  0  0  0
    1.7843   -1.9942    2.7127 H   0  0  0  0  0  0  0  0  0  0  0  0
  1  2  1  0  0  0  0
  2  3  1  0  0  0  0
  2  4  1  0  0  0  0
  2  5  1  0  0  0  0
  5  6  2  0  0  0  0
  5  7  1  0  0  0  0
  7  8  1  0  0  0  0
  7  9  1  0  0  0  0
  9 10  1  0  0  0  0
  9 11  1  0  0  0  0
  9 24  1  0  0  0  0
 11 12  1  0  0  0  0
 11 13  1  0  0  0  0
 11 14  1  0  0  0  0
 14 15  1  0  0  0  0
 14 16  1  0  0  0  0
 14 20  1  0  0  0  0
 16 17  1  0  0  0  0
 16 18  1  0  0  0  0
 16 19  1  0  0  0  0
 20 21  1  0  0  0  0
 20 22  1  0  0  0  0
 20 23  1  0  0  0  0
 24 25  2  0  0  0  0
 24 26  1  0  0  0  0
 26 27  1  0  0  0  0
 26 28  1  0  0  0  0
 28 29  1  0  0  0  0
 28 30  1  0  0  0  0
 28 31  1  0  0  0  0
M  END
$$$$

  -OEChem-01062216083D

 31 30  0     1  0  0  0  0  0999 V2000
   -4.0206   -2.5670    0.5621 H   0  0  0  0  0  0  0  0  0  0  0  0
   -3.7572   -1.5961    0.1324 C   0  0  0  0  0  0  0  0  0  0  0  0
   -4.4690   -0.8488    0.4916 H   0  0  0  0  0  0  0  0  0  0  0  0
   -3.8277   -1.6641   -0.9560 H   0  0  0  0  0  0  0  0  0  0  0  0
   -2.3476   -1.2073    0.5386 C   0  0  0  0  0  0  0  0  0  0  0  0
   -1.7434   -1.9304    1.3079 O   0  0  0  0  0  0  0  0  0  0  0  0
   -1.8256   -0.0248    0.0461 N   0  0  0  0  0  0  0  0  0  0  0  0
   -2.4552    0.4702   -0.5781 H   0  0  0  0  0  0  0  0  0  0  0  0
   -0.4810    0.5880    0.1961 C   0  0  1  0  0  0  0  0  0  0  0  0
   -0.0634    0.6761   -0.8105 H   0  0  0  0  0  0  0  0  0  0  0  0
   -0.6972    1.9947    0.7960 C   0  0  0  0  0  0  0  0  0  0  0  0
   -1.2483    1.8893    1.7368 H   0  0  0  0  0  0  0  0  0  0  0  0
    0.2779    2.4316    1.0417 H   0  0  0  0  0  0  0  0  0  0  0  0
   -1.4448    2.9813   -0.1294 C   0  0  0  0  0  0  0  0  0  0  0  0
   -2.4068    2.5517   -0.4253 H   0  0  0  0  0  0  0  0  0  0  0  0
   -1.7211    4.2774    0.6413 C   0  0  0  0  0  0  0  0  0  0  0  0
   -0.7836    4.7475    0.9562 H   0  0  0  0  0  0  0  0  0  0  0  0
   -2.2706    4.9860    0.0137 H   0  0  0  0  0  0  0  0  0  0  0  0
   -2.3232    4.0719    1.5320 H   0  0  0  0  0  0  0  0  0  0  0  0
   -0.6410    3.3115   -1.3955 C   0  0  0  0  0  0  0  0  0  0  0  0
   -0.5517    2.4355   -2.0435 H   0  0  0  0  0  0  0  0  0  0  0  0
   -1.1404    4.0993   -1.9681 H   0  0  0  0  0  0  0  0  0  0  0  0
    0.3644    3.6578   -1.1350 H   0  0  0  0  0  0  0  0  0  0  0  0
    0.6548   -0.0841    1.0165 C   0  0  0  0  0  0  0  0  0  0  0  0
    1.8045    0.0577    0.6170 O   0  0  0  0  0  0  0  0  0  0  0  0
    0.4574   -0.6439    2.2642 N   0  0  0  0  0  0  0  0  0  0  0  0
   -0.4874   -1.0054    2.4069 H   0  0  0  0  0  0  0  0  0  0  0  0
    1.5340   -1.2708    3.0203 C   0  0  0  0  0  0  0  0  0  0  0  0
    2.3360   -0.5514    3.2161 H   0  0  0  0  0  0  0  0  0  0  0  0
    1.1563   -1.6334    3.9810 H   0  0  0  0  0  0  0  0  0  0  0  0
    1.9481   -2.1192    2.4656 H   0  0  0  0  0  0  0  0  0  0  0  0
  1  2  1  0  0  0  0
  2  3  1  0  0  0  0
  2  4  1  0  0  0  0
  2  5  1  0  0  0  0
  5  6  2  0  0  0  0
  5  7  1  0  0  0  0
  7  8  1  0  0  0  0
  7  9  1  0  0  0  0
  9 10  1  0  0  0  0
  9 11  1  0  0  0  0
  9 24  1  0  0  0  0
 11 12  1  0  0  0  0
 11 13  1  0  0  0  0
 11 14  1  0  0  0  0
 14 15  1  0  0  0  0
 14 16  1  0  0  0  0
 14 20  1  0  0  0  0
 16 17  1  0  0  0  0
 16 18  1  0  0  0  0
 16 19  1  0  0  0  0
 20 21  1  0  0  0  0
 20 22  1  0  0  0  0
 20 23  1  0  0  0  0
 24 25  2  0  0  0  0
 24 26  1  0  0  0  0
 26 27  1  0  0  0  0
 26 28  1  0  0  0  0
 28 29  1  0  0  0  0
 28 30  1  0  0  0  0
 28 31  1  0  0  0  0
M  END
$$$$

  -OEChem-01062216083D

 31 30  0     1  0  0  0  0  0999 V2000
   -4.1580   -2.4636    0.5417 H   0  0  0  0  0  0  0  0  0  0  0  0
   -3.8468   -1.5032    0.1207 C   0  0  0  0  0  0  0  0  0  0  0  0
   -4.4985   -0.7201    0.5155 H   0  0  0  0  0  0  0  0  0  0  0  0
   -3.9551   -1.5455   -0.9658 H   0  0  0  0  0  0  0  0  0  0  0  0
   -2.4035   -1.2120    0.4883 C   0  0  0  0  0  0  0  0  0  0  0  0
   -1.8075   -2.0193    1.1751 O   0  0  0  0  0  0  0  0  0  0  0  0
   -1.8374   -0.0390    0.0224 N   0  0  0  0  0  0  0  0  0  0  0  0
   -2.4717    0.5128   -0.5470 H   0  0  0  0  0  0  0  0  0  0  0  0
   -0.4863    0.5578    0.1933 C   0  0  1  0  0  0  0  0  0  0  0  0
   -0.0612    0.6506   -0.8096 H   0  0  0  0  0  0  0  0  0  0  0  0
   -0.7178    1.9623    0.7971 C   0  0  0  0  0  0  0  0  0  0  0  0
   -1.2845    1.8497    1.7279 H   0  0  0  0  0  0  0  0  0  0  0  0
    0.2496    2.4043    1.0630 H   0  0  0  0  0  0  0  0  0  0  0  0
   -1.4499    2.9534   -0.1365 C   0  0  0  0  0  0  0  0  0  0  0  0
   -2.4054    2.5255   -0.4542 H   0  0  0  0  0  0  0  0  0  0  0  0
   -1.7430    4.2439    0.6373 C   0  0  0  0  0  0  0  0  0  0  0  0
   -0.8124    4.7134    0.9720 H   0  0  0  0  0  0  0  0  0  0  0  0
   -2.2827    4.9552    0.0044 H   0  0  0  0  0  0  0  0  0  0  0  0
   -2.3607    4.0317    1.5156 H   0  0  0  0  0  0  0  0  0  0  0  0
   -0.6214    3.2925   -1.3844 C   0  0  0  0  0  0  0  0  0  0  0  0
   -0.5195    2.4214   -2.0370 H   0  0  0  0  0  0  0  0  0  0  0  0
   -1.1089    4.0849   -1.9609 H   0  0  0  0  0  0  0  0  0  0  0  0
    0.3788    3.6360   -1.1014 H   0  0  0  0  0  0  0  0  0  0  0  0
    0.6598   -0.0993    1.0172 C   0  0  0  0  0  0  0  0  0  0  0  0
    1.8077    0.2252    0.7358 O   0  0  0  0  0  0  0  0  0  0  0  0
    0.4757   -0.9155    2.1155 N   0  0  0  0  0  0  0  0  0  0  0  0
   -0.4463   -1.3507    2.1792 H   0  0  0  0  0  0  0  0  0  0  0  0
    1.5755   -1.5400    2.8395 C   0  0  0  0  0  0  0  0  0  0  0  0
    2.2509   -0.7784    3.2431 H   0  0  0  0  0  0  0  0  0  0  0  0
    1.1875   -2.1324    3.6736 H   0  0  0  0  0  0  0  0  0  0  0  0
    2.1441   -2.2013    2.1778 H   0  0  0  0  0  0  0  0  0  0  0  0
  1  2  1  0  0  0  0
  2  3  1  0  0  0  0
  2  4  1  0  0  0  0
  2  5  1  0  0  0  0
  5  6  2  0  0  0  0
  5  7  1  0  0  0  0
  7  8  1  0  0  0  0
  7  9  1  0  0  0  0
  9 10  1  0  0  0  0
  9 11  1  0  0  0  0
  9 24  1  0  0  0  0
 11 12  1  0  0  0  0
 11 13  1  0  0  0  0
 11 14  1  0  0  0  0
 14 15  1  0  0  0  0
 14 16  1  0  0  0  0
 14 20  1  0  0  0  0
 16 17  1  0  0  0  0
 16 18  1  0  0  0  0
 16 19  1  0  0  0  0
 20 21  1  0  0  0  0
 20 22  1  0  0  0  0
 20 23  1  0  0  0  0
 24 25  2  0  0  0  0
 24 26  1  0  0  0  0
 26 27  1  0  0  0  0
 26 28  1  0  0  0  0
 28 29  1  0  0  0  0
 28 30  1  0  0  0  0
 28 31  1  0  0  0  0
M  END
$$$$

  -OEChem-01062216083D

 31 30  0     1  0  0  0  0  0999 V2000
   -3.8112   -2.6464    0.6526 H   0  0  0  0  0  0  0  0  0  0  0  0
   -3.4954   -1.7232    0.1579 C   0  0  0  0  0  0  0  0  0  0  0  0
   -4.2771   -0.9709    0.2881 H   0  0  0  0  0  0  0  0  0  0  0  0
   -3.3642   -1.9242   -0.9080 H   0  0  0  0  0  0  0  0  0  0  0  0
   -2.1923   -1.2252    0.7564 C   0  0  0  0  0  0  0  0  0  0  0  0
   -1.7290   -1.8377    1.6941 O   0  0  0  0  0  0  0  0  0  0  0  0
   -1.6528   -0.0643    0.2340 N   0  0  0  0  0  0  0  0  0  0  0  0
   -2.2234    0.3271   -0.5082 H   0  0  0  0  0  0  0  0  0  0  0  0
   -0.3818    0.6716    0.4660 C   0  0  1  0  0  0  0  0  0  0  0  0
    0.1349    0.6950   -0.4962 H   0  0  0  0  0  0  0  0  0  0  0  0
   -0.8469    2.1021    0.8479 C   0  0  0  0  0  0  0  0  0  0  0  0
   -1.5136    2.0269    1.7142 H   0  0  0  0  0  0  0  0  0  0  0  0
    0.0125    2.7035    1.1627 H   0  0  0  0  0  0  0  0  0  0  0  0
   -1.5585    2.8765   -0.2867 C   0  0  0  0  0  0  0  0  0  0  0  0
   -2.4126    2.2991   -0.6531 H   0  0  0  0  0  0  0  0  0  0  0  0
   -2.0912    4.2014    0.2711 C   0  0  0  0  0  0  0  0  0  0  0  0
   -1.2698    4.8234    0.6415 H   0  0  0  0  0  0  0  0  0  0  0  0
   -2.6244    4.7573   -0.5065 H   0  0  0  0  0  0  0  0  0  0  0  0
   -2.7865    4.0169    1.0960 H   0  0  0  0  0  0  0  0  0  0  0  0
   -0.6172    3.1689   -1.4644 C   0  0  0  0  0  0  0  0  0  0  0  0
   -0.3379    2.2475   -1.9819 H   0  0  0  0  0  0  0  0  0  0  0  0
   -1.1087    3.8232   -2.1913 H   0  0  0  0  0  0  0  0  0  0  0  0
    0.2948    3.6637   -1.1148 H   0  0  0  0  0  0  0  0  0  0  0  0
    0.7589    0.2597    1.4547 C   0  0  0  0  0  0  0  0  0  0  0  0
    1.7594    0.9612    1.5091 O   0  0  0  0  0  0  0  0  0  0  0  0
    0.7527   -0.6479    2.4833 N   0  0  0  0  0  0  0  0  0  0  0  0
    1.3238   -0.2875    3.2419 H   0  0  0  0  0  0  0  0  0  0  0  0
    1.1097   -2.0219    2.1477 C   0  0  0  0  0  0  0  0  0  0  0  0
    2.1946   -2.1541    2.2076 H   0  0  0  0  0  0  0  0  0  0  0  0
    0.6330   -2.7145    2.8485 H   0  0  0  0  0  0  0  0  0  0  0  0
    0.7888   -2.2835    1.1337 H   0  0  0  0  0  0  0  0  0  0  0  0
  1  2  1  0  0  0  0
  2  3  1  0  0  0  0
  2  4  1  0  0  0  0
  2  5  1  0  0  0  0
  5  6  2  0  0  0  0
  5  7  1  0  0  0  0
  7  8  1  0  0  0  0
  7  9  1  0  0  0  0
  9 10  1  0  0  0  0
  9 11  1  0  0  0  0
  9 24  1  0  0  0  0
 11 12  1  0  0  0  0
 11 13  1  0  0  0  0
 11 14  1  0  0  0  0
 14 15  1  0  0  0  0
 14 16  1  0  0  0  0
 14 20  1  0  0  0  0
 16 17  1  0  0  0  0
 16 18  1  0  0  0  0
 16 19  1  0  0  0  0
 20 21  1  0  0  0  0
 20 22  1  0  0  0  0
 20 23  1  0  0  0  0
 24 25  2  0  0  0  0
 24 26  1  0  0  0  0
 26 27  1  0  0  0  0
 26 28  1  0  0  0  0
 28 29  1  0  0  0  0
 28 30  1  0  0  0  0
 28 31  1  0  0  0  0
M  END
$$$$

  -OEChem-01062216083D

 31 30  0     1  0  0  0  0  0999 V2000
   -3.6392   -2.7015    0.9706 H   0  0  0  0  0  0  0  0  0  0  0  0
   -3.4862   -1.7042    0.5480 C   0  0  0  0  0  0  0  0  0  0  0  0
   -3.9226   -0.9664    1.2257 H   0  0  0  0  0  0  0  0  0  0  0  0
   -3.9945   -1.6497   -0.4179 H   0  0  0  0  0  0  0  0  0  0  0  0
   -2.0038   -1.4340    0.3681 C   0  0  0  0  0  0  0  0  0  0  0  0
   -1.2317   -2.3635    0.4852 O   0  0  0  0  0  0  0  0  0  0  0  0
   -1.6214   -0.1861   -0.0843 N   0  0  0  0  0  0  0  0  0  0  0  0
   -2.4152    0.4154   -0.2784 H   0  0  0  0  0  0  0  0  0  0  0  0
   -0.3191    0.5291   -0.0629 C   0  0  1  0  0  0  0  0  0  0  0  0
   -0.0658    0.7166   -1.1094 H   0  0  0  0  0  0  0  0  0  0  0  0
   -0.6132    1.8680    0.6584 C   0  0  0  0  0  0  0  0  0  0  0  0
   -1.0320    1.6447    1.6457 H   0  0  0  0  0  0  0  0  0  0  0  0
    0.3271    2.4058    0.8257 H   0  0  0  0  0  0  0  0  0  0  0  0
   -1.5653    2.8205   -0.1028 C   0  0  0  0  0  0  0  0  0  0  0  0
   -2.5066    2.3085   -0.3240 H   0  0  0  0  0  0  0  0  0  0  0  0
   -1.8825    4.0271    0.7886 C   0  0  0  0  0  0  0  0  0  0  0  0
   -0.9693    4.5815    1.0283 H   0  0  0  0  0  0  0  0  0  0  0  0
   -2.5770    4.7044    0.2818 H   0  0  0  0  0  0  0  0  0  0  0  0
   -2.3463    3.7005    1.7246 H   0  0  0  0  0  0  0  0  0  0  0  0
   -0.9533    3.3157   -1.4211 C   0  0  0  0  0  0  0  0  0  0  0  0
   -0.8487    2.4964   -2.1373 H   0  0  0  0  0  0  0  0  0  0  0  0
   -1.5955    4.0760   -1.8765 H   0  0  0  0  0  0  0  0  0  0  0  0
    0.0340    3.7556   -1.2469 H   0  0  0  0  0  0  0  0  0  0  0  0
    1.0217   -0.0114    0.5316 C   0  0  0  0  0  0  0  0  0  0  0  0
    2.0514    0.5521    0.1899 O   0  0  0  0  0  0  0  0  0  0  0  0
    1.3139   -1.2017    1.1496 N   0  0  0  0  0  0  0  0  0  0  0  0
    2.3093   -1.3960    1.0879 H   0  0  0  0  0  0  0  0  0  0  0  0
    0.7167   -1.5034    2.4447 C   0  0  0  0  0  0  0  0  0  0  0  0
    1.3919   -1.1955    3.2490 H   0  0  0  0  0  0  0  0  0  0  0  0
   -0.2352   -0.9800    2.5796 H   0  0  0  0  0  0  0  0  0  0  0  0
    0.5354   -2.5792    2.5335 H   0  0  0  0  0  0  0  0  0  0  0  0
  1  2  1  0  0  0  0
  2  3  1  0  0  0  0
  2  4  1  0  0  0  0
  2  5  1  0  0  0  0
  5  6  2  0  0  0  0
  5  7  1  0  0  0  0
  7  8  1  0  0  0  0
  7  9  1  0  0  0  0
  9 10  1  0  0  0  0
  9 11  1  0  0  0  0
  9 24  1  0  0  0  0
 11 12  1  0  0  0  0
 11 13  1  0  0  0  0
 11 14  1  0  0  0  0
 14 15  1  0  0  0  0
 14 16  1  0  0  0  0
 14 20  1  0  0  0  0
 16 17  1  0  0  0  0
 16 18  1  0  0  0  0
 16 19  1  0  0  0  0
 20 21  1  0  0  0  0
 20 22  1  0  0  0  0
 20 23  1  0  0  0  0
 24 25  2  0  0  0  0
 24 26  1  0  0  0  0
 26 27  1  0  0  0  0
 26 28  1  0  0  0  0
 28 29  1  0  0  0  0
 28 30  1  0  0  0  0
 28 31  1  0  0  0  0
M  END
$$$$

  -OEChem-01062216083D

 31 30  0     1  0  0  0  0  0999 V2000
   -3.9138   -2.5064    1.1049 H   0  0  0  0  0  0  0  0  0  0  0  0
   -3.7009   -1.5368    0.6455 C   0  0  0  0  0  0  0  0  0  0  0  0
   -4.1396   -0.7522    1.2665 H   0  0  0  0  0  0  0  0  0  0  0  0
   -4.1605   -1.5096   -0.3453 H   0  0  0  0  0  0  0  0  0  0  0  0
   -2.2018   -1.3301    0.5267 C   0  0  0  0  0  0  0  0  0  0  0  0
   -1.4777   -2.2595    0.8107 O   0  0  0  0  0  0  0  0  0  0  0  0
   -1.7606   -0.1143    0.0382 N   0  0  0  0  0  0  0  0  0  0  0  0
   -2.5263    0.5066   -0.2021 H   0  0  0  0  0  0  0  0  0  0  0  0
   -0.4171    0.5055   -0.1078 C   0  0  1  0  0  0  0  0  0  0  0  0
   -0.2874    0.6873   -1.1775 H   0  0  0  0  0  0  0  0  0  0  0  0
   -0.5373    1.8556    0.6465 C   0  0  0  0  0  0  0  0  0  0  0  0
   -0.8472    1.6481    1.6764 H   0  0  0  0  0  0  0  0  0  0  0  0
    0.4450    2.3375    0.7029 H   0  0  0  0  0  0  0  0  0  0  0  0
   -1.5139    2.8720    0.0082 C   0  0  0  0  0  0  0  0  0  0  0  0
   -2.5053    2.4212   -0.0957 H   0  0  0  0  0  0  0  0  0  0  0  0
   -1.6443    4.0880    0.9328 C   0  0  0  0  0  0  0  0  0  0  0  0
   -0.6765    4.5848    1.0572 H   0  0  0  0  0  0  0  0  0  0  0  0
   -2.3541    4.8100    0.5173 H   0  0  0  0  0  0  0  0  0  0  0  0
   -2.0073    3.7821    1.9189 H   0  0  0  0  0  0  0  0  0  0  0  0
   -1.0387    3.3410   -1.3747 C   0  0  0  0  0  0  0  0  0  0  0  0
   -1.0804    2.5255   -2.1015 H   0  0  0  0  0  0  0  0  0  0  0  0
   -1.6793    4.1482   -1.7433 H   0  0  0  0  0  0  0  0  0  0  0  0
   -0.0099    3.7118   -1.3239 H   0  0  0  0  0  0  0  0  0  0  0  0
    0.9522   -0.1320    0.2991 C   0  0  0  0  0  0  0  0  0  0  0  0
    1.9656    0.4611   -0.0429 O   0  0  0  0  0  0  0  0  0  0  0  0
    1.2659   -1.4316    0.6040 N   0  0  0  0  0  0  0  0  0  0  0  0
    2.1882   -1.6461    0.2364 H   0  0  0  0  0  0  0  0  0  0  0  0
    1.1070   -1.8483    1.9925 C   0  0  0  0  0  0  0  0  0  0  0  0
    0.2838   -1.3147    2.4790 H   0  0  0  0  0  0  0  0  0  0  0  0
    0.8972   -2.9217    2.0398 H   0  0  0  0  0  0  0  0  0  0  0  0
    2.0244   -1.6455    2.5541 H   0  0  0  0  0  0  0  0  0  0  0  0
  1  2  1  0  0  0  0
  2  3  1  0  0  0  0
  2  4  1  0  0  0  0
  2  5  1  0  0  0  0
  5  6  2  0  0  0  0
  5  7  1  0  0  0  0
  7  8  1  0  0  0  0
  7  9  1  0  0  0  0
  9 10  1  0  0  0  0
  9 11  1  0  0  0  0
  9 24  1  0  0  0  0
 11 12  1  0  0  0  0
 11 13  1  0  0  0  0
 11 14  1  0  0  0  0
 14 15  1  0  0  0  0
 14 16  1  0  0  0  0
 14 20  1  0  0  0  0
 16 17  1  0  0  0  0
 16 18  1  0  0  0  0
 16 19  1  0  0  0  0
 20 21  1  0  0  0  0
 20 22  1  0  0  0  0
 20 23  1  0  0  0  0
 24 25  2  0  0  0  0
 24 26  1  0  0  0  0
 26 27  1  0  0  0  0
 26 28  1  0  0  0  0
 28 29  1  0  0  0  0
 28 30  1  0  0  0  0
 28 31  1  0  0  0  0
M  END
$$$$

  -OEChem-01062216083D

 31 30  0     1  0  0  0  0  0999 V2000
   -4.1625   -2.4161    0.6064 H   0  0  0  0  0  0  0  0  0  0  0  0
   -3.8449   -1.4589    0.1829 C   0  0  0  0  0  0  0  0  0  0  0  0
   -4.4731   -0.6670    0.5978 H   0  0  0  0  0  0  0  0  0  0  0  0
   -3.9803   -1.4934   -0.9008 H   0  0  0  0  0  0  0  0  0  0  0  0
   -2.3880   -1.1941    0.5161 C   0  0  0  0  0  0  0  0  0  0  0  0
   -1.7883   -2.0221    1.1737 O   0  0  0  0  0  0  0  0  0  0  0  0
   -1.8236   -0.0136    0.0659 N   0  0  0  0  0  0  0  0  0  0  0  0
   -2.4799    0.5669   -0.4472 H   0  0  0  0  0  0  0  0  0  0  0  0
   -0.4538    0.5596    0.1675 C   0  0  1  0  0  0  0  0  0  0  0  0
   -0.0821    0.6648   -0.8539 H   0  0  0  0  0  0  0  0  0  0  0  0
   -0.6789    1.9694    0.7819 C   0  0  0  0  0  0  0  0  0  0  0  0
   -1.2048    1.8501    1.7354 H   0  0  0  0  0  0  0  0  0  0  0  0
    0.2830    2.4411    1.0077 H   0  0  0  0  0  0  0  0  0  0  0  0
   -1.4577    2.9535   -0.1239 C   0  0  0  0  0  0  0  0  0  0  0  0
   -2.4214    2.5181   -0.4044 H   0  0  0  0  0  0  0  0  0  0  0  0
   -1.7340    4.2407    0.6621 C   0  0  0  0  0  0  0  0  0  0  0  0
   -0.7960    4.7228    0.9565 H   0  0  0  0  0  0  0  0  0  0  0  0
   -2.3098    4.9449    0.0535 H   0  0  0  0  0  0  0  0  0  0  0  0
   -2.3100    4.0206    1.5663 H   0  0  0  0  0  0  0  0  0  0  0  0
   -0.6834    3.3023   -1.4036 C   0  0  0  0  0  0  0  0  0  0  0  0
   -0.5982    2.4326   -2.0603 H   0  0  0  0  0  0  0  0  0  0  0  0
   -1.2028    4.0893   -1.9593 H   0  0  0  0  0  0  0  0  0  0  0  0
    0.3234    3.6576   -1.1608 H   0  0  0  0  0  0  0  0  0  0  0  0
    0.7311   -0.1658    0.8898 C   0  0  0  0  0  0  0  0  0  0  0  0
    1.6964    0.4906    1.2651 O   0  0  0  0  0  0  0  0  0  0  0  0
    0.8592   -1.5387    0.9719 N   0  0  0  0  0  0  0  0  0  0  0  0
   -0.0115   -2.0606    0.8618 H   0  0  0  0  0  0  0  0  0  0  0  0
    1.9651   -2.2037    1.6504 C   0  0  0  0  0  0  0  0  0  0  0  0
    1.9960   -1.9156    2.7062 H   0  0  0  0  0  0  0  0  0  0  0  0
    1.8442   -3.2894    1.5898 H   0  0  0  0  0  0  0  0  0  0  0  0
    2.9187   -1.9373    1.1827 H   0  0  0  0  0  0  0  0  0  0  0  0
  1  2  1  0  0  0  0
  2  3  1  0  0  0  0
  2  4  1  0  0  0  0
  2  5  1  0  0  0  0
  5  6  2  0  0  0  0
  5  7  1  0  0  0  0
  7  8  1  0  0  0  0
  7  9  1  0  0  0  0
  9 10  1  0  0  0  0
  9 11  1  0  0  0  0
  9 24  1  0  0  0  0
 11 12  1  0  0  0  0
 11 13  1  0  0  0  0
 11 14  1  0  0  0  0
 14 15  1  0  0  0  0
 14 16  1  0  0  0  0
 14 20  1  0  0  0  0
 16 17  1  0  0  0  0
 16 18  1  0  0  0  0
 16 19  1  0  0  0  0
 20 21  1  0  0  0  0
 20 22  1  0  0  0  0
 20 23  1  0  0  0  0
 24 25  2  0  0  0  0
 24 26  1  0  0  0  0
 26 27  1  0  0  0  0
 26 28  1  0  0  0  0
 28 29  1  0  0  0  0
 28 30  1  0  0  0  0
 28 31  1  0  0  0  0
M  END
$$$$

  -OEChem-01062216083D

 31 30  0     1  0  0  0  0  0999 V2000
   -4.0430   -2.4551    0.7210 H   0  0  0  0  0  0  0  0  0  0  0  0
   -3.7694   -1.4912    0.2822 C   0  0  0  0  0  0  0  0  0  0  0  0
   -4.3629   -0.7084    0.7606 H   0  0  0  0  0  0  0  0  0  0  0  0
   -3.9997   -1.5139   -0.7858 H   0  0  0  0  0  0  0  0  0  0  0  0
   -2.2906   -1.2212    0.4895 C   0  0  0  0  0  0  0  0  0  0  0  0
   -1.6145   -2.0815    1.0198 O   0  0  0  0  0  0  0  0  0  0  0  0
   -1.7768   -0.0165    0.0426 N   0  0  0  0  0  0  0  0  0  0  0  0
   -2.4759    0.5865   -0.3800 H   0  0  0  0  0  0  0  0  0  0  0  0
   -0.4234    0.5886    0.1549 C   0  0  1  0  0  0  0  0  0  0  0  0
   -0.0411    0.7038   -0.8616 H   0  0  0  0  0  0  0  0  0  0  0  0
   -0.6673    1.9943    0.7688 C   0  0  0  0  0  0  0  0  0  0  0  0
   -1.1905    1.8699    1.7232 H   0  0  0  0  0  0  0  0  0  0  0  0
    0.2910    2.4753    0.9905 H   0  0  0  0  0  0  0  0  0  0  0  0
   -1.4563    2.9678   -0.1389 C   0  0  0  0  0  0  0  0  0  0  0  0
   -2.4133    2.5193   -0.4218 H   0  0  0  0  0  0  0  0  0  0  0  0
   -1.7511    4.2513    0.6463 C   0  0  0  0  0  0  0  0  0  0  0  0
   -0.8201    4.7439    0.9451 H   0  0  0  0  0  0  0  0  0  0  0  0
   -2.3325    4.9491    0.0353 H   0  0  0  0  0  0  0  0  0  0  0  0
   -2.3288    4.0243    1.5478 H   0  0  0  0  0  0  0  0  0  0  0  0
   -0.6832    3.3267   -1.4164 C   0  0  0  0  0  0  0  0  0  0  0  0
   -0.5860    2.4587   -2.0737 H   0  0  0  0  0  0  0  0  0  0  0  0
   -1.2101    4.1081   -1.9730 H   0  0  0  0  0  0  0  0  0  0  0  0
    0.3185    3.6937   -1.1703 H   0  0  0  0  0  0  0  0  0  0  0  0
    0.7453   -0.1518    0.8852 C   0  0  0  0  0  0  0  0  0  0  0  0
    1.5712    0.4807    1.5345 O   0  0  0  0  0  0  0  0  0  0  0  0
    1.0068   -1.4925    0.6750 N   0  0  0  0  0  0  0  0  0  0  0  0
    0.1801   -2.0366    0.4227 H   0  0  0  0  0  0  0  0  0  0  0  0
    2.0834   -2.2022    1.3555 C   0  0  0  0  0  0  0  0  0  0  0  0
    1.9400   -2.1674    2.4405 H   0  0  0  0  0  0  0  0  0  0  0  0
    2.0998   -3.2499    1.0407 H   0  0  0  0  0  0  0  0  0  0  0  0
    3.0527   -1.7548    1.1121 H   0  0  0  0  0  0  0  0  0  0  0  0
  1  2  1  0  0  0  0
  2  3  1  0  0  0  0
  2  4  1  0  0  0  0
  2  5  1  0  0  0  0
  5  6  2  0  0  0  0
  5  7  1  0  0  0  0
  7  8  1  0  0  0  0
  7  9  1  0  0  0  0
  9 10  1  0  0  0  0
  9 11  1  0  0  0  0
  9 24  1  0  0  0  0
 11 12  1  0  0  0  0
 11 13  1  0  0  0  0
 11 14  1  0  0  0  0
 14 15  1  0  0  0  0
 14 16  1  0  0  0  0
 14 20  1  0  0  0  0
 16 17  1  0  0  0  0
 16 18  1  0  0  0  0
 16 19  1  0  0  0  0
 20 21  1  0  0  0  0
 20 22  1  0  0  0  0
 20 23  1  0  0  0  0
 24 25  2  0  0  0  0
 24 26  1  0  0  0  0
 26 27  1  0  0  0  0
 26 28  1  0  0  0  0
 28 29  1  0  0  0  0
 28 30  1  0  0  0  0
 28 31  1  0  0  0  0
M  END
$$$$

  -OEChem-01062216083D

 31 30  0     1  0  0  0  0  0999 V2000
   -3.9117   -2.4978    0.8325 H   0  0  0  0  0  0  0  0  0  0  0  0
   -3.6876   -1.5325    0.3694 C   0  0  0  0  0  0  0  0  0  0  0  0
   -4.2468   -0.7547    0.8952 H   0  0  0  0  0  0  0  0  0  0  0  0
   -4.0074   -1.5604   -0.6750 H   0  0  0  0  0  0  0  0  0  0  0  0
   -2.1996   -1.2456    0.4480 C   0  0  0  0  0  0  0  0  0  0  0  0
   -1.4539   -2.1265    0.8334 O   0  0  0  0  0  0  0  0  0  0  0  0
   -1.7410   -0.0193    0.0011 N   0  0  0  0  0  0  0  0  0  0  0  0
   -2.4799    0.6017   -0.3138 H   0  0  0  0  0  0  0  0  0  0  0  0
   -0.4058    0.6143    0.1400 C   0  0  1  0  0  0  0  0  0  0  0  0
   -0.0017    0.7411   -0.8666 H   0  0  0  0  0  0  0  0  0  0  0  0
   -0.6655    2.0125    0.7582 C   0  0  0  0  0  0  0  0  0  0  0  0
   -1.1986    1.8799    1.7061 H   0  0  0  0  0  0  0  0  0  0  0  0
    0.2911    2.4922    0.9922 H   0  0  0  0  0  0  0  0  0  0  0  0
   -1.4520    2.9829   -0.1543 C   0  0  0  0  0  0  0  0  0  0  0  0
   -2.4018    2.5267   -0.4492 H   0  0  0  0  0  0  0  0  0  0  0  0
   -1.7658    4.2612    0.6316 C   0  0  0  0  0  0  0  0  0  0  0  0
   -0.8422    4.7605    0.9421 H   0  0  0  0  0  0  0  0  0  0  0  0
   -2.3459    4.9560    0.0163 H   0  0  0  0  0  0  0  0  0  0  0  0
   -2.3510    4.0264    1.5262 H   0  0  0  0  0  0  0  0  0  0  0  0
   -0.6688    3.3532   -1.4226 C   0  0  0  0  0  0  0  0  0  0  0  0
   -0.5579    2.4885   -2.0824 H   0  0  0  0  0  0  0  0  0  0  0  0
   -1.1969    4.1323   -1.9811 H   0  0  0  0  0  0  0  0  0  0  0  0
    0.3274    3.7275   -1.1654 H   0  0  0  0  0  0  0  0  0  0  0  0
    0.7334   -0.1393    0.8951 C   0  0  0  0  0  0  0  0  0  0  0  0
    1.3753    0.4115    1.7833 O   0  0  0  0  0  0  0  0  0  0  0  0
    1.1736   -1.3706    0.4460 N   0  0  0  0  0  0  0  0  0  0  0  0
    0.4347   -1.9238    0.0113 H   0  0  0  0  0  0  0  0  0  0  0  0
    2.2334   -2.1086    1.1225 C   0  0  0  0  0  0  0  0  0  0  0  0
    1.9436   -2.3356    2.1539 H   0  0  0  0  0  0  0  0  0  0  0  0
    2.4281   -3.0500    0.6003 H   0  0  0  0  0  0  0  0  0  0  0  0
    3.1602   -1.5254    1.1362 H   0  0  0  0  0  0  0  0  0  0  0  0
  1  2  1  0  0  0  0
  2  3  1  0  0  0  0
  2  4  1  0  0  0  0
  2  5  1  0  0  0  0
  5  6  2  0  0  0  0
  5  7  1  0  0  0  0
  7  8  1  0  0  0  0
  7  9  1  0  0  0  0
  9 10  1  0  0  0  0
  9 11  1  0  0  0  0
  9 24  1  0  0  0  0
 11 12  1  0  0  0  0
 11 13  1  0  0  0  0
 11 14  1  0  0  0  0
 14 15  1  0  0  0  0
 14 16  1  0  0  0  0
 14 20  1  0  0  0  0
 16 17  1  0  0  0  0
 16 18  1  0  0  0  0
 16 19  1  0  0  0  0
 20 21  1  0  0  0  0
 20 22  1  0  0  0  0
 20 23  1  0  0  0  0
 24 25  2  0  0  0  0
 24 26  1  0  0  0  0
 26 27  1  0  0  0  0
 26 28  1  0  0  0  0
 28 29  1  0  0  0  0
 28 30  1  0  0  0  0
 28 31  1  0  0  0  0
M  END
$$$$

  -OEChem-01062216083D

 31 30  0     1  0  0  0  0  0999 V2000
   -3.7546   -2.5726    0.8782 H   0  0  0  0  0  0  0  0  0  0  0  0
   -3.5952   -1.5765    0.4551 C   0  0  0  0  0  0  0  0  0  0  0  0
   -4.1101   -0.8440    1.0812 H   0  0  0  0  0  0  0  0  0  0  0  0
   -4.0189   -1.5491   -0.5516 H   0  0  0  0  0  0  0  0  0  0  0  0
   -2.1118   -1.2624    0.4031 C   0  0  0  0  0  0  0  0  0  0  0  0
   -1.3145   -2.1426    0.6720 O   0  0  0  0  0  0  0  0  0  0  0  0
   -1.7099   -0.0208   -0.0569 N   0  0  0  0  0  0  0  0  0  0  0  0
   -2.4791    0.6015   -0.2835 H   0  0  0  0  0  0  0  0  0  0  0  0
   -0.3923    0.6382    0.1037 C   0  0  1  0  0  0  0  0  0  0  0  0
    0.0312    0.7785   -0.8933 H   0  0  0  0  0  0  0  0  0  0  0  0
   -0.6638    2.0269    0.7335 C   0  0  0  0  0  0  0  0  0  0  0  0
   -1.2033    1.8823    1.6761 H   0  0  0  0  0  0  0  0  0  0  0  0
    0.2930    2.5010    0.9800 H   0  0  0  0  0  0  0  0  0  0  0  0
   -1.4515    3.0023   -0.1716 C   0  0  0  0  0  0  0  0  0  0  0  0
   -2.3970    2.5427   -0.4752 H   0  0  0  0  0  0  0  0  0  0  0  0
   -1.7768    4.2706    0.6262 C   0  0  0  0  0  0  0  0  0  0  0  0
   -0.8578    4.7726    0.9460 H   0  0  0  0  0  0  0  0  0  0  0  0
   -2.3592    4.9679    0.0159 H   0  0  0  0  0  0  0  0  0  0  0  0
   -2.3647    4.0229    1.5157 H   0  0  0  0  0  0  0  0  0  0  0  0
   -0.6652    3.3892   -1.4326 C   0  0  0  0  0  0  0  0  0  0  0  0
   -0.5475    2.5312   -2.0996 H   0  0  0  0  0  0  0  0  0  0  0  0
   -1.1949    4.1709   -1.9860 H   0  0  0  0  0  0  0  0  0  0  0  0
    0.3276    3.7664   -1.1674 H   0  0  0  0  0  0  0  0  0  0  0  0
    0.7185   -0.1220    0.8871 C   0  0  0  0  0  0  0  0  0  0  0  0
    1.1364    0.2965    1.9620 O   0  0  0  0  0  0  0  0  0  0  0  0
    1.3738   -1.1818    0.2865 N   0  0  0  0  0  0  0  0  0  0  0  0
    0.8046   -1.6779   -0.3956 H   0  0  0  0  0  0  0  0  0  0  0  0
    2.3812   -1.9620    0.9947 C   0  0  0  0  0  0  0  0  0  0  0  0
    1.9446   -2.4340    1.8812 H   0  0  0  0  0  0  0  0  0  0  0  0
    2.7773   -2.7461    0.3426 H   0  0  0  0  0  0  0  0  0  0  0  0
    3.2132   -1.3231    1.3087 H   0  0  0  0  0  0  0  0  0  0  0  0
  1  2  1  0  0  0  0
  2  3  1  0  0  0  0
  2  4  1  0  0  0  0
  2  5  1  0  0  0  0
  5  6  2  0  0  0  0
  5  7  1  0  0  0  0
  7  8  1  0  0  0  0
  7  9  1  0  0  0  0
  9 10  1  0  0  0  0
  9 11  1  0  0  0  0
  9 24  1  0  0  0  0
 11 12  1  0  0  0  0
 11 13  1  0  0  0  0
 11 14  1  0  0  0  0
 14 15  1  0  0  0  0
 14 16  1  0  0  0  0
 14 20  1  0  0  0  0
 16 17  1  0  0  0  0
 16 18  1  0  0  0  0
 16 19  1  0  0  0  0
 20 21  1  0  0  0  0
 20 22  1  0  0  0  0
 20 23  1  0  0  0  0
 24 25  2  0  0  0  0
 24 26  1  0  0  0  0
 26 27  1  0  0  0  0
 26 28  1  0  0  0  0
 28 29  1  0  0  0  0
 28 30  1  0  0  0  0
 28 31  1  0  0  0  0
M  END
$$$$

  -OEChem-01062216083D

 31 30  0     1  0  0  0  0  0999 V2000
   -3.6646   -2.5996    0.9378 H   0  0  0  0  0  0  0  0  0  0  0  0
   -3.5400   -1.5991    0.5135 C   0  0  0  0  0  0  0  0  0  0  0  0
   -4.0196   -0.8761    1.1778 H   0  0  0  0  0  0  0  0  0  0  0  0
   -4.0271   -1.5673   -0.4640 H   0  0  0  0  0  0  0  0  0  0  0  0
   -2.0653   -1.2723    0.3700 C   0  0  0  0  0  0  0  0  0  0  0  0
   -1.2437   -2.1525    0.5573 O   0  0  0  0  0  0  0  0  0  0  0  0
   -1.6991   -0.0232   -0.1002 N   0  0  0  0  0  0  0  0  0  0  0  0
   -2.4846    0.5989   -0.2619 H   0  0  0  0  0  0  0  0  0  0  0  0
   -0.3918    0.6479    0.0789 C   0  0  1  0  0  0  0  0  0  0  0  0
    0.0442    0.7978   -0.9113 H   0  0  0  0  0  0  0  0  0  0  0  0
   -0.6678    2.0289    0.7188 C   0  0  0  0  0  0  0  0  0  0  0  0
   -1.2177    1.8752    1.6542 H   0  0  0  0  0  0  0  0  0  0  0  0
    0.2881    2.4957    0.9821 H   0  0  0  0  0  0  0  0  0  0  0  0
   -1.4514    3.0098   -0.1833 C   0  0  0  0  0  0  0  0  0  0  0  0
   -2.3931    2.5495   -0.4977 H   0  0  0  0  0  0  0  0  0  0  0  0
   -1.7840    4.2713    0.6218 C   0  0  0  0  0  0  0  0  0  0  0  0
   -0.8683    4.7700    0.9557 H   0  0  0  0  0  0  0  0  0  0  0  0
   -2.3591    4.9743    0.0112 H   0  0  0  0  0  0  0  0  0  0  0  0
   -2.3814    4.0167    1.5026 H   0  0  0  0  0  0  0  0  0  0  0  0
   -0.6564    3.4100   -1.4348 C   0  0  0  0  0  0  0  0  0  0  0  0
   -0.5314    2.5584   -2.1089 H   0  0  0  0  0  0  0  0  0  0  0  0
   -1.1843    4.1950   -1.9853 H   0  0  0  0  0  0  0  0  0  0  0  0
    0.3335    3.7875   -1.1588 H   0  0  0  0  0  0  0  0  0  0  0  0
    0.6991   -0.1138    0.8828 C   0  0  0  0  0  0  0  0  0  0  0  0
    0.9011    0.1421    2.0655 O   0  0  0  0  0  0  0  0  0  0  0  0
    1.5745   -0.9535    0.2176 N   0  0  0  0  0  0  0  0  0  0  0  0
    1.2252   -1.3222   -0.6623 H   0  0  0  0  0  0  0  0  0  0  0  0
    2.5685   -1.7466    0.9298 C   0  0  0  0  0  0  0  0  0  0  0  0
    2.0785   -2.4319    1.6295 H   0  0  0  0  0  0  0  0  0  0  0  0
    3.1598   -2.3353    0.2223 H   0  0  0  0  0  0  0  0  0  0  0  0
    3.2496   -1.0976    1.4900 H   0  0  0  0  0  0  0  0  0  0  0  0
  1  2  1  0  0  0  0
  2  3  1  0  0  0  0
  2  4  1  0  0  0  0
  2  5  1  0  0  0  0
  5  6  2  0  0  0  0
  5  7  1  0  0  0  0
  7  8  1  0  0  0  0
  7  9  1  0  0  0  0
  9 10  1  0  0  0  0
  9 11  1  0  0  0  0
  9 24  1  0  0  0  0
 11 12  1  0  0  0  0
 11 13  1  0  0  0  0
 11 14  1  0  0  0  0
 14 15  1  0  0  0  0
 14 16  1  0  0  0  0
 14 20  1  0  0  0  0
 16 17  1  0  0  0  0
 16 18  1  0  0  0  0
 16 19  1  0  0  0  0
 20 21  1  0  0  0  0
 20 22  1  0  0  0  0
 20 23  1  0  0  0  0
 24 25  2  0  0  0  0
 24 26  1  0  0  0  0
 26 27  1  0  0  0  0
 26 28  1  0  0  0  0
 28 29  1  0  0  0  0
 28 30  1  0  0  0  0
 28 31  1  0  0  0  0
M  END
$$$$

  -OEChem-01062216083D

 31 30  0     1  0  0  0  0  0999 V2000
   -3.6180   -2.6164    0.9515 H   0  0  0  0  0  0  0  0  0  0  0  0
   -3.5116   -1.6031    0.5536 C   0  0  0  0  0  0  0  0  0  0  0  0
   -3.9466   -0.8997    1.2676 H   0  0  0  0  0  0  0  0  0  0  0  0
   -4.0540   -1.5368   -0.3925 H   0  0  0  0  0  0  0  0  0  0  0  0
   -2.0455   -1.2793    0.3365 C   0  0  0  0  0  0  0  0  0  0  0  0
   -1.2179   -2.1673    0.4503 O   0  0  0  0  0  0  0  0  0  0  0  0
   -1.6970   -0.0279   -0.1405 N   0  0  0  0  0  0  0  0  0  0  0  0
   -2.4892    0.5961   -0.2539 H   0  0  0  0  0  0  0  0  0  0  0  0
   -0.3948    0.6463    0.0547 C   0  0  1  0  0  0  0  0  0  0  0  0
    0.0503    0.8017   -0.9304 H   0  0  0  0  0  0  0  0  0  0  0  0
   -0.6723    2.0204    0.7052 C   0  0  0  0  0  0  0  0  0  0  0  0
   -1.2294    1.8588    1.6349 H   0  0  0  0  0  0  0  0  0  0  0  0
    0.2831    2.4810    0.9804 H   0  0  0  0  0  0  0  0  0  0  0  0
   -1.4499    3.0099   -0.1919 C   0  0  0  0  0  0  0  0  0  0  0  0
   -2.3910    2.5536   -0.5138 H   0  0  0  0  0  0  0  0  0  0  0  0
   -1.7851    4.2645    0.6232 C   0  0  0  0  0  0  0  0  0  0  0  0
   -0.8702    4.7635    0.9591 H   0  0  0  0  0  0  0  0  0  0  0  0
   -2.3641    4.9702    0.0191 H   0  0  0  0  0  0  0  0  0  0  0  0
   -2.3800    4.0010    1.5034 H   0  0  0  0  0  0  0  0  0  0  0  0
   -0.6504    3.4174   -1.4381 C   0  0  0  0  0  0  0  0  0  0  0  0
   -0.5252    2.5699   -2.1172 H   0  0  0  0  0  0  0  0  0  0  0  0
   -1.1757    4.2066   -1.9851 H   0  0  0  0  0  0  0  0  0  0  0  0
    0.3393    3.7914   -1.1568 H   0  0  0  0  0  0  0  0  0  0  0  0
    0.6816   -0.1151    0.8755 C   0  0  0  0  0  0  0  0  0  0  0  0
    0.6977   -0.0328    2.0994 O   0  0  0  0  0  0  0  0  0  0  0  0
    1.7526   -0.7048    0.2278 N   0  0  0  0  0  0  0  0  0  0  0  0
    1.6136   -0.9097   -0.7568 H   0  0  0  0  0  0  0  0  0  0  0  0
    2.7620   -1.4728    0.9461 C   0  0  0  0  0  0  0  0  0  0  0  0
    2.3007   -2.3246    1.4573 H   0  0  0  0  0  0  0  0  0  0  0  0
    3.5154   -1.8515    0.2491 H   0  0  0  0  0  0  0  0  0  0  0  0
    3.2656   -0.8455    1.6889 H   0  0  0  0  0  0  0  0  0  0  0  0
  1  2  1  0  0  0  0
  2  3  1  0  0  0  0
  2  4  1  0  0  0  0
  2  5  1  0  0  0  0
  5  6  2  0  0  0  0
  5  7  1  0  0  0  0
  7  8  1  0  0  0  0
  7  9  1  0  0  0  0
  9 10  1  0  0  0  0
  9 11  1  0  0  0  0
  9 24  1  0  0  0  0
 11 12  1  0  0  0  0
 11 13  1  0  0  0  0
 11 14  1  0  0  0  0
 14 15  1  0  0  0  0
 14 16  1  0  0  0  0
 14 20  1  0  0  0  0
 16 17  1  0  0  0  0
 16 18  1  0  0  0  0
 16 19  1  0  0  0  0
 20 21  1  0  0  0  0
 20 22  1  0  0  0  0
 20 23  1  0  0  0  0
 24 25  2  0  0  0  0
 24 26  1  0  0  0  0
 26 27  1  0  0  0  0
 26 28  1  0  0  0  0
 28 29  1  0  0  0  0
 28 30  1  0  0  0  0
 28 31  1  0  0  0  0
M  END
$$$$

  -OEChem-01062216083D

 31 30  0     1  0  0  0  0  0999 V2000
   -3.5904   -2.6150    0.9928 H   0  0  0  0  0  0  0  0  0  0  0  0
   -3.4983   -1.6028    0.5888 C   0  0  0  0  0  0  0  0  0  0  0  0
   -3.8905   -0.8966    1.3243 H   0  0  0  0  0  0  0  0  0  0  0  0
   -4.0886   -1.5331   -0.3277 H   0  0  0  0  0  0  0  0  0  0  0  0
   -2.0430   -1.2901    0.2954 C   0  0  0  0  0  0  0  0  0  0  0  0
   -1.2214   -2.1908    0.3280 O   0  0  0  0  0  0  0  0  0  0  0  0
   -1.7031   -0.0364   -0.1817 N   0  0  0  0  0  0  0  0  0  0  0  0
   -2.4966    0.5921   -0.2511 H   0  0  0  0  0  0  0  0  0  0  0  0
   -0.4018    0.6341    0.0314 C   0  0  1  0  0  0  0  0  0  0  0  0
    0.0511    0.7934   -0.9494 H   0  0  0  0  0  0  0  0  0  0  0  0
   -0.6784    2.0020    0.6938 C   0  0  0  0  0  0  0  0  0  0  0  0
   -1.2443    1.8325    1.6168 H   0  0  0  0  0  0  0  0  0  0  0  0
    0.2767    2.4552    0.9826 H   0  0  0  0  0  0  0  0  0  0  0  0
   -1.4456    3.0036   -0.1992 C   0  0  0  0  0  0  0  0  0  0  0  0
   -2.3854    2.5539   -0.5348 H   0  0  0  0  0  0  0  0  0  0  0  0
   -1.7825    4.2514    0.6253 C   0  0  0  0  0  0  0  0  0  0  0  0
   -0.8686    4.7432    0.9740 H   0  0  0  0  0  0  0  0  0  0  0  0
   -2.3530    4.9655    0.0230 H   0  0  0  0  0  0  0  0  0  0  0  0
   -2.3864    3.9821    1.4976 H   0  0  0  0  0  0  0  0  0  0  0  0
   -0.6323    3.4221   -1.4329 C   0  0  0  0  0  0  0  0  0  0  0  0
   -0.5071    2.5831   -2.1226 H   0  0  0  0  0  0  0  0  0  0  0  0
   -1.1466    4.2231   -1.9733 H   0  0  0  0  0  0  0  0  0  0  0  0
    0.3575    3.7848   -1.1379 H   0  0  0  0  0  0  0  0  0  0  0  0
    0.6646   -0.1281    0.8632 C   0  0  0  0  0  0  0  0  0  0  0  0
    0.5371   -0.2193    2.0799 O   0  0  0  0  0  0  0  0  0  0  0  0
    1.8861   -0.4481    0.2968 N   0  0  0  0  0  0  0  0  0  0  0  0
    1.9210   -0.4701   -0.7174 H   0  0  0  0  0  0  0  0  0  0  0  0
    2.9255   -1.1539    1.0366 C   0  0  0  0  0  0  0  0  0  0  0  0
    2.5531   -2.1218    1.3888 H   0  0  0  0  0  0  0  0  0  0  0  0
    3.7943   -1.3284    0.3950 H   0  0  0  0  0  0  0  0  0  0  0  0
    3.2490   -0.5650    1.9013 H   0  0  0  0  0  0  0  0  0  0  0  0
  1  2  1  0  0  0  0
  2  3  1  0  0  0  0
  2  4  1  0  0  0  0
  2  5  1  0  0  0  0
  5  6  2  0  0  0  0
  5  7  1  0  0  0  0
  7  8  1  0  0  0  0
  7  9  1  0  0  0  0
  9 10  1  0  0  0  0
  9 11  1  0  0  0  0
  9 24  1  0  0  0  0
 11 12  1  0  0  0  0
 11 13  1  0  0  0  0
 11 14  1  0  0  0  0
 14 15  1  0  0  0  0
 14 16  1  0  0  0  0
 14 20  1  0  0  0  0
 16 17  1  0  0  0  0
 16 18  1  0  0  0  0
 16 19  1  0  0  0  0
 20 21  1  0  0  0  0
 20 22  1  0  0  0  0
 20 23  1  0  0  0  0
 24 25  2  0  0  0  0
 24 26  1  0  0  0  0
 26 27  1  0  0  0  0
 26 28  1  0  0  0  0
 28 29  1  0  0  0  0
 28 30  1  0  0  0  0
 28 31  1  0  0  0  0
M  END
$$$$

  -OEChem-01062216083D

 31 30  0     1  0  0  0  0  0999 V2000
   -3.5935   -2.6133    0.9882 H   0  0  0  0  0  0  0  0  0  0  0  0
   -3.4974   -1.5900    0.6138 C   0  0  0  0  0  0  0  0  0  0  0  0
   -3.8383   -0.9008    1.3900 H   0  0  0  0  0  0  0  0  0  0  0  0
   -4.1283   -1.4766   -0.2709 H   0  0  0  0  0  0  0  0  0  0  0  0
   -2.0506   -1.2982    0.2625 C   0  0  0  0  0  0  0  0  0  0  0  0
   -1.2473   -2.2152    0.2224 O   0  0  0  0  0  0  0  0  0  0  0  0
   -1.7075   -0.0461   -0.2149 N   0  0  0  0  0  0  0  0  0  0  0  0
   -2.4973    0.5894   -0.2545 H   0  0  0  0  0  0  0  0  0  0  0  0
   -0.4033    0.6151    0.0092 C   0  0  1  0  0  0  0  0  0  0  0  0
    0.0546    0.7754   -0.9690 H   0  0  0  0  0  0  0  0  0  0  0  0
   -0.6760    1.9765    0.6846 C   0  0  0  0  0  0  0  0  0  0  0  0
   -1.2445    1.8000    1.6045 H   0  0  0  0  0  0  0  0  0  0  0  0
    0.2800    2.4235    0.9803 H   0  0  0  0  0  0  0  0  0  0  0  0
   -1.4357    2.9895   -0.2015 C   0  0  0  0  0  0  0  0  0  0  0  0
   -2.3760    2.5465   -0.5444 H   0  0  0  0  0  0  0  0  0  0  0  0
   -1.7710    4.2310    0.6330 C   0  0  0  0  0  0  0  0  0  0  0  0
   -0.8565    4.7173    0.9874 H   0  0  0  0  0  0  0  0  0  0  0  0
   -2.3385    4.9517    0.0357 H   0  0  0  0  0  0  0  0  0  0  0  0
   -2.3774    3.9558    1.5019 H   0  0  0  0  0  0  0  0  0  0  0  0
   -0.6169    3.4157   -1.4284 C   0  0  0  0  0  0  0  0  0  0  0  0
   -0.4884    2.5811   -2.1228 H   0  0  0  0  0  0  0  0  0  0  0  0
   -1.1289    4.2199   -1.9662 H   0  0  0  0  0  0  0  0  0  0  0  0
    0.3713    3.7767   -1.1260 H   0  0  0  0  0  0  0  0  0  0  0  0
    0.6569   -0.1471    0.8484 C   0  0  0  0  0  0  0  0  0  0  0  0
    0.4294   -0.4006    2.0268 O   0  0  0  0  0  0  0  0  0  0  0  0
    1.9701   -0.1978    0.4134 N   0  0  0  0  0  0  0  0  0  0  0  0
    2.1323   -0.0328   -0.5747 H   0  0  0  0  0  0  0  0  0  0  0  0
    3.0334   -0.8160    1.1967 C   0  0  0  0  0  0  0  0  0  0  0  0
    2.7953   -1.8648    1.4037 H   0  0  0  0  0  0  0  0  0  0  0  0
    3.9795   -0.7766    0.6485 H   0  0  0  0  0  0  0  0  0  0  0  0
    3.1644   -0.2901    2.1482 H   0  0  0  0  0  0  0  0  0  0  0  0
  1  2  1  0  0  0  0
  2  3  1  0  0  0  0
  2  4  1  0  0  0  0
  2  5  1  0  0  0  0
  5  6  2  0  0  0  0
  5  7  1  0  0  0  0
  7  8  1  0  0  0  0
  7  9  1  0  0  0  0
  9 10  1  0  0  0  0
  9 11  1  0  0  0  0
  9 24  1  0  0  0  0
 11 12  1  0  0  0  0
 11 13  1  0  0  0  0
 11 14  1  0  0  0  0
 14 15  1  0  0  0  0
 14 16  1  0  0  0  0
 14 20  1  0  0  0  0
 16 17  1  0  0  0  0
 16 18  1  0  0  0  0
 16 19  1  0  0  0  0
 20 21  1  0  0  0  0
 20 22  1  0  0  0  0
 20 23  1  0  0  0  0
 24 25  2  0  0  0  0
 24 26  1  0  0  0  0
 26 27  1  0  0  0  0
 26 28  1  0  0  0  0
 28 29  1  0  0  0  0
 28 30  1  0  0  0  0
 28 31  1  0  0  0  0
M  END
$$$$

  -OEChem-01062216083D

 31 30  0     1  0  0  0  0  0999 V2000
   -3.5871   -2.6036    1.0130 H   0  0  0  0  0  0  0  0  0  0  0  0
   -3.4915   -1.5773    0.6472 C   0  0  0  0  0  0  0  0  0  0  0  0
   -3.7756   -0.8928    1.4501 H   0  0  0  0  0  0  0  0  0  0  0  0
   -4.1672   -1.4392   -0.2000 H   0  0  0  0  0  0  0  0  0  0  0  0
   -2.0605   -1.3089    0.2211 C   0  0  0  0  0  0  0  0  0  0  0  0
   -1.2874   -2.2433    0.0881 O   0  0  0  0  0  0  0  0  0  0  0  0
   -1.7119   -0.0563   -0.2496 N   0  0  0  0  0  0  0  0  0  0  0  0
   -2.4959    0.5870   -0.2496 H   0  0  0  0  0  0  0  0  0  0  0  0
   -0.4029    0.5923   -0.0125 C   0  0  1  0  0  0  0  0  0  0  0  0
    0.0604    0.7547   -0.9881 H   0  0  0  0  0  0  0  0  0  0  0  0
   -0.6734    1.9484    0.6746 C   0  0  0  0  0  0  0  0  0  0  0  0
   -1.2484    1.7642    1.5892 H   0  0  0  0  0  0  0  0  0  0  0  0
    0.2817    2.3896    0.9814 H   0  0  0  0  0  0  0  0  0  0  0  0
   -1.4222    2.9747   -0.2054 C   0  0  0  0  0  0  0  0  0  0  0  0
   -2.3627    2.5410   -0.5591 H   0  0  0  0  0  0  0  0  0  0  0  0
   -1.7559    4.2087    0.6408 C   0  0  0  0  0  0  0  0  0  0  0  0
   -0.8413    4.6808    1.0143 H   0  0  0  0  0  0  0  0  0  0  0  0
   -2.3080    4.9433    0.0460 H   0  0  0  0  0  0  0  0  0  0  0  0
   -2.3766    3.9277    1.4974 H   0  0  0  0  0  0  0  0  0  0  0  0
   -0.5939    3.4102   -1.4229 C   0  0  0  0  0  0  0  0  0  0  0  0
   -0.4599    2.5807   -2.1222 H   0  0  0  0  0  0  0  0  0  0  0  0
   -1.1024    4.2180   -1.9589 H   0  0  0  0  0  0  0  0  0  0  0  0
    0.3918    3.7697   -1.1110 H   0  0  0  0  0  0  0  0  0  0  0  0
    0.6562   -0.1712    0.8285 C   0  0  0  0  0  0  0  0  0  0  0  0
    0.3613   -0.5938    1.9415 O   0  0  0  0  0  0  0  0  0  0  0  0
    2.0006    0.0388    0.5699 N   0  0  0  0  0  0  0  0  0  0  0  0
    2.2455    0.4104   -0.3422 H   0  0  0  0  0  0  0  0  0  0  0  0
    3.0643   -0.4905    1.4160 C   0  0  0  0  0  0  0  0  0  0  0  0
    2.9765   -1.5785    1.5059 H   0  0  0  0  0  0  0  0  0  0  0  0
    4.0423   -0.2566    0.9852 H   0  0  0  0  0  0  0  0  0  0  0  0
    3.0133   -0.0493    2.4169 H   0  0  0  0  0  0  0  0  0  0  0  0
  1  2  1  0  0  0  0
  2  3  1  0  0  0  0
  2  4  1  0  0  0  0
  2  5  1  0  0  0  0
  5  6  2  0  0  0  0
  5  7  1  0  0  0  0
  7  8  1  0  0  0  0
  7  9  1  0  0  0  0
  9 10  1  0  0  0  0
  9 11  1  0  0  0  0
  9 24  1  0  0  0  0
 11 12  1  0  0  0  0
 11 13  1  0  0  0  0
 11 14  1  0  0  0  0
 14 15  1  0  0  0  0
 14 16  1  0  0  0  0
 14 20  1  0  0  0  0
 16 17  1  0  0  0  0
 16 18  1  0  0  0  0
 16 19  1  0  0  0  0
 20 21  1  0  0  0  0
 20 22  1  0  0  0  0
 20 23  1  0  0  0  0
 24 25  2  0  0  0  0
 24 26  1  0  0  0  0
 26 27  1  0  0  0  0
 26 28  1  0  0  0  0
 28 29  1  0  0  0  0
 28 30  1  0  0  0  0
 28 31  1  0  0  0  0
M  END
$$$$

  -OEChem-01062216083D

 31 30  0     1  0  0  0  0  0999 V2000
   -3.6035   -2.5850    1.0049 H   0  0  0  0  0  0  0  0  0  0  0  0
   -3.4886   -1.5488    0.6747 C   0  0  0  0  0  0  0  0  0  0  0  0
   -3.7098   -0.8874    1.5157 H   0  0  0  0  0  0  0  0  0  0  0  0
   -4.1973   -1.3539   -0.1334 H   0  0  0  0  0  0  0  0  0  0  0  0
   -2.0702   -1.3128    0.1917 C   0  0  0  0  0  0  0  0  0  0  0  0
   -1.3408   -2.2663   -0.0246 O   0  0  0  0  0  0  0  0  0  0  0  0
   -1.7038   -0.0625   -0.2692 N   0  0  0  0  0  0  0  0  0  0  0  0
   -2.4779    0.5920   -0.2443 H   0  0  0  0  0  0  0  0  0  0  0  0
   -0.3879    0.5700   -0.0240 C   0  0  1  0  0  0  0  0  0  0  0  0
    0.0781    0.7355   -0.9978 H   0  0  0  0  0  0  0  0  0  0  0  0
   -0.6697    1.9219    0.6701 C   0  0  0  0  0  0  0  0  0  0  0  0
   -1.2527    1.7291    1.5778 H   0  0  0  0  0  0  0  0  0  0  0  0
    0.2776    2.3689    0.9904 H   0  0  0  0  0  0  0  0  0  0  0  0
   -1.4127    2.9520   -0.2108 C   0  0  0  0  0  0  0  0  0  0  0  0
   -2.3486    2.5187   -0.5773 H   0  0  0  0  0  0  0  0  0  0  0  0
   -1.7586    4.1793    0.6402 C   0  0  0  0  0  0  0  0  0  0  0  0
   -0.8495    4.6525    1.0250 H   0  0  0  0  0  0  0  0  0  0  0  0
   -2.3077    4.9151    0.0444 H   0  0  0  0  0  0  0  0  0  0  0  0
   -2.3867    3.8914    1.4892 H   0  0  0  0  0  0  0  0  0  0  0  0
   -0.5736    3.3971   -1.4173 C   0  0  0  0  0  0  0  0  0  0  0  0
   -0.4293    2.5721   -2.1200 H   0  0  0  0  0  0  0  0  0  0  0  0
   -1.0802    4.2053   -1.9540 H   0  0  0  0  0  0  0  0  0  0  0  0
    0.4074    3.7591   -1.0936 H   0  0  0  0  0  0  0  0  0  0  0  0
    0.6792   -0.1890    0.8153 C   0  0  0  0  0  0  0  0  0  0  0  0
    0.3573   -0.7949    1.8308 O   0  0  0  0  0  0  0  0  0  0  0  0
    1.9912    0.2550    0.7659 N   0  0  0  0  0  0  0  0  0  0  0  0
    2.2606    0.8247   -0.0296 H   0  0  0  0  0  0  0  0  0  0  0  0
    3.0318   -0.2063    1.6785 C   0  0  0  0  0  0  0  0  0  0  0  0
    3.1185   -1.2975    1.6404 H   0  0  0  0  0  0  0  0  0  0  0  0
    3.9975    0.2268    1.4010 H   0  0  0  0  0  0  0  0  0  0  0  0
    2.8015    0.0936    2.7063 H   0  0  0  0  0  0  0  0  0  0  0  0
  1  2  1  0  0  0  0
  2  3  1  0  0  0  0
  2  4  1  0  0  0  0
  2  5  1  0  0  0  0
  5  6  2  0  0  0  0
  5  7  1  0  0  0  0
  7  8  1  0  0  0  0
  7  9  1  0  0  0  0
  9 10  1  0  0  0  0
  9 11  1  0  0  0  0
  9 24  1  0  0  0  0
 11 12  1  0  0  0  0
 11 13  1  0  0  0  0
 11 14  1  0  0  0  0
 14 15  1  0  0  0  0
 14 16  1  0  0  0  0
 14 20  1  0  0  0  0
 16 17  1  0  0  0  0
 16 18  1  0  0  0  0
 16 19  1  0  0  0  0
 20 21  1  0  0  0  0
 20 22  1  0  0  0  0
 20 23  1  0  0  0  0
 24 25  2  0  0  0  0
 24 26  1  0  0  0  0
 26 27  1  0  0  0  0
 26 28  1  0  0  0  0
 28 29  1  0  0  0  0
 28 30  1  0  0  0  0
 28 31  1  0  0  0  0
M  END
$$$$

  -OEChem-01062216083D

 31 30  0     1  0  0  0  0  0999 V2000
   -3.4919   -2.8081    0.8874 H   0  0  0  0  0  0  0  0  0  0  0  0
   -3.2976   -1.9531    0.2338 C   0  0  0  0  0  0  0  0  0  0  0  0
   -4.2311   -1.4080    0.0765 H   0  0  0  0  0  0  0  0  0  0  0  0
   -2.9293   -2.3238   -0.7258 H   0  0  0  0  0  0  0  0  0  0  0  0
   -2.2620   -1.0425    0.8655 C   0  0  0  0  0  0  0  0  0  0  0  0
   -1.9387   -1.2087    2.0311 O   0  0  0  0  0  0  0  0  0  0  0  0
   -1.8810    0.1190    0.2196 N   0  0  0  0  0  0  0  0  0  0  0  0
   -2.3615    0.2419   -0.6652 H   0  0  0  0  0  0  0  0  0  0  0  0
   -0.5063    0.6718    0.2446 C   0  0  1  0  0  0  0  0  0  0  0  0
   -0.2393    0.9630   -0.7735 H   0  0  0  0  0  0  0  0  0  0  0  0
   -0.5725    1.9251    1.1505 C   0  0  0  0  0  0  0  0  0  0  0  0
   -0.9709    1.6211    2.1256 H   0  0  0  0  0  0  0  0  0  0  0  0
    0.4342    2.3158    1.3242 H   0  0  0  0  0  0  0  0  0  0  0  0
   -1.4339    3.0759    0.5829 C   0  0  0  0  0  0  0  0  0  0  0  0
   -2.4445    2.7079    0.3770 H   0  0  0  0  0  0  0  0  0  0  0  0
   -1.5393    4.1875    1.6335 C   0  0  0  0  0  0  0  0  0  0  0  0
   -0.5505    4.5944    1.8682 H   0  0  0  0  0  0  0  0  0  0  0  0
   -2.1717    5.0019    1.2664 H   0  0  0  0  0  0  0  0  0  0  0  0
   -1.9838    3.8000    2.5557 H   0  0  0  0  0  0  0  0  0  0  0  0
   -0.8479    3.6597   -0.7109 C   0  0  0  0  0  0  0  0  0  0  0  0
   -0.8966    2.9327   -1.5258 H   0  0  0  0  0  0  0  0  0  0  0  0
   -1.4160    4.5431   -1.0193 H   0  0  0  0  0  0  0  0  0  0  0  0
    0.1961    3.9540   -0.5642 H   0  0  0  0  0  0  0  0  0  0  0  0
    0.6662   -0.2420    0.7151 C   0  0  0  0  0  0  0  0  0  0  0  0
    0.6027   -1.4606    0.6063 O   0  0  0  0  0  0  0  0  0  0  0  0
    1.9496    0.2824    0.7418 N   0  0  0  0  0  0  0  0  0  0  0  0
    2.0401    1.2931    0.7396 H   0  0  0  0  0  0  0  0  0  0  0  0
    3.1495   -0.5253    0.9349 C   0  0  0  0  0  0  0  0  0  0  0  0
    3.2910   -1.2094    0.0915 H   0  0  0  0  0  0  0  0  0  0  0  0
    4.0311    0.1183    1.0093 H   0  0  0  0  0  0  0  0  0  0  0  0
    3.0718   -1.1126    1.8562 H   0  0  0  0  0  0  0  0  0  0  0  0
  1  2  1  0  0  0  0
  2  3  1  0  0  0  0
  2  4  1  0  0  0  0
  2  5  1  0  0  0  0
  5  6  2  0  0  0  0
  5  7  1  0  0  0  0
  7  8  1  0  0  0  0
  7  9  1  0  0  0  0
  9 10  1  0  0  0  0
  9 11  1  0  0  0  0
  9 24  1  0  0  0  0
 11 12  1  0  0  0  0
 11 13  1  0  0  0  0
 11 14  1  0  0  0  0
 14 15  1  0  0  0  0
 14 16  1  0  0  0  0
 14 20  1  0  0  0  0
 16 17  1  0  0  0  0
 16 18  1  0  0  0  0
 16 19  1  0  0  0  0
 20 21  1  0  0  0  0
 20 22  1  0  0  0  0
 20 23  1  0  0  0  0
 24 25  2  0  0  0  0
 24 26  1  0  0  0  0
 26 27  1  0  0  0  0
 26 28  1  0  0  0  0
 28 29  1  0  0  0  0
 28 30  1  0  0  0  0
 28 31  1  0  0  0  0
M  END
$$$$

  -OEChem-01062216083D

 31 30  0     1  0  0  0  0  0999 V2000
   -3.4682   -2.8035    0.8886 H   0  0  0  0  0  0  0  0  0  0  0  0
   -3.2948   -1.9348    0.2473 C   0  0  0  0  0  0  0  0  0  0  0  0
   -4.2285   -1.3766    0.1475 H   0  0  0  0  0  0  0  0  0  0  0  0
   -2.9773   -2.2856   -0.7376 H   0  0  0  0  0  0  0  0  0  0  0  0
   -2.2203   -1.0499    0.8503 C   0  0  0  0  0  0  0  0  0  0  0  0
   -1.8238   -1.2655    1.9850 O   0  0  0  0  0  0  0  0  0  0  0  0
   -1.8615    0.1252    0.2152 N   0  0  0  0  0  0  0  0  0  0  0  0
   -2.3609    0.2656   -0.6565 H   0  0  0  0  0  0  0  0  0  0  0  0
   -0.4943    0.6958    0.2372 C   0  0  1  0  0  0  0  0  0  0  0  0
   -0.2250    0.9918   -0.7789 H   0  0  0  0  0  0  0  0  0  0  0  0
   -0.5759    1.9496    1.1431 C   0  0  0  0  0  0  0  0  0  0  0  0
   -0.9658    1.6421    2.1203 H   0  0  0  0  0  0  0  0  0  0  0  0
    0.4239    2.3601    1.3083 H   0  0  0  0  0  0  0  0  0  0  0  0
   -1.4546    3.0871    0.5748 C   0  0  0  0  0  0  0  0  0  0  0  0
   -2.4603    2.7042    0.3727 H   0  0  0  0  0  0  0  0  0  0  0  0
   -1.5748    4.1996    1.6229 C   0  0  0  0  0  0  0  0  0  0  0  0
   -0.5917    4.6224    1.8537 H   0  0  0  0  0  0  0  0  0  0  0  0
   -2.2210    5.0029    1.2555 H   0  0  0  0  0  0  0  0  0  0  0  0
   -2.0110    3.8078    2.5473 H   0  0  0  0  0  0  0  0  0  0  0  0
   -0.8816    3.6752   -0.7227 C   0  0  0  0  0  0  0  0  0  0  0  0
   -0.9251    2.9455   -1.5356 H   0  0  0  0  0  0  0  0  0  0  0  0
   -1.4619    4.5507   -1.0308 H   0  0  0  0  0  0  0  0  0  0  0  0
    0.1595    3.9825   -0.5816 H   0  0  0  0  0  0  0  0  0  0  0  0
    0.6642   -0.2418    0.6952 C   0  0  0  0  0  0  0  0  0  0  0  0
    0.6617   -1.4164    0.3431 O   0  0  0  0  0  0  0  0  0  0  0  0
    1.8993    0.2829    1.0436 N   0  0  0  0  0  0  0  0  0  0  0  0
    1.9323    1.2662    1.2909 H   0  0  0  0  0  0  0  0  0  0  0  0
    3.0799   -0.5377    1.2916 C   0  0  0  0  0  0  0  0  0  0  0  0
    3.3767   -1.0684    0.3809 H   0  0  0  0  0  0  0  0  0  0  0  0
    3.9163    0.0903    1.6128 H   0  0  0  0  0  0  0  0  0  0  0  0
    2.8772   -1.2729    2.0776 H   0  0  0  0  0  0  0  0  0  0  0  0
  1  2  1  0  0  0  0
  2  3  1  0  0  0  0
  2  4  1  0  0  0  0
  2  5  1  0  0  0  0
  5  6  2  0  0  0  0
  5  7  1  0  0  0  0
  7  8  1  0  0  0  0
  7  9  1  0  0  0  0
  9 10  1  0  0  0  0
  9 11  1  0  0  0  0
  9 24  1  0  0  0  0
 11 12  1  0  0  0  0
 11 13  1  0  0  0  0
 11 14  1  0  0  0  0
 14 15  1  0  0  0  0
 14 16  1  0  0  0  0
 14 20  1  0  0  0  0
 16 17  1  0  0  0  0
 16 18  1  0  0  0  0
 16 19  1  0  0  0  0
 20 21  1  0  0  0  0
 20 22  1  0  0  0  0
 20 23  1  0  0  0  0
 24 25  2  0  0  0  0
 24 26  1  0  0  0  0
 26 27  1  0  0  0  0
 26 28  1  0  0  0  0
 28 29  1  0  0  0  0
 28 30  1  0  0  0  0
 28 31  1  0  0  0  0
M  END
$$$$

  -OEChem-01062216083D

 31 30  0     1  0  0  0  0  0999 V2000
   -3.4252   -2.8186    0.8785 H   0  0  0  0  0  0  0  0  0  0  0  0
   -3.2818   -1.9308    0.2564 C   0  0  0  0  0  0  0  0  0  0  0  0
   -4.2204   -1.3736    0.2137 H   0  0  0  0  0  0  0  0  0  0  0  0
   -3.0058   -2.2506   -0.7514 H   0  0  0  0  0  0  0  0  0  0  0  0
   -2.1846   -1.0603    0.8387 C   0  0  0  0  0  0  0  0  0  0  0  0
   -1.7318   -1.3158    1.9437 O   0  0  0  0  0  0  0  0  0  0  0  0
   -1.8492    0.1278    0.2144 N   0  0  0  0  0  0  0  0  0  0  0  0
   -2.3691    0.2836   -0.6430 H   0  0  0  0  0  0  0  0  0  0  0  0
   -0.4911    0.7185    0.2302 C   0  0  1  0  0  0  0  0  0  0  0  0
   -0.2283    1.0173   -0.7869 H   0  0  0  0  0  0  0  0  0  0  0  0
   -0.5741    1.9739    1.1329 C   0  0  0  0  0  0  0  0  0  0  0  0
   -0.9480    1.6678    2.1168 H   0  0  0  0  0  0  0  0  0  0  0  0
    0.4249    2.3950    1.2778 H   0  0  0  0  0  0  0  0  0  0  0  0
   -1.4678    3.1017    0.5681 C   0  0  0  0  0  0  0  0  0  0  0  0
   -2.4716    2.7086    0.3771 H   0  0  0  0  0  0  0  0  0  0  0  0
   -1.5880    4.2169    1.6133 C   0  0  0  0  0  0  0  0  0  0  0  0
   -0.6070    4.6508    1.8317 H   0  0  0  0  0  0  0  0  0  0  0  0
   -2.2463    5.0120    1.2493 H   0  0  0  0  0  0  0  0  0  0  0  0
   -2.0101    3.8245    2.5441 H   0  0  0  0  0  0  0  0  0  0  0  0
   -0.9126    3.6911   -0.7369 C   0  0  0  0  0  0  0  0  0  0  0  0
   -0.9546    2.9579   -1.5467 H   0  0  0  0  0  0  0  0  0  0  0  0
   -1.5051    4.5589   -1.0436 H   0  0  0  0  0  0  0  0  0  0  0  0
    0.1259    4.0106   -0.6056 H   0  0  0  0  0  0  0  0  0  0  0  0
    0.6618   -0.2323    0.6713 C   0  0  0  0  0  0  0  0  0  0  0  0
    0.7408   -1.3351    0.1402 O   0  0  0  0  0  0  0  0  0  0  0  0
    1.7963    0.2384    1.3132 N   0  0  0  0  0  0  0  0  0  0  0  0
    1.7205    1.1381    1.7757 H   0  0  0  0  0  0  0  0  0  0  0  0
    2.9371   -0.6117    1.6347 C   0  0  0  0  0  0  0  0  0  0  0  0
    3.3917   -1.0059    0.7198 H   0  0  0  0  0  0  0  0  0  0  0  0
    3.6952   -0.0383    2.1767 H   0  0  0  0  0  0  0  0  0  0  0  0
    2.6228   -1.4520    2.2629 H   0  0  0  0  0  0  0  0  0  0  0  0
  1  2  1  0  0  0  0
  2  3  1  0  0  0  0
  2  4  1  0  0  0  0
  2  5  1  0  0  0  0
  5  6  2  0  0  0  0
  5  7  1  0  0  0  0
  7  8  1  0  0  0  0
  7  9  1  0  0  0  0
  9 10  1  0  0  0  0
  9 11  1  0  0  0  0
  9 24  1  0  0  0  0
 11 12  1  0  0  0  0
 11 13  1  0  0  0  0
 11 14  1  0  0  0  0
 14 15  1  0  0  0  0
 14 16  1  0  0  0  0
 14 20  1  0  0  0  0
 16 17  1  0  0  0  0
 16 18  1  0  0  0  0
 16 19  1  0  0  0  0
 20 21  1  0  0  0  0
 20 22  1  0  0  0  0
 20 23  1  0  0  0  0
 24 25  2  0  0  0  0
 24 26  1  0  0  0  0
 26 27  1  0  0  0  0
 26 28  1  0  0  0  0
 28 29  1  0  0  0  0
 28 30  1  0  0  0  0
 28 31  1  0  0  0  0
M  END
$$$$

  -OEChem-01062216083D

 31 30  0     1  0  0  0  0  0999 V2000
   -3.3713   -2.8516    0.8449 H   0  0  0  0  0  0  0  0  0  0  0  0
   -3.2770   -1.9303    0.2633 C   0  0  0  0  0  0  0  0  0  0  0  0
   -4.2239   -1.3869    0.3052 H   0  0  0  0  0  0  0  0  0  0  0  0
   -3.0574   -2.1937   -0.7743 H   0  0  0  0  0  0  0  0  0  0  0  0
   -2.1596   -1.0721    0.8253 C   0  0  0  0  0  0  0  0  0  0  0  0
   -1.6636   -1.3586    1.9039 O   0  0  0  0  0  0  0  0  0  0  0  0
   -1.8402    0.1248    0.2085 N   0  0  0  0  0  0  0  0  0  0  0  0
   -2.3758    0.2940   -0.6367 H   0  0  0  0  0  0  0  0  0  0  0  0
   -0.4900    0.7318    0.2230 C   0  0  1  0  0  0  0  0  0  0  0  0
   -0.2322    1.0330   -0.7950 H   0  0  0  0  0  0  0  0  0  0  0  0
   -0.5722    1.9879    1.1227 C   0  0  0  0  0  0  0  0  0  0  0  0
   -0.9388    1.6832    2.1096 H   0  0  0  0  0  0  0  0  0  0  0  0
    0.4293    2.4086    1.2566 H   0  0  0  0  0  0  0  0  0  0  0  0
   -1.4736    3.1110    0.5621 C   0  0  0  0  0  0  0  0  0  0  0  0
   -2.4770    2.7142    0.3765 H   0  0  0  0  0  0  0  0  0  0  0  0
   -1.5908    4.2274    1.6065 C   0  0  0  0  0  0  0  0  0  0  0  0
   -0.6105    4.6680    1.8150 H   0  0  0  0  0  0  0  0  0  0  0  0
   -2.2574    5.0179    1.2479 H   0  0  0  0  0  0  0  0  0  0  0  0
   -2.0016    3.8338    2.5416 H   0  0  0  0  0  0  0  0  0  0  0  0
   -0.9268    3.7016   -0.7461 C   0  0  0  0  0  0  0  0  0  0  0  0
   -0.9700    2.9683   -1.5558 H   0  0  0  0  0  0  0  0  0  0  0  0
   -1.5235    4.5675   -1.0499 H   0  0  0  0  0  0  0  0  0  0  0  0
    0.1115    4.0246   -0.6208 H   0  0  0  0  0  0  0  0  0  0  0  0
    0.6639   -0.2189    0.6550 C   0  0  0  0  0  0  0  0  0  0  0  0
    0.8477   -1.2332   -0.0091 O   0  0  0  0  0  0  0  0  0  0  0  0
    1.6503    0.1589    1.5513 N   0  0  0  0  0  0  0  0  0  0  0  0
    1.4301    0.9407    2.1596 H   0  0  0  0  0  0  0  0  0  0  0  0
    2.7407   -0.7288    1.9371 C   0  0  0  0  0  0  0  0  0  0  0  0
    3.3529   -0.9861    1.0664 H   0  0  0  0  0  0  0  0  0  0  0  0
    3.3819   -0.2403    2.6768 H   0  0  0  0  0  0  0  0  0  0  0  0
    2.3455   -1.6516    2.3750 H   0  0  0  0  0  0  0  0  0  0  0  0
  1  2  1  0  0  0  0
  2  3  1  0  0  0  0
  2  4  1  0  0  0  0
  2  5  1  0  0  0  0
  5  6  2  0  0  0  0
  5  7  1  0  0  0  0
  7  8  1  0  0  0  0
  7  9  1  0  0  0  0
  9 10  1  0  0  0  0
  9 11  1  0  0  0  0
  9 24  1  0  0  0  0
 11 12  1  0  0  0  0
 11 13  1  0  0  0  0
 11 14  1  0  0  0  0
 14 15  1  0  0  0  0
 14 16  1  0  0  0  0
 14 20  1  0  0  0  0
 16 17  1  0  0  0  0
 16 18  1  0  0  0  0
 16 19  1  0  0  0  0
 20 21  1  0  0  0  0
 20 22  1  0  0  0  0
 20 23  1  0  0  0  0
 24 25  2  0  0  0  0
 24 26  1  0  0  0  0
 26 27  1  0  0  0  0
 26 28  1  0  0  0  0
 28 29  1  0  0  0  0
 28 30  1  0  0  0  0
 28 31  1  0  0  0  0
M  END
$$$$

  -OEChem-01062216083D

 31 30  0     1  0  0  0  0  0999 V2000
   -3.3911   -2.8448    0.8315 H   0  0  0  0  0  0  0  0  0  0  0  0
   -3.2981   -1.9144    0.2644 C   0  0  0  0  0  0  0  0  0  0  0  0
   -4.2316   -1.3536    0.3501 H   0  0  0  0  0  0  0  0  0  0  0  0
   -3.1210   -2.1614   -0.7851 H   0  0  0  0  0  0  0  0  0  0  0  0
   -2.1446   -1.0895    0.8028 C   0  0  0  0  0  0  0  0  0  0  0  0
   -1.6095   -1.4171    1.8502 O   0  0  0  0  0  0  0  0  0  0  0  0
   -1.8256    0.1127    0.1961 N   0  0  0  0  0  0  0  0  0  0  0  0
   -2.3795    0.3083   -0.6317 H   0  0  0  0  0  0  0  0  0  0  0  0
   -0.4821    0.7328    0.2160 C   0  0  1  0  0  0  0  0  0  0  0  0
   -0.2268    1.0382   -0.8016 H   0  0  0  0  0  0  0  0  0  0  0  0
   -0.5677    1.9866    1.1167 C   0  0  0  0  0  0  0  0  0  0  0  0
   -0.9352    1.6807    2.1027 H   0  0  0  0  0  0  0  0  0  0  0  0
    0.4357    2.4044    1.2513 H   0  0  0  0  0  0  0  0  0  0  0  0
   -1.4739    3.1071    0.5588 C   0  0  0  0  0  0  0  0  0  0  0  0
   -2.4756    2.7060    0.3732 H   0  0  0  0  0  0  0  0  0  0  0  0
   -1.5944    4.2222    1.6041 C   0  0  0  0  0  0  0  0  0  0  0  0
   -0.6146    4.6617    1.8171 H   0  0  0  0  0  0  0  0  0  0  0  0
   -2.2589    5.0136    1.2433 H   0  0  0  0  0  0  0  0  0  0  0  0
   -2.0096    3.8281    2.5371 H   0  0  0  0  0  0  0  0  0  0  0  0
   -0.9300    3.7023   -0.7484 C   0  0  0  0  0  0  0  0  0  0  0  0
   -0.9719    2.9710   -1.5599 H   0  0  0  0  0  0  0  0  0  0  0  0
   -1.5290    4.5675   -1.0493 H   0  0  0  0  0  0  0  0  0  0  0  0
    0.1076    4.0273   -0.6227 H   0  0  0  0  0  0  0  0  0  0  0  0
    0.6786   -0.2071    0.6460 C   0  0  0  0  0  0  0  0  0  0  0  0
    0.9965   -1.1095   -0.1203 O   0  0  0  0  0  0  0  0  0  0  0  0
    1.4773    0.0436    1.7492 N   0  0  0  0  0  0  0  0  0  0  0  0
    1.0891    0.6783    2.4398 H   0  0  0  0  0  0  0  0  0  0  0  0
    2.5208   -0.8788    2.1790 C   0  0  0  0  0  0  0  0  0  0  0  0
    3.2738   -1.0015    1.3935 H   0  0  0  0  0  0  0  0  0  0  0  0
    3.0177   -0.4954    3.0751 H   0  0  0  0  0  0  0  0  0  0  0  0
    2.0912   -1.8590    2.4114 H   0  0  0  0  0  0  0  0  0  0  0  0
  1  2  1  0  0  0  0
  2  3  1  0  0  0  0
  2  4  1  0  0  0  0
  2  5  1  0  0  0  0
  5  6  2  0  0  0  0
  5  7  1  0  0  0  0
  7  8  1  0  0  0  0
  7  9  1  0  0  0  0
  9 10  1  0  0  0  0
  9 11  1  0  0  0  0
  9 24  1  0  0  0  0
 11 12  1  0  0  0  0
 11 13  1  0  0  0  0
 11 14  1  0  0  0  0
 14 15  1  0  0  0  0
 14 16  1  0  0  0  0
 14 20  1  0  0  0  0
 16 17  1  0  0  0  0
 16 18  1  0  0  0  0
 16 19  1  0  0  0  0
 20 21  1  0  0  0  0
 20 22  1  0  0  0  0
 20 23  1  0  0  0  0
 24 25  2  0  0  0  0
 24 26  1  0  0  0  0
 26 27  1  0  0  0  0
 26 28  1  0  0  0  0
 28 29  1  0  0  0  0
 28 30  1  0  0  0  0
 28 31  1  0  0  0  0
M  END
$$$$

  -OEChem-01062216083D

 31 30  0     1  0  0  0  0  0999 V2000
   -3.4433   -2.8302    0.8125 H   0  0  0  0  0  0  0  0  0  0  0  0
   -3.3428   -1.8909    0.2612 C   0  0  0  0  0  0  0  0  0  0  0  0
   -4.2578   -1.3075    0.3880 H   0  0  0  0  0  0  0  0  0  0  0  0
   -3.2064   -2.1201   -0.7984 H   0  0  0  0  0  0  0  0  0  0  0  0
   -2.1511   -1.1078    0.7788 C   0  0  0  0  0  0  0  0  0  0  0  0
   -1.5871   -1.4789    1.7955 O   0  0  0  0  0  0  0  0  0  0  0  0
   -1.8186    0.0951    0.1815 N   0  0  0  0  0  0  0  0  0  0  0  0
   -2.3872    0.3231   -0.6281 H   0  0  0  0  0  0  0  0  0  0  0  0
   -0.4786    0.7213    0.2135 C   0  0  1  0  0  0  0  0  0  0  0  0
   -0.2213    1.0296   -0.8029 H   0  0  0  0  0  0  0  0  0  0  0  0
   -0.5672    1.9735    1.1146 C   0  0  0  0  0  0  0  0  0  0  0  0
   -0.9420    1.6683    2.0979 H   0  0  0  0  0  0  0  0  0  0  0  0
    0.4387    2.3835    1.2573 H   0  0  0  0  0  0  0  0  0  0  0  0
   -1.4694    3.0964    0.5556 C   0  0  0  0  0  0  0  0  0  0  0  0
   -2.4710    2.6979    0.3641 H   0  0  0  0  0  0  0  0  0  0  0  0
   -1.5916    4.2086    1.6037 C   0  0  0  0  0  0  0  0  0  0  0  0
   -0.6111    4.6438    1.8225 H   0  0  0  0  0  0  0  0  0  0  0  0
   -2.2521    5.0034    1.2429 H   0  0  0  0  0  0  0  0  0  0  0  0
   -2.0123    3.8128    2.5334 H   0  0  0  0  0  0  0  0  0  0  0  0
   -0.9184    3.6943   -0.7477 C   0  0  0  0  0  0  0  0  0  0  0  0
   -0.9579    2.9653   -1.5614 H   0  0  0  0  0  0  0  0  0  0  0  0
   -1.5143    4.5614   -1.0496 H   0  0  0  0  0  0  0  0  0  0  0  0
    0.1194    4.0172   -0.6162 H   0  0  0  0  0  0  0  0  0  0  0  0
    0.6903   -0.2024    0.6509 C   0  0  0  0  0  0  0  0  0  0  0  0
    1.1778   -0.9496   -0.1889 O   0  0  0  0  0  0  0  0  0  0  0  0
    1.2760   -0.1165    1.9025 N   0  0  0  0  0  0  0  0  0  0  0  0
    0.7020    0.3226    2.6162 H   0  0  0  0  0  0  0  0  0  0  0  0
    2.3034   -1.0524    2.3414 C   0  0  0  0  0  0  0  0  0  0  0  0
    3.1725   -1.0093    1.6766 H   0  0  0  0  0  0  0  0  0  0  0  0
    2.6333   -0.8028    3.3541 H   0  0  0  0  0  0  0  0  0  0  0  0
    1.9121   -2.0752    2.3446 H   0  0  0  0  0  0  0  0  0  0  0  0
  1  2  1  0  0  0  0
  2  3  1  0  0  0  0
  2  4  1  0  0  0  0
  2  5  1  0  0  0  0
  5  6  2  0  0  0  0
  5  7  1  0  0  0  0
  7  8  1  0  0  0  0
  7  9  1  0  0  0  0
  9 10  1  0  0  0  0
  9 11  1  0  0  0  0
  9 24  1  0  0  0  0
 11 12  1  0  0  0  0
 11 13  1  0  0  0  0
 11 14  1  0  0  0  0
 14 15  1  0  0  0  0
 14 16  1  0  0  0  0
 14 20  1  0  0  0  0
 16 17  1  0  0  0  0
 16 18  1  0  0  0  0
 16 19  1  0  0  0  0
 20 21  1  0  0  0  0
 20 22  1  0  0  0  0
 20 23  1  0  0  0  0
 24 25  2  0  0  0  0
 24 26  1  0  0  0  0
 26 27  1  0  0  0  0
 26 28  1  0  0  0  0
 28 29  1  0  0  0  0
 28 30  1  0  0  0  0
 28 31  1  0  0  0  0
M  END
$$$$

  -OEChem-01062216083D

 31 30  0     1  0  0  0  0  0999 V2000
   -3.5470   -2.7921    0.7896 H   0  0  0  0  0  0  0  0  0  0  0  0
   -3.4199   -1.8494    0.2499 C   0  0  0  0  0  0  0  0  0  0  0  0
   -4.3070   -1.2311    0.4065 H   0  0  0  0  0  0  0  0  0  0  0  0
   -3.3175   -2.0674   -0.8160 H   0  0  0  0  0  0  0  0  0  0  0  0
   -2.1858   -1.1237    0.7514 C   0  0  0  0  0  0  0  0  0  0  0  0
   -1.6110   -1.5397    1.7436 O   0  0  0  0  0  0  0  0  0  0  0  0
   -1.8201    0.0738    0.1637 N   0  0  0  0  0  0  0  0  0  0  0  0
   -2.3996    0.3424   -0.6257 H   0  0  0  0  0  0  0  0  0  0  0  0
   -0.4782    0.6962    0.2115 C   0  0  1  0  0  0  0  0  0  0  0  0
   -0.2149    1.0071   -0.8029 H   0  0  0  0  0  0  0  0  0  0  0  0
   -0.5697    1.9449    1.1159 C   0  0  0  0  0  0  0  0  0  0  0  0
   -0.9559    1.6384    2.0942 H   0  0  0  0  0  0  0  0  0  0  0  0
    0.4381    2.3455    1.2723 H   0  0  0  0  0  0  0  0  0  0  0  0
   -1.4617    3.0746    0.5538 C   0  0  0  0  0  0  0  0  0  0  0  0
   -2.4633    2.6811    0.3524 H   0  0  0  0  0  0  0  0  0  0  0  0
   -1.5879    4.1829    1.6056 C   0  0  0  0  0  0  0  0  0  0  0  0
   -0.6075    4.6143    1.8323 H   0  0  0  0  0  0  0  0  0  0  0  0
   -2.2432    4.9812    1.2433 H   0  0  0  0  0  0  0  0  0  0  0  0
   -2.0157    3.7850    2.5312 H   0  0  0  0  0  0  0  0  0  0  0  0
   -0.8970    3.6756   -0.7420 C   0  0  0  0  0  0  0  0  0  0  0  0
   -0.9323    2.9505   -1.5594 H   0  0  0  0  0  0  0  0  0  0  0  0
   -1.4867    4.5465   -1.0450 H   0  0  0  0  0  0  0  0  0  0  0  0
    0.1408    3.9934   -0.5995 H   0  0  0  0  0  0  0  0  0  0  0  0
    0.6993   -0.2083    0.6639 C   0  0  0  0  0  0  0  0  0  0  0  0
    1.3884   -0.7378   -0.1996 O   0  0  0  0  0  0  0  0  0  0  0  0
    1.0687   -0.3224    1.9926 N   0  0  0  0  0  0  0  0  0  0  0  0
    0.3111   -0.1449    2.6479 H   0  0  0  0  0  0  0  0  0  0  0  0
    2.1211   -1.2340    2.4223 C   0  0  0  0  0  0  0  0  0  0  0  0
    3.0682   -0.9873    1.9311 H   0  0  0  0  0  0  0  0  0  0  0  0
    2.2659   -1.1590    3.5042 H   0  0  0  0  0  0  0  0  0  0  0  0
    1.8547   -2.2675    2.1766 H   0  0  0  0  0  0  0  0  0  0  0  0
  1  2  1  0  0  0  0
  2  3  1  0  0  0  0
  2  4  1  0  0  0  0
  2  5  1  0  0  0  0
  5  6  2  0  0  0  0
  5  7  1  0  0  0  0
  7  8  1  0  0  0  0
  7  9  1  0  0  0  0
  9 10  1  0  0  0  0
  9 11  1  0  0  0  0
  9 24  1  0  0  0  0
 11 12  1  0  0  0  0
 11 13  1  0  0  0  0
 11 14  1  0  0  0  0
 14 15  1  0  0  0  0
 14 16  1  0  0  0  0
 14 20  1  0  0  0  0
 16 17  1  0  0  0  0
 16 18  1  0  0  0  0
 16 19  1  0  0  0  0
 20 21  1  0  0  0  0
 20 22  1  0  0  0  0
 20 23  1  0  0  0  0
 24 25  2  0  0  0  0
 24 26  1  0  0  0  0
 26 27  1  0  0  0  0
 26 28  1  0  0  0  0
 28 29  1  0  0  0  0
 28 30  1  0  0  0  0
 28 31  1  0  0  0  0
M  END
$$$$

  -OEChem-01062216083D

 31 30  0     1  0  0  0  0  0999 V2000
   -3.7094   -2.7238    0.7639 H   0  0  0  0  0  0  0  0  0  0  0  0
   -3.5285   -1.7900    0.2238 C   0  0  0  0  0  0  0  0  0  0  0  0
   -4.3765   -1.1201    0.3854 H   0  0  0  0  0  0  0  0  0  0  0  0
   -3.4453   -2.0136   -0.8426 H   0  0  0  0  0  0  0  0  0  0  0  0
   -2.2502   -1.1393    0.7185 C   0  0  0  0  0  0  0  0  0  0  0  0
   -1.6822   -1.6104    1.6887 O   0  0  0  0  0  0  0  0  0  0  0  0
   -1.8330    0.0474    0.1441 N   0  0  0  0  0  0  0  0  0  0  0  0
   -2.4215    0.3675   -0.6192 H   0  0  0  0  0  0  0  0  0  0  0  0
   -0.4848    0.6587    0.2056 C   0  0  1  0  0  0  0  0  0  0  0  0
   -0.2194    0.9727   -0.8075 H   0  0  0  0  0  0  0  0  0  0  0  0
   -0.5749    1.9018    1.1169 C   0  0  0  0  0  0  0  0  0  0  0  0
   -0.9675    1.5922    2.0916 H   0  0  0  0  0  0  0  0  0  0  0  0
    0.4347    2.2942    1.2836 H   0  0  0  0  0  0  0  0  0  0  0  0
   -1.4540    3.0416    0.5557 C   0  0  0  0  0  0  0  0  0  0  0  0
   -2.4570    2.6573    0.3439 H   0  0  0  0  0  0  0  0  0  0  0  0
   -1.5806    4.1437    1.6139 C   0  0  0  0  0  0  0  0  0  0  0  0
   -0.5991    4.5668    1.8514 H   0  0  0  0  0  0  0  0  0  0  0  0
   -2.2278    4.9485    1.2514 H   0  0  0  0  0  0  0  0  0  0  0  0
   -2.0182    3.7426    2.5336 H   0  0  0  0  0  0  0  0  0  0  0  0
   -0.8749    3.6468   -0.7315 C   0  0  0  0  0  0  0  0  0  0  0  0
   -0.9085    2.9267   -1.5532 H   0  0  0  0  0  0  0  0  0  0  0  0
   -1.4563    4.5234   -1.0337 H   0  0  0  0  0  0  0  0  0  0  0  0
    0.1640    3.9565   -0.5793 H   0  0  0  0  0  0  0  0  0  0  0  0
    0.7075   -0.2195    0.6718 C   0  0  0  0  0  0  0  0  0  0  0  0
    1.5782   -0.4961   -0.1441 O   0  0  0  0  0  0  0  0  0  0  0  0
    0.8937   -0.5611    1.9988 N   0  0  0  0  0  0  0  0  0  0  0  0
    0.0204   -0.6247    2.5229 H   0  0  0  0  0  0  0  0  0  0  0  0
    1.9895   -1.4201    2.4289 C   0  0  0  0  0  0  0  0  0  0  0  0
    2.9543   -0.9730    2.1669 H   0  0  0  0  0  0  0  0  0  0  0  0
    1.9575   -1.5559    3.5140 H   0  0  0  0  0  0  0  0  0  0  0  0
    1.9146   -2.4031    1.9524 H   0  0  0  0  0  0  0  0  0  0  0  0
  1  2  1  0  0  0  0
  2  3  1  0  0  0  0
  2  4  1  0  0  0  0
  2  5  1  0  0  0  0
  5  6  2  0  0  0  0
  5  7  1  0  0  0  0
  7  8  1  0  0  0  0
  7  9  1  0  0  0  0
  9 10  1  0  0  0  0
  9 11  1  0  0  0  0
  9 24  1  0  0  0  0
 11 12  1  0  0  0  0
 11 13  1  0  0  0  0
 11 14  1  0  0  0  0
 14 15  1  0  0  0  0
 14 16  1  0  0  0  0
 14 20  1  0  0  0  0
 16 17  1  0  0  0  0
 16 18  1  0  0  0  0
 16 19  1  0  0  0  0
 20 21  1  0  0  0  0
 20 22  1  0  0  0  0
 20 23  1  0  0  0  0
 24 25  2  0  0  0  0
 24 26  1  0  0  0  0
 26 27  1  0  0  0  0
 26 28  1  0  0  0  0
 28 29  1  0  0  0  0
 28 30  1  0  0  0  0
 28 31  1  0  0  0  0
M  END
$$$$

  -OEChem-01062216083D

 31 30  0     1  0  0  0  0  0999 V2000
   -3.8774   -2.6521    0.6594 H   0  0  0  0  0  0  0  0  0  0  0  0
   -3.6674   -1.6812    0.2013 C   0  0  0  0  0  0  0  0  0  0  0  0
   -4.4570   -0.9803    0.4833 H   0  0  0  0  0  0  0  0  0  0  0  0
   -3.6651   -1.8006   -0.8849 H   0  0  0  0  0  0  0  0  0  0  0  0
   -2.3210   -1.1611    0.6695 C   0  0  0  0  0  0  0  0  0  0  0  0
   -1.7533   -1.7364    1.5802 O   0  0  0  0  0  0  0  0  0  0  0  0
   -1.8373    0.0118    0.1196 N   0  0  0  0  0  0  0  0  0  0  0  0
   -2.4437    0.4128   -0.5894 H   0  0  0  0  0  0  0  0  0  0  0  0
   -0.4831    0.6117    0.2010 C   0  0  1  0  0  0  0  0  0  0  0  0
   -0.2123    0.9272   -0.8102 H   0  0  0  0  0  0  0  0  0  0  0  0
   -0.5892    1.8498    1.1166 C   0  0  0  0  0  0  0  0  0  0  0  0
   -0.9964    1.5336    2.0834 H   0  0  0  0  0  0  0  0  0  0  0  0
    0.4176    2.2413    1.3027 H   0  0  0  0  0  0  0  0  0  0  0  0
   -1.4568    2.9948    0.5464 C   0  0  0  0  0  0  0  0  0  0  0  0
   -2.4568    2.6156    0.3130 H   0  0  0  0  0  0  0  0  0  0  0  0
   -1.6004    4.0897    1.6098 C   0  0  0  0  0  0  0  0  0  0  0  0
   -0.6216    4.5024    1.8746 H   0  0  0  0  0  0  0  0  0  0  0  0
   -2.2316    4.9032    1.2388 H   0  0  0  0  0  0  0  0  0  0  0  0
   -2.0634    3.6847    2.5151 H   0  0  0  0  0  0  0  0  0  0  0  0
   -0.8515    3.6058   -0.7260 C   0  0  0  0  0  0  0  0  0  0  0  0
   -0.8753    2.8921   -1.5538 H   0  0  0  0  0  0  0  0  0  0  0  0
   -1.4212    4.4889   -1.0319 H   0  0  0  0  0  0  0  0  0  0  0  0
    0.1868    3.9071   -0.5534 H   0  0  0  0  0  0  0  0  0  0  0  0
    0.7317   -0.2288    0.6823 C   0  0  0  0  0  0  0  0  0  0  0  0
    1.7311   -0.2497   -0.0257 O   0  0  0  0  0  0  0  0  0  0  0  0
    0.7939   -0.8153    1.9319 N   0  0  0  0  0  0  0  0  0  0  0  0
   -0.1222   -1.0347    2.3294 H   0  0  0  0  0  0  0  0  0  0  0  0
    1.9251   -1.6273    2.3619 C   0  0  0  0  0  0  0  0  0  0  0  0
    2.8518   -1.0450    2.3276 H   0  0  0  0  0  0  0  0  0  0  0  0
    1.7726   -1.9692    3.3900 H   0  0  0  0  0  0  0  0  0  0  0  0
    2.0351   -2.5041    1.7154 H   0  0  0  0  0  0  0  0  0  0  0  0
  1  2  1  0  0  0  0
  2  3  1  0  0  0  0
  2  4  1  0  0  0  0
  2  5  1  0  0  0  0
  5  6  2  0  0  0  0
  5  7  1  0  0  0  0
  7  8  1  0  0  0  0
  7  9  1  0  0  0  0
  9 10  1  0  0  0  0
  9 11  1  0  0  0  0
  9 24  1  0  0  0  0
 11 12  1  0  0  0  0
 11 13  1  0  0  0  0
 11 14  1  0  0  0  0
 14 15  1  0  0  0  0
 14 16  1  0  0  0  0
 14 20  1  0  0  0  0
 16 17  1  0  0  0  0
 16 18  1  0  0  0  0
 16 19  1  0  0  0  0
 20 21  1  0  0  0  0
 20 22  1  0  0  0  0
 20 23  1  0  0  0  0
 24 25  2  0  0  0  0
 24 26  1  0  0  0  0
 26 27  1  0  0  0  0
 26 28  1  0  0  0  0
 28 29  1  0  0  0  0
 28 30  1  0  0  0  0
 28 31  1  0  0  0  0
M  END
$$$$

  -OEChem-01062216083D

 31 30  0     1  0  0  0  0  0999 V2000
   -4.0415   -2.5538    0.6339 H   0  0  0  0  0  0  0  0  0  0  0  0
   -3.7744   -1.5933    0.1841 C   0  0  0  0  0  0  0  0  0  0  0  0
   -4.5115   -0.8459    0.4873 H   0  0  0  0  0  0  0  0  0  0  0  0
   -3.7971   -1.6987   -0.9031 H   0  0  0  0  0  0  0  0  0  0  0  0
   -2.3898   -1.1683    0.6371 C   0  0  0  0  0  0  0  0  0  0  0  0
   -1.8394   -1.8152    1.5084 O   0  0  0  0  0  0  0  0  0  0  0  0
   -1.8536   -0.0093    0.1059 N   0  0  0  0  0  0  0  0  0  0  0  0
   -2.4645    0.4449   -0.5664 H   0  0  0  0  0  0  0  0  0  0  0  0
   -0.4912    0.5760    0.1989 C   0  0  1  0  0  0  0  0  0  0  0  0
   -0.2169    0.8916   -0.8112 H   0  0  0  0  0  0  0  0  0  0  0  0
   -0.6056    1.8125    1.1166 C   0  0  0  0  0  0  0  0  0  0  0  0
   -1.0251    1.4934    2.0772 H   0  0  0  0  0  0  0  0  0  0  0  0
    0.3990    2.2026    1.3174 H   0  0  0  0  0  0  0  0  0  0  0  0
   -1.4609    2.9637    0.5397 C   0  0  0  0  0  0  0  0  0  0  0  0
   -2.4596    2.5901    0.2925 H   0  0  0  0  0  0  0  0  0  0  0  0
   -1.6136    4.0551    1.6057 C   0  0  0  0  0  0  0  0  0  0  0  0
   -0.6365    4.4621    1.8858 H   0  0  0  0  0  0  0  0  0  0  0  0
   -2.2356    4.8733    1.2295 H   0  0  0  0  0  0  0  0  0  0  0  0
   -2.0910    3.6486    2.5028 H   0  0  0  0  0  0  0  0  0  0  0  0
   -0.8365    3.5766   -0.7227 C   0  0  0  0  0  0  0  0  0  0  0  0
   -0.8533    2.8659   -1.5534 H   0  0  0  0  0  0  0  0  0  0  0  0
   -1.3981    4.4635   -1.0324 H   0  0  0  0  0  0  0  0  0  0  0  0
    0.2011    3.8719   -0.5359 H   0  0  0  0  0  0  0  0  0  0  0  0
    0.7419   -0.2370    0.6875 C   0  0  0  0  0  0  0  0  0  0  0  0
    1.8046   -0.0515    0.1068 O   0  0  0  0  0  0  0  0  0  0  0  0
    0.7455   -1.0635    1.7931 N   0  0  0  0  0  0  0  0  0  0  0  0
   -0.1787   -1.3561    2.1178 H   0  0  0  0  0  0  0  0  0  0  0  0
    1.8967   -1.8625    2.1924 C   0  0  0  0  0  0  0  0  0  0  0  0
    2.7589   -1.2191    2.3971 H   0  0  0  0  0  0  0  0  0  0  0  0
    1.6648   -2.4264    3.1009 H   0  0  0  0  0  0  0  0  0  0  0  0
    2.1636   -2.5708    1.4013 H   0  0  0  0  0  0  0  0  0  0  0  0
  1  2  1  0  0  0  0
  2  3  1  0  0  0  0
  2  4  1  0  0  0  0
  2  5  1  0  0  0  0
  5  6  2  0  0  0  0
  5  7  1  0  0  0  0
  7  8  1  0  0  0  0
  7  9  1  0  0  0  0
  9 10  1  0  0  0  0
  9 11  1  0  0  0  0
  9 24  1  0  0  0  0
 11 12  1  0  0  0  0
 11 13  1  0  0  0  0
 11 14  1  0  0  0  0
 14 15  1  0  0  0  0
 14 16  1  0  0  0  0
 14 20  1  0  0  0  0
 16 17  1  0  0  0  0
 16 18  1  0  0  0  0
 16 19  1  0  0  0  0
 20 21  1  0  0  0  0
 20 22  1  0  0  0  0
 20 23  1  0  0  0  0
 24 25  2  0  0  0  0
 24 26  1  0  0  0  0
 26 27  1  0  0  0  0
 26 28  1  0  0  0  0
 28 29  1  0  0  0  0
 28 30  1  0  0  0  0
 28 31  1  0  0  0  0
M  END
$$$$

  -OEChem-01062216083D

 31 30  0     1  0  0  0  0  0999 V2000
   -4.1580   -2.4907    0.7370 H   0  0  0  0  0  0  0  0  0  0  0  0
   -3.8717   -1.5413    0.2752 C   0  0  0  0  0  0  0  0  0  0  0  0
   -4.5783   -0.7698    0.5910 H   0  0  0  0  0  0  0  0  0  0  0  0
   -3.9229   -1.6516   -0.8108 H   0  0  0  0  0  0  0  0  0  0  0  0
   -2.4643   -1.1570    0.6930 C   0  0  0  0  0  0  0  0  0  0  0  0
   -1.9172   -1.8147    1.5577 O   0  0  0  0  0  0  0  0  0  0  0  0
   -1.9082   -0.0190    0.1380 N   0  0  0  0  0  0  0  0  0  0  0  0
   -2.5306    0.4484   -0.5144 H   0  0  0  0  0  0  0  0  0  0  0  0
   -0.5305    0.5388    0.1752 C   0  0  1  0  0  0  0  0  0  0  0  0
   -0.2916    0.8425   -0.8473 H   0  0  0  0  0  0  0  0  0  0  0  0
   -0.6019    1.7842    1.0871 C   0  0  0  0  0  0  0  0  0  0  0  0
   -0.9945    1.4760    2.0625 H   0  0  0  0  0  0  0  0  0  0  0  0
    0.4117    2.1662    1.2553 H   0  0  0  0  0  0  0  0  0  0  0  0
   -1.4600    2.9426    0.5292 C   0  0  0  0  0  0  0  0  0  0  0  0
   -2.4705    2.5809    0.3149 H   0  0  0  0  0  0  0  0  0  0  0  0
   -1.5656    4.0425    1.5921 C   0  0  0  0  0  0  0  0  0  0  0  0
   -0.5757    4.4426    1.8344 H   0  0  0  0  0  0  0  0  0  0  0  0
   -2.1934    4.8636    1.2321 H   0  0  0  0  0  0  0  0  0  0  0  0
   -2.0139    3.6465    2.5087 H   0  0  0  0  0  0  0  0  0  0  0  0
   -0.8655    3.5396   -0.7552 C   0  0  0  0  0  0  0  0  0  0  0  0
   -0.9120    2.8234   -1.5797 H   0  0  0  0  0  0  0  0  0  0  0  0
   -1.4266    4.4300   -1.0560 H   0  0  0  0  0  0  0  0  0  0  0  0
    0.1797    3.8258   -0.5995 H   0  0  0  0  0  0  0  0  0  0  0  0
    0.7242   -0.2692    0.6211 C   0  0  0  0  0  0  0  0  0  0  0  0
    1.8002    0.0696    0.1426 O   0  0  0  0  0  0  0  0  0  0  0  0
    0.7380   -1.2989    1.5390 N   0  0  0  0  0  0  0  0  0  0  0  0
   -0.1718   -1.6264    1.8691 H   0  0  0  0  0  0  0  0  0  0  0  0
    1.9306   -2.0482    1.9117 C   0  0  0  0  0  0  0  0  0  0  0  0
    2.6845   -1.3793    2.3394 H   0  0  0  0  0  0  0  0  0  0  0  0
    1.6793   -2.8075    2.6584 H   0  0  0  0  0  0  0  0  0  0  0  0
    2.3574   -2.5494    1.0369 H   0  0  0  0  0  0  0  0  0  0  0  0
  1  2  1  0  0  0  0
  2  3  1  0  0  0  0
  2  4  1  0  0  0  0
  2  5  1  0  0  0  0
  5  6  2  0  0  0  0
  5  7  1  0  0  0  0
  7  8  1  0  0  0  0
  7  9  1  0  0  0  0
  9 10  1  0  0  0  0
  9 11  1  0  0  0  0
  9 24  1  0  0  0  0
 11 12  1  0  0  0  0
 11 13  1  0  0  0  0
 11 14  1  0  0  0  0
 14 15  1  0  0  0  0
 14 16  1  0  0  0  0
 14 20  1  0  0  0  0
 16 17  1  0  0  0  0
 16 18  1  0  0  0  0
 16 19  1  0  0  0  0
 20 21  1  0  0  0  0
 20 22  1  0  0  0  0
 20 23  1  0  0  0  0
 24 25  2  0  0  0  0
 24 26  1  0  0  0  0
 26 27  1  0  0  0  0
 26 28  1  0  0  0  0
 28 29  1  0  0  0  0
 28 30  1  0  0  0  0
 28 31  1  0  0  0  0
M  END
$$$$

  -OEChem-01062216083D

 31 30  0     1  0  0  0  0  0999 V2000
   -3.3939   -2.8876    1.0048 H   0  0  0  0  0  0  0  0  0  0  0  0
   -3.2396   -1.9758    0.4205 C   0  0  0  0  0  0  0  0  0  0  0  0
   -4.1453   -1.3667    0.4731 H   0  0  0  0  0  0  0  0  0  0  0  0
   -3.0541   -2.2542   -0.6196 H   0  0  0  0  0  0  0  0  0  0  0  0
   -2.0588   -1.1972    0.9701 C   0  0  0  0  0  0  0  0  0  0  0  0
   -1.6011   -1.5122    2.0517 O   0  0  0  0  0  0  0  0  0  0  0  0
   -1.6730   -0.0349    0.3338 N   0  0  0  0  0  0  0  0  0  0  0  0
   -2.2690    0.2008   -0.4534 H   0  0  0  0  0  0  0  0  0  0  0  0
   -0.3687    0.6750    0.3443 C   0  0  1  0  0  0  0  0  0  0  0  0
   -0.1529    0.9489   -0.6911 H   0  0  0  0  0  0  0  0  0  0  0  0
   -0.6338    1.9546    1.1788 C   0  0  0  0  0  0  0  0  0  0  0  0
   -1.0118    1.6510    2.1618 H   0  0  0  0  0  0  0  0  0  0  0  0
    0.3068    2.4882    1.3517 H   0  0  0  0  0  0  0  0  0  0  0  0
   -1.6222    2.9528    0.5321 C   0  0  0  0  0  0  0  0  0  0  0  0
   -2.5692    2.4477    0.3174 H   0  0  0  0  0  0  0  0  0  0  0  0
   -1.9055    4.0880    1.5227 C   0  0  0  0  0  0  0  0  0  0  0  0
   -0.9855    4.6310    1.7621 H   0  0  0  0  0  0  0  0  0  0  0  0
   -2.6260    4.7944    1.0989 H   0  0  0  0  0  0  0  0  0  0  0  0
   -2.3251    3.6887    2.4513 H   0  0  0  0  0  0  0  0  0  0  0  0
   -1.0721    3.5504   -0.7714 C   0  0  0  0  0  0  0  0  0  0  0  0
   -1.0050    2.7902   -1.5541 H   0  0  0  0  0  0  0  0  0  0  0  0
   -1.7323    4.3446   -1.1339 H   0  0  0  0  0  0  0  0  0  0  0  0
   -0.0760    3.9754   -0.6099 H   0  0  0  0  0  0  0  0  0  0  0  0
    0.9819    0.0522    0.8336 C   0  0  0  0  0  0  0  0  0  0  0  0
    1.9953    0.7295    0.7394 O   0  0  0  0  0  0  0  0  0  0  0  0
    1.2372   -1.0802    1.5689 N   0  0  0  0  0  0  0  0  0  0  0  0
    2.1442   -0.9975    2.0195 H   0  0  0  0  0  0  0  0  0  0  0  0
    0.9870   -2.3945    0.9896 C   0  0  0  0  0  0  0  0  0  0  0  0
    0.5479   -3.0599    1.7397 H   0  0  0  0  0  0  0  0  0  0  0  0
    0.3076   -2.3363    0.1340 H   0  0  0  0  0  0  0  0  0  0  0  0
    1.9278   -2.8339    0.6439 H   0  0  0  0  0  0  0  0  0  0  0  0
  1  2  1  0  0  0  0
  2  3  1  0  0  0  0
  2  4  1  0  0  0  0
  2  5  1  0  0  0  0
  5  6  2  0  0  0  0
  5  7  1  0  0  0  0
  7  8  1  0  0  0  0
  7  9  1  0  0  0  0
  9 10  1  0  0  0  0
  9 11  1  0  0  0  0
  9 24  1  0  0  0  0
 11 12  1  0  0  0  0
 11 13  1  0  0  0  0
 11 14  1  0  0  0  0
 14 15  1  0  0  0  0
 14 16  1  0  0  0  0
 14 20  1  0  0  0  0
 16 17  1  0  0  0  0
 16 18  1  0  0  0  0
 16 19  1  0  0  0  0
 20 21  1  0  0  0  0
 20 22  1  0  0  0  0
 20 23  1  0  0  0  0
 24 25  2  0  0  0  0
 24 26  1  0  0  0  0
 26 27  1  0  0  0  0
 26 28  1  0  0  0  0
 28 29  1  0  0  0  0
 28 30  1  0  0  0  0
 28 31  1  0  0  0  0
M  END
$$$$

  -OEChem-01062216083D

 31 30  0     1  0  0  0  0  0999 V2000
   -3.7235   -2.8047    0.9590 H   0  0  0  0  0  0  0  0  0  0  0  0
   -3.6045   -1.8638    0.4141 C   0  0  0  0  0  0  0  0  0  0  0  0
   -4.4243   -1.1940    0.6846 H   0  0  0  0  0  0  0  0  0  0  0  0
   -3.6495   -2.0724   -0.6575 H   0  0  0  0  0  0  0  0  0  0  0  0
   -2.2735   -1.2233    0.7616 C   0  0  0  0  0  0  0  0  0  0  0  0
   -1.6263   -1.6839    1.6810 O   0  0  0  0  0  0  0  0  0  0  0  0
   -1.9493   -0.0119    0.1853 N   0  0  0  0  0  0  0  0  0  0  0  0
   -2.6862    0.3366   -0.4195 H   0  0  0  0  0  0  0  0  0  0  0  0
   -0.6168    0.5759   -0.0999 C   0  0  1  0  0  0  0  0  0  0  0  0
   -0.6668    0.9907   -1.1097 H   0  0  0  0  0  0  0  0  0  0  0  0
   -0.4384    1.7172    0.9278 C   0  0  0  0  0  0  0  0  0  0  0  0
   -0.5502    1.2961    1.9332 H   0  0  0  0  0  0  0  0  0  0  0  0
    0.5812    2.1127    0.8562 H   0  0  0  0  0  0  0  0  0  0  0  0
   -1.4188    2.8996    0.7552 C   0  0  0  0  0  0  0  0  0  0  0  0
   -2.4485    2.5294    0.7859 H   0  0  0  0  0  0  0  0  0  0  0  0
   -1.2308    3.8779    1.9208 C   0  0  0  0  0  0  0  0  0  0  0  0
   -0.2137    4.2830    1.9262 H   0  0  0  0  0  0  0  0  0  0  0  0
   -1.9359    4.7109    1.8388 H   0  0  0  0  0  0  0  0  0  0  0  0
   -1.4091    3.3731    2.8755 H   0  0  0  0  0  0  0  0  0  0  0  0
   -1.2001    3.6465   -0.5689 C   0  0  0  0  0  0  0  0  0  0  0  0
   -1.4733    3.0204   -1.4222 H   0  0  0  0  0  0  0  0  0  0  0  0
   -1.8209    4.5473   -0.6046 H   0  0  0  0  0  0  0  0  0  0  0  0
   -0.1520    3.9445   -0.6749 H   0  0  0  0  0  0  0  0  0  0  0  0
    0.7124   -0.2410   -0.0980 C   0  0  0  0  0  0  0  0  0  0  0  0
    1.6407    0.2116   -0.7518 O   0  0  0  0  0  0  0  0  0  0  0  0
    0.9065   -1.5774    0.1522 N   0  0  0  0  0  0  0  0  0  0  0  0
    1.5956   -1.9325   -0.5047 H   0  0  0  0  0  0  0  0  0  0  0  0
    1.2311   -1.9498    1.5251 C   0  0  0  0  0  0  0  0  0  0  0  0
    0.8481   -1.2161    2.2431 H   0  0  0  0  0  0  0  0  0  0  0  0
    0.7955   -2.9254    1.7633 H   0  0  0  0  0  0  0  0  0  0  0  0
    2.3166   -2.0115    1.6505 H   0  0  0  0  0  0  0  0  0  0  0  0
  1  2  1  0  0  0  0
  2  3  1  0  0  0  0
  2  4  1  0  0  0  0
  2  5  1  0  0  0  0
  5  6  2  0  0  0  0
  5  7  1  0  0  0  0
  7  8  1  0  0  0  0
  7  9  1  0  0  0  0
  9 10  1  0  0  0  0
  9 11  1  0  0  0  0
  9 24  1  0  0  0  0
 11 12  1  0  0  0  0
 11 13  1  0  0  0  0
 11 14  1  0  0  0  0
 14 15  1  0  0  0  0
 14 16  1  0  0  0  0
 14 20  1  0  0  0  0
 16 17  1  0  0  0  0
 16 18  1  0  0  0  0
 16 19  1  0  0  0  0
 20 21  1  0  0  0  0
 20 22  1  0  0  0  0
 20 23  1  0  0  0  0
 24 25  2  0  0  0  0
 24 26  1  0  0  0  0
 26 27  1  0  0  0  0
 26 28  1  0  0  0  0
 28 29  1  0  0  0  0
 28 30  1  0  0  0  0
 28 31  1  0  0  0  0
M  END
$$$$

  -OEChem-01062216083D

 31 30  0     1  0  0  0  0  0999 V2000
   -4.1196   -2.4665    0.6993 H   0  0  0  0  0  0  0  0  0  0  0  0
   -3.8363   -1.5137    0.2427 C   0  0  0  0  0  0  0  0  0  0  0  0
   -4.5196   -0.7381    0.5970 H   0  0  0  0  0  0  0  0  0  0  0  0
   -3.9288   -1.6042   -0.8423 H   0  0  0  0  0  0  0  0  0  0  0  0
   -2.4090   -1.1568    0.6143 C   0  0  0  0  0  0  0  0  0  0  0  0
   -1.8143   -1.8704    1.4004 O   0  0  0  0  0  0  0  0  0  0  0  0
   -1.8689    0.0076    0.1007 N   0  0  0  0  0  0  0  0  0  0  0  0
   -2.5156    0.5270   -0.4852 H   0  0  0  0  0  0  0  0  0  0  0  0
   -0.4895    0.5615    0.1435 C   0  0  1  0  0  0  0  0  0  0  0  0
   -0.2498    0.8957   -0.8685 H   0  0  0  0  0  0  0  0  0  0  0  0
   -0.5862    1.7874    1.0888 C   0  0  0  0  0  0  0  0  0  0  0  0
   -0.9811    1.4494    2.0532 H   0  0  0  0  0  0  0  0  0  0  0  0
    0.4136    2.1918    1.2798 H   0  0  0  0  0  0  0  0  0  0  0  0
   -1.4577    2.9460    0.5499 C   0  0  0  0  0  0  0  0  0  0  0  0
   -2.4613    2.5765    0.3183 H   0  0  0  0  0  0  0  0  0  0  0  0
   -1.5894    4.0195    1.6363 C   0  0  0  0  0  0  0  0  0  0  0  0
   -0.6076    4.4274    1.8979 H   0  0  0  0  0  0  0  0  0  0  0  0
   -2.2249    4.8401    1.2887 H   0  0  0  0  0  0  0  0  0  0  0  0
   -2.0416    3.5964    2.5387 H   0  0  0  0  0  0  0  0  0  0  0  0
   -0.8616    3.5813   -0.7152 C   0  0  0  0  0  0  0  0  0  0  0  0
   -0.8953    2.8854   -1.5576 H   0  0  0  0  0  0  0  0  0  0  0  0
   -1.4302    4.4729   -0.9975 H   0  0  0  0  0  0  0  0  0  0  0  0
    0.1794    3.8745   -0.5452 H   0  0  0  0  0  0  0  0  0  0  0  0
    0.7578   -0.2931    0.5363 C   0  0  0  0  0  0  0  0  0  0  0  0
    1.8418    0.2723    0.6273 O   0  0  0  0  0  0  0  0  0  0  0  0
    0.7715   -1.6736    0.5910 N   0  0  0  0  0  0  0  0  0  0  0  0
   -0.1411   -2.1055    0.7413 H   0  0  0  0  0  0  0  0  0  0  0  0
    1.9532   -2.4473    0.9513 C   0  0  0  0  0  0  0  0  0  0  0  0
    2.2926   -2.1815    1.9577 H   0  0  0  0  0  0  0  0  0  0  0  0
    1.7223   -3.5166    0.9328 H   0  0  0  0  0  0  0  0  0  0  0  0
    2.7663   -2.2591    0.2425 H   0  0  0  0  0  0  0  0  0  0  0  0
  1  2  1  0  0  0  0
  2  3  1  0  0  0  0
  2  4  1  0  0  0  0
  2  5  1  0  0  0  0
  5  6  2  0  0  0  0
  5  7  1  0  0  0  0
  7  8  1  0  0  0  0
  7  9  1  0  0  0  0
  9 10  1  0  0  0  0
  9 11  1  0  0  0  0
  9 24  1  0  0  0  0
 11 12  1  0  0  0  0
 11 13  1  0  0  0  0
 11 14  1  0  0  0  0
 14 15  1  0  0  0  0
 14 16  1  0  0  0  0
 14 20  1  0  0  0  0
 16 17  1  0  0  0  0
 16 18  1  0  0  0  0
 16 19  1  0  0  0  0
 20 21  1  0  0  0  0
 20 22  1  0  0  0  0
 20 23  1  0  0  0  0
 24 25  2  0  0  0  0
 24 26  1  0  0  0  0
 26 27  1  0  0  0  0
 26 28  1  0  0  0  0
 28 29  1  0  0  0  0
 28 30  1  0  0  0  0
 28 31  1  0  0  0  0
M  END
$$$$

  -OEChem-01062216083D

 31 30  0     1  0  0  0  0  0999 V2000
   -4.0406   -2.4723    0.7782 H   0  0  0  0  0  0  0  0  0  0  0  0
   -3.7806   -1.5170    0.3129 C   0  0  0  0  0  0  0  0  0  0  0  0
   -4.4289   -0.7393    0.7242 H   0  0  0  0  0  0  0  0  0  0  0  0
   -3.9514   -1.5935   -0.7637 H   0  0  0  0  0  0  0  0  0  0  0  0
   -2.3267   -1.1793    0.5858 C   0  0  0  0  0  0  0  0  0  0  0  0
   -1.6654   -1.9464    1.2599 O   0  0  0  0  0  0  0  0  0  0  0  0
   -1.8189    0.0039    0.0813 N   0  0  0  0  0  0  0  0  0  0  0  0
   -2.5023    0.5610   -0.4227 H   0  0  0  0  0  0  0  0  0  0  0  0
   -0.4511    0.5830    0.1343 C   0  0  1  0  0  0  0  0  0  0  0  0
   -0.2056    0.9239   -0.8740 H   0  0  0  0  0  0  0  0  0  0  0  0
   -0.5749    1.8065    1.0807 C   0  0  0  0  0  0  0  0  0  0  0  0
   -0.9662    1.4604    2.0435 H   0  0  0  0  0  0  0  0  0  0  0  0
    0.4153    2.2320    1.2740 H   0  0  0  0  0  0  0  0  0  0  0  0
   -1.4637    2.9502    0.5383 C   0  0  0  0  0  0  0  0  0  0  0  0
   -2.4593    2.5633    0.3011 H   0  0  0  0  0  0  0  0  0  0  0  0
   -1.6198    4.0192    1.6261 C   0  0  0  0  0  0  0  0  0  0  0  0
   -0.6468    4.4443    1.8930 H   0  0  0  0  0  0  0  0  0  0  0  0
   -2.2682    4.8287    1.2771 H   0  0  0  0  0  0  0  0  0  0  0  0
   -2.0679    3.5860    2.5258 H   0  0  0  0  0  0  0  0  0  0  0  0
   -0.8720    3.5974   -0.7225 C   0  0  0  0  0  0  0  0  0  0  0  0
   -0.8829    2.8996   -1.5638 H   0  0  0  0  0  0  0  0  0  0  0  0
   -1.4584    4.4754   -1.0108 H   0  0  0  0  0  0  0  0  0  0  0  0
    0.1605    3.9147   -0.5442 H   0  0  0  0  0  0  0  0  0  0  0  0
    0.7878   -0.2837    0.5279 C   0  0  0  0  0  0  0  0  0  0  0  0
    1.8249    0.2704    0.8755 O   0  0  0  0  0  0  0  0  0  0  0  0
    0.8576   -1.6397    0.2682 N   0  0  0  0  0  0  0  0  0  0  0  0
   -0.0504   -2.1055    0.2811 H   0  0  0  0  0  0  0  0  0  0  0  0
    2.0210   -2.4474    0.6147 C   0  0  0  0  0  0  0  0  0  0  0  0
    2.2046   -2.4118    1.6937 H   0  0  0  0  0  0  0  0  0  0  0  0
    1.8549   -3.4892    0.3245 H   0  0  0  0  0  0  0  0  0  0  0  0
    2.9118   -2.0831    0.0925 H   0  0  0  0  0  0  0  0  0  0  0  0
  1  2  1  0  0  0  0
  2  3  1  0  0  0  0
  2  4  1  0  0  0  0
  2  5  1  0  0  0  0
  5  6  2  0  0  0  0
  5  7  1  0  0  0  0
  7  8  1  0  0  0  0
  7  9  1  0  0  0  0
  9 10  1  0  0  0  0
  9 11  1  0  0  0  0
  9 24  1  0  0  0  0
 11 12  1  0  0  0  0
 11 13  1  0  0  0  0
 11 14  1  0  0  0  0
 14 15  1  0  0  0  0
 14 16  1  0  0  0  0
 14 20  1  0  0  0  0
 16 17  1  0  0  0  0
 16 18  1  0  0  0  0
 16 19  1  0  0  0  0
 20 21  1  0  0  0  0
 20 22  1  0  0  0  0
 20 23  1  0  0  0  0
 24 25  2  0  0  0  0
 24 26  1  0  0  0  0
 26 27  1  0  0  0  0
 26 28  1  0  0  0  0
 28 29  1  0  0  0  0
 28 30  1  0  0  0  0
 28 31  1  0  0  0  0
M  END
$$$$

  -OEChem-01062216083D

 31 30  0     1  0  0  0  0  0999 V2000
   -3.9436   -2.4925    0.8534 H   0  0  0  0  0  0  0  0  0  0  0  0
   -3.7126   -1.5338    0.3799 C   0  0  0  0  0  0  0  0  0  0  0  0
   -4.3220   -0.7568    0.8477 H   0  0  0  0  0  0  0  0  0  0  0  0
   -3.9643   -1.5964   -0.6815 H   0  0  0  0  0  0  0  0  0  0  0  0
   -2.2398   -1.2081    0.5462 C   0  0  0  0  0  0  0  0  0  0  0  0
   -1.5176   -2.0217    1.0906 O   0  0  0  0  0  0  0  0  0  0  0  0
   -1.7704   -0.0032    0.0548 N   0  0  0  0  0  0  0  0  0  0  0  0
   -2.4893    0.5849   -0.3560 H   0  0  0  0  0  0  0  0  0  0  0  0
   -0.4181    0.6056    0.1336 C   0  0  1  0  0  0  0  0  0  0  0  0
   -0.1572    0.9539   -0.8680 H   0  0  0  0  0  0  0  0  0  0  0  0
   -0.5698    1.8268    1.0784 C   0  0  0  0  0  0  0  0  0  0  0  0
   -0.9646    1.4754    2.0379 H   0  0  0  0  0  0  0  0  0  0  0  0
    0.4134    2.2659    1.2782 H   0  0  0  0  0  0  0  0  0  0  0  0
   -1.4682    2.9578    0.5254 C   0  0  0  0  0  0  0  0  0  0  0  0
   -2.4555    2.5566    0.2771 H   0  0  0  0  0  0  0  0  0  0  0  0
   -1.6522    4.0250    1.6108 C   0  0  0  0  0  0  0  0  0  0  0  0
   -0.6885    4.4651    1.8877 H   0  0  0  0  0  0  0  0  0  0  0  0
   -2.3094    4.8243    1.2542 H   0  0  0  0  0  0  0  0  0  0  0  0
   -2.1036    3.5861    2.5060 H   0  0  0  0  0  0  0  0  0  0  0  0
   -0.8718    3.6136   -0.7287 C   0  0  0  0  0  0  0  0  0  0  0  0
   -0.8654    2.9169   -1.5711 H   0  0  0  0  0  0  0  0  0  0  0  0
   -1.4668    4.4841   -1.0221 H   0  0  0  0  0  0  0  0  0  0  0  0
    0.1547    3.9443   -0.5400 H   0  0  0  0  0  0  0  0  0  0  0  0
    0.8056   -0.2736    0.5407 C   0  0  0  0  0  0  0  0  0  0  0  0
    1.7432    0.2105    1.1653 O   0  0  0  0  0  0  0  0  0  0  0  0
    0.9834   -1.5293   -0.0109 N   0  0  0  0  0  0  0  0  0  0  0  0
    0.1047   -2.0074   -0.2058 H   0  0  0  0  0  0  0  0  0  0  0  0
    2.1278   -2.3687    0.3238 C   0  0  0  0  0  0  0  0  0  0  0  0
    2.1403   -2.5883    1.3965 H   0  0  0  0  0  0  0  0  0  0  0  0
    2.0739   -3.3137   -0.2248 H   0  0  0  0  0  0  0  0  0  0  0  0
    3.0641   -1.8686    0.0548 H   0  0  0  0  0  0  0  0  0  0  0  0
  1  2  1  0  0  0  0
  2  3  1  0  0  0  0
  2  4  1  0  0  0  0
  2  5  1  0  0  0  0
  5  6  2  0  0  0  0
  5  7  1  0  0  0  0
  7  8  1  0  0  0  0
  7  9  1  0  0  0  0
  9 10  1  0  0  0  0
  9 11  1  0  0  0  0
  9 24  1  0  0  0  0
 11 12  1  0  0  0  0
 11 13  1  0  0  0  0
 11 14  1  0  0  0  0
 14 15  1  0  0  0  0
 14 16  1  0  0  0  0
 14 20  1  0  0  0  0
 16 17  1  0  0  0  0
 16 18  1  0  0  0  0
 16 19  1  0  0  0  0
 20 21  1  0  0  0  0
 20 22  1  0  0  0  0
 20 23  1  0  0  0  0
 24 25  2  0  0  0  0
 24 26  1  0  0  0  0
 26 27  1  0  0  0  0
 26 28  1  0  0  0  0
 28 29  1  0  0  0  0
 28 30  1  0  0  0  0
 28 31  1  0  0  0  0
M  END
$$$$

  -OEChem-01062216083D

 31 30  0     1  0  0  0  0  0999 V2000
   -3.8287   -2.5292    0.9126 H   0  0  0  0  0  0  0  0  0  0  0  0
   -3.6351   -1.5662    0.4313 C   0  0  0  0  0  0  0  0  0  0  0  0
   -4.2236   -0.7975    0.9381 H   0  0  0  0  0  0  0  0  0  0  0  0
   -3.9476   -1.6261   -0.6140 H   0  0  0  0  0  0  0  0  0  0  0  0
   -2.1580   -1.2278    0.5133 C   0  0  0  0  0  0  0  0  0  0  0  0
   -1.3911   -2.0559    0.9676 O   0  0  0  0  0  0  0  0  0  0  0  0
   -1.7311   -0.0057    0.0240 N   0  0  0  0  0  0  0  0  0  0  0  0
   -2.4783    0.5919   -0.3159 H   0  0  0  0  0  0  0  0  0  0  0  0
   -0.3951    0.6308    0.1224 C   0  0  1  0  0  0  0  0  0  0  0  0
   -0.1225    0.9883   -0.8729 H   0  0  0  0  0  0  0  0  0  0  0  0
   -0.5628    1.8458    1.0695 C   0  0  0  0  0  0  0  0  0  0  0  0
   -0.9570    1.4879    2.0272 H   0  0  0  0  0  0  0  0  0  0  0  0
    0.4187    2.2884    1.2708 H   0  0  0  0  0  0  0  0  0  0  0  0
   -1.4710    2.9689    0.5176 C   0  0  0  0  0  0  0  0  0  0  0  0
   -2.4530    2.5571    0.2664 H   0  0  0  0  0  0  0  0  0  0  0  0
   -1.6693    4.0301    1.6062 C   0  0  0  0  0  0  0  0  0  0  0  0
   -0.7109    4.4795    1.8863 H   0  0  0  0  0  0  0  0  0  0  0  0
   -2.3341    4.8236    1.2509 H   0  0  0  0  0  0  0  0  0  0  0  0
   -2.1175    3.5833    2.4992 H   0  0  0  0  0  0  0  0  0  0  0  0
   -0.8821    3.6352   -0.7342 C   0  0  0  0  0  0  0  0  0  0  0  0
   -0.8685    2.9410   -1.5785 H   0  0  0  0  0  0  0  0  0  0  0  0
   -1.4873    4.4999   -1.0241 H   0  0  0  0  0  0  0  0  0  0  0  0
    0.1406    3.9770   -0.5445 H   0  0  0  0  0  0  0  0  0  0  0  0
    0.8142   -0.2561    0.5444 C   0  0  0  0  0  0  0  0  0  0  0  0
    1.5930    0.0987    1.4229 O   0  0  0  0  0  0  0  0  0  0  0  0
    1.1556   -1.3486   -0.2329 N   0  0  0  0  0  0  0  0  0  0  0  0
    0.3703   -1.7635   -0.7271 H   0  0  0  0  0  0  0  0  0  0  0  0
    2.2582   -2.2333    0.1227 C   0  0  0  0  0  0  0  0  0  0  0  0
    2.0755   -2.6968    1.0979 H   0  0  0  0  0  0  0  0  0  0  0  0
    2.3627   -3.0248   -0.6253 H   0  0  0  0  0  0  0  0  0  0  0  0
    3.1998   -1.6761    0.1672 H   0  0  0  0  0  0  0  0  0  0  0  0
  1  2  1  0  0  0  0
  2  3  1  0  0  0  0
  2  4  1  0  0  0  0
  2  5  1  0  0  0  0
  5  6  2  0  0  0  0
  5  7  1  0  0  0  0
  7  8  1  0  0  0  0
  7  9  1  0  0  0  0
  9 10  1  0  0  0  0
  9 11  1  0  0  0  0
  9 24  1  0  0  0  0
 11 12  1  0  0  0  0
 11 13  1  0  0  0  0
 11 14  1  0  0  0  0
 14 15  1  0  0  0  0
 14 16  1  0  0  0  0
 14 20  1  0  0  0  0
 16 17  1  0  0  0  0
 16 18  1  0  0  0  0
 16 19  1  0  0  0  0
 20 21  1  0  0  0  0
 20 22  1  0  0  0  0
 20 23  1  0  0  0  0
 24 25  2  0  0  0  0
 24 26  1  0  0  0  0
 26 27  1  0  0  0  0
 26 28  1  0  0  0  0
 28 29  1  0  0  0  0
 28 30  1  0  0  0  0
 28 31  1  0  0  0  0
M  END
$$$$

  -OEChem-01062216083D

 31 30  0     1  0  0  0  0  0999 V2000
   -3.7649   -2.5425    0.9606 H   0  0  0  0  0  0  0  0  0  0  0  0
   -3.5956   -1.5753    0.4786 C   0  0  0  0  0  0  0  0  0  0  0  0
   -4.1511   -0.8103    1.0263 H   0  0  0  0  0  0  0  0  0  0  0  0
   -3.9676   -1.6233   -0.5476 H   0  0  0  0  0  0  0  0  0  0  0  0
   -2.1151   -1.2424    0.4791 C   0  0  0  0  0  0  0  0  0  0  0  0
   -1.3236   -2.0881    0.8524 O   0  0  0  0  0  0  0  0  0  0  0  0
   -1.7139   -0.0114   -0.0109 N   0  0  0  0  0  0  0  0  0  0  0  0
   -2.4790    0.5966   -0.2855 H   0  0  0  0  0  0  0  0  0  0  0  0
   -0.3879    0.6387    0.1095 C   0  0  1  0  0  0  0  0  0  0  0  0
   -0.1029    1.0042   -0.8793 H   0  0  0  0  0  0  0  0  0  0  0  0
   -0.5677    1.8472    1.0602 C   0  0  0  0  0  0  0  0  0  0  0  0
   -0.9723    1.4827    2.0111 H   0  0  0  0  0  0  0  0  0  0  0  0
    0.4137    2.2850    1.2748 H   0  0  0  0  0  0  0  0  0  0  0  0
   -1.4752    2.9698    0.5069 C   0  0  0  0  0  0  0  0  0  0  0  0
   -2.4534    2.5557    0.2441 H   0  0  0  0  0  0  0  0  0  0  0  0
   -1.6864    4.0245    1.5994 C   0  0  0  0  0  0  0  0  0  0  0  0
   -0.7315    4.4713    1.8951 H   0  0  0  0  0  0  0  0  0  0  0  0
   -2.3461    4.8207    1.2402 H   0  0  0  0  0  0  0  0  0  0  0  0
   -2.1467    3.5723    2.4836 H   0  0  0  0  0  0  0  0  0  0  0  0
   -0.8752    3.6454   -0.7351 C   0  0  0  0  0  0  0  0  0  0  0  0
   -0.8468    2.9553   -1.5824 H   0  0  0  0  0  0  0  0  0  0  0  0
   -1.4816    4.5079   -1.0290 H   0  0  0  0  0  0  0  0  0  0  0  0
    0.1429    3.9924   -0.5313 H   0  0  0  0  0  0  0  0  0  0  0  0
    0.8110   -0.2486    0.5519 C   0  0  0  0  0  0  0  0  0  0  0  0
    1.4055   -0.0460    1.6056 O   0  0  0  0  0  0  0  0  0  0  0  0
    1.3595   -1.1332   -0.3597 N   0  0  0  0  0  0  0  0  0  0  0  0
    0.7329   -1.4274   -1.1024 H   0  0  0  0  0  0  0  0  0  0  0  0
    2.4543   -2.0279   -0.0057 C   0  0  0  0  0  0  0  0  0  0  0  0
    2.1547   -2.6914    0.8124 H   0  0  0  0  0  0  0  0  0  0  0  0
    2.7344   -2.6413   -0.8672 H   0  0  0  0  0  0  0  0  0  0  0  0
    3.3330   -1.4548    0.3083 H   0  0  0  0  0  0  0  0  0  0  0  0
  1  2  1  0  0  0  0
  2  3  1  0  0  0  0
  2  4  1  0  0  0  0
  2  5  1  0  0  0  0
  5  6  2  0  0  0  0
  5  7  1  0  0  0  0
  7  8  1  0  0  0  0
  7  9  1  0  0  0  0
  9 10  1  0  0  0  0
  9 11  1  0  0  0  0
  9 24  1  0  0  0  0
 11 12  1  0  0  0  0
 11 13  1  0  0  0  0
 11 14  1  0  0  0  0
 14 15  1  0  0  0  0
 14 16  1  0  0  0  0
 14 20  1  0  0  0  0
 16 17  1  0  0  0  0
 16 18  1  0  0  0  0
 16 19  1  0  0  0  0
 20 21  1  0  0  0  0
 20 22  1  0  0  0  0
 20 23  1  0  0  0  0
 24 25  2  0  0  0  0
 24 26  1  0  0  0  0
 26 27  1  0  0  0  0
 26 28  1  0  0  0  0
 28 29  1  0  0  0  0
 28 30  1  0  0  0  0
 28 31  1  0  0  0  0
M  END
$$$$

  -OEChem-01062216083D

 31 30  0     1  0  0  0  0  0999 V2000
   -3.7487   -2.5437    0.9856 H   0  0  0  0  0  0  0  0  0  0  0  0
   -3.5903   -1.5734    0.5059 C   0  0  0  0  0  0  0  0  0  0  0  0
   -4.1180   -0.8091    1.0815 H   0  0  0  0  0  0  0  0  0  0  0  0
   -4.0022   -1.6095   -0.5056 H   0  0  0  0  0  0  0  0  0  0  0  0
   -2.1079   -1.2526    0.4517 C   0  0  0  0  0  0  0  0  0  0  0  0
   -1.3091   -2.1184    0.7579 O   0  0  0  0  0  0  0  0  0  0  0  0
   -1.7144   -0.0200   -0.0410 N   0  0  0  0  0  0  0  0  0  0  0  0
   -2.4859    0.5973   -0.2732 H   0  0  0  0  0  0  0  0  0  0  0  0
   -0.3920    0.6331    0.0931 C   0  0  1  0  0  0  0  0  0  0  0  0
   -0.1011    1.0042   -0.8918 H   0  0  0  0  0  0  0  0  0  0  0  0
   -0.5725    1.8364    1.0485 C   0  0  0  0  0  0  0  0  0  0  0  0
   -0.9821    1.4688    1.9960 H   0  0  0  0  0  0  0  0  0  0  0  0
    0.4115    2.2656    1.2691 H   0  0  0  0  0  0  0  0  0  0  0  0
   -1.4752    2.9651    0.5004 C   0  0  0  0  0  0  0  0  0  0  0  0
   -2.4540    2.5550    0.2333 H   0  0  0  0  0  0  0  0  0  0  0  0
   -1.6858    4.0129    1.5999 C   0  0  0  0  0  0  0  0  0  0  0  0
   -0.7309    4.4577    1.8980 H   0  0  0  0  0  0  0  0  0  0  0  0
   -2.3457    4.8114    1.2469 H   0  0  0  0  0  0  0  0  0  0  0  0
   -2.1455    3.5552    2.4815 H   0  0  0  0  0  0  0  0  0  0  0  0
   -0.8715    3.6461   -0.7365 C   0  0  0  0  0  0  0  0  0  0  0  0
   -0.8501    2.9622   -1.5891 H   0  0  0  0  0  0  0  0  0  0  0  0
   -1.4717    4.5156   -1.0224 H   0  0  0  0  0  0  0  0  0  0  0  0
    0.1496    3.9834   -0.5314 H   0  0  0  0  0  0  0  0  0  0  0  0
    0.8024   -0.2506    0.5525 C   0  0  0  0  0  0  0  0  0  0  0  0
    1.2217   -0.2021    1.7044 O   0  0  0  0  0  0  0  0  0  0  0  0
    1.5661   -0.9013   -0.4010 N   0  0  0  0  0  0  0  0  0  0  0  0
    1.1180   -1.0524   -1.2990 H   0  0  0  0  0  0  0  0  0  0  0  0
    2.6874   -1.7622   -0.0436 C   0  0  0  0  0  0  0  0  0  0  0  0
    2.3490   -2.5852    0.5952 H   0  0  0  0  0  0  0  0  0  0  0  0
    3.1411   -2.1856   -0.9449 H   0  0  0  0  0  0  0  0  0  0  0  0
    3.4540   -1.1923    0.4921 H   0  0  0  0  0  0  0  0  0  0  0  0
  1  2  1  0  0  0  0
  2  3  1  0  0  0  0
  2  4  1  0  0  0  0
  2  5  1  0  0  0  0
  5  6  2  0  0  0  0
  5  7  1  0  0  0  0
  7  8  1  0  0  0  0
  7  9  1  0  0  0  0
  9 10  1  0  0  0  0
  9 11  1  0  0  0  0
  9 24  1  0  0  0  0
 11 12  1  0  0  0  0
 11 13  1  0  0  0  0
 11 14  1  0  0  0  0
 14 15  1  0  0  0  0
 14 16  1  0  0  0  0
 14 20  1  0  0  0  0
 16 17  1  0  0  0  0
 16 18  1  0  0  0  0
 16 19  1  0  0  0  0
 20 21  1  0  0  0  0
 20 22  1  0  0  0  0
 20 23  1  0  0  0  0
 24 25  2  0  0  0  0
 24 26  1  0  0  0  0
 26 27  1  0  0  0  0
 26 28  1  0  0  0  0
 28 29  1  0  0  0  0
 28 30  1  0  0  0  0
 28 31  1  0  0  0  0
M  END
$$$$

  -OEChem-01062216083D

 31 30  0     1  0  0  0  0  0999 V2000
   -3.7328   -2.5516    0.9770 H   0  0  0  0  0  0  0  0  0  0  0  0
   -3.5861   -1.5528    0.5557 C   0  0  0  0  0  0  0  0  0  0  0  0
   -4.0402   -0.8199    1.2270 H   0  0  0  0  0  0  0  0  0  0  0  0
   -4.0806   -1.5041   -0.4173 H   0  0  0  0  0  0  0  0  0  0  0  0
   -2.1048   -1.2648    0.4003 C   0  0  0  0  0  0  0  0  0  0  0  0
   -1.3076   -2.1639    0.5950 O   0  0  0  0  0  0  0  0  0  0  0  0
   -1.7167   -0.0296   -0.0888 N   0  0  0  0  0  0  0  0  0  0  0  0
   -2.4926    0.6032   -0.2539 H   0  0  0  0  0  0  0  0  0  0  0  0
   -0.3961    0.6205    0.0682 C   0  0  1  0  0  0  0  0  0  0  0  0
   -0.0948    0.9984   -0.9110 H   0  0  0  0  0  0  0  0  0  0  0  0
   -0.5819    1.8144    1.0332 C   0  0  0  0  0  0  0  0  0  0  0  0
   -1.0052    1.4397    1.9720 H   0  0  0  0  0  0  0  0  0  0  0  0
    0.4021    2.2341    1.2708 H   0  0  0  0  0  0  0  0  0  0  0  0
   -1.4748    2.9509    0.4855 C   0  0  0  0  0  0  0  0  0  0  0  0
   -2.4516    2.5469    0.2023 H   0  0  0  0  0  0  0  0  0  0  0  0
   -1.6943    3.9893    1.5916 C   0  0  0  0  0  0  0  0  0  0  0  0
   -0.7420    4.4316    1.9017 H   0  0  0  0  0  0  0  0  0  0  0  0
   -2.3513    4.7906    1.2394 H   0  0  0  0  0  0  0  0  0  0  0  0
   -2.1617    3.5243    2.4653 H   0  0  0  0  0  0  0  0  0  0  0  0
   -0.8534    3.6419   -0.7372 C   0  0  0  0  0  0  0  0  0  0  0  0
   -0.8212    2.9657   -1.5956 H   0  0  0  0  0  0  0  0  0  0  0  0
   -1.4486    4.5147   -1.0236 H   0  0  0  0  0  0  0  0  0  0  0  0
    0.1652    3.9759   -0.5149 H   0  0  0  0  0  0  0  0  0  0  0  0
    0.7925   -0.2603    0.5446 C   0  0  0  0  0  0  0  0  0  0  0  0
    1.0431   -0.3772    1.7398 O   0  0  0  0  0  0  0  0  0  0  0  0
    1.7554   -0.6536   -0.3687 N   0  0  0  0  0  0  0  0  0  0  0  0
    1.4777   -0.6480   -1.3447 H   0  0  0  0  0  0  0  0  0  0  0  0
    2.9080   -1.4603    0.0138 C   0  0  0  0  0  0  0  0  0  0  0  0
    2.5810   -2.4080    0.4546 H   0  0  0  0  0  0  0  0  0  0  0  0
    3.5247   -1.6788   -0.8630 H   0  0  0  0  0  0  0  0  0  0  0  0
    3.5250   -0.9264    0.7441 H   0  0  0  0  0  0  0  0  0  0  0  0
  1  2  1  0  0  0  0
  2  3  1  0  0  0  0
  2  4  1  0  0  0  0
  2  5  1  0  0  0  0
  5  6  2  0  0  0  0
  5  7  1  0  0  0  0
  7  8  1  0  0  0  0
  7  9  1  0  0  0  0
  9 10  1  0  0  0  0
  9 11  1  0  0  0  0
  9 24  1  0  0  0  0
 11 12  1  0  0  0  0
 11 13  1  0  0  0  0
 11 14  1  0  0  0  0
 14 15  1  0  0  0  0
 14 16  1  0  0  0  0
 14 20  1  0  0  0  0
 16 17  1  0  0  0  0
 16 18  1  0  0  0  0
 16 19  1  0  0  0  0
 20 21  1  0  0  0  0
 20 22  1  0  0  0  0
 20 23  1  0  0  0  0
 24 25  2  0  0  0  0
 24 26  1  0  0  0  0
 26 27  1  0  0  0  0
 26 28  1  0  0  0  0
 28 29  1  0  0  0  0
 28 30  1  0  0  0  0
 28 31  1  0  0  0  0
M  END
$$$$

  -OEChem-01062216083D

 31 30  0     1  0  0  0  0  0999 V2000
   -3.7265   -2.5244    1.0430 H   0  0  0  0  0  0  0  0  0  0  0  0
   -3.5884   -1.5356    0.5965 C   0  0  0  0  0  0  0  0  0  0  0  0
   -3.9883   -0.7843    1.2816 H   0  0  0  0  0  0  0  0  0  0  0  0
   -4.1392   -1.4932   -0.3460 H   0  0  0  0  0  0  0  0  0  0  0  0
   -2.1143   -1.2784    0.3473 C   0  0  0  0  0  0  0  0  0  0  0  0
   -1.3332   -2.2093    0.4236 O   0  0  0  0  0  0  0  0  0  0  0  0
   -1.7262   -0.0407   -0.1349 N   0  0  0  0  0  0  0  0  0  0  0  0
   -2.5005    0.6063   -0.2405 H   0  0  0  0  0  0  0  0  0  0  0  0
   -0.4039    0.6003    0.0430 C   0  0  1  0  0  0  0  0  0  0  0  0
   -0.0944    0.9832   -0.9315 H   0  0  0  0  0  0  0  0  0  0  0  0
   -0.5886    1.7849    1.0186 C   0  0  0  0  0  0  0  0  0  0  0  0
   -1.0248    1.4034    1.9489 H   0  0  0  0  0  0  0  0  0  0  0  0
    0.3967    2.1928    1.2710 H   0  0  0  0  0  0  0  0  0  0  0  0
   -1.4677    2.9344    0.4756 C   0  0  0  0  0  0  0  0  0  0  0  0
   -2.4449    2.5413    0.1788 H   0  0  0  0  0  0  0  0  0  0  0  0
   -1.6893    3.9636    1.5902 C   0  0  0  0  0  0  0  0  0  0  0  0
   -0.7361    4.3904    1.9187 H   0  0  0  0  0  0  0  0  0  0  0  0
   -2.3310    4.7773    1.2378 H   0  0  0  0  0  0  0  0  0  0  0  0
   -2.1750    3.4948    2.4518 H   0  0  0  0  0  0  0  0  0  0  0  0
   -0.8298    3.6331   -0.7342 C   0  0  0  0  0  0  0  0  0  0  0  0
   -0.7941    2.9653   -1.5989 H   0  0  0  0  0  0  0  0  0  0  0  0
   -1.4166    4.5126   -1.0178 H   0  0  0  0  0  0  0  0  0  0  0  0
    0.1888    3.9584   -0.4993 H   0  0  0  0  0  0  0  0  0  0  0  0
    0.7802   -0.2800    0.5295 C   0  0  0  0  0  0  0  0  0  0  0  0
    0.8887   -0.5639    1.7178 O   0  0  0  0  0  0  0  0  0  0  0  0
    1.9024   -0.4112   -0.2709 N   0  0  0  0  0  0  0  0  0  0  0  0
    1.7818   -0.2254   -1.2612 H   0  0  0  0  0  0  0  0  0  0  0  0
    3.0938   -1.1342    0.1581 C   0  0  0  0  0  0  0  0  0  0  0  0
    2.8400   -2.1655    0.4257 H   0  0  0  0  0  0  0  0  0  0  0  0
    3.8332   -1.1567   -0.6479 H   0  0  0  0  0  0  0  0  0  0  0  0
    3.5463   -0.6456    1.0272 H   0  0  0  0  0  0  0  0  0  0  0  0
  1  2  1  0  0  0  0
  2  3  1  0  0  0  0
  2  4  1  0  0  0  0
  2  5  1  0  0  0  0
  5  6  2  0  0  0  0
  5  7  1  0  0  0  0
  7  8  1  0  0  0  0
  7  9  1  0  0  0  0
  9 10  1  0  0  0  0
  9 11  1  0  0  0  0
  9 24  1  0  0  0  0
 11 12  1  0  0  0  0
 11 13  1  0  0  0  0
 11 14  1  0  0  0  0
 14 15  1  0  0  0  0
 14 16  1  0  0  0  0
 14 20  1  0  0  0  0
 16 17  1  0  0  0  0
 16 18  1  0  0  0  0
 16 19  1  0  0  0  0
 20 21  1  0  0  0  0
 20 22  1  0  0  0  0
 20 23  1  0  0  0  0
 24 25  2  0  0  0  0
 24 26  1  0  0  0  0
 26 27  1  0  0  0  0
 26 28  1  0  0  0  0
 28 29  1  0  0  0  0
 28 30  1  0  0  0  0
 28 31  1  0  0  0  0
M  END
$$$$

  -OEChem-01062216083D

 31 30  0     1  0  0  0  0  0999 V2000
   -3.6996   -2.5247    1.0475 H   0  0  0  0  0  0  0  0  0  0  0  0
   -3.5649   -1.5097    0.6630 C   0  0  0  0  0  0  0  0  0  0  0  0
   -3.8601   -0.7997    1.4391 H   0  0  0  0  0  0  0  0  0  0  0  0
   -4.2058   -1.3752   -0.2114 H   0  0  0  0  0  0  0  0  0  0  0  0
   -2.1133   -1.2860    0.2832 C   0  0  0  0  0  0  0  0  0  0  0  0
   -1.3650   -2.2446    0.2129 O   0  0  0  0  0  0  0  0  0  0  0  0
   -1.7281   -0.0473   -0.1967 N   0  0  0  0  0  0  0  0  0  0  0  0
   -2.4993    0.6103   -0.2369 H   0  0  0  0  0  0  0  0  0  0  0  0
   -0.4047    0.5850    0.0025 C   0  0  1  0  0  0  0  0  0  0  0  0
   -0.0835    0.9719   -0.9665 H   0  0  0  0  0  0  0  0  0  0  0  0
   -0.5929    1.7568    0.9917 C   0  0  0  0  0  0  0  0  0  0  0  0
   -1.0393    1.3642    1.9123 H   0  0  0  0  0  0  0  0  0  0  0  0
    0.3918    2.1565    1.2592 H   0  0  0  0  0  0  0  0  0  0  0  0
   -1.4611    2.9179    0.4568 C   0  0  0  0  0  0  0  0  0  0  0  0
   -2.4379    2.5333    0.1474 H   0  0  0  0  0  0  0  0  0  0  0  0
   -1.6877    3.9332    1.5831 C   0  0  0  0  0  0  0  0  0  0  0  0
   -0.7358    4.3559    1.9208 H   0  0  0  0  0  0  0  0  0  0  0  0
   -2.3277    4.7512    1.2376 H   0  0  0  0  0  0  0  0  0  0  0  0
   -2.1772    3.4546    2.4370 H   0  0  0  0  0  0  0  0  0  0  0  0
   -0.8112    3.6284   -0.7391 C   0  0  0  0  0  0  0  0  0  0  0  0
   -0.7670    2.9690   -1.6099 H   0  0  0  0  0  0  0  0  0  0  0  0
   -1.3956    4.5106   -1.0196 H   0  0  0  0  0  0  0  0  0  0  0  0
    0.2049    3.9514   -0.4909 H   0  0  0  0  0  0  0  0  0  0  0  0
    0.7732   -0.2945    0.5046 C   0  0  0  0  0  0  0  0  0  0  0  0
    0.7552   -0.7474    1.6440 O   0  0  0  0  0  0  0  0  0  0  0  0
    2.0094   -0.1812   -0.1098 N   0  0  0  0  0  0  0  0  0  0  0  0
    2.0246    0.1946   -1.0523 H   0  0  0  0  0  0  0  0  0  0  0  0
    3.2084   -0.8401    0.3960 C   0  0  0  0  0  0  0  0  0  0  0  0
    3.0488   -1.9211    0.4703 H   0  0  0  0  0  0  0  0  0  0  0  0
    4.0522   -0.6599   -0.2768 H   0  0  0  0  0  0  0  0  0  0  0  0
    3.4689   -0.4537    1.3871 H   0  0  0  0  0  0  0  0  0  0  0  0
  1  2  1  0  0  0  0
  2  3  1  0  0  0  0
  2  4  1  0  0  0  0
  2  5  1  0  0  0  0
  5  6  2  0  0  0  0
  5  7  1  0  0  0  0
  7  8  1  0  0  0  0
  7  9  1  0  0  0  0
  9 10  1  0  0  0  0
  9 11  1  0  0  0  0
  9 24  1  0  0  0  0
 11 12  1  0  0  0  0
 11 13  1  0  0  0  0
 11 14  1  0  0  0  0
 14 15  1  0  0  0  0
 14 16  1  0  0  0  0
 14 20  1  0  0  0  0
 16 17  1  0  0  0  0
 16 18  1  0  0  0  0
 16 19  1  0  0  0  0
 20 21  1  0  0  0  0
 20 22  1  0  0  0  0
 20 23  1  0  0  0  0
 24 25  2  0  0  0  0
 24 26  1  0  0  0  0
 26 27  1  0  0  0  0
 26 28  1  0  0  0  0
 28 29  1  0  0  0  0
 28 30  1  0  0  0  0
 28 31  1  0  0  0  0
M  END
$$$$

  -OEChem-01062216083D

 31 30  0     1  0  0  0  0  0999 V2000
   -3.6728   -2.4977    1.1027 H   0  0  0  0  0  0  0  0  0  0  0  0
   -3.5376   -1.4775    0.7328 C   0  0  0  0  0  0  0  0  0  0  0  0
   -3.7391   -0.7804    1.5495 H   0  0  0  0  0  0  0  0  0  0  0  0
   -4.2476   -1.2979   -0.0777 H   0  0  0  0  0  0  0  0  0  0  0  0
   -2.1177   -1.2910    0.2320 C   0  0  0  0  0  0  0  0  0  0  0  0
   -1.4248   -2.2723    0.0277 O   0  0  0  0  0  0  0  0  0  0  0  0
   -1.7266   -0.0546   -0.2462 N   0  0  0  0  0  0  0  0  0  0  0  0
   -2.4896    0.6134   -0.2374 H   0  0  0  0  0  0  0  0  0  0  0  0
   -0.3991    0.5641   -0.0316 C   0  0  1  0  0  0  0  0  0  0  0  0
   -0.0671    0.9541   -0.9958 H   0  0  0  0  0  0  0  0  0  0  0  0
   -0.5944    1.7258    0.9675 C   0  0  0  0  0  0  0  0  0  0  0  0
   -1.0512    1.3246    1.8793 H   0  0  0  0  0  0  0  0  0  0  0  0
    0.3873    2.1219    1.2505 H   0  0  0  0  0  0  0  0  0  0  0  0
   -1.4525    2.8948    0.4335 C   0  0  0  0  0  0  0  0  0  0  0  0
   -2.4269    2.5178    0.1076 H   0  0  0  0  0  0  0  0  0  0  0  0
   -1.6886    3.8985    1.5678 C   0  0  0  0  0  0  0  0  0  0  0  0
   -0.7390    4.3103    1.9245 H   0  0  0  0  0  0  0  0  0  0  0  0
   -2.3182    4.7248    1.2232 H   0  0  0  0  0  0  0  0  0  0  0  0
   -2.1941    3.4126    2.4083 H   0  0  0  0  0  0  0  0  0  0  0  0
   -0.7852    3.6149   -0.7472 C   0  0  0  0  0  0  0  0  0  0  0  0
   -0.7333    2.9639   -1.6240 H   0  0  0  0  0  0  0  0  0  0  0  0
   -1.3628    4.5020   -1.0257 H   0  0  0  0  0  0  0  0  0  0  0  0
    0.2291    3.9314   -0.4838 H   0  0  0  0  0  0  0  0  0  0  0  0
    0.7768   -0.3117    0.4819 C   0  0  0  0  0  0  0  0  0  0  0  0
    0.6697   -0.9336    1.5326 O   0  0  0  0  0  0  0  0  0  0  0  0
    2.0650    0.0250    0.0978 N   0  0  0  0  0  0  0  0  0  0  0  0
    2.1688    0.5891   -0.7393 H   0  0  0  0  0  0  0  0  0  0  0  0
    3.2580   -0.5677    0.6922 C   0  0  0  0  0  0  0  0  0  0  0  0
    3.2293   -1.6588    0.6015 H   0  0  0  0  0  0  0  0  0  0  0  0
    4.1554   -0.2017    0.1845 H   0  0  0  0  0  0  0  0  0  0  0  0
    3.3296   -0.3042    1.7527 H   0  0  0  0  0  0  0  0  0  0  0  0
  1  2  1  0  0  0  0
  2  3  1  0  0  0  0
  2  4  1  0  0  0  0
  2  5  1  0  0  0  0
  5  6  2  0  0  0  0
  5  7  1  0  0  0  0
  7  8  1  0  0  0  0
  7  9  1  0  0  0  0
  9 10  1  0  0  0  0
  9 11  1  0  0  0  0
  9 24  1  0  0  0  0
 11 12  1  0  0  0  0
 11 13  1  0  0  0  0
 11 14  1  0  0  0  0
 14 15  1  0  0  0  0
 14 16  1  0  0  0  0
 14 20  1  0  0  0  0
 16 17  1  0  0  0  0
 16 18  1  0  0  0  0
 16 19  1  0  0  0  0
 20 21  1  0  0  0  0
 20 22  1  0  0  0  0
 20 23  1  0  0  0  0
 24 25  2  0  0  0  0
 24 26  1  0  0  0  0
 26 27  1  0  0  0  0
 26 28  1  0  0  0  0
 28 29  1  0  0  0  0
 28 30  1  0  0  0  0
 28 31  1  0  0  0  0
M  END
$$$$

  -OEChem-01062216083D

 31 30  0     1  0  0  0  0  0999 V2000
   -3.4748   -2.8442    0.8518 H   0  0  0  0  0  0  0  0  0  0  0  0
   -3.2985   -1.9718    0.2166 C   0  0  0  0  0  0  0  0  0  0  0  0
   -4.2454   -1.4507    0.0584 H   0  0  0  0  0  0  0  0  0  0  0  0
   -2.9096   -2.3138   -0.7453 H   0  0  0  0  0  0  0  0  0  0  0  0
   -2.2981   -1.0436    0.8786 C   0  0  0  0  0  0  0  0  0  0  0  0
   -2.0569   -1.1675    2.0682 O   0  0  0  0  0  0  0  0  0  0  0  0
   -1.8980    0.1094    0.2301 N   0  0  0  0  0  0  0  0  0  0  0  0
   -2.3673    0.2237   -0.6619 H   0  0  0  0  0  0  0  0  0  0  0  0
   -0.5188    0.6525    0.2539 C   0  0  1  0  0  0  0  0  0  0  0  0
   -0.2642    0.9384   -0.7687 H   0  0  0  0  0  0  0  0  0  0  0  0
   -0.5641    1.9075    1.1549 C   0  0  0  0  0  0  0  0  0  0  0  0
   -0.9635    1.6110    2.1320 H   0  0  0  0  0  0  0  0  0  0  0  0
    0.4516    2.2791    1.3241 H   0  0  0  0  0  0  0  0  0  0  0  0
   -1.4119    3.0686    0.5889 C   0  0  0  0  0  0  0  0  0  0  0  0
   -2.4283    2.7137    0.3887 H   0  0  0  0  0  0  0  0  0  0  0  0
   -1.4967    4.1836    1.6379 C   0  0  0  0  0  0  0  0  0  0  0  0
   -0.5014    4.5770    1.8678 H   0  0  0  0  0  0  0  0  0  0  0  0
   -2.1198    5.0058    1.2722 H   0  0  0  0  0  0  0  0  0  0  0  0
   -1.9426    3.8036    2.5626 H   0  0  0  0  0  0  0  0  0  0  0  0
   -0.8238    3.6425   -0.7087 C   0  0  0  0  0  0  0  0  0  0  0  0
   -0.8896    2.9165   -1.5232 H   0  0  0  0  0  0  0  0  0  0  0  0
   -1.3787    4.5353   -1.0142 H   0  0  0  0  0  0  0  0  0  0  0  0
    0.2256    3.9196   -0.5681 H   0  0  0  0  0  0  0  0  0  0  0  0
    0.6754   -0.2324    0.7246 C   0  0  0  0  0  0  0  0  0  0  0  0
    0.5788   -1.4342    0.9299 O   0  0  0  0  0  0  0  0  0  0  0  0
    1.9537    0.2179    0.4315 N   0  0  0  0  0  0  0  0  0  0  0  0
    2.0560    1.1929    0.1689 H   0  0  0  0  0  0  0  0  0  0  0  0
    3.1572   -0.5909    0.5975 C   0  0  0  0  0  0  0  0  0  0  0  0
    3.1345   -1.4540   -0.0760 H   0  0  0  0  0  0  0  0  0  0  0  0
    4.0470    0.0029    0.3679 H   0  0  0  0  0  0  0  0  0  0  0  0
    3.2387   -0.9503    1.6288 H   0  0  0  0  0  0  0  0  0  0  0  0
  1  2  1  0  0  0  0
  2  3  1  0  0  0  0
  2  4  1  0  0  0  0
  2  5  1  0  0  0  0
  5  6  2  0  0  0  0
  5  7  1  0  0  0  0
  7  8  1  0  0  0  0
  7  9  1  0  0  0  0
  9 10  1  0  0  0  0
  9 11  1  0  0  0  0
  9 24  1  0  0  0  0
 11 12  1  0  0  0  0
 11 13  1  0  0  0  0
 11 14  1  0  0  0  0
 14 15  1  0  0  0  0
 14 16  1  0  0  0  0
 14 20  1  0  0  0  0
 16 17  1  0  0  0  0
 16 18  1  0  0  0  0
 16 19  1  0  0  0  0
 20 21  1  0  0  0  0
 20 22  1  0  0  0  0
 20 23  1  0  0  0  0
 24 25  2  0  0  0  0
 24 26  1  0  0  0  0
 26 27  1  0  0  0  0
 26 28  1  0  0  0  0
 28 29  1  0  0  0  0
 28 30  1  0  0  0  0
 28 31  1  0  0  0  0
M  END
$$$$

  -OEChem-01062216083D

 31 30  0     1  0  0  0  0  0999 V2000
   -3.4333   -2.8361    0.9012 H   0  0  0  0  0  0  0  0  0  0  0  0
   -3.2856   -1.9618    0.2610 C   0  0  0  0  0  0  0  0  0  0  0  0
   -4.2215   -1.4013    0.2058 H   0  0  0  0  0  0  0  0  0  0  0  0
   -3.0096   -2.3038   -0.7394 H   0  0  0  0  0  0  0  0  0  0  0  0
   -2.1845   -1.0843    0.8250 C   0  0  0  0  0  0  0  0  0  0  0  0
   -1.7015   -1.3438    1.9166 O   0  0  0  0  0  0  0  0  0  0  0  0
   -1.8554    0.1004    0.1894 N   0  0  0  0  0  0  0  0  0  0  0  0
   -2.3671    0.2406   -0.6755 H   0  0  0  0  0  0  0  0  0  0  0  0
   -0.4952    0.6851    0.2147 C   0  0  1  0  0  0  0  0  0  0  0  0
   -0.3373    1.2216   -0.7233 H   0  0  0  0  0  0  0  0  0  0  0  0
   -0.4459    1.6834    1.3966 C   0  0  0  0  0  0  0  0  0  0  0  0
   -0.7231    1.1512    2.3134 H   0  0  0  0  0  0  0  0  0  0  0  0
    0.5769    2.0454    1.5349 H   0  0  0  0  0  0  0  0  0  0  0  0
   -1.3648    2.9131    1.2238 C   0  0  0  0  0  0  0  0  0  0  0  0
   -2.3932    2.5765    1.0554 H   0  0  0  0  0  0  0  0  0  0  0  0
   -1.3406    3.7410    2.5140 C   0  0  0  0  0  0  0  0  0  0  0  0
   -0.3302    4.1088    2.7192 H   0  0  0  0  0  0  0  0  0  0  0  0
   -2.0130    4.6004    2.4296 H   0  0  0  0  0  0  0  0  0  0  0  0
   -1.6688    3.1335    3.3633 H   0  0  0  0  0  0  0  0  0  0  0  0
   -0.9378    3.8024    0.0468 C   0  0  0  0  0  0  0  0  0  0  0  0
   -1.0892    3.2895   -0.9068 H   0  0  0  0  0  0  0  0  0  0  0  0
   -1.5348    4.7198    0.0290 H   0  0  0  0  0  0  0  0  0  0  0  0
    0.1178    4.0786    0.1338 H   0  0  0  0  0  0  0  0  0  0  0  0
    0.6979   -0.3109    0.3138 C   0  0  0  0  0  0  0  0  0  0  0  0
    0.5769   -1.4736   -0.0559 O   0  0  0  0  0  0  0  0  0  0  0  0
    1.9913    0.1861    0.3459 N   0  0  0  0  0  0  0  0  0  0  0  0
    2.1079    1.1643    0.5895 H   0  0  0  0  0  0  0  0  0  0  0  0
    3.1791   -0.6543    0.2417 C   0  0  0  0  0  0  0  0  0  0  0  0
    3.2260   -1.1309   -0.7431 H   0  0  0  0  0  0  0  0  0  0  0  0
    4.0821   -0.0516    0.3775 H   0  0  0  0  0  0  0  0  0  0  0  0
    3.1650   -1.4342    1.0106 H   0  0  0  0  0  0  0  0  0  0  0  0
  1  2  1  0  0  0  0
  2  3  1  0  0  0  0
  2  4  1  0  0  0  0
  2  5  1  0  0  0  0
  5  6  2  0  0  0  0
  5  7  1  0  0  0  0
  7  8  1  0  0  0  0
  7  9  1  0  0  0  0
  9 10  1  0  0  0  0
  9 11  1  0  0  0  0
  9 24  1  0  0  0  0
 11 12  1  0  0  0  0
 11 13  1  0  0  0  0
 11 14  1  0  0  0  0
 14 15  1  0  0  0  0
 14 16  1  0  0  0  0
 14 20  1  0  0  0  0
 16 17  1  0  0  0  0
 16 18  1  0  0  0  0
 16 19  1  0  0  0  0
 20 21  1  0  0  0  0
 20 22  1  0  0  0  0
 20 23  1  0  0  0  0
 24 25  2  0  0  0  0
 24 26  1  0  0  0  0
 26 27  1  0  0  0  0
 26 28  1  0  0  0  0
 28 29  1  0  0  0  0
 28 30  1  0  0  0  0
 28 31  1  0  0  0  0
M  END
$$$$

  -OEChem-01062216083D

 31 30  0     1  0  0  0  0  0999 V2000
   -3.3774   -2.8453    0.8969 H   0  0  0  0  0  0  0  0  0  0  0  0
   -3.2605   -1.9549    0.2730 C   0  0  0  0  0  0  0  0  0  0  0  0
   -4.2014   -1.4000    0.2688 H   0  0  0  0  0  0  0  0  0  0  0  0
   -3.0230   -2.2703   -0.7459 H   0  0  0  0  0  0  0  0  0  0  0  0
   -2.1437   -1.0838    0.8152 C   0  0  0  0  0  0  0  0  0  0  0  0
   -1.6086   -1.3730    1.8749 O   0  0  0  0  0  0  0  0  0  0  0  0
   -1.8385    0.1116    0.1876 N   0  0  0  0  0  0  0  0  0  0  0  0
   -2.3643    0.2594   -0.6676 H   0  0  0  0  0  0  0  0  0  0  0  0
   -0.4864    0.7138    0.2089 C   0  0  1  0  0  0  0  0  0  0  0  0
   -0.3299    1.2541   -0.7272 H   0  0  0  0  0  0  0  0  0  0  0  0
   -0.4484    1.7119    1.3927 C   0  0  0  0  0  0  0  0  0  0  0  0
   -0.7121    1.1746    2.3104 H   0  0  0  0  0  0  0  0  0  0  0  0
    0.5672    2.0953    1.5239 H   0  0  0  0  0  0  0  0  0  0  0  0
   -1.3856    2.9284    1.2232 C   0  0  0  0  0  0  0  0  0  0  0  0
   -2.4097    2.5778    1.0571 H   0  0  0  0  0  0  0  0  0  0  0  0
   -1.3703    3.7554    2.5143 C   0  0  0  0  0  0  0  0  0  0  0  0
   -0.3660    4.1426    2.7140 H   0  0  0  0  0  0  0  0  0  0  0  0
   -2.0595    4.6019    2.4341 H   0  0  0  0  0  0  0  0  0  0  0  0
   -1.6824    3.1416    3.3654 H   0  0  0  0  0  0  0  0  0  0  0  0
   -0.9739    3.8241    0.0460 C   0  0  0  0  0  0  0  0  0  0  0  0
   -1.1220    3.3096   -0.9072 H   0  0  0  0  0  0  0  0  0  0  0  0
   -1.5827    4.7336    0.0309 H   0  0  0  0  0  0  0  0  0  0  0  0
    0.0784    4.1133    0.1299 H   0  0  0  0  0  0  0  0  0  0  0  0
    0.6933   -0.2996    0.2914 C   0  0  0  0  0  0  0  0  0  0  0  0
    0.6018   -1.3787   -0.2847 O   0  0  0  0  0  0  0  0  0  0  0  0
    1.9696    0.1206    0.6294 N   0  0  0  0  0  0  0  0  0  0  0  0
    2.0537    1.0181    1.0948 H   0  0  0  0  0  0  0  0  0  0  0  0
    3.1350   -0.7553    0.5904 C   0  0  0  0  0  0  0  0  0  0  0  0
    3.3326   -1.0844   -0.4352 H   0  0  0  0  0  0  0  0  0  0  0  0
    4.0185   -0.2258    0.9594 H   0  0  0  0  0  0  0  0  0  0  0  0
    2.9724   -1.6374    1.2190 H   0  0  0  0  0  0  0  0  0  0  0  0
  1  2  1  0  0  0  0
  2  3  1  0  0  0  0
  2  4  1  0  0  0  0
  2  5  1  0  0  0  0
  5  6  2  0  0  0  0
  5  7  1  0  0  0  0
  7  8  1  0  0  0  0
  7  9  1  0  0  0  0
  9 10  1  0  0  0  0
  9 11  1  0  0  0  0
  9 24  1  0  0  0  0
 11 12  1  0  0  0  0
 11 13  1  0  0  0  0
 11 14  1  0  0  0  0
 14 15  1  0  0  0  0
 14 16  1  0  0  0  0
 14 20  1  0  0  0  0
 16 17  1  0  0  0  0
 16 18  1  0  0  0  0
 16 19  1  0  0  0  0
 20 21  1  0  0  0  0
 20 22  1  0  0  0  0
 20 23  1  0  0  0  0
 24 25  2  0  0  0  0
 24 26  1  0  0  0  0
 26 27  1  0  0  0  0
 26 28  1  0  0  0  0
 28 29  1  0  0  0  0
 28 30  1  0  0  0  0
 28 31  1  0  0  0  0
M  END
$$$$

  -OEChem-01062216083D

 31 30  0     1  0  0  0  0  0999 V2000
   -3.3094   -2.8758    0.8482 H   0  0  0  0  0  0  0  0  0  0  0  0
   -3.2528   -1.9412    0.2833 C   0  0  0  0  0  0  0  0  0  0  0  0
   -4.1966   -1.4025    0.3949 H   0  0  0  0  0  0  0  0  0  0  0  0
   -3.0963   -2.1800   -0.7714 H   0  0  0  0  0  0  0  0  0  0  0  0
   -2.1058   -1.0916    0.7967 C   0  0  0  0  0  0  0  0  0  0  0  0
   -1.5296   -1.4099    1.8261 O   0  0  0  0  0  0  0  0  0  0  0  0
   -1.8159    0.1134    0.1805 N   0  0  0  0  0  0  0  0  0  0  0  0
   -2.3570    0.2782   -0.6622 H   0  0  0  0  0  0  0  0  0  0  0  0
   -0.4731    0.7333    0.2049 C   0  0  1  0  0  0  0  0  0  0  0  0
   -0.3184    1.2773   -0.7293 H   0  0  0  0  0  0  0  0  0  0  0  0
   -0.4474    1.7316    1.3883 C   0  0  0  0  0  0  0  0  0  0  0  0
   -0.7016    1.1921    2.3076 H   0  0  0  0  0  0  0  0  0  0  0  0
    0.5634    2.1305    1.5124 H   0  0  0  0  0  0  0  0  0  0  0  0
   -1.3999    2.9361    1.2174 C   0  0  0  0  0  0  0  0  0  0  0  0
   -2.4190    2.5713    1.0514 H   0  0  0  0  0  0  0  0  0  0  0  0
   -1.3959    3.7642    2.5077 C   0  0  0  0  0  0  0  0  0  0  0  0
   -0.3952    4.1572    2.7132 H   0  0  0  0  0  0  0  0  0  0  0  0
   -2.0894    4.6068    2.4234 H   0  0  0  0  0  0  0  0  0  0  0  0
   -1.7093    3.1482    3.3566 H   0  0  0  0  0  0  0  0  0  0  0  0
   -1.0007    3.8373    0.0397 C   0  0  0  0  0  0  0  0  0  0  0  0
   -1.1376    3.3194   -0.9132 H   0  0  0  0  0  0  0  0  0  0  0  0
   -1.6248    4.7363    0.0217 H   0  0  0  0  0  0  0  0  0  0  0  0
    0.0462    4.1450    0.1253 H   0  0  0  0  0  0  0  0  0  0  0  0
    0.7020   -0.2850    0.2773 C   0  0  0  0  0  0  0  0  0  0  0  0
    0.6756   -1.2629   -0.4630 O   0  0  0  0  0  0  0  0  0  0  0  0
    1.9028    0.0194    0.8973 N   0  0  0  0  0  0  0  0  0  0  0  0
    1.8919    0.7884    1.5593 H   0  0  0  0  0  0  0  0  0  0  0  0
    3.0348   -0.8994    0.9219 C   0  0  0  0  0  0  0  0  0  0  0  0
    3.3843   -1.1054   -0.0953 H   0  0  0  0  0  0  0  0  0  0  0  0
    3.8630   -0.4635    1.4886 H   0  0  0  0  0  0  0  0  0  0  0  0
    2.7495   -1.8452    1.3947 H   0  0  0  0  0  0  0  0  0  0  0  0
  1  2  1  0  0  0  0
  2  3  1  0  0  0  0
  2  4  1  0  0  0  0
  2  5  1  0  0  0  0
  5  6  2  0  0  0  0
  5  7  1  0  0  0  0
  7  8  1  0  0  0  0
  7  9  1  0  0  0  0
  9 10  1  0  0  0  0
  9 11  1  0  0  0  0
  9 24  1  0  0  0  0
 11 12  1  0  0  0  0
 11 13  1  0  0  0  0
 11 14  1  0  0  0  0
 14 15  1  0  0  0  0
 14 16  1  0  0  0  0
 14 20  1  0  0  0  0
 16 17  1  0  0  0  0
 16 18  1  0  0  0  0
 16 19  1  0  0  0  0
 20 21  1  0  0  0  0
 20 22  1  0  0  0  0
 20 23  1  0  0  0  0
 24 25  2  0  0  0  0
 24 26  1  0  0  0  0
 26 27  1  0  0  0  0
 26 28  1  0  0  0  0
 28 29  1  0  0  0  0
 28 30  1  0  0  0  0
 28 31  1  0  0  0  0
M  END
$$$$

  -OEChem-01062216083D

 31 30  0     1  0  0  0  0  0999 V2000
   -3.2999   -2.8761    0.8504 H   0  0  0  0  0  0  0  0  0  0  0  0
   -3.2400   -1.9430    0.2830 C   0  0  0  0  0  0  0  0  0  0  0  0
   -4.1783   -1.3962    0.4011 H   0  0  0  0  0  0  0  0  0  0  0  0
   -3.0939   -2.1845   -0.7726 H   0  0  0  0  0  0  0  0  0  0  0  0
   -2.0823   -1.1015    0.7848 C   0  0  0  0  0  0  0  0  0  0  0  0
   -1.4759   -1.4437    1.7887 O   0  0  0  0  0  0  0  0  0  0  0  0
   -1.8048    0.1114    0.1787 N   0  0  0  0  0  0  0  0  0  0  0  0
   -2.3607    0.2912   -0.6514 H   0  0  0  0  0  0  0  0  0  0  0  0
   -0.4698    0.7466    0.2053 C   0  0  1  0  0  0  0  0  0  0  0  0
   -0.3209    1.2922   -0.7292 H   0  0  0  0  0  0  0  0  0  0  0  0
   -0.4445    1.7468    1.3860 C   0  0  0  0  0  0  0  0  0  0  0  0
   -0.6937    1.2072    2.3067 H   0  0  0  0  0  0  0  0  0  0  0  0
    0.5671    2.1483    1.5022 H   0  0  0  0  0  0  0  0  0  0  0  0
   -1.4049    2.9452    1.2176 C   0  0  0  0  0  0  0  0  0  0  0  0
   -2.4224    2.5741    1.0559 H   0  0  0  0  0  0  0  0  0  0  0  0
   -1.3998    3.7756    2.5064 C   0  0  0  0  0  0  0  0  0  0  0  0
   -0.4003    4.1752    2.7062 H   0  0  0  0  0  0  0  0  0  0  0  0
   -2.0988    4.6138    2.4237 H   0  0  0  0  0  0  0  0  0  0  0  0
   -1.7053    3.1597    3.3582 H   0  0  0  0  0  0  0  0  0  0  0  0
   -1.0155    3.8472    0.0367 C   0  0  0  0  0  0  0  0  0  0  0  0
   -1.1534    3.3280   -0.9155 H   0  0  0  0  0  0  0  0  0  0  0  0
   -1.6440    4.7432    0.0201 H   0  0  0  0  0  0  0  0  0  0  0  0
    0.0302    4.1604    0.1176 H   0  0  0  0  0  0  0  0  0  0  0  0
    0.7066   -0.2684    0.2679 C   0  0  0  0  0  0  0  0  0  0  0  0
    0.7715   -1.1304   -0.6020 O   0  0  0  0  0  0  0  0  0  0  0  0
    1.7831   -0.1133    1.1250 N   0  0  0  0  0  0  0  0  0  0  0  0
    1.6405    0.5100    1.9134 H   0  0  0  0  0  0  0  0  0  0  0  0
    2.8680   -1.0838    1.2035 C   0  0  0  0  0  0  0  0  0  0  0  0
    3.3779   -1.1693    0.2382 H   0  0  0  0  0  0  0  0  0  0  0  0
    3.6010   -0.7714    1.9532 H   0  0  0  0  0  0  0  0  0  0  0  0
    2.4800   -2.0683    1.4858 H   0  0  0  0  0  0  0  0  0  0  0  0
  1  2  1  0  0  0  0
  2  3  1  0  0  0  0
  2  4  1  0  0  0  0
  2  5  1  0  0  0  0
  5  6  2  0  0  0  0
  5  7  1  0  0  0  0
  7  8  1  0  0  0  0
  7  9  1  0  0  0  0
  9 10  1  0  0  0  0
  9 11  1  0  0  0  0
  9 24  1  0  0  0  0
 11 12  1  0  0  0  0
 11 13  1  0  0  0  0
 11 14  1  0  0  0  0
 14 15  1  0  0  0  0
 14 16  1  0  0  0  0
 14 20  1  0  0  0  0
 16 17  1  0  0  0  0
 16 18  1  0  0  0  0
 16 19  1  0  0  0  0
 20 21  1  0  0  0  0
 20 22  1  0  0  0  0
 20 23  1  0  0  0  0
 24 25  2  0  0  0  0
 24 26  1  0  0  0  0
 26 27  1  0  0  0  0
 26 28  1  0  0  0  0
 28 29  1  0  0  0  0
 28 30  1  0  0  0  0
 28 31  1  0  0  0  0
M  END
$$$$

  -OEChem-01062216083D

 31 30  0     1  0  0  0  0  0999 V2000
   -3.3096   -2.8728    0.8441 H   0  0  0  0  0  0  0  0  0  0  0  0
   -3.2505   -1.9348    0.2847 C   0  0  0  0  0  0  0  0  0  0  0  0
   -4.1817   -1.3807    0.4246 H   0  0  0  0  0  0  0  0  0  0  0  0
   -3.1261   -2.1673   -0.7757 H   0  0  0  0  0  0  0  0  0  0  0  0
   -2.0754   -1.1093    0.7735 C   0  0  0  0  0  0  0  0  0  0  0  0
   -1.4508   -1.4715    1.7589 O   0  0  0  0  0  0  0  0  0  0  0  0
   -1.7949    0.1048    0.1721 N   0  0  0  0  0  0  0  0  0  0  0  0
   -2.3612    0.3017   -0.6471 H   0  0  0  0  0  0  0  0  0  0  0  0
   -0.4643    0.7476    0.2033 C   0  0  1  0  0  0  0  0  0  0  0  0
   -0.3169    1.2940   -0.7313 H   0  0  0  0  0  0  0  0  0  0  0  0
   -0.4415    1.7484    1.3826 C   0  0  0  0  0  0  0  0  0  0  0  0
   -0.6917    1.2104    2.3038 H   0  0  0  0  0  0  0  0  0  0  0  0
    0.5722    2.1469    1.4969 H   0  0  0  0  0  0  0  0  0  0  0  0
   -1.4048    2.9445    1.2154 C   0  0  0  0  0  0  0  0  0  0  0  0
   -2.4215    2.5716    1.0541 H   0  0  0  0  0  0  0  0  0  0  0  0
   -1.3999    3.7747    2.5045 C   0  0  0  0  0  0  0  0  0  0  0  0
   -0.4008    4.1756    2.7029 H   0  0  0  0  0  0  0  0  0  0  0  0
   -2.1003    4.6119    2.4229 H   0  0  0  0  0  0  0  0  0  0  0  0
   -1.7035    3.1586    3.3569 H   0  0  0  0  0  0  0  0  0  0  0  0
   -1.0170    3.8469    0.0347 C   0  0  0  0  0  0  0  0  0  0  0  0
   -1.1543    3.3271   -0.9172 H   0  0  0  0  0  0  0  0  0  0  0  0
   -1.6465    4.7423    0.0177 H   0  0  0  0  0  0  0  0  0  0  0  0
    0.0284    4.1607    0.1162 H   0  0  0  0  0  0  0  0  0  0  0  0
    0.7175   -0.2584    0.2696 C   0  0  0  0  0  0  0  0  0  0  0  0
    0.9054   -0.9883   -0.6971 O   0  0  0  0  0  0  0  0  0  0  0  0
    1.6280   -0.2768    1.3125 N   0  0  0  0  0  0  0  0  0  0  0  0
    1.3260    0.1835    2.1660 H   0  0  0  0  0  0  0  0  0  0  0  0
    2.6723   -1.2883    1.4163 C   0  0  0  0  0  0  0  0  0  0  0  0
    3.3334   -1.2507    0.5441 H   0  0  0  0  0  0  0  0  0  0  0  0
    3.2762   -1.1165    2.3122 H   0  0  0  0  0  0  0  0  0  0  0  0
    2.2296   -2.2879    1.4809 H   0  0  0  0  0  0  0  0  0  0  0  0
  1  2  1  0  0  0  0
  2  3  1  0  0  0  0
  2  4  1  0  0  0  0
  2  5  1  0  0  0  0
  5  6  2  0  0  0  0
  5  7  1  0  0  0  0
  7  8  1  0  0  0  0
  7  9  1  0  0  0  0
  9 10  1  0  0  0  0
  9 11  1  0  0  0  0
  9 24  1  0  0  0  0
 11 12  1  0  0  0  0
 11 13  1  0  0  0  0
 11 14  1  0  0  0  0
 14 15  1  0  0  0  0
 14 16  1  0  0  0  0
 14 20  1  0  0  0  0
 16 17  1  0  0  0  0
 16 18  1  0  0  0  0
 16 19  1  0  0  0  0
 20 21  1  0  0  0  0
 20 22  1  0  0  0  0
 20 23  1  0  0  0  0
 24 25  2  0  0  0  0
 24 26  1  0  0  0  0
 26 27  1  0  0  0  0
 26 28  1  0  0  0  0
 28 29  1  0  0  0  0
 28 30  1  0  0  0  0
 28 31  1  0  0  0  0
M  END
$$$$

  -OEChem-01062216083D

 31 30  0     1  0  0  0  0  0999 V2000
   -3.3656   -2.8520    0.8395 H   0  0  0  0  0  0  0  0  0  0  0  0
   -3.2918   -1.9114    0.2866 C   0  0  0  0  0  0  0  0  0  0  0  0
   -4.2069   -1.3360    0.4451 H   0  0  0  0  0  0  0  0  0  0  0  0
   -3.1897   -2.1379   -0.7774 H   0  0  0  0  0  0  0  0  0  0  0  0
   -2.0902   -1.1182    0.7641 C   0  0  0  0  0  0  0  0  0  0  0  0
   -1.4591   -1.5033    1.7365 O   0  0  0  0  0  0  0  0  0  0  0  0
   -1.7915    0.0927    0.1663 N   0  0  0  0  0  0  0  0  0  0  0  0
   -2.3686    0.3159   -0.6387 H   0  0  0  0  0  0  0  0  0  0  0  0
   -0.4608    0.7343    0.2052 C   0  0  1  0  0  0  0  0  0  0  0  0
   -0.3115    1.2811   -0.7292 H   0  0  0  0  0  0  0  0  0  0  0  0
   -0.4399    1.7346    1.3836 C   0  0  0  0  0  0  0  0  0  0  0  0
   -0.6986    1.1993    2.3037 H   0  0  0  0  0  0  0  0  0  0  0  0
    0.5772    2.1234    1.5039 H   0  0  0  0  0  0  0  0  0  0  0  0
   -1.3994    2.9330    1.2116 C   0  0  0  0  0  0  0  0  0  0  0  0
   -2.4163    2.5628    1.0454 H   0  0  0  0  0  0  0  0  0  0  0  0
   -1.3992    3.7648    2.4994 C   0  0  0  0  0  0  0  0  0  0  0  0
   -0.4015    4.1678    2.7008 H   0  0  0  0  0  0  0  0  0  0  0  0
   -2.1013    4.6002    2.4145 H   0  0  0  0  0  0  0  0  0  0  0  0
   -1.7044    3.1491    3.3514 H   0  0  0  0  0  0  0  0  0  0  0  0
   -1.0028    3.8341    0.0328 C   0  0  0  0  0  0  0  0  0  0  0  0
   -1.1385    3.3153   -0.9199 H   0  0  0  0  0  0  0  0  0  0  0  0
   -1.6285    4.7320    0.0143 H   0  0  0  0  0  0  0  0  0  0  0  0
    0.0438    4.1436    0.1180 H   0  0  0  0  0  0  0  0  0  0  0  0
    0.7283   -0.2603    0.2825 C   0  0  0  0  0  0  0  0  0  0  0  0
    1.0843   -0.8143   -0.7507 O   0  0  0  0  0  0  0  0  0  0  0  0
    1.4428   -0.4756    1.4483 N   0  0  0  0  0  0  0  0  0  0  0  0
    0.9494   -0.2255    2.3013 H   0  0  0  0  0  0  0  0  0  0  0  0
    2.4793   -1.4957    1.5440 C   0  0  0  0  0  0  0  0  0  0  0  0
    3.2715   -1.3090    0.8114 H   0  0  0  0  0  0  0  0  0  0  0  0
    2.9264   -1.4866    2.5425 H   0  0  0  0  0  0  0  0  0  0  0  0
    2.0560   -2.4890    1.3607 H   0  0  0  0  0  0  0  0  0  0  0  0
  1  2  1  0  0  0  0
  2  3  1  0  0  0  0
  2  4  1  0  0  0  0
  2  5  1  0  0  0  0
  5  6  2  0  0  0  0
  5  7  1  0  0  0  0
  7  8  1  0  0  0  0
  7  9  1  0  0  0  0
  9 10  1  0  0  0  0
  9 11  1  0  0  0  0
  9 24  1  0  0  0  0
 11 12  1  0  0  0  0
 11 13  1  0  0  0  0
 11 14  1  0  0  0  0
 14 15  1  0  0  0  0
 14 16  1  0  0  0  0
 14 20  1  0  0  0  0
 16 17  1  0  0  0  0
 16 18  1  0  0  0  0
 16 19  1  0  0  0  0
 20 21  1  0  0  0  0
 20 22  1  0  0  0  0
 20 23  1  0  0  0  0
 24 25  2  0  0  0  0
 24 26  1  0  0  0  0
 26 27  1  0  0  0  0
 26 28  1  0  0  0  0
 28 29  1  0  0  0  0
 28 30  1  0  0  0  0
 28 31  1  0  0  0  0
M  END
$$$$

  -OEChem-01062216083D

 31 30  0     1  0  0  0  0  0999 V2000
   -3.4737   -2.8163    0.8299 H   0  0  0  0  0  0  0  0  0  0  0  0
   -3.3723   -1.8741    0.2839 C   0  0  0  0  0  0  0  0  0  0  0  0
   -4.2627   -1.2662    0.4612 H   0  0  0  0  0  0  0  0  0  0  0  0
   -3.2944   -2.0948   -0.7835 H   0  0  0  0  0  0  0  0  0  0  0  0
   -2.1357   -1.1301    0.7507 C   0  0  0  0  0  0  0  0  0  0  0  0
   -1.5107   -1.5456    1.7140 O   0  0  0  0  0  0  0  0  0  0  0  0
   -1.8014    0.0726    0.1562 N   0  0  0  0  0  0  0  0  0  0  0  0
   -2.3899    0.3326   -0.6298 H   0  0  0  0  0  0  0  0  0  0  0  0
   -0.4660    0.7048    0.2024 C   0  0  1  0  0  0  0  0  0  0  0  0
   -0.3149    1.2516   -0.7319 H   0  0  0  0  0  0  0  0  0  0  0  0
   -0.4419    1.7038    1.3806 C   0  0  0  0  0  0  0  0  0  0  0  0
   -0.7087    1.1700    2.2992 H   0  0  0  0  0  0  0  0  0  0  0  0
    0.5794    2.0799    1.5061 H   0  0  0  0  0  0  0  0  0  0  0  0
   -1.3901    2.9112    1.2077 C   0  0  0  0  0  0  0  0  0  0  0  0
   -2.4100    2.5508    1.0376 H   0  0  0  0  0  0  0  0  0  0  0  0
   -1.3854    3.7396    2.4980 C   0  0  0  0  0  0  0  0  0  0  0  0
   -0.3834    4.1296    2.7036 H   0  0  0  0  0  0  0  0  0  0  0  0
   -2.0765    4.5840    2.4131 H   0  0  0  0  0  0  0  0  0  0  0  0
   -1.7008    3.1250    3.3471 H   0  0  0  0  0  0  0  0  0  0  0  0
   -0.9815    3.8115    0.0320 C   0  0  0  0  0  0  0  0  0  0  0  0
   -1.1175    3.2961   -0.9225 H   0  0  0  0  0  0  0  0  0  0  0  0
   -1.5992    4.7149    0.0127 H   0  0  0  0  0  0  0  0  0  0  0  0
    0.0672    4.1118    0.1221 H   0  0  0  0  0  0  0  0  0  0  0  0
    0.7350   -0.2732    0.2960 C   0  0  0  0  0  0  0  0  0  0  0  0
    1.2919   -0.6101   -0.7415 O   0  0  0  0  0  0  0  0  0  0  0  0
    1.2440   -0.6991    1.5096 N   0  0  0  0  0  0  0  0  0  0  0  0
    0.5598   -0.6860    2.2651 H   0  0  0  0  0  0  0  0  0  0  0  0
    2.3136   -1.6848    1.5962 C   0  0  0  0  0  0  0  0  0  0  0  0
    3.2069   -1.3305    1.0713 H   0  0  0  0  0  0  0  0  0  0  0  0
    2.5781   -1.8617    2.6430 H   0  0  0  0  0  0  0  0  0  0  0  0
    1.9958   -2.6337    1.1515 H   0  0  0  0  0  0  0  0  0  0  0  0
  1  2  1  0  0  0  0
  2  3  1  0  0  0  0
  2  4  1  0  0  0  0
  2  5  1  0  0  0  0
  5  6  2  0  0  0  0
  5  7  1  0  0  0  0
  7  8  1  0  0  0  0
  7  9  1  0  0  0  0
  9 10  1  0  0  0  0
  9 11  1  0  0  0  0
  9 24  1  0  0  0  0
 11 12  1  0  0  0  0
 11 13  1  0  0  0  0
 11 14  1  0  0  0  0
 14 15  1  0  0  0  0
 14 16  1  0  0  0  0
 14 20  1  0  0  0  0
 16 17  1  0  0  0  0
 16 18  1  0  0  0  0
 16 19  1  0  0  0  0
 20 21  1  0  0  0  0
 20 22  1  0  0  0  0
 20 23  1  0  0  0  0
 24 25  2  0  0  0  0
 24 26  1  0  0  0  0
 26 27  1  0  0  0  0
 26 28  1  0  0  0  0
 28 29  1  0  0  0  0
 28 30  1  0  0  0  0
 28 31  1  0  0  0  0
M  END
$$$$

  -OEChem-01062216083D

 31 30  0     1  0  0  0  0  0999 V2000
   -3.6361   -2.7477    0.8309 H   0  0  0  0  0  0  0  0  0  0  0  0
   -3.4761   -1.8233    0.2684 C   0  0  0  0  0  0  0  0  0  0  0  0
   -4.3342   -1.1646    0.4220 H   0  0  0  0  0  0  0  0  0  0  0  0
   -3.3975   -2.0691   -0.7935 H   0  0  0  0  0  0  0  0  0  0  0  0
   -2.2058   -1.1392    0.7378 C   0  0  0  0  0  0  0  0  0  0  0  0
   -1.6038   -1.5911    1.6981 O   0  0  0  0  0  0  0  0  0  0  0  0
   -1.8199    0.0496    0.1468 N   0  0  0  0  0  0  0  0  0  0  0  0
   -2.4153    0.3477   -0.6202 H   0  0  0  0  0  0  0  0  0  0  0  0
   -0.4764    0.6698    0.1935 C   0  0  1  0  0  0  0  0  0  0  0  0
   -0.3271    1.2174   -0.7410 H   0  0  0  0  0  0  0  0  0  0  0  0
   -0.4457    1.6647    1.3741 C   0  0  0  0  0  0  0  0  0  0  0  0
   -0.7159    1.1290    2.2906 H   0  0  0  0  0  0  0  0  0  0  0  0
    0.5788    2.0315    1.5027 H   0  0  0  0  0  0  0  0  0  0  0  0
   -1.3829    2.8809    1.2065 C   0  0  0  0  0  0  0  0  0  0  0  0
   -2.4058    2.5303    1.0347 H   0  0  0  0  0  0  0  0  0  0  0  0
   -1.3701    3.7027    2.5007 C   0  0  0  0  0  0  0  0  0  0  0  0
   -0.3644    4.0824    2.7078 H   0  0  0  0  0  0  0  0  0  0  0  0
   -2.0531    4.5540    2.4198 H   0  0  0  0  0  0  0  0  0  0  0  0
   -1.6906    3.0870    3.3469 H   0  0  0  0  0  0  0  0  0  0  0  0
   -0.9668    3.7832    0.0357 C   0  0  0  0  0  0  0  0  0  0  0  0
   -1.1055    3.2728   -0.9209 H   0  0  0  0  0  0  0  0  0  0  0  0
   -1.5786    4.6906    0.0206 H   0  0  0  0  0  0  0  0  0  0  0  0
    0.0840    4.0758    0.1283 H   0  0  0  0  0  0  0  0  0  0  0  0
    0.7446   -0.2821    0.3034 C   0  0  0  0  0  0  0  0  0  0  0  0
    1.4776   -0.4004   -0.6705 O   0  0  0  0  0  0  0  0  0  0  0  0
    1.0807   -0.9261    1.4793 N   0  0  0  0  0  0  0  0  0  0  0  0
    0.2904   -1.0581    2.1143 H   0  0  0  0  0  0  0  0  0  0  0  0
    2.1774   -1.8814    1.5627 C   0  0  0  0  0  0  0  0  0  0  0  0
    3.1218   -1.4089    1.2728 H   0  0  0  0  0  0  0  0  0  0  0  0
    2.2779   -2.2492    2.5882 H   0  0  0  0  0  0  0  0  0  0  0  0
    1.9922   -2.7352    0.9027 H   0  0  0  0  0  0  0  0  0  0  0  0
  1  2  1  0  0  0  0
  2  3  1  0  0  0  0
  2  4  1  0  0  0  0
  2  5  1  0  0  0  0
  5  6  2  0  0  0  0
  5  7  1  0  0  0  0
  7  8  1  0  0  0  0
  7  9  1  0  0  0  0
  9 10  1  0  0  0  0
  9 11  1  0  0  0  0
  9 24  1  0  0  0  0
 11 12  1  0  0  0  0
 11 13  1  0  0  0  0
 11 14  1  0  0  0  0
 14 15  1  0  0  0  0
 14 16  1  0  0  0  0
 14 20  1  0  0  0  0
 16 17  1  0  0  0  0
 16 18  1  0  0  0  0
 16 19  1  0  0  0  0
 20 21  1  0  0  0  0
 20 22  1  0  0  0  0
 20 23  1  0  0  0  0
 24 25  2  0  0  0  0
 24 26  1  0  0  0  0
 26 27  1  0  0  0  0
 26 28  1  0  0  0  0
 28 29  1  0  0  0  0
 28 30  1  0  0  0  0
 28 31  1  0  0  0  0
M  END
$$$$

  -OEChem-01062216083D

 31 30  0     1  0  0  0  0  0999 V2000
   -3.7936   -2.6852    0.7806 H   0  0  0  0  0  0  0  0  0  0  0  0
   -3.6024   -1.7430    0.2591 C   0  0  0  0  0  0  0  0  0  0  0  0
   -4.4202   -1.0504    0.4726 H   0  0  0  0  0  0  0  0  0  0  0  0
   -3.5689   -1.9382   -0.8155 H   0  0  0  0  0  0  0  0  0  0  0  0
   -2.2852   -1.1477    0.7199 C   0  0  0  0  0  0  0  0  0  0  0  0
   -1.7050   -1.6535    1.6651 O   0  0  0  0  0  0  0  0  0  0  0  0
   -1.8404    0.0242    0.1370 N   0  0  0  0  0  0  0  0  0  0  0  0
   -2.4436    0.3712   -0.6029 H   0  0  0  0  0  0  0  0  0  0  0  0
   -0.4867    0.6276    0.1842 C   0  0  1  0  0  0  0  0  0  0  0  0
   -0.3396    1.1749   -0.7508 H   0  0  0  0  0  0  0  0  0  0  0  0
   -0.4569    1.6192    1.3672 C   0  0  0  0  0  0  0  0  0  0  0  0
   -0.7339    1.0809    2.2804 H   0  0  0  0  0  0  0  0  0  0  0  0
    0.5691    1.9797    1.5031 H   0  0  0  0  0  0  0  0  0  0  0  0
   -1.3832    2.8440    1.1981 C   0  0  0  0  0  0  0  0  0  0  0  0
   -2.4082    2.5040    1.0180 H   0  0  0  0  0  0  0  0  0  0  0  0
   -1.3725    3.6617    2.4950 C   0  0  0  0  0  0  0  0  0  0  0  0
   -0.3654    4.0339    2.7091 H   0  0  0  0  0  0  0  0  0  0  0  0
   -2.0494    4.5178    2.4130 H   0  0  0  0  0  0  0  0  0  0  0  0
   -1.7023    3.0461    3.3377 H   0  0  0  0  0  0  0  0  0  0  0  0
   -0.9488    3.7460    0.0334 C   0  0  0  0  0  0  0  0  0  0  0  0
   -1.0853    3.2407   -0.9263 H   0  0  0  0  0  0  0  0  0  0  0  0
   -1.5500    4.6604    0.0162 H   0  0  0  0  0  0  0  0  0  0  0  0
    0.1045    4.0265    0.1350 H   0  0  0  0  0  0  0  0  0  0  0  0
    0.7571   -0.2954    0.3074 C   0  0  0  0  0  0  0  0  0  0  0  0
    1.6269   -0.2038   -0.5499 O   0  0  0  0  0  0  0  0  0  0  0  0
    0.9661   -1.1564    1.3667 N   0  0  0  0  0  0  0  0  0  0  0  0
    0.1320   -1.3692    1.9198 H   0  0  0  0  0  0  0  0  0  0  0  0
    2.0950   -2.0742    1.4409 C   0  0  0  0  0  0  0  0  0  0  0  0
    3.0406   -1.5239    1.3964 H   0  0  0  0  0  0  0  0  0  0  0  0
    2.0650   -2.6304    2.3825 H   0  0  0  0  0  0  0  0  0  0  0  0
    2.0629   -2.7892    0.6124 H   0  0  0  0  0  0  0  0  0  0  0  0
  1  2  1  0  0  0  0
  2  3  1  0  0  0  0
  2  4  1  0  0  0  0
  2  5  1  0  0  0  0
  5  6  2  0  0  0  0
  5  7  1  0  0  0  0
  7  8  1  0  0  0  0
  7  9  1  0  0  0  0
  9 10  1  0  0  0  0
  9 11  1  0  0  0  0
  9 24  1  0  0  0  0
 11 12  1  0  0  0  0
 11 13  1  0  0  0  0
 11 14  1  0  0  0  0
 14 15  1  0  0  0  0
 14 16  1  0  0  0  0
 14 20  1  0  0  0  0
 16 17  1  0  0  0  0
 16 18  1  0  0  0  0
 16 19  1  0  0  0  0
 20 21  1  0  0  0  0
 20 22  1  0  0  0  0
 20 23  1  0  0  0  0
 24 25  2  0  0  0  0
 24 26  1  0  0  0  0
 26 27  1  0  0  0  0
 26 28  1  0  0  0  0
 28 29  1  0  0  0  0
 28 30  1  0  0  0  0
 28 31  1  0  0  0  0
M  END
$$$$

  -OEChem-01062216083D

 31 30  0     1  0  0  0  0  0999 V2000
   -3.9165   -2.6309    0.7539 H   0  0  0  0  0  0  0  0  0  0  0  0
   -3.7007   -1.6825    0.2536 C   0  0  0  0  0  0  0  0  0  0  0  0
   -4.4915   -0.9685    0.4963 H   0  0  0  0  0  0  0  0  0  0  0  0
   -3.6892   -1.8516   -0.8258 H   0  0  0  0  0  0  0  0  0  0  0  0
   -2.3579   -1.1430    0.7105 C   0  0  0  0  0  0  0  0  0  0  0  0
   -1.7977   -1.6776    1.6513 O   0  0  0  0  0  0  0  0  0  0  0  0
   -1.8735    0.0148    0.1310 N   0  0  0  0  0  0  0  0  0  0  0  0
   -2.4793    0.3926   -0.5914 H   0  0  0  0  0  0  0  0  0  0  0  0
   -0.5082    0.5966    0.1700 C   0  0  1  0  0  0  0  0  0  0  0  0
   -0.3640    1.1437   -0.7654 H   0  0  0  0  0  0  0  0  0  0  0  0
   -0.4660    1.5830    1.3568 C   0  0  0  0  0  0  0  0  0  0  0  0
   -0.7462    1.0427    2.2679 H   0  0  0  0  0  0  0  0  0  0  0  0
    0.5637    1.9331    1.4930 H   0  0  0  0  0  0  0  0  0  0  0  0
   -1.3781    2.8192    1.1941 C   0  0  0  0  0  0  0  0  0  0  0  0
   -2.4072    2.4917    1.0145 H   0  0  0  0  0  0  0  0  0  0  0  0
   -1.3560    3.6313    2.4943 C   0  0  0  0  0  0  0  0  0  0  0  0
   -0.3435    3.9872    2.7106 H   0  0  0  0  0  0  0  0  0  0  0  0
   -2.0195    4.4981    2.4150 H   0  0  0  0  0  0  0  0  0  0  0  0
   -1.6956    3.0173    3.3344 H   0  0  0  0  0  0  0  0  0  0  0  0
   -0.9355    3.7202    0.0318 C   0  0  0  0  0  0  0  0  0  0  0  0
   -1.0808    3.2206   -0.9297 H   0  0  0  0  0  0  0  0  0  0  0  0
   -1.5252    4.6423    0.0201 H   0  0  0  0  0  0  0  0  0  0  0  0
    0.1217    3.9868    0.1317 H   0  0  0  0  0  0  0  0  0  0  0  0
    0.7462   -0.3146    0.2900 C   0  0  0  0  0  0  0  0  0  0  0  0
    1.7078   -0.0489   -0.4203 O   0  0  0  0  0  0  0  0  0  0  0  0
    0.8650   -1.3761    1.1640 N   0  0  0  0  0  0  0  0  0  0  0  0
    0.0197   -1.6348    1.6783 H   0  0  0  0  0  0  0  0  0  0  0  0
    2.0270   -2.2516    1.2330 C   0  0  0  0  0  0  0  0  0  0  0  0
    2.9281   -1.6749    1.4663 H   0  0  0  0  0  0  0  0  0  0  0  0
    1.8857   -3.0026    2.0161 H   0  0  0  0  0  0  0  0  0  0  0  0
    2.1742   -2.7680    0.2788 H   0  0  0  0  0  0  0  0  0  0  0  0
  1  2  1  0  0  0  0
  2  3  1  0  0  0  0
  2  4  1  0  0  0  0
  2  5  1  0  0  0  0
  5  6  2  0  0  0  0
  5  7  1  0  0  0  0
  7  8  1  0  0  0  0
  7  9  1  0  0  0  0
  9 10  1  0  0  0  0
  9 11  1  0  0  0  0
  9 24  1  0  0  0  0
 11 12  1  0  0  0  0
 11 13  1  0  0  0  0
 11 14  1  0  0  0  0
 14 15  1  0  0  0  0
 14 16  1  0  0  0  0
 14 20  1  0  0  0  0
 16 17  1  0  0  0  0
 16 18  1  0  0  0  0
 16 19  1  0  0  0  0
 20 21  1  0  0  0  0
 20 22  1  0  0  0  0
 20 23  1  0  0  0  0
 24 25  2  0  0  0  0
 24 26  1  0  0  0  0
 26 27  1  0  0  0  0
 26 28  1  0  0  0  0
 28 29  1  0  0  0  0
 28 30  1  0  0  0  0
 28 31  1  0  0  0  0
M  END
$$$$

  -OEChem-01062216083D

 31 30  0     1  0  0  0  0  0999 V2000
   -2.9862   -2.2777   -0.7765 H   0  0  0  0  0  0  0  0  0  0  0  0
   -3.1865   -1.9881    0.2577 C   0  0  0  0  0  0  0  0  0  0  0  0
   -4.0797   -1.3593    0.2877 H   0  0  0  0  0  0  0  0  0  0  0  0
   -3.3723   -2.8917    0.8455 H   0  0  0  0  0  0  0  0  0  0  0  0
   -2.0011   -1.2298    0.8248 C   0  0  0  0  0  0  0  0  0  0  0  0
   -1.5313   -1.5787    1.8916 O   0  0  0  0  0  0  0  0  0  0  0  0
   -1.6056   -0.0561    0.2161 N   0  0  0  0  0  0  0  0  0  0  0  0
   -2.1697    0.1937   -0.5901 H   0  0  0  0  0  0  0  0  0  0  0  0
   -0.3105    0.6587    0.3208 C   0  0  1  0  0  0  0  0  0  0  0  0
   -0.1579    1.1762   -0.6292 H   0  0  0  0  0  0  0  0  0  0  0  0
   -0.4978    1.6992    1.4519 C   0  0  0  0  0  0  0  0  0  0  0  0
   -0.8024    1.1705    2.3620 H   0  0  0  0  0  0  0  0  0  0  0  0
    0.4629    2.1789    1.6692 H   0  0  0  0  0  0  0  0  0  0  0  0
   -1.5216    2.8139    1.1363 C   0  0  0  0  0  0  0  0  0  0  0  0
   -2.4861    2.3636    0.8805 H   0  0  0  0  0  0  0  0  0  0  0  0
   -1.7180    3.6791    2.3866 C   0  0  0  0  0  0  0  0  0  0  0  0
   -0.7772    4.1572    2.6777 H   0  0  0  0  0  0  0  0  0  0  0  0
   -2.4615    4.4600    2.1988 H   0  0  0  0  0  0  0  0  0  0  0  0
   -2.0701    3.0669    3.2228 H   0  0  0  0  0  0  0  0  0  0  0  0
   -1.0685    3.7085   -0.0272 C   0  0  0  0  0  0  0  0  0  0  0  0
   -1.0643    3.1546   -0.9695 H   0  0  0  0  0  0  0  0  0  0  0  0
   -1.7507    4.5566   -0.1427 H   0  0  0  0  0  0  0  0  0  0  0  0
   -0.0614    4.0970    0.1552 H   0  0  0  0  0  0  0  0  0  0  0  0
    1.0531   -0.0641    0.5683 C   0  0  0  0  0  0  0  0  0  0  0  0
    2.0740    0.5835    0.3886 O   0  0  0  0  0  0  0  0  0  0  0  0
    1.3376   -1.2292    1.2403 N   0  0  0  0  0  0  0  0  0  0  0  0
    2.2902   -1.1932    1.5925 H   0  0  0  0  0  0  0  0  0  0  0  0
    0.9821   -2.5148    0.6525 C   0  0  0  0  0  0  0  0  0  0  0  0
    1.8796   -3.0050    0.2627 H   0  0  0  0  0  0  0  0  0  0  0  0
    0.5327   -3.1657    1.4092 H   0  0  0  0  0  0  0  0  0  0  0  0
    0.2761   -2.3992   -0.1755 H   0  0  0  0  0  0  0  0  0  0  0  0
  1  2  1  0  0  0  0
  2  3  1  0  0  0  0
  2  4  1  0  0  0  0
  2  5  1  0  0  0  0
  5  6  2  0  0  0  0
  5  7  1  0  0  0  0
  7  8  1  0  0  0  0
  7  9  1  0  0  0  0
  9 10  1  0  0  0  0
  9 11  1  0  0  0  0
  9 24  1  0  0  0  0
 11 12  1  0  0  0  0
 11 13  1  0  0  0  0
 11 14  1  0  0  0  0
 14 15  1  0  0  0  0
 14 16  1  0  0  0  0
 14 20  1  0  0  0  0
 16 17  1  0  0  0  0
 16 18  1  0  0  0  0
 16 19  1  0  0  0  0
 20 21  1  0  0  0  0
 20 22  1  0  0  0  0
 20 23  1  0  0  0  0
 24 25  2  0  0  0  0
 24 26  1  0  0  0  0
 26 27  1  0  0  0  0
 26 28  1  0  0  0  0
 28 29  1  0  0  0  0
 28 30  1  0  0  0  0
 28 31  1  0  0  0  0
M  END
$$$$

  -OEChem-01062216083D

 31 30  0     1  0  0  0  0  0999 V2000
   -3.6837   -2.8358    0.7841 H   0  0  0  0  0  0  0  0  0  0  0  0
   -3.5814   -1.8730    0.2756 C   0  0  0  0  0  0  0  0  0  0  0  0
   -4.4277   -1.2383    0.5490 H   0  0  0  0  0  0  0  0  0  0  0  0
   -3.5946   -2.0446   -0.8035 H   0  0  0  0  0  0  0  0  0  0  0  0
   -2.2804   -1.2047    0.6789 C   0  0  0  0  0  0  0  0  0  0  0  0
   -1.6539   -1.6542    1.6196 O   0  0  0  0  0  0  0  0  0  0  0  0
   -1.9583    0.0177    0.1256 N   0  0  0  0  0  0  0  0  0  0  0  0
   -2.6604    0.3458   -0.5303 H   0  0  0  0  0  0  0  0  0  0  0  0
   -0.6178    0.6191   -0.0758 C   0  0  1  0  0  0  0  0  0  0  0  0
   -0.6877    1.2611   -0.9577 H   0  0  0  0  0  0  0  0  0  0  0  0
   -0.3261    1.4862    1.1690 C   0  0  0  0  0  0  0  0  0  0  0  0
   -0.4063    0.8547    2.0605 H   0  0  0  0  0  0  0  0  0  0  0  0
    0.7078    1.8462    1.1204 H   0  0  0  0  0  0  0  0  0  0  0  0
   -1.2552    2.7110    1.3272 C   0  0  0  0  0  0  0  0  0  0  0  0
   -2.2981    2.3780    1.3384 H   0  0  0  0  0  0  0  0  0  0  0  0
   -0.9597    3.3928    2.6681 C   0  0  0  0  0  0  0  0  0  0  0  0
    0.0744    3.7506    2.7010 H   0  0  0  0  0  0  0  0  0  0  0  0
   -1.6280    4.2466    2.8178 H   0  0  0  0  0  0  0  0  0  0  0  0
   -1.1117    2.6914    3.4946 H   0  0  0  0  0  0  0  0  0  0  0  0
   -1.0738    3.7318    0.1940 C   0  0  0  0  0  0  0  0  0  0  0  0
   -1.4227    3.3261   -0.7591 H   0  0  0  0  0  0  0  0  0  0  0  0
   -1.6528    4.6371    0.4019 H   0  0  0  0  0  0  0  0  0  0  0  0
   -0.0202    4.0109    0.0916 H   0  0  0  0  0  0  0  0  0  0  0  0
    0.6486   -0.2540   -0.3312 C   0  0  0  0  0  0  0  0  0  0  0  0
    1.4721    0.1821   -1.1211 O   0  0  0  0  0  0  0  0  0  0  0  0
    0.8289   -1.6031   -0.1413 N   0  0  0  0  0  0  0  0  0  0  0  0
    1.4755   -1.9500   -0.8447 H   0  0  0  0  0  0  0  0  0  0  0  0
    1.1608   -2.0697    1.2003 C   0  0  0  0  0  0  0  0  0  0  0  0
    0.8758   -1.3392    1.9647 H   0  0  0  0  0  0  0  0  0  0  0  0
    0.6451   -3.0119    1.4107 H   0  0  0  0  0  0  0  0  0  0  0  0
    2.2392   -2.2380    1.2809 H   0  0  0  0  0  0  0  0  0  0  0  0
  1  2  1  0  0  0  0
  2  3  1  0  0  0  0
  2  4  1  0  0  0  0
  2  5  1  0  0  0  0
  5  6  2  0  0  0  0
  5  7  1  0  0  0  0
  7  8  1  0  0  0  0
  7  9  1  0  0  0  0
  9 10  1  0  0  0  0
  9 11  1  0  0  0  0
  9 24  1  0  0  0  0
 11 12  1  0  0  0  0
 11 13  1  0  0  0  0
 11 14  1  0  0  0  0
 14 15  1  0  0  0  0
 14 16  1  0  0  0  0
 14 20  1  0  0  0  0
 16 17  1  0  0  0  0
 16 18  1  0  0  0  0
 16 19  1  0  0  0  0
 20 21  1  0  0  0  0
 20 22  1  0  0  0  0
 20 23  1  0  0  0  0
 24 25  2  0  0  0  0
 24 26  1  0  0  0  0
 26 27  1  0  0  0  0
 26 28  1  0  0  0  0
 28 29  1  0  0  0  0
 28 30  1  0  0  0  0
 28 31  1  0  0  0  0
M  END
$$$$

  -OEChem-01062216083D

 31 30  0     1  0  0  0  0  0999 V2000
   -4.0290   -2.5165    0.8352 H   0  0  0  0  0  0  0  0  0  0  0  0
   -3.7950   -1.5727    0.3344 C   0  0  0  0  0  0  0  0  0  0  0  0
   -4.4977   -0.8094    0.6772 H   0  0  0  0  0  0  0  0  0  0  0  0
   -3.9124   -1.7095   -0.7434 H   0  0  0  0  0  0  0  0  0  0  0  0
   -2.3738   -1.1484    0.6538 C   0  0  0  0  0  0  0  0  0  0  0  0
   -1.7260   -1.8046    1.4500 O   0  0  0  0  0  0  0  0  0  0  0  0
   -1.8849    0.0172    0.0943 N   0  0  0  0  0  0  0  0  0  0  0  0
   -2.5493    0.5009   -0.5027 H   0  0  0  0  0  0  0  0  0  0  0  0
   -0.5108    0.5815    0.1049 C   0  0  1  0  0  0  0  0  0  0  0  0
   -0.3833    1.1457   -0.8222 H   0  0  0  0  0  0  0  0  0  0  0  0
   -0.4595    1.5449    1.3155 C   0  0  0  0  0  0  0  0  0  0  0  0
   -0.7286    0.9835    2.2171 H   0  0  0  0  0  0  0  0  0  0  0  0
    0.5670    1.9012    1.4561 H   0  0  0  0  0  0  0  0  0  0  0  0
   -1.3763    2.7832    1.1865 C   0  0  0  0  0  0  0  0  0  0  0  0
   -2.4068    2.4592    1.0099 H   0  0  0  0  0  0  0  0  0  0  0  0
   -1.3454    3.5684    2.5028 C   0  0  0  0  0  0  0  0  0  0  0  0
   -0.3320    3.9223    2.7179 H   0  0  0  0  0  0  0  0  0  0  0  0
   -2.0115    4.4350    2.4468 H   0  0  0  0  0  0  0  0  0  0  0  0
   -1.6768    2.9364    3.3328 H   0  0  0  0  0  0  0  0  0  0  0  0
   -0.9458    3.7094    0.0396 C   0  0  0  0  0  0  0  0  0  0  0  0
   -1.0962    3.2289   -0.9307 H   0  0  0  0  0  0  0  0  0  0  0  0
   -1.5391    4.6290    0.0510 H   0  0  0  0  0  0  0  0  0  0  0  0
    0.1110    3.9782    0.1374 H   0  0  0  0  0  0  0  0  0  0  0  0
    0.7479   -0.3364    0.1587 C   0  0  0  0  0  0  0  0  0  0  0  0
    1.8444    0.1928    0.0181 O   0  0  0  0  0  0  0  0  0  0  0  0
    0.7099   -1.7170    0.2009 N   0  0  0  0  0  0  0  0  0  0  0  0
   -0.1652   -2.1101    0.5504 H   0  0  0  0  0  0  0  0  0  0  0  0
    1.9063   -2.5446    0.2885 C   0  0  0  0  0  0  0  0  0  0  0  0
    2.4685   -2.3101    1.1983 H   0  0  0  0  0  0  0  0  0  0  0  0
    1.6295   -3.6028    0.3135 H   0  0  0  0  0  0  0  0  0  0  0  0
    2.5534   -2.3791   -0.5791 H   0  0  0  0  0  0  0  0  0  0  0  0
  1  2  1  0  0  0  0
  2  3  1  0  0  0  0
  2  4  1  0  0  0  0
  2  5  1  0  0  0  0
  5  6  2  0  0  0  0
  5  7  1  0  0  0  0
  7  8  1  0  0  0  0
  7  9  1  0  0  0  0
  9 10  1  0  0  0  0
  9 11  1  0  0  0  0
  9 24  1  0  0  0  0
 11 12  1  0  0  0  0
 11 13  1  0  0  0  0
 11 14  1  0  0  0  0
 14 15  1  0  0  0  0
 14 16  1  0  0  0  0
 14 20  1  0  0  0  0
 16 17  1  0  0  0  0
 16 18  1  0  0  0  0
 16 19  1  0  0  0  0
 20 21  1  0  0  0  0
 20 22  1  0  0  0  0
 20 23  1  0  0  0  0
 24 25  2  0  0  0  0
 24 26  1  0  0  0  0
 26 27  1  0  0  0  0
 26 28  1  0  0  0  0
 28 29  1  0  0  0  0
 28 30  1  0  0  0  0
 28 31  1  0  0  0  0
M  END
$$$$

  -OEChem-01062216083D

 31 30  0     1  0  0  0  0  0999 V2000
   -3.9758   -2.5128    0.8789 H   0  0  0  0  0  0  0  0  0  0  0  0
   -3.7566   -1.5624    0.3835 C   0  0  0  0  0  0  0  0  0  0  0  0
   -4.4253   -0.7961    0.7830 H   0  0  0  0  0  0  0  0  0  0  0  0
   -3.9399   -1.6748   -0.6879 H   0  0  0  0  0  0  0  0  0  0  0  0
   -2.3121   -1.1659    0.6251 C   0  0  0  0  0  0  0  0  0  0  0  0
   -1.6127   -1.8762    1.3247 O   0  0  0  0  0  0  0  0  0  0  0  0
   -1.8432    0.0133    0.0768 N   0  0  0  0  0  0  0  0  0  0  0  0
   -2.5369    0.5380   -0.4475 H   0  0  0  0  0  0  0  0  0  0  0  0
   -0.4775    0.5961    0.1005 C   0  0  1  0  0  0  0  0  0  0  0  0
   -0.3446    1.1630   -0.8238 H   0  0  0  0  0  0  0  0  0  0  0  0
   -0.4539    1.5592    1.3142 C   0  0  0  0  0  0  0  0  0  0  0  0
   -0.7233    0.9917    2.2118 H   0  0  0  0  0  0  0  0  0  0  0  0
    0.5638    1.9342    1.4680 H   0  0  0  0  0  0  0  0  0  0  0  0
   -1.3874    2.7842    1.1773 C   0  0  0  0  0  0  0  0  0  0  0  0
   -2.4112    2.4468    0.9882 H   0  0  0  0  0  0  0  0  0  0  0  0
   -1.3822    3.5672    2.4955 C   0  0  0  0  0  0  0  0  0  0  0  0
   -0.3761    3.9339    2.7230 H   0  0  0  0  0  0  0  0  0  0  0  0
   -2.0590    4.4251    2.4337 H   0  0  0  0  0  0  0  0  0  0  0  0
   -1.7144    2.9290    3.3205 H   0  0  0  0  0  0  0  0  0  0  0  0
   -0.9562    3.7185    0.0370 C   0  0  0  0  0  0  0  0  0  0  0  0
   -1.0860    3.2373   -0.9360 H   0  0  0  0  0  0  0  0  0  0  0  0
   -1.5633    4.6292    0.0415 H   0  0  0  0  0  0  0  0  0  0  0  0
    0.0950    4.0034    0.1490 H   0  0  0  0  0  0  0  0  0  0  0  0
    0.7774   -0.3275    0.1540 C   0  0  0  0  0  0  0  0  0  0  0  0
    1.8845    0.1926    0.2346 O   0  0  0  0  0  0  0  0  0  0  0  0
    0.7283   -1.6823   -0.1170 N   0  0  0  0  0  0  0  0  0  0  0  0
   -0.1669   -2.1143    0.1132 H   0  0  0  0  0  0  0  0  0  0  0  0
    1.9098   -2.5354   -0.0773 C   0  0  0  0  0  0  0  0  0  0  0  0
    2.3595   -2.5213    0.9209 H   0  0  0  0  0  0  0  0  0  0  0  0
    1.6373   -3.5663   -0.3218 H   0  0  0  0  0  0  0  0  0  0  0  0
    2.6539   -2.1955   -0.8050 H   0  0  0  0  0  0  0  0  0  0  0  0
  1  2  1  0  0  0  0
  2  3  1  0  0  0  0
  2  4  1  0  0  0  0
  2  5  1  0  0  0  0
  5  6  2  0  0  0  0
  5  7  1  0  0  0  0
  7  8  1  0  0  0  0
  7  9  1  0  0  0  0
  9 10  1  0  0  0  0
  9 11  1  0  0  0  0
  9 24  1  0  0  0  0
 11 12  1  0  0  0  0
 11 13  1  0  0  0  0
 11 14  1  0  0  0  0
 14 15  1  0  0  0  0
 14 16  1  0  0  0  0
 14 20  1  0  0  0  0
 16 17  1  0  0  0  0
 16 18  1  0  0  0  0
 16 19  1  0  0  0  0
 20 21  1  0  0  0  0
 20 22  1  0  0  0  0
 20 23  1  0  0  0  0
 24 25  2  0  0  0  0
 24 26  1  0  0  0  0
 26 27  1  0  0  0  0
 26 28  1  0  0  0  0
 28 29  1  0  0  0  0
 28 30  1  0  0  0  0
 28 31  1  0  0  0  0
M  END
$$$$

  -OEChem-01062216083D

 31 30  0     1  0  0  0  0  0999 V2000
   -3.9006   -2.5134    0.9317 H   0  0  0  0  0  0  0  0  0  0  0  0
   -3.6999   -1.5595    0.4353 C   0  0  0  0  0  0  0  0  0  0  0  0
   -4.3298   -0.7899    0.8884 H   0  0  0  0  0  0  0  0  0  0  0  0
   -3.9544   -1.6537   -0.6231 H   0  0  0  0  0  0  0  0  0  0  0  0
   -2.2368   -1.1874    0.5866 C   0  0  0  0  0  0  0  0  0  0  0  0
   -1.4891   -1.9489    1.1721 O   0  0  0  0  0  0  0  0  0  0  0  0
   -1.7938    0.0095    0.0552 N   0  0  0  0  0  0  0  0  0  0  0  0
   -2.5172    0.5738   -0.3804 H   0  0  0  0  0  0  0  0  0  0  0  0
   -0.4388    0.6132    0.1039 C   0  0  1  0  0  0  0  0  0  0  0  0
   -0.2953    1.1851   -0.8156 H   0  0  0  0  0  0  0  0  0  0  0  0
   -0.4487    1.5756    1.3193 C   0  0  0  0  0  0  0  0  0  0  0  0
   -0.7220    1.0033    2.2127 H   0  0  0  0  0  0  0  0  0  0  0  0
    0.5591    1.9693    1.4888 H   0  0  0  0  0  0  0  0  0  0  0  0
   -1.3984    2.7861    1.1667 C   0  0  0  0  0  0  0  0  0  0  0  0
   -2.4138    2.4330    0.9612 H   0  0  0  0  0  0  0  0  0  0  0  0
   -1.4268    3.5684    2.4848 C   0  0  0  0  0  0  0  0  0  0  0  0
   -0.4305    3.9516    2.7284 H   0  0  0  0  0  0  0  0  0  0  0  0
   -2.1165    4.4151    2.4123 H   0  0  0  0  0  0  0  0  0  0  0  0
   -1.7613    2.9246    3.3043 H   0  0  0  0  0  0  0  0  0  0  0  0
   -0.9634    3.7270    0.0335 C   0  0  0  0  0  0  0  0  0  0  0  0
   -1.0749    3.2450   -0.9413 H   0  0  0  0  0  0  0  0  0  0  0  0
   -1.5812    4.6304    0.0310 H   0  0  0  0  0  0  0  0  0  0  0  0
    0.0828    4.0240    0.1598 H   0  0  0  0  0  0  0  0  0  0  0  0
    0.8075   -0.3215    0.1611 C   0  0  0  0  0  0  0  0  0  0  0  0
    1.8946    0.1345    0.4973 O   0  0  0  0  0  0  0  0  0  0  0  0
    0.7897   -1.5767   -0.4194 N   0  0  0  0  0  0  0  0  0  0  0  0
   -0.1250   -2.0233   -0.3807 H   0  0  0  0  0  0  0  0  0  0  0  0
    1.9546   -2.4534   -0.4135 C   0  0  0  0  0  0  0  0  0  0  0  0
    2.2572   -2.6812    0.6138 H   0  0  0  0  0  0  0  0  0  0  0  0
    1.7214   -3.3926   -0.9239 H   0  0  0  0  0  0  0  0  0  0  0  0
    2.7948   -1.9804   -0.9324 H   0  0  0  0  0  0  0  0  0  0  0  0
  1  2  1  0  0  0  0
  2  3  1  0  0  0  0
  2  4  1  0  0  0  0
  2  5  1  0  0  0  0
  5  6  2  0  0  0  0
  5  7  1  0  0  0  0
  7  8  1  0  0  0  0
  7  9  1  0  0  0  0
  9 10  1  0  0  0  0
  9 11  1  0  0  0  0
  9 24  1  0  0  0  0
 11 12  1  0  0  0  0
 11 13  1  0  0  0  0
 11 14  1  0  0  0  0
 14 15  1  0  0  0  0
 14 16  1  0  0  0  0
 14 20  1  0  0  0  0
 16 17  1  0  0  0  0
 16 18  1  0  0  0  0
 16 19  1  0  0  0  0
 20 21  1  0  0  0  0
 20 22  1  0  0  0  0
 20 23  1  0  0  0  0
 24 25  2  0  0  0  0
 24 26  1  0  0  0  0
 26 27  1  0  0  0  0
 26 28  1  0  0  0  0
 28 29  1  0  0  0  0
 28 30  1  0  0  0  0
 28 31  1  0  0  0  0
M  END
$$$$

  -OEChem-01062216083D

 31 30  0     1  0  0  0  0  0999 V2000
   -3.7844   -2.5539    0.9587 H   0  0  0  0  0  0  0  0  0  0  0  0
   -3.6168   -1.5925    0.4643 C   0  0  0  0  0  0  0  0  0  0  0  0
   -4.2373   -0.8361    0.9511 H   0  0  0  0  0  0  0  0  0  0  0  0
   -3.9133   -1.6795   -0.5836 H   0  0  0  0  0  0  0  0  0  0  0  0
   -2.1532   -1.2037    0.5600 C   0  0  0  0  0  0  0  0  0  0  0  0
   -1.3705   -1.9720    1.0869 O   0  0  0  0  0  0  0  0  0  0  0  0
   -1.7485    0.0110    0.0363 N   0  0  0  0  0  0  0  0  0  0  0  0
   -2.4972    0.5864   -0.3378 H   0  0  0  0  0  0  0  0  0  0  0  0
   -0.4076    0.6410    0.1022 C   0  0  1  0  0  0  0  0  0  0  0  0
   -0.2584    1.2182   -0.8128 H   0  0  0  0  0  0  0  0  0  0  0  0
   -0.4368    1.6006    1.3190 C   0  0  0  0  0  0  0  0  0  0  0  0
   -0.7019    1.0228    2.2113 H   0  0  0  0  0  0  0  0  0  0  0  0
    0.5649    2.0103    1.4878 H   0  0  0  0  0  0  0  0  0  0  0  0
   -1.4042    2.7965    1.1642 C   0  0  0  0  0  0  0  0  0  0  0  0
   -2.4130    2.4272    0.9554 H   0  0  0  0  0  0  0  0  0  0  0  0
   -1.4504    3.5769    2.4830 C   0  0  0  0  0  0  0  0  0  0  0  0
   -0.4614    3.9763    2.7303 H   0  0  0  0  0  0  0  0  0  0  0  0
   -2.1539    4.4122    2.4088 H   0  0  0  0  0  0  0  0  0  0  0  0
   -1.7770    2.9271    3.3010 H   0  0  0  0  0  0  0  0  0  0  0  0
   -0.9815    3.7452    0.0332 C   0  0  0  0  0  0  0  0  0  0  0  0
   -1.0832    3.2627   -0.9423 H   0  0  0  0  0  0  0  0  0  0  0  0
   -1.6139    4.6385    0.0305 H   0  0  0  0  0  0  0  0  0  0  0  0
    0.0594    4.0589    0.1623 H   0  0  0  0  0  0  0  0  0  0  0  0
    0.8280   -0.3057    0.1608 C   0  0  0  0  0  0  0  0  0  0  0  0
    1.8425    0.0136    0.7710 O   0  0  0  0  0  0  0  0  0  0  0  0
    0.8945   -1.3967   -0.6879 N   0  0  0  0  0  0  0  0  0  0  0  0
   -0.0114   -1.7661   -0.9610 H   0  0  0  0  0  0  0  0  0  0  0  0
    2.0182   -2.3254   -0.6706 C   0  0  0  0  0  0  0  0  0  0  0  0
    2.1071   -2.7989    0.3129 H   0  0  0  0  0  0  0  0  0  0  0  0
    1.8726   -3.1072   -1.4220 H   0  0  0  0  0  0  0  0  0  0  0  0
    2.9532   -1.8022   -0.8965 H   0  0  0  0  0  0  0  0  0  0  0  0
  1  2  1  0  0  0  0
  2  3  1  0  0  0  0
  2  4  1  0  0  0  0
  2  5  1  0  0  0  0
  5  6  2  0  0  0  0
  5  7  1  0  0  0  0
  7  8  1  0  0  0  0
  7  9  1  0  0  0  0
  9 10  1  0  0  0  0
  9 11  1  0  0  0  0
  9 24  1  0  0  0  0
 11 12  1  0  0  0  0
 11 13  1  0  0  0  0
 11 14  1  0  0  0  0
 14 15  1  0  0  0  0
 14 16  1  0  0  0  0
 14 20  1  0  0  0  0
 16 17  1  0  0  0  0
 16 18  1  0  0  0  0
 16 19  1  0  0  0  0
 20 21  1  0  0  0  0
 20 22  1  0  0  0  0
 20 23  1  0  0  0  0
 24 25  2  0  0  0  0
 24 26  1  0  0  0  0
 26 27  1  0  0  0  0
 26 28  1  0  0  0  0
 28 29  1  0  0  0  0
 28 30  1  0  0  0  0
 28 31  1  0  0  0  0
M  END
$$$$

  -OEChem-01062216083D

 31 30  0     1  0  0  0  0  0999 V2000
   -3.7237   -2.5734    0.9776 H   0  0  0  0  0  0  0  0  0  0  0  0
   -3.5709   -1.6102    0.4821 C   0  0  0  0  0  0  0  0  0  0  0  0
   -4.1825   -0.8574    0.9855 H   0  0  0  0  0  0  0  0  0  0  0  0
   -3.8922   -1.6955   -0.5587 H   0  0  0  0  0  0  0  0  0  0  0  0
   -2.1067   -1.2163    0.5449 C   0  0  0  0  0  0  0  0  0  0  0  0
   -1.3091   -1.9878    1.0438 O   0  0  0  0  0  0  0  0  0  0  0  0
   -1.7221    0.0065    0.0229 N   0  0  0  0  0  0  0  0  0  0  0  0
   -2.4841    0.5845   -0.3180 H   0  0  0  0  0  0  0  0  0  0  0  0
   -0.3912    0.6525    0.1055 C   0  0  1  0  0  0  0  0  0  0  0  0
   -0.2334    1.2328   -0.8063 H   0  0  0  0  0  0  0  0  0  0  0  0
   -0.4337    1.6121    1.3205 C   0  0  0  0  0  0  0  0  0  0  0  0
   -0.6996    1.0328    2.2117 H   0  0  0  0  0  0  0  0  0  0  0  0
    0.5663    2.0252    1.4922 H   0  0  0  0  0  0  0  0  0  0  0  0
   -1.4086    2.8011    1.1609 C   0  0  0  0  0  0  0  0  0  0  0  0
   -2.4139    2.4236    0.9489 H   0  0  0  0  0  0  0  0  0  0  0  0
   -1.4657    3.5809    2.4798 C   0  0  0  0  0  0  0  0  0  0  0  0
   -0.4812    3.9891    2.7303 H   0  0  0  0  0  0  0  0  0  0  0  0
   -2.1762    4.4099    2.4041 H   0  0  0  0  0  0  0  0  0  0  0  0
   -1.7884    2.9276    3.2966 H   0  0  0  0  0  0  0  0  0  0  0  0
   -0.9895    3.7518    0.0299 C   0  0  0  0  0  0  0  0  0  0  0  0
   -1.0865    3.2678   -0.9455 H   0  0  0  0  0  0  0  0  0  0  0  0
   -1.6274    4.6412    0.0254 H   0  0  0  0  0  0  0  0  0  0  0  0
    0.0492    4.0722    0.1603 H   0  0  0  0  0  0  0  0  0  0  0  0
    0.8371   -0.3001    0.1774 C   0  0  0  0  0  0  0  0  0  0  0  0
    1.7311   -0.1419    1.0016 O   0  0  0  0  0  0  0  0  0  0  0  0
    1.0528   -1.1857   -0.8638 N   0  0  0  0  0  0  0  0  0  0  0  0
    0.2310   -1.4177   -1.4119 H   0  0  0  0  0  0  0  0  0  0  0  0
    2.1636   -2.1298   -0.8669 C   0  0  0  0  0  0  0  0  0  0  0  0
    2.0926   -2.8062   -0.0084 H   0  0  0  0  0  0  0  0  0  0  0  0
    2.1479   -2.7275   -1.7832 H   0  0  0  0  0  0  0  0  0  0  0  0
    3.1202   -1.5987   -0.8200 H   0  0  0  0  0  0  0  0  0  0  0  0
  1  2  1  0  0  0  0
  2  3  1  0  0  0  0
  2  4  1  0  0  0  0
  2  5  1  0  0  0  0
  5  6  2  0  0  0  0
  5  7  1  0  0  0  0
  7  8  1  0  0  0  0
  7  9  1  0  0  0  0
  9 10  1  0  0  0  0
  9 11  1  0  0  0  0
  9 24  1  0  0  0  0
 11 12  1  0  0  0  0
 11 13  1  0  0  0  0
 11 14  1  0  0  0  0
 14 15  1  0  0  0  0
 14 16  1  0  0  0  0
 14 20  1  0  0  0  0
 16 17  1  0  0  0  0
 16 18  1  0  0  0  0
 16 19  1  0  0  0  0
 20 21  1  0  0  0  0
 20 22  1  0  0  0  0
 20 23  1  0  0  0  0
 24 25  2  0  0  0  0
 24 26  1  0  0  0  0
 26 27  1  0  0  0  0
 26 28  1  0  0  0  0
 28 29  1  0  0  0  0
 28 30  1  0  0  0  0
 28 31  1  0  0  0  0
M  END
$$$$

  -OEChem-01062216083D

 31 30  0     1  0  0  0  0  0999 V2000
   -3.7129   -2.5823    0.9817 H   0  0  0  0  0  0  0  0  0  0  0  0
   -3.5649   -1.6135    0.4959 C   0  0  0  0  0  0  0  0  0  0  0  0
   -4.1660   -0.8652    1.0179 H   0  0  0  0  0  0  0  0  0  0  0  0
   -3.9017   -1.6854   -0.5409 H   0  0  0  0  0  0  0  0  0  0  0  0
   -2.0986   -1.2252    0.5403 C   0  0  0  0  0  0  0  0  0  0  0  0
   -1.2974   -2.0082    1.0142 O   0  0  0  0  0  0  0  0  0  0  0  0
   -1.7179   -0.0018    0.0163 N   0  0  0  0  0  0  0  0  0  0  0  0
   -2.4850    0.5820   -0.3023 H   0  0  0  0  0  0  0  0  0  0  0  0
   -0.3902    0.6478    0.1052 C   0  0  1  0  0  0  0  0  0  0  0  0
   -0.2304    1.2295   -0.8052 H   0  0  0  0  0  0  0  0  0  0  0  0
   -0.4356    1.6085    1.3178 C   0  0  0  0  0  0  0  0  0  0  0  0
   -0.7043    1.0308    2.2094 H   0  0  0  0  0  0  0  0  0  0  0  0
    0.5666    2.0170    1.4889 H   0  0  0  0  0  0  0  0  0  0  0  0
   -1.4100    2.7973    1.1562 C   0  0  0  0  0  0  0  0  0  0  0  0
   -2.4147    2.4202    0.9414 H   0  0  0  0  0  0  0  0  0  0  0  0
   -1.4687    3.5771    2.4748 C   0  0  0  0  0  0  0  0  0  0  0  0
   -0.4827    3.9781    2.7311 H   0  0  0  0  0  0  0  0  0  0  0  0
   -2.1733    4.4108    2.3954 H   0  0  0  0  0  0  0  0  0  0  0  0
   -1.8009    2.9256    3.2894 H   0  0  0  0  0  0  0  0  0  0  0  0
   -0.9871    3.7490    0.0276 C   0  0  0  0  0  0  0  0  0  0  0  0
   -1.0752    3.2644   -0.9483 H   0  0  0  0  0  0  0  0  0  0  0  0
   -1.6287    4.6358    0.0180 H   0  0  0  0  0  0  0  0  0  0  0  0
    0.0491    4.0738    0.1659 H   0  0  0  0  0  0  0  0  0  0  0  0
    0.8375   -0.3033    0.1875 C   0  0  0  0  0  0  0  0  0  0  0  0
    1.5930   -0.3043    1.1534 O   0  0  0  0  0  0  0  0  0  0  0  0
    1.2426   -0.9590   -0.9619 N   0  0  0  0  0  0  0  0  0  0  0  0
    0.5460   -1.0430   -1.6948 H   0  0  0  0  0  0  0  0  0  0  0  0
    2.3775   -1.8739   -0.9819 C   0  0  0  0  0  0  0  0  0  0  0  0
    2.2138   -2.7007   -0.2826 H   0  0  0  0  0  0  0  0  0  0  0  0
    2.5113   -2.2886   -1.9854 H   0  0  0  0  0  0  0  0  0  0  0  0
    3.2976   -1.3509   -0.7007 H   0  0  0  0  0  0  0  0  0  0  0  0
  1  2  1  0  0  0  0
  2  3  1  0  0  0  0
  2  4  1  0  0  0  0
  2  5  1  0  0  0  0
  5  6  2  0  0  0  0
  5  7  1  0  0  0  0
  7  8  1  0  0  0  0
  7  9  1  0  0  0  0
  9 10  1  0  0  0  0
  9 11  1  0  0  0  0
  9 24  1  0  0  0  0
 11 12  1  0  0  0  0
 11 13  1  0  0  0  0
 11 14  1  0  0  0  0
 14 15  1  0  0  0  0
 14 16  1  0  0  0  0
 14 20  1  0  0  0  0
 16 17  1  0  0  0  0
 16 18  1  0  0  0  0
 16 19  1  0  0  0  0
 20 21  1  0  0  0  0
 20 22  1  0  0  0  0
 20 23  1  0  0  0  0
 24 25  2  0  0  0  0
 24 26  1  0  0  0  0
 26 27  1  0  0  0  0
 26 28  1  0  0  0  0
 28 29  1  0  0  0  0
 28 30  1  0  0  0  0
 28 31  1  0  0  0  0
M  END
$$$$

  -OEChem-01062216083D

 31 30  0     1  0  0  0  0  0999 V2000
   -3.7463   -2.5651    1.0002 H   0  0  0  0  0  0  0  0  0  0  0  0
   -3.5904   -1.5980    0.5135 C   0  0  0  0  0  0  0  0  0  0  0  0
   -4.1676   -0.8404    1.0489 H   0  0  0  0  0  0  0  0  0  0  0  0
   -3.9483   -1.6617   -0.5168 H   0  0  0  0  0  0  0  0  0  0  0  0
   -2.1168   -1.2357    0.5301 C   0  0  0  0  0  0  0  0  0  0  0  0
   -1.3195   -2.0414    0.9704 O   0  0  0  0  0  0  0  0  0  0  0  0
   -1.7284   -0.0154    0.0050 N   0  0  0  0  0  0  0  0  0  0  0  0
   -2.4956    0.5798   -0.2905 H   0  0  0  0  0  0  0  0  0  0  0  0
   -0.3992    0.6294    0.0973 C   0  0  1  0  0  0  0  0  0  0  0  0
   -0.2405    1.2133   -0.8116 H   0  0  0  0  0  0  0  0  0  0  0  0
   -0.4396    1.5892    1.3099 C   0  0  0  0  0  0  0  0  0  0  0  0
   -0.7137    1.0126    2.2007 H   0  0  0  0  0  0  0  0  0  0  0  0
    0.5666    1.9875    1.4825 H   0  0  0  0  0  0  0  0  0  0  0  0
   -1.4074    2.7831    1.1498 C   0  0  0  0  0  0  0  0  0  0  0  0
   -2.4143    2.4117    0.9345 H   0  0  0  0  0  0  0  0  0  0  0  0
   -1.4607    3.5613    2.4696 C   0  0  0  0  0  0  0  0  0  0  0  0
   -0.4719    3.9545    2.7273 H   0  0  0  0  0  0  0  0  0  0  0  0
   -2.1591    4.4003    2.3919 H   0  0  0  0  0  0  0  0  0  0  0  0
   -1.7981    2.9108    3.2826 H   0  0  0  0  0  0  0  0  0  0  0  0
   -0.9788    3.7336    0.0223 C   0  0  0  0  0  0  0  0  0  0  0  0
   -1.0735    3.2519   -0.9544 H   0  0  0  0  0  0  0  0  0  0  0  0
   -1.6127    4.6259    0.0161 H   0  0  0  0  0  0  0  0  0  0  0  0
    0.0606    4.0492    0.1585 H   0  0  0  0  0  0  0  0  0  0  0  0
    0.8333   -0.3149    0.1882 C   0  0  0  0  0  0  0  0  0  0  0  0
    1.4476   -0.4707    1.2380 O   0  0  0  0  0  0  0  0  0  0  0  0
    1.4435   -0.7260   -0.9848 N   0  0  0  0  0  0  0  0  0  0  0  0
    0.8877   -0.6638   -1.8312 H   0  0  0  0  0  0  0  0  0  0  0  0
    2.6338   -1.5683   -0.9980 C   0  0  0  0  0  0  0  0  0  0  0  0
    2.4387   -2.5124   -0.4784 H   0  0  0  0  0  0  0  0  0  0  0  0
    2.9282   -1.7924   -2.0277 H   0  0  0  0  0  0  0  0  0  0  0  0
    3.4685   -1.0602   -0.5037 H   0  0  0  0  0  0  0  0  0  0  0  0
  1  2  1  0  0  0  0
  2  3  1  0  0  0  0
  2  4  1  0  0  0  0
  2  5  1  0  0  0  0
  5  6  2  0  0  0  0
  5  7  1  0  0  0  0
  7  8  1  0  0  0  0
  7  9  1  0  0  0  0
  9 10  1  0  0  0  0
  9 11  1  0  0  0  0
  9 24  1  0  0  0  0
 11 12  1  0  0  0  0
 11 13  1  0  0  0  0
 11 14  1  0  0  0  0
 14 15  1  0  0  0  0
 14 16  1  0  0  0  0
 14 20  1  0  0  0  0
 16 17  1  0  0  0  0
 16 18  1  0  0  0  0
 16 19  1  0  0  0  0
 20 21  1  0  0  0  0
 20 22  1  0  0  0  0
 20 23  1  0  0  0  0
 24 25  2  0  0  0  0
 24 26  1  0  0  0  0
 26 27  1  0  0  0  0
 26 28  1  0  0  0  0
 28 29  1  0  0  0  0
 28 30  1  0  0  0  0
 28 31  1  0  0  0  0
M  END
$$$$

  -OEChem-01062216083D

 31 30  0     1  0  0  0  0  0999 V2000
   -3.7923   -2.5365    1.0269 H   0  0  0  0  0  0  0  0  0  0  0  0
   -3.6259   -1.5732    0.5360 C   0  0  0  0  0  0  0  0  0  0  0  0
   -4.1697   -0.8016    1.0861 H   0  0  0  0  0  0  0  0  0  0  0  0
   -4.0119   -1.6270   -0.4845 H   0  0  0  0  0  0  0  0  0  0  0  0
   -2.1437   -1.2485    0.5135 C   0  0  0  0  0  0  0  0  0  0  0  0
   -1.3564   -2.0849    0.9105 O   0  0  0  0  0  0  0  0  0  0  0  0
   -1.7412   -0.0332   -0.0124 N   0  0  0  0  0  0  0  0  0  0  0  0
   -2.5058    0.5755   -0.2857 H   0  0  0  0  0  0  0  0  0  0  0  0
   -0.4079    0.6030    0.0823 C   0  0  1  0  0  0  0  0  0  0  0  0
   -0.2520    1.1874   -0.8266 H   0  0  0  0  0  0  0  0  0  0  0  0
   -0.4420    1.5601    1.2966 C   0  0  0  0  0  0  0  0  0  0  0  0
   -0.7234    0.9832    2.1849 H   0  0  0  0  0  0  0  0  0  0  0  0
    0.5683    1.9467    1.4723 H   0  0  0  0  0  0  0  0  0  0  0  0
   -1.4008    2.7618    1.1408 C   0  0  0  0  0  0  0  0  0  0  0  0
   -2.4105    2.3991    0.9250 H   0  0  0  0  0  0  0  0  0  0  0  0
   -1.4482    3.5366    2.4628 C   0  0  0  0  0  0  0  0  0  0  0  0
   -0.4562    3.9201    2.7223 H   0  0  0  0  0  0  0  0  0  0  0  0
   -2.1389    4.3821    2.3868 H   0  0  0  0  0  0  0  0  0  0  0  0
   -1.7923    2.8871    3.2738 H   0  0  0  0  0  0  0  0  0  0  0  0
   -0.9654    3.7121    0.0158 C   0  0  0  0  0  0  0  0  0  0  0  0
   -1.0654    3.2342   -0.9623 H   0  0  0  0  0  0  0  0  0  0  0  0
   -1.5917    4.6097    0.0132 H   0  0  0  0  0  0  0  0  0  0  0  0
    0.0769    4.0182    0.1522 H   0  0  0  0  0  0  0  0  0  0  0  0
    0.8324   -0.3309    0.1822 C   0  0  0  0  0  0  0  0  0  0  0  0
    1.3123   -0.6403    1.2671 O   0  0  0  0  0  0  0  0  0  0  0  0
    1.6358   -0.4914   -0.9348 N   0  0  0  0  0  0  0  0  0  0  0  0
    1.2267   -0.2593   -1.8337 H   0  0  0  0  0  0  0  0  0  0  0  0
    2.8841   -1.2454   -0.9111 C   0  0  0  0  0  0  0  0  0  0  0  0
    2.7040   -2.2725   -0.5761 H   0  0  0  0  0  0  0  0  0  0  0  0
    3.3249   -1.2792   -1.9119 H   0  0  0  0  0  0  0  0  0  0  0  0
    3.6038   -0.7745   -0.2331 H   0  0  0  0  0  0  0  0  0  0  0  0
  1  2  1  0  0  0  0
  2  3  1  0  0  0  0
  2  4  1  0  0  0  0
  2  5  1  0  0  0  0
  5  6  2  0  0  0  0
  5  7  1  0  0  0  0
  7  8  1  0  0  0  0
  7  9  1  0  0  0  0
  9 10  1  0  0  0  0
  9 11  1  0  0  0  0
  9 24  1  0  0  0  0
 11 12  1  0  0  0  0
 11 13  1  0  0  0  0
 11 14  1  0  0  0  0
 14 15  1  0  0  0  0
 14 16  1  0  0  0  0
 14 20  1  0  0  0  0
 16 17  1  0  0  0  0
 16 18  1  0  0  0  0
 16 19  1  0  0  0  0
 20 21  1  0  0  0  0
 20 22  1  0  0  0  0
 20 23  1  0  0  0  0
 24 25  2  0  0  0  0
 24 26  1  0  0  0  0
 26 27  1  0  0  0  0
 26 28  1  0  0  0  0
 28 29  1  0  0  0  0
 28 30  1  0  0  0  0
 28 31  1  0  0  0  0
M  END
$$$$

  -OEChem-01062216083D

 31 30  0     1  0  0  0  0  0999 V2000
   -3.8485   -2.5046    1.0459 H   0  0  0  0  0  0  0  0  0  0  0  0
   -3.6642   -1.5465    0.5514 C   0  0  0  0  0  0  0  0  0  0  0  0
   -4.1739   -0.7595    1.1122 H   0  0  0  0  0  0  0  0  0  0  0  0
   -4.0732   -1.5887   -0.4608 H   0  0  0  0  0  0  0  0  0  0  0  0
   -2.1736   -1.2650    0.4977 C   0  0  0  0  0  0  0  0  0  0  0  0
   -1.4041   -2.1368    0.8492 O   0  0  0  0  0  0  0  0  0  0  0  0
   -1.7519   -0.0560   -0.0278 N   0  0  0  0  0  0  0  0  0  0  0  0
   -2.5120    0.5677   -0.2786 H   0  0  0  0  0  0  0  0  0  0  0  0
   -0.4139    0.5719    0.0657 C   0  0  1  0  0  0  0  0  0  0  0  0
   -0.2636    1.1552   -0.8448 H   0  0  0  0  0  0  0  0  0  0  0  0
   -0.4377    1.5268    1.2811 C   0  0  0  0  0  0  0  0  0  0  0  0
   -0.7201    0.9503    2.1695 H   0  0  0  0  0  0  0  0  0  0  0  0
    0.5760    1.9050    1.4545 H   0  0  0  0  0  0  0  0  0  0  0  0
   -1.3881    2.7359    1.1310 C   0  0  0  0  0  0  0  0  0  0  0  0
   -2.4013    2.3805    0.9182 H   0  0  0  0  0  0  0  0  0  0  0  0
   -1.4252    3.5079    2.4552 C   0  0  0  0  0  0  0  0  0  0  0  0
   -0.4314    3.8923    2.7071 H   0  0  0  0  0  0  0  0  0  0  0  0
   -2.1175    4.3529    2.3866 H   0  0  0  0  0  0  0  0  0  0  0  0
   -1.7616    2.8564    3.2680 H   0  0  0  0  0  0  0  0  0  0  0  0
   -0.9505    3.6863    0.0070 C   0  0  0  0  0  0  0  0  0  0  0  0
   -1.0576    3.2119   -0.9718 H   0  0  0  0  0  0  0  0  0  0  0  0
   -1.5708    4.5882    0.0092 H   0  0  0  0  0  0  0  0  0  0  0  0
    0.0941    3.9853    0.1398 H   0  0  0  0  0  0  0  0  0  0  0  0
    0.8364   -0.3475    0.1719 C   0  0  0  0  0  0  0  0  0  0  0  0
    1.1962   -0.8094    1.2484 O   0  0  0  0  0  0  0  0  0  0  0  0
    1.8029   -0.2625   -0.8176 N   0  0  0  0  0  0  0  0  0  0  0  0
    1.5234    0.1373   -1.7071 H   0  0  0  0  0  0  0  0  0  0  0  0
    3.0990   -0.9261   -0.7273 C   0  0  0  0  0  0  0  0  0  0  0  0
    2.9688   -2.0024   -0.5716 H   0  0  0  0  0  0  0  0  0  0  0  0
    3.6662   -0.7762   -1.6507 H   0  0  0  0  0  0  0  0  0  0  0  0
    3.6812   -0.5176    0.1054 H   0  0  0  0  0  0  0  0  0  0  0  0
  1  2  1  0  0  0  0
  2  3  1  0  0  0  0
  2  4  1  0  0  0  0
  2  5  1  0  0  0  0
  5  6  2  0  0  0  0
  5  7  1  0  0  0  0
  7  8  1  0  0  0  0
  7  9  1  0  0  0  0
  9 10  1  0  0  0  0
  9 11  1  0  0  0  0
  9 24  1  0  0  0  0
 11 12  1  0  0  0  0
 11 13  1  0  0  0  0
 11 14  1  0  0  0  0
 14 15  1  0  0  0  0
 14 16  1  0  0  0  0
 14 20  1  0  0  0  0
 16 17  1  0  0  0  0
 16 18  1  0  0  0  0
 16 19  1  0  0  0  0
 20 21  1  0  0  0  0
 20 22  1  0  0  0  0
 20 23  1  0  0  0  0
 24 25  2  0  0  0  0
 24 26  1  0  0  0  0
 26 27  1  0  0  0  0
 26 28  1  0  0  0  0
 28 29  1  0  0  0  0
 28 30  1  0  0  0  0
 28 31  1  0  0  0  0
M  END
$$$$

  -OEChem-01062216083D

 31 30  0     1  0  0  0  0  0999 V2000
   -3.8903   -2.4719    1.0712 H   0  0  0  0  0  0  0  0  0  0  0  0
   -3.6921   -1.5080    0.5935 C   0  0  0  0  0  0  0  0  0  0  0  0
   -4.1426   -0.7186    1.1999 H   0  0  0  0  0  0  0  0  0  0  0  0
   -4.1498   -1.5065   -0.3986 H   0  0  0  0  0  0  0  0  0  0  0  0
   -2.1960   -1.2820    0.4753 C   0  0  0  0  0  0  0  0  0  0  0  0
   -1.4509   -2.1979    0.7579 O   0  0  0  0  0  0  0  0  0  0  0  0
   -1.7546   -0.0800   -0.0505 N   0  0  0  0  0  0  0  0  0  0  0  0
   -2.5095    0.5615   -0.2695 H   0  0  0  0  0  0  0  0  0  0  0  0
   -0.4111    0.5392    0.0423 C   0  0  1  0  0  0  0  0  0  0  0  0
   -0.2654    1.1204   -0.8701 H   0  0  0  0  0  0  0  0  0  0  0  0
   -0.4333    1.4902    1.2603 C   0  0  0  0  0  0  0  0  0  0  0  0
   -0.7210    0.9112    2.1455 H   0  0  0  0  0  0  0  0  0  0  0  0
    0.5813    1.8632    1.4399 H   0  0  0  0  0  0  0  0  0  0  0  0
   -1.3785    2.7039    1.1116 C   0  0  0  0  0  0  0  0  0  0  0  0
   -2.3926    2.3539    0.8951 H   0  0  0  0  0  0  0  0  0  0  0  0
   -1.4157    3.4727    2.4376 C   0  0  0  0  0  0  0  0  0  0  0  0
   -0.4210    3.8524    2.6924 H   0  0  0  0  0  0  0  0  0  0  0  0
   -2.1047    4.3204    2.3693 H   0  0  0  0  0  0  0  0  0  0  0  0
   -1.7570    2.8208    3.2480 H   0  0  0  0  0  0  0  0  0  0  0  0
   -0.9340    3.6554   -0.0090 C   0  0  0  0  0  0  0  0  0  0  0  0
   -1.0410    3.1844   -0.9898 H   0  0  0  0  0  0  0  0  0  0  0  0
   -1.5505    4.5599   -0.0058 H   0  0  0  0  0  0  0  0  0  0  0  0
    0.1117    3.9496    0.1274 H   0  0  0  0  0  0  0  0  0  0  0  0
    0.8545   -0.3582    0.1562 C   0  0  0  0  0  0  0  0  0  0  0  0
    1.1047   -0.9845    1.1778 O   0  0  0  0  0  0  0  0  0  0  0  0
    1.9465   -0.0447   -0.6385 N   0  0  0  0  0  0  0  0  0  0  0  0
    1.7809    0.5372   -1.4528 H   0  0  0  0  0  0  0  0  0  0  0  0
    3.2669   -0.6410   -0.4628 C   0  0  0  0  0  0  0  0  0  0  0  0
    3.2064   -1.7324   -0.5318 H   0  0  0  0  0  0  0  0  0  0  0  0
    3.9502   -0.2826   -1.2384 H   0  0  0  0  0  0  0  0  0  0  0  0
    3.6825   -0.3718    0.5140 H   0  0  0  0  0  0  0  0  0  0  0  0
  1  2  1  0  0  0  0
  2  3  1  0  0  0  0
  2  4  1  0  0  0  0
  2  5  1  0  0  0  0
  5  6  2  0  0  0  0
  5  7  1  0  0  0  0
  7  8  1  0  0  0  0
  7  9  1  0  0  0  0
  9 10  1  0  0  0  0
  9 11  1  0  0  0  0
  9 24  1  0  0  0  0
 11 12  1  0  0  0  0
 11 13  1  0  0  0  0
 11 14  1  0  0  0  0
 14 15  1  0  0  0  0
 14 16  1  0  0  0  0
 14 20  1  0  0  0  0
 16 17  1  0  0  0  0
 16 18  1  0  0  0  0
 16 19  1  0  0  0  0
 20 21  1  0  0  0  0
 20 22  1  0  0  0  0
 20 23  1  0  0  0  0
 24 25  2  0  0  0  0
 24 26  1  0  0  0  0
 26 27  1  0  0  0  0
 26 28  1  0  0  0  0
 28 29  1  0  0  0  0
 28 30  1  0  0  0  0
 28 31  1  0  0  0  0
M  END
$$$$

  -OEChem-01062216083D

 31 30  0     1  0  0  0  0  0999 V2000
   -3.4497   -2.8690    0.8571 H   0  0  0  0  0  0  0  0  0  0  0  0
   -3.2913   -1.9903    0.2257 C   0  0  0  0  0  0  0  0  0  0  0  0
   -4.2361   -1.4511    0.1265 H   0  0  0  0  0  0  0  0  0  0  0  0
   -2.9605   -2.3239   -0.7605 H   0  0  0  0  0  0  0  0  0  0  0  0
   -2.2396   -1.0899    0.8456 C   0  0  0  0  0  0  0  0  0  0  0  0
   -1.8879   -1.2820    1.9980 O   0  0  0  0  0  0  0  0  0  0  0  0
   -1.8787    0.0815    0.2046 N   0  0  0  0  0  0  0  0  0  0  0  0
   -2.3774    0.2103   -0.6694 H   0  0  0  0  0  0  0  0  0  0  0  0
   -0.5128    0.6557    0.2187 C   0  0  1  0  0  0  0  0  0  0  0  0
   -0.3811    1.1890   -0.7247 H   0  0  0  0  0  0  0  0  0  0  0  0
   -0.4327    1.6581    1.3910 C   0  0  0  0  0  0  0  0  0  0  0  0
   -0.7032    1.1340    2.3146 H   0  0  0  0  0  0  0  0  0  0  0  0
    0.6020    1.9972    1.5075 H   0  0  0  0  0  0  0  0  0  0  0  0
   -1.3347    2.9017    1.2284 C   0  0  0  0  0  0  0  0  0  0  0  0
   -2.3705    2.5796    1.0777 H   0  0  0  0  0  0  0  0  0  0  0  0
   -1.2769    3.7334    2.5154 C   0  0  0  0  0  0  0  0  0  0  0  0
   -0.2573    4.0835    2.7055 H   0  0  0  0  0  0  0  0  0  0  0  0
   -1.9349    4.6046    2.4382 H   0  0  0  0  0  0  0  0  0  0  0  0
   -1.6040    3.1341    3.3712 H   0  0  0  0  0  0  0  0  0  0  0  0
   -0.9126    3.7816    0.0422 C   0  0  0  0  0  0  0  0  0  0  0  0
   -1.0867    3.2687   -0.9073 H   0  0  0  0  0  0  0  0  0  0  0  0
   -1.4960    4.7078    0.0309 H   0  0  0  0  0  0  0  0  0  0  0  0
    0.1480    4.0425    0.1125 H   0  0  0  0  0  0  0  0  0  0  0  0
    0.7175   -0.2948    0.3218 C   0  0  0  0  0  0  0  0  0  0  0  0
    0.6412   -1.4876    0.5780 O   0  0  0  0  0  0  0  0  0  0  0  0
    1.8967    0.1248   -0.2737 N   0  0  0  0  0  0  0  0  0  0  0  0
    1.9658    1.1024   -0.5378 H   0  0  0  0  0  0  0  0  0  0  0  0
    3.0747   -0.7239   -0.4212 C   0  0  0  0  0  0  0  0  0  0  0  0
    2.8475   -1.5880   -1.0543 H   0  0  0  0  0  0  0  0  0  0  0  0
    3.8909   -0.1619   -0.8851 H   0  0  0  0  0  0  0  0  0  0  0  0
    3.4137   -1.0826    0.5565 H   0  0  0  0  0  0  0  0  0  0  0  0
  1  2  1  0  0  0  0
  2  3  1  0  0  0  0
  2  4  1  0  0  0  0
  2  5  1  0  0  0  0
  5  6  2  0  0  0  0
  5  7  1  0  0  0  0
  7  8  1  0  0  0  0
  7  9  1  0  0  0  0
  9 10  1  0  0  0  0
  9 11  1  0  0  0  0
  9 24  1  0  0  0  0
 11 12  1  0  0  0  0
 11 13  1  0  0  0  0
 11 14  1  0  0  0  0
 14 15  1  0  0  0  0
 14 16  1  0  0  0  0
 14 20  1  0  0  0  0
 16 17  1  0  0  0  0
 16 18  1  0  0  0  0
 16 19  1  0  0  0  0
 20 21  1  0  0  0  0
 20 22  1  0  0  0  0
 20 23  1  0  0  0  0
 24 25  2  0  0  0  0
 24 26  1  0  0  0  0
 26 27  1  0  0  0  0
 26 28  1  0  0  0  0
 28 29  1  0  0  0  0
 28 30  1  0  0  0  0
 28 31  1  0  0  0  0
M  END
$$$$

  -OEChem-01062216083D

 31 30  0     1  0  0  0  0  0999 V2000
   -3.4455   -2.8596    0.8691 H   0  0  0  0  0  0  0  0  0  0  0  0
   -3.3023   -1.9737    0.2439 C   0  0  0  0  0  0  0  0  0  0  0  0
   -4.2452   -1.4250    0.1861 H   0  0  0  0  0  0  0  0  0  0  0  0
   -3.0104   -2.2972   -0.7581 H   0  0  0  0  0  0  0  0  0  0  0  0
   -2.2203   -1.0906    0.8361 C   0  0  0  0  0  0  0  0  0  0  0  0
   -1.7998   -1.3204    1.9591 O   0  0  0  0  0  0  0  0  0  0  0  0
   -1.8690    0.0864    0.1988 N   0  0  0  0  0  0  0  0  0  0  0  0
   -2.3713    0.2245   -0.6716 H   0  0  0  0  0  0  0  0  0  0  0  0
   -0.5038    0.6604    0.2251 C   0  0  1  0  0  0  0  0  0  0  0  0
   -0.3535    1.1927   -0.7166 H   0  0  0  0  0  0  0  0  0  0  0  0
   -0.4409    1.6631    1.4004 C   0  0  0  0  0  0  0  0  0  0  0  0
   -0.7236    1.1385    2.3201 H   0  0  0  0  0  0  0  0  0  0  0  0
    0.5892    2.0081    1.5345 H   0  0  0  0  0  0  0  0  0  0  0  0
   -1.3454    2.9028    1.2237 C   0  0  0  0  0  0  0  0  0  0  0  0
   -2.3780    2.5775    1.0588 H   0  0  0  0  0  0  0  0  0  0  0  0
   -1.3085    3.7360    2.5100 C   0  0  0  0  0  0  0  0  0  0  0  0
   -0.2929    4.0901    2.7137 H   0  0  0  0  0  0  0  0  0  0  0  0
   -1.9685    4.6046    2.4219 H   0  0  0  0  0  0  0  0  0  0  0  0
   -1.6454    3.1371    3.3621 H   0  0  0  0  0  0  0  0  0  0  0  0
   -0.9089    3.7821    0.0426 C   0  0  0  0  0  0  0  0  0  0  0  0
   -1.0719    3.2690   -0.9088 H   0  0  0  0  0  0  0  0  0  0  0  0
   -1.4918    4.7084    0.0243 H   0  0  0  0  0  0  0  0  0  0  0  0
    0.1510    4.0423    0.1253 H   0  0  0  0  0  0  0  0  0  0  0  0
    0.7089   -0.3108    0.3320 C   0  0  0  0  0  0  0  0  0  0  0  0
    0.5890   -1.5253    0.2324 O   0  0  0  0  0  0  0  0  0  0  0  0
    1.9670    0.1953    0.0450 N   0  0  0  0  0  0  0  0  0  0  0  0
    2.0745    1.2046    0.0450 H   0  0  0  0  0  0  0  0  0  0  0  0
    3.1580   -0.6343   -0.1057 C   0  0  0  0  0  0  0  0  0  0  0  0
    3.0523   -1.3042   -0.9653 H   0  0  0  0  0  0  0  0  0  0  0  0
    4.0393   -0.0056   -0.2641 H   0  0  0  0  0  0  0  0  0  0  0  0
    3.3212   -1.2378    0.7935 H   0  0  0  0  0  0  0  0  0  0  0  0
  1  2  1  0  0  0  0
  2  3  1  0  0  0  0
  2  4  1  0  0  0  0
  2  5  1  0  0  0  0
  5  6  2  0  0  0  0
  5  7  1  0  0  0  0
  7  8  1  0  0  0  0
  7  9  1  0  0  0  0
  9 10  1  0  0  0  0
  9 11  1  0  0  0  0
  9 24  1  0  0  0  0
 11 12  1  0  0  0  0
 11 13  1  0  0  0  0
 11 14  1  0  0  0  0
 14 15  1  0  0  0  0
 14 16  1  0  0  0  0
 14 20  1  0  0  0  0
 16 17  1  0  0  0  0
 16 18  1  0  0  0  0
 16 19  1  0  0  0  0
 20 21  1  0  0  0  0
 20 22  1  0  0  0  0
 20 23  1  0  0  0  0
 24 25  2  0  0  0  0
 24 26  1  0  0  0  0
 26 27  1  0  0  0  0
 26 28  1  0  0  0  0
 28 29  1  0  0  0  0
 28 30  1  0  0  0  0
 28 31  1  0  0  0  0
M  END
$$$$

  -OEChem-01062216083D

 31 30  0     1  0  0  0  0  0999 V2000
   -3.3934   -2.8834    0.8142 H   0  0  0  0  0  0  0  0  0  0  0  0
   -3.2994   -1.9527    0.2478 C   0  0  0  0  0  0  0  0  0  0  0  0
   -4.2224   -1.3785    0.3552 H   0  0  0  0  0  0  0  0  0  0  0  0
   -3.1477   -2.1981   -0.8062 H   0  0  0  0  0  0  0  0  0  0  0  0
   -2.1221   -1.1464    0.7621 C   0  0  0  0  0  0  0  0  0  0  0  0
   -1.5043   -1.5405    1.7393 O   0  0  0  0  0  0  0  0  0  0  0  0
   -1.8231    0.0705    0.1717 N   0  0  0  0  0  0  0  0  0  0  0  0
   -2.3700    0.2631   -0.6612 H   0  0  0  0  0  0  0  0  0  0  0  0
   -0.4809    0.6910    0.2195 C   0  0  1  0  0  0  0  0  0  0  0  0
   -0.4318    1.4416   -0.5718 H   0  0  0  0  0  0  0  0  0  0  0  0
   -0.2831    1.3935    1.5861 C   0  0  0  0  0  0  0  0  0  0  0  0
   -0.4342    0.6670    2.3906 H   0  0  0  0  0  0  0  0  0  0  0  0
    0.7486    1.7468    1.6707 H   0  0  0  0  0  0  0  0  0  0  0  0
   -1.2186    2.6020    1.8082 C   0  0  0  0  0  0  0  0  0  0  0  0
   -2.2584    2.2788    1.6909 H   0  0  0  0  0  0  0  0  0  0  0  0
   -1.0379    3.1177    3.2406 C   0  0  0  0  0  0  0  0  0  0  0  0
   -0.0123    3.4649    3.4009 H   0  0  0  0  0  0  0  0  0  0  0  0
   -1.7215    3.9496    3.4364 H   0  0  0  0  0  0  0  0  0  0  0  0
   -1.2529    2.3230    3.9621 H   0  0  0  0  0  0  0  0  0  0  0  0
   -0.9425    3.7477    0.8229 C   0  0  0  0  0  0  0  0  0  0  0  0
   -1.2171    3.4629   -0.1962 H   0  0  0  0  0  0  0  0  0  0  0  0
   -1.5331    4.6292    1.0912 H   0  0  0  0  0  0  0  0  0  0  0  0
    0.1165    4.0238    0.8376 H   0  0  0  0  0  0  0  0  0  0  0  0
    0.6951   -0.2810   -0.0809 C   0  0  0  0  0  0  0  0  0  0  0  0
    0.4984   -1.3412   -0.6647 O   0  0  0  0  0  0  0  0  0  0  0  0
    1.9974    0.1910   -0.0601 N   0  0  0  0  0  0  0  0  0  0  0  0
    2.1614    1.0859    0.3895 H   0  0  0  0  0  0  0  0  0  0  0  0
    3.1474   -0.6071   -0.4704 C   0  0  0  0  0  0  0  0  0  0  0  0
    3.0731   -0.8710   -1.5305 H   0  0  0  0  0  0  0  0  0  0  0  0
    4.0724   -0.0427   -0.3195 H   0  0  0  0  0  0  0  0  0  0  0  0
    3.2045   -1.5285    0.1187 H   0  0  0  0  0  0  0  0  0  0  0  0
  1  2  1  0  0  0  0
  2  3  1  0  0  0  0
  2  4  1  0  0  0  0
  2  5  1  0  0  0  0
  5  6  2  0  0  0  0
  5  7  1  0  0  0  0
  7  8  1  0  0  0  0
  7  9  1  0  0  0  0
  9 10  1  0  0  0  0
  9 11  1  0  0  0  0
  9 24  1  0  0  0  0
 11 12  1  0  0  0  0
 11 13  1  0  0  0  0
 11 14  1  0  0  0  0
 14 15  1  0  0  0  0
 14 16  1  0  0  0  0
 14 20  1  0  0  0  0
 16 17  1  0  0  0  0
 16 18  1  0  0  0  0
 16 19  1  0  0  0  0
 20 21  1  0  0  0  0
 20 22  1  0  0  0  0
 20 23  1  0  0  0  0
 24 25  2  0  0  0  0
 24 26  1  0  0  0  0
 26 27  1  0  0  0  0
 26 28  1  0  0  0  0
 28 29  1  0  0  0  0
 28 30  1  0  0  0  0
 28 31  1  0  0  0  0
M  END
$$$$

  -OEChem-01062216083D

 31 30  0     1  0  0  0  0  0999 V2000
   -3.3359   -2.8917    0.7965 H   0  0  0  0  0  0  0  0  0  0  0  0
   -3.2711   -1.9431    0.2563 C   0  0  0  0  0  0  0  0  0  0  0  0
   -4.1925   -1.3793    0.4192 H   0  0  0  0  0  0  0  0  0  0  0  0
   -3.1617   -2.1547   -0.8102 H   0  0  0  0  0  0  0  0  0  0  0  0
   -2.0794   -1.1433    0.7475 C   0  0  0  0  0  0  0  0  0  0  0  0
   -1.4219   -1.5585    1.6897 O   0  0  0  0  0  0  0  0  0  0  0  0
   -1.7994    0.0825    0.1673 N   0  0  0  0  0  0  0  0  0  0  0  0
   -2.3580    0.2850   -0.6555 H   0  0  0  0  0  0  0  0  0  0  0  0
   -0.4664    0.7197    0.2187 C   0  0  1  0  0  0  0  0  0  0  0  0
   -0.4164    1.4734   -0.5699 H   0  0  0  0  0  0  0  0  0  0  0  0
   -0.2837    1.4197    1.5895 C   0  0  0  0  0  0  0  0  0  0  0  0
   -0.4236    0.6876    2.3911 H   0  0  0  0  0  0  0  0  0  0  0  0
    0.7397    1.7953    1.6757 H   0  0  0  0  0  0  0  0  0  0  0  0
   -1.2384    2.6133    1.8114 C   0  0  0  0  0  0  0  0  0  0  0  0
   -2.2724    2.2737    1.6902 H   0  0  0  0  0  0  0  0  0  0  0  0
   -1.0717    3.1270    3.2464 C   0  0  0  0  0  0  0  0  0  0  0  0
   -0.0492    3.4798    3.4157 H   0  0  0  0  0  0  0  0  0  0  0  0
   -1.7616    3.9546    3.4392 H   0  0  0  0  0  0  0  0  0  0  0  0
   -1.2879    2.3294    3.9644 H   0  0  0  0  0  0  0  0  0  0  0  0
   -0.9805    3.7663    0.8299 C   0  0  0  0  0  0  0  0  0  0  0  0
   -1.2406    3.4766   -0.1916 H   0  0  0  0  0  0  0  0  0  0  0  0
   -1.5937    4.6334    1.0945 H   0  0  0  0  0  0  0  0  0  0  0  0
    0.0718    4.0666    0.8534 H   0  0  0  0  0  0  0  0  0  0  0  0
    0.6975   -0.2624   -0.0958 C   0  0  0  0  0  0  0  0  0  0  0  0
    0.5100   -1.1963   -0.8689 O   0  0  0  0  0  0  0  0  0  0  0  0
    2.0095    0.0651    0.2038 N   0  0  0  0  0  0  0  0  0  0  0  0
    2.1579    0.8232    0.8616 H   0  0  0  0  0  0  0  0  0  0  0  0
    3.1421   -0.7829   -0.1490 C   0  0  0  0  0  0  0  0  0  0  0  0
    3.2147   -0.8934   -1.2361 H   0  0  0  0  0  0  0  0  0  0  0  0
    4.0739   -0.3399    0.2153 H   0  0  0  0  0  0  0  0  0  0  0  0
    3.0308   -1.7756    0.3000 H   0  0  0  0  0  0  0  0  0  0  0  0
  1  2  1  0  0  0  0
  2  3  1  0  0  0  0
  2  4  1  0  0  0  0
  2  5  1  0  0  0  0
  5  6  2  0  0  0  0
  5  7  1  0  0  0  0
  7  8  1  0  0  0  0
  7  9  1  0  0  0  0
  9 10  1  0  0  0  0
  9 11  1  0  0  0  0
  9 24  1  0  0  0  0
 11 12  1  0  0  0  0
 11 13  1  0  0  0  0
 11 14  1  0  0  0  0
 14 15  1  0  0  0  0
 14 16  1  0  0  0  0
 14 20  1  0  0  0  0
 16 17  1  0  0  0  0
 16 18  1  0  0  0  0
 16 19  1  0  0  0  0
 20 21  1  0  0  0  0
 20 22  1  0  0  0  0
 20 23  1  0  0  0  0
 24 25  2  0  0  0  0
 24 26  1  0  0  0  0
 26 27  1  0  0  0  0
 26 28  1  0  0  0  0
 28 29  1  0  0  0  0
 28 30  1  0  0  0  0
 28 31  1  0  0  0  0
M  END
$$$$

  -OEChem-01062216083D

 31 30  0     1  0  0  0  0  0999 V2000
   -3.3000   -2.8962    0.7837 H   0  0  0  0  0  0  0  0  0  0  0  0
   -3.2535   -1.9353    0.2638 C   0  0  0  0  0  0  0  0  0  0  0  0
   -4.1692   -1.3766    0.4707 H   0  0  0  0  0  0  0  0  0  0  0  0
   -3.1808   -2.1217   -0.8105 H   0  0  0  0  0  0  0  0  0  0  0  0
   -2.0458   -1.1463    0.7330 C   0  0  0  0  0  0  0  0  0  0  0  0
   -1.3572   -1.5806    1.6440 O   0  0  0  0  0  0  0  0  0  0  0  0
   -1.7783    0.0866    0.1636 N   0  0  0  0  0  0  0  0  0  0  0  0
   -2.3506    0.3044   -0.6461 H   0  0  0  0  0  0  0  0  0  0  0  0
   -0.4536    0.7383    0.2218 C   0  0  1  0  0  0  0  0  0  0  0  0
   -0.4052    1.4944   -0.5645 H   0  0  0  0  0  0  0  0  0  0  0  0
   -0.2832    1.4388    1.5937 C   0  0  0  0  0  0  0  0  0  0  0  0
   -0.4186    0.7044    2.3941 H   0  0  0  0  0  0  0  0  0  0  0  0
    0.7354    1.8282    1.6807 H   0  0  0  0  0  0  0  0  0  0  0  0
   -1.2525    2.6215    1.8118 C   0  0  0  0  0  0  0  0  0  0  0  0
   -2.2821    2.2702    1.6858 H   0  0  0  0  0  0  0  0  0  0  0  0
   -1.0991    3.1385    3.2469 C   0  0  0  0  0  0  0  0  0  0  0  0
   -0.0814    3.5023    3.4211 H   0  0  0  0  0  0  0  0  0  0  0  0
   -1.7983    3.9594    3.4338 H   0  0  0  0  0  0  0  0  0  0  0  0
   -1.3111    2.3401    3.9649 H   0  0  0  0  0  0  0  0  0  0  0  0
   -1.0033    3.7772    0.8313 C   0  0  0  0  0  0  0  0  0  0  0  0
   -1.2584    3.4855   -0.1911 H   0  0  0  0  0  0  0  0  0  0  0  0
   -1.6251    4.6386    1.0949 H   0  0  0  0  0  0  0  0  0  0  0  0
    0.0462    4.0872    0.8570 H   0  0  0  0  0  0  0  0  0  0  0  0
    0.7069   -0.2444   -0.1008 C   0  0  0  0  0  0  0  0  0  0  0  0
    0.5685   -1.0379   -1.0260 O   0  0  0  0  0  0  0  0  0  0  0  0
    1.9699   -0.0966    0.4480 N   0  0  0  0  0  0  0  0  0  0  0  0
    2.0437    0.4955    1.2690 H   0  0  0  0  0  0  0  0  0  0  0  0
    3.0744   -0.9981    0.1425 C   0  0  0  0  0  0  0  0  0  0  0  0
    3.3049   -0.9737   -0.9277 H   0  0  0  0  0  0  0  0  0  0  0  0
    3.9706   -0.6987    0.6940 H   0  0  0  0  0  0  0  0  0  0  0  0
    2.8191   -2.0249    0.4253 H   0  0  0  0  0  0  0  0  0  0  0  0
  1  2  1  0  0  0  0
  2  3  1  0  0  0  0
  2  4  1  0  0  0  0
  2  5  1  0  0  0  0
  5  6  2  0  0  0  0
  5  7  1  0  0  0  0
  7  8  1  0  0  0  0
  7  9  1  0  0  0  0
  9 10  1  0  0  0  0
  9 11  1  0  0  0  0
  9 24  1  0  0  0  0
 11 12  1  0  0  0  0
 11 13  1  0  0  0  0
 11 14  1  0  0  0  0
 14 15  1  0  0  0  0
 14 16  1  0  0  0  0
 14 20  1  0  0  0  0
 16 17  1  0  0  0  0
 16 18  1  0  0  0  0
 16 19  1  0  0  0  0
 20 21  1  0  0  0  0
 20 22  1  0  0  0  0
 20 23  1  0  0  0  0
 24 25  2  0  0  0  0
 24 26  1  0  0  0  0
 26 27  1  0  0  0  0
 26 28  1  0  0  0  0
 28 29  1  0  0  0  0
 28 30  1  0  0  0  0
 28 31  1  0  0  0  0
M  END
$$$$

  -OEChem-01062216083D

 31 30  0     1  0  0  0  0  0999 V2000
   -3.2895   -2.8882    0.7987 H   0  0  0  0  0  0  0  0  0  0  0  0
   -3.2393   -1.9330    0.2684 C   0  0  0  0  0  0  0  0  0  0  0  0
   -4.1495   -1.3656    0.4763 H   0  0  0  0  0  0  0  0  0  0  0  0
   -3.1756   -2.1305   -0.8045 H   0  0  0  0  0  0  0  0  0  0  0  0
   -2.0233   -1.1478    0.7212 C   0  0  0  0  0  0  0  0  0  0  0  0
   -1.3160   -1.5917    1.6132 O   0  0  0  0  0  0  0  0  0  0  0  0
   -1.7634    0.0884    0.1561 N   0  0  0  0  0  0  0  0  0  0  0  0
   -2.3424    0.3141   -0.6469 H   0  0  0  0  0  0  0  0  0  0  0  0
   -0.4452    0.7509    0.2206 C   0  0  1  0  0  0  0  0  0  0  0  0
   -0.3979    1.5082   -0.5651 H   0  0  0  0  0  0  0  0  0  0  0  0
   -0.2816    1.4519    1.5920 C   0  0  0  0  0  0  0  0  0  0  0  0
   -0.4146    0.7163    2.3918 H   0  0  0  0  0  0  0  0  0  0  0  0
    0.7363    1.8455    1.6772 H   0  0  0  0  0  0  0  0  0  0  0  0
   -1.2586    2.6282    1.8111 C   0  0  0  0  0  0  0  0  0  0  0  0
   -2.2859    2.2708    1.6836 H   0  0  0  0  0  0  0  0  0  0  0  0
   -1.1083    3.1435    3.2474 C   0  0  0  0  0  0  0  0  0  0  0  0
   -0.0950    3.5200    3.4204 H   0  0  0  0  0  0  0  0  0  0  0  0
   -1.8180    3.9544    3.4383 H   0  0  0  0  0  0  0  0  0  0  0  0
   -1.3083    2.3402    3.9636 H   0  0  0  0  0  0  0  0  0  0  0  0
   -1.0149    3.7874    0.8331 C   0  0  0  0  0  0  0  0  0  0  0  0
   -1.2680    3.4962   -0.1899 H   0  0  0  0  0  0  0  0  0  0  0  0
   -1.6411    4.6450    1.0982 H   0  0  0  0  0  0  0  0  0  0  0  0
    0.0331    4.1025    0.8600 H   0  0  0  0  0  0  0  0  0  0  0  0
    0.7156   -0.2291   -0.1010 C   0  0  0  0  0  0  0  0  0  0  0  0
    0.6589   -0.8775   -1.1402 O   0  0  0  0  0  0  0  0  0  0  0  0
    1.8745   -0.2836    0.6545 N   0  0  0  0  0  0  0  0  0  0  0  0
    1.8248    0.1323    1.5793 H   0  0  0  0  0  0  0  0  0  0  0  0
    2.9400   -1.2420    0.3877 C   0  0  0  0  0  0  0  0  0  0  0  0
    3.3394   -1.1014   -0.6222 H   0  0  0  0  0  0  0  0  0  0  0  0
    3.7575   -1.1069    1.1020 H   0  0  0  0  0  0  0  0  0  0  0  0
    2.5638   -2.2665    0.4789 H   0  0  0  0  0  0  0  0  0  0  0  0
  1  2  1  0  0  0  0
  2  3  1  0  0  0  0
  2  4  1  0  0  0  0
  2  5  1  0  0  0  0
  5  6  2  0  0  0  0
  5  7  1  0  0  0  0
  7  8  1  0  0  0  0
  7  9  1  0  0  0  0
  9 10  1  0  0  0  0
  9 11  1  0  0  0  0
  9 24  1  0  0  0  0
 11 12  1  0  0  0  0
 11 13  1  0  0  0  0
 11 14  1  0  0  0  0
 14 15  1  0  0  0  0
 14 16  1  0  0  0  0
 14 20  1  0  0  0  0
 16 17  1  0  0  0  0
 16 18  1  0  0  0  0
 16 19  1  0  0  0  0
 20 21  1  0  0  0  0
 20 22  1  0  0  0  0
 20 23  1  0  0  0  0
 24 25  2  0  0  0  0
 24 26  1  0  0  0  0
 26 27  1  0  0  0  0
 26 28  1  0  0  0  0
 28 29  1  0  0  0  0
 28 30  1  0  0  0  0
 28 31  1  0  0  0  0
M  END
$$$$

  -OEChem-01062216083D

 31 30  0     1  0  0  0  0  0999 V2000
   -3.2988   -2.8837    0.7960 H   0  0  0  0  0  0  0  0  0  0  0  0
   -3.2517   -1.9224    0.2768 C   0  0  0  0  0  0  0  0  0  0  0  0
   -4.1511   -1.3491    0.5136 H   0  0  0  0  0  0  0  0  0  0  0  0
   -3.2163   -2.1068   -0.7997 H   0  0  0  0  0  0  0  0  0  0  0  0
   -2.0175   -1.1544    0.7106 C   0  0  0  0  0  0  0  0  0  0  0  0
   -1.2979   -1.6111    1.5860 O   0  0  0  0  0  0  0  0  0  0  0  0
   -1.7515    0.0808    0.1472 N   0  0  0  0  0  0  0  0  0  0  0  0
   -2.3436    0.3271   -0.6401 H   0  0  0  0  0  0  0  0  0  0  0  0
   -0.4371    0.7490    0.2183 C   0  0  1  0  0  0  0  0  0  0  0  0
   -0.3892    1.5061   -0.5678 H   0  0  0  0  0  0  0  0  0  0  0  0
   -0.2774    1.4513    1.5884 C   0  0  0  0  0  0  0  0  0  0  0  0
   -0.4126    0.7162    2.3883 H   0  0  0  0  0  0  0  0  0  0  0  0
    0.7425    1.8418    1.6723 H   0  0  0  0  0  0  0  0  0  0  0  0
   -1.2569    2.6251    1.8069 C   0  0  0  0  0  0  0  0  0  0  0  0
   -2.2832    2.2656    1.6788 H   0  0  0  0  0  0  0  0  0  0  0  0
   -1.1078    3.1404    3.2431 C   0  0  0  0  0  0  0  0  0  0  0  0
   -0.0925    3.5102    3.4181 H   0  0  0  0  0  0  0  0  0  0  0  0
   -1.8124    3.9564    3.4320 H   0  0  0  0  0  0  0  0  0  0  0  0
   -1.3149    2.3394    3.9598 H   0  0  0  0  0  0  0  0  0  0  0  0
   -1.0156    3.7850    0.8295 C   0  0  0  0  0  0  0  0  0  0  0  0
   -1.2625    3.4924   -0.1944 H   0  0  0  0  0  0  0  0  0  0  0  0
   -1.6479    4.6390    1.0916 H   0  0  0  0  0  0  0  0  0  0  0  0
    0.0304    4.1061    0.8606 H   0  0  0  0  0  0  0  0  0  0  0  0
    0.7294   -0.2244   -0.0931 C   0  0  0  0  0  0  0  0  0  0  0  0
    0.7979   -0.7074   -1.2174 O   0  0  0  0  0  0  0  0  0  0  0  0
    1.7357   -0.4919    0.8187 N   0  0  0  0  0  0  0  0  0  0  0  0
    1.5220   -0.2609    1.7847 H   0  0  0  0  0  0  0  0  0  0  0  0
    2.7702   -1.4873    0.5680 C   0  0  0  0  0  0  0  0  0  0  0  0
    3.3375   -1.2332   -0.3334 H   0  0  0  0  0  0  0  0  0  0  0  0
    3.4658   -1.5293    1.4115 H   0  0  0  0  0  0  0  0  0  0  0  0
    2.3230   -2.4781    0.4355 H   0  0  0  0  0  0  0  0  0  0  0  0
  1  2  1  0  0  0  0
  2  3  1  0  0  0  0
  2  4  1  0  0  0  0
  2  5  1  0  0  0  0
  5  6  2  0  0  0  0
  5  7  1  0  0  0  0
  7  8  1  0  0  0  0
  7  9  1  0  0  0  0
  9 10  1  0  0  0  0
  9 11  1  0  0  0  0
  9 24  1  0  0  0  0
 11 12  1  0  0  0  0
 11 13  1  0  0  0  0
 11 14  1  0  0  0  0
 14 15  1  0  0  0  0
 14 16  1  0  0  0  0
 14 20  1  0  0  0  0
 16 17  1  0  0  0  0
 16 18  1  0  0  0  0
 16 19  1  0  0  0  0
 20 21  1  0  0  0  0
 20 22  1  0  0  0  0
 20 23  1  0  0  0  0
 24 25  2  0  0  0  0
 24 26  1  0  0  0  0
 26 27  1  0  0  0  0
 26 28  1  0  0  0  0
 28 29  1  0  0  0  0
 28 30  1  0  0  0  0
 28 31  1  0  0  0  0
M  END
$$$$

  -OEChem-01062216083D

 31 30  0     1  0  0  0  0  0999 V2000
   -3.3396   -2.8700    0.8009 H   0  0  0  0  0  0  0  0  0  0  0  0
   -3.2821   -1.9076    0.2846 C   0  0  0  0  0  0  0  0  0  0  0  0
   -4.1699   -1.3209    0.5322 H   0  0  0  0  0  0  0  0  0  0  0  0
   -3.2607   -2.0887   -0.7928 H   0  0  0  0  0  0  0  0  0  0  0  0
   -2.0320   -1.1606    0.7086 C   0  0  0  0  0  0  0  0  0  0  0  0
   -1.3112   -1.6301    1.5766 O   0  0  0  0  0  0  0  0  0  0  0  0
   -1.7510    0.0703    0.1437 N   0  0  0  0  0  0  0  0  0  0  0  0
   -2.3560    0.3405   -0.6261 H   0  0  0  0  0  0  0  0  0  0  0  0
   -0.4356    0.7351    0.2190 C   0  0  1  0  0  0  0  0  0  0  0  0
   -0.3858    1.4904   -0.5691 H   0  0  0  0  0  0  0  0  0  0  0  0
   -0.2766    1.4398    1.5868 C   0  0  0  0  0  0  0  0  0  0  0  0
   -0.4207    0.7079    2.3881 H   0  0  0  0  0  0  0  0  0  0  0  0
    0.7473    1.8192    1.6729 H   0  0  0  0  0  0  0  0  0  0  0  0
   -1.2512    2.6181    1.8020 C   0  0  0  0  0  0  0  0  0  0  0  0
   -2.2794    2.2637    1.6728 H   0  0  0  0  0  0  0  0  0  0  0  0
   -1.1007    3.1336    3.2381 C   0  0  0  0  0  0  0  0  0  0  0  0
   -0.0838    3.4993    3.4134 H   0  0  0  0  0  0  0  0  0  0  0  0
   -1.8020    3.9525    3.4263 H   0  0  0  0  0  0  0  0  0  0  0  0
   -1.3108    2.3334    3.9548 H   0  0  0  0  0  0  0  0  0  0  0  0
   -1.0022    3.7747    0.8223 C   0  0  0  0  0  0  0  0  0  0  0  0
   -1.2480    3.4808   -0.2016 H   0  0  0  0  0  0  0  0  0  0  0  0
   -1.6304    4.6330    1.0809 H   0  0  0  0  0  0  0  0  0  0  0  0
    0.0455    4.0905    0.8550 H   0  0  0  0  0  0  0  0  0  0  0  0
    0.7381   -0.2319   -0.0789 C   0  0  0  0  0  0  0  0  0  0  0  0
    0.9729   -0.5208   -1.2461 O   0  0  0  0  0  0  0  0  0  0  0  0
    1.5571   -0.7224    0.9223 N   0  0  0  0  0  0  0  0  0  0  0  0
    1.1451   -0.6996    1.8525 H   0  0  0  0  0  0  0  0  0  0  0  0
    2.5850   -1.7223    0.6642 C   0  0  0  0  0  0  0  0  0  0  0  0
    3.3046   -1.3516   -0.0731 H   0  0  0  0  0  0  0  0  0  0  0  0
    3.1263   -1.9533    1.5865 H   0  0  0  0  0  0  0  0  0  0  0  0
    2.1339   -2.6449    0.2844 H   0  0  0  0  0  0  0  0  0  0  0  0
  1  2  1  0  0  0  0
  2  3  1  0  0  0  0
  2  4  1  0  0  0  0
  2  5  1  0  0  0  0
  5  6  2  0  0  0  0
  5  7  1  0  0  0  0
  7  8  1  0  0  0  0
  7  9  1  0  0  0  0
  9 10  1  0  0  0  0
  9 11  1  0  0  0  0
  9 24  1  0  0  0  0
 11 12  1  0  0  0  0
 11 13  1  0  0  0  0
 11 14  1  0  0  0  0
 14 15  1  0  0  0  0
 14 16  1  0  0  0  0
 14 20  1  0  0  0  0
 16 17  1  0  0  0  0
 16 18  1  0  0  0  0
 16 19  1  0  0  0  0
 20 21  1  0  0  0  0
 20 22  1  0  0  0  0
 20 23  1  0  0  0  0
 24 25  2  0  0  0  0
 24 26  1  0  0  0  0
 26 27  1  0  0  0  0
 26 28  1  0  0  0  0
 28 29  1  0  0  0  0
 28 30  1  0  0  0  0
 28 31  1  0  0  0  0
M  END
$$$$

  -OEChem-01062216083D

 31 30  0     1  0  0  0  0  0999 V2000
   -3.4383   -2.8344    0.8141 H   0  0  0  0  0  0  0  0  0  0  0  0
   -3.3553   -1.8744    0.2967 C   0  0  0  0  0  0  0  0  0  0  0  0
   -4.2186   -1.2578    0.5577 H   0  0  0  0  0  0  0  0  0  0  0  0
   -3.3566   -2.0556   -0.7809 H   0  0  0  0  0  0  0  0  0  0  0  0
   -2.0742   -1.1705    0.7027 C   0  0  0  0  0  0  0  0  0  0  0  0
   -1.3636   -1.6618    1.5669 O   0  0  0  0  0  0  0  0  0  0  0  0
   -1.7605    0.0511    0.1350 N   0  0  0  0  0  0  0  0  0  0  0  0
   -2.3784    0.3531   -0.6127 H   0  0  0  0  0  0  0  0  0  0  0  0
   -0.4397    0.7082    0.2099 C   0  0  1  0  0  0  0  0  0  0  0  0
   -0.3899    1.4636   -0.5783 H   0  0  0  0  0  0  0  0  0  0  0  0
   -0.2770    1.4117    1.5774 C   0  0  0  0  0  0  0  0  0  0  0  0
   -0.4255    0.6804    2.3784 H   0  0  0  0  0  0  0  0  0  0  0  0
    0.7506    1.7817    1.6634 H   0  0  0  0  0  0  0  0  0  0  0  0
   -1.2432    2.5966    1.7947 C   0  0  0  0  0  0  0  0  0  0  0  0
   -2.2740    2.2506    1.6638 H   0  0  0  0  0  0  0  0  0  0  0  0
   -1.0891    3.1100    3.2311 C   0  0  0  0  0  0  0  0  0  0  0  0
   -0.0699    3.4690    3.4065 H   0  0  0  0  0  0  0  0  0  0  0  0
   -1.7849    3.9335    3.4194 H   0  0  0  0  0  0  0  0  0  0  0  0
   -1.3043    2.3111    3.9477 H   0  0  0  0  0  0  0  0  0  0  0  0
   -0.9826    3.7531    0.8182 C   0  0  0  0  0  0  0  0  0  0  0  0
   -1.2303    3.4639   -0.2065 H   0  0  0  0  0  0  0  0  0  0  0  0
   -1.6025    4.6168    1.0786 H   0  0  0  0  0  0  0  0  0  0  0  0
    0.0680    4.0584    0.8528 H   0  0  0  0  0  0  0  0  0  0  0  0
    0.7484   -0.2463   -0.0693 C   0  0  0  0  0  0  0  0  0  0  0  0
    1.1761   -0.3318   -1.2137 O   0  0  0  0  0  0  0  0  0  0  0  0
    1.3680   -0.9530    0.9447 N   0  0  0  0  0  0  0  0  0  0  0  0
    0.7731   -1.1066    1.7596 H   0  0  0  0  0  0  0  0  0  0  0  0
    2.4169   -1.9300    0.6846 C   0  0  0  0  0  0  0  0  0  0  0  0
    3.2604   -1.4595    0.1688 H   0  0  0  0  0  0  0  0  0  0  0  0
    2.7817   -2.3504    1.6267 H   0  0  0  0  0  0  0  0  0  0  0  0
    2.0340   -2.7463    0.0633 H   0  0  0  0  0  0  0  0  0  0  0  0
  1  2  1  0  0  0  0
  2  3  1  0  0  0  0
  2  4  1  0  0  0  0
  2  5  1  0  0  0  0
  5  6  2  0  0  0  0
  5  7  1  0  0  0  0
  7  8  1  0  0  0  0
  7  9  1  0  0  0  0
  9 10  1  0  0  0  0
  9 11  1  0  0  0  0
  9 24  1  0  0  0  0
 11 12  1  0  0  0  0
 11 13  1  0  0  0  0
 11 14  1  0  0  0  0
 14 15  1  0  0  0  0
 14 16  1  0  0  0  0
 14 20  1  0  0  0  0
 16 17  1  0  0  0  0
 16 18  1  0  0  0  0
 16 19  1  0  0  0  0
 20 21  1  0  0  0  0
 20 22  1  0  0  0  0
 20 23  1  0  0  0  0
 24 25  2  0  0  0  0
 24 26  1  0  0  0  0
 26 27  1  0  0  0  0
 26 28  1  0  0  0  0
 28 29  1  0  0  0  0
 28 30  1  0  0  0  0
 28 31  1  0  0  0  0
M  END
$$$$

  -OEChem-01062216083D

 31 30  0     1  0  0  0  0  0999 V2000
   -3.5721   -2.7823    0.8024 H   0  0  0  0  0  0  0  0  0  0  0  0
   -3.4609   -1.8119    0.3103 C   0  0  0  0  0  0  0  0  0  0  0  0
   -4.2894   -1.1667    0.6125 H   0  0  0  0  0  0  0  0  0  0  0  0
   -3.4985   -1.9610   -0.7716 H   0  0  0  0  0  0  0  0  0  0  0  0
   -2.1400   -1.1762    0.7003 C   0  0  0  0  0  0  0  0  0  0  0  0
   -1.4505   -1.7043    1.5586 O   0  0  0  0  0  0  0  0  0  0  0  0
   -1.7771    0.0293    0.1285 N   0  0  0  0  0  0  0  0  0  0  0  0
   -2.4110    0.3756   -0.5858 H   0  0  0  0  0  0  0  0  0  0  0  0
   -0.4472    0.6726    0.1947 C   0  0  1  0  0  0  0  0  0  0  0  0
   -0.4000    1.4276   -0.5945 H   0  0  0  0  0  0  0  0  0  0  0  0
   -0.2822    1.3711    1.5630 C   0  0  0  0  0  0  0  0  0  0  0  0
   -0.4363    0.6369    2.3605 H   0  0  0  0  0  0  0  0  0  0  0  0
    0.7486    1.7319    1.6525 H   0  0  0  0  0  0  0  0  0  0  0  0
   -1.2394    2.5631    1.7826 C   0  0  0  0  0  0  0  0  0  0  0  0
   -2.2729    2.2267    1.6497 H   0  0  0  0  0  0  0  0  0  0  0  0
   -1.0834    3.0711    3.2209 C   0  0  0  0  0  0  0  0  0  0  0  0
   -0.0613    3.4204    3.3987 H   0  0  0  0  0  0  0  0  0  0  0  0
   -1.7724    3.9001    3.4108 H   0  0  0  0  0  0  0  0  0  0  0  0
   -1.3070    2.2719    3.9348 H   0  0  0  0  0  0  0  0  0  0  0  0
   -0.9668    3.7192    0.8085 C   0  0  0  0  0  0  0  0  0  0  0  0
   -1.2178    3.4355   -0.2171 H   0  0  0  0  0  0  0  0  0  0  0  0
   -1.5766    4.5894    1.0710 H   0  0  0  0  0  0  0  0  0  0  0  0
    0.0873    4.0124    0.8430 H   0  0  0  0  0  0  0  0  0  0  0  0
    0.7626   -0.2618   -0.0637 C   0  0  0  0  0  0  0  0  0  0  0  0
    1.3717   -0.1534   -1.1204 O   0  0  0  0  0  0  0  0  0  0  0  0
    1.2052   -1.1711    0.8780 N   0  0  0  0  0  0  0  0  0  0  0  0
    0.5083   -1.4163    1.5856 H   0  0  0  0  0  0  0  0  0  0  0  0
    2.2796   -2.1198    0.6178 C   0  0  0  0  0  0  0  0  0  0  0  0
    3.1998   -1.5923    0.3461 H   0  0  0  0  0  0  0  0  0  0  0  0
    2.4780   -2.7177    1.5124 H   0  0  0  0  0  0  0  0  0  0  0  0
    2.0052   -2.7946   -0.1994 H   0  0  0  0  0  0  0  0  0  0  0  0
  1  2  1  0  0  0  0
  2  3  1  0  0  0  0
  2  4  1  0  0  0  0
  2  5  1  0  0  0  0
  5  6  2  0  0  0  0
  5  7  1  0  0  0  0
  7  8  1  0  0  0  0
  7  9  1  0  0  0  0
  9 10  1  0  0  0  0
  9 11  1  0  0  0  0
  9 24  1  0  0  0  0
 11 12  1  0  0  0  0
 11 13  1  0  0  0  0
 11 14  1  0  0  0  0
 14 15  1  0  0  0  0
 14 16  1  0  0  0  0
 14 20  1  0  0  0  0
 16 17  1  0  0  0  0
 16 18  1  0  0  0  0
 16 19  1  0  0  0  0
 20 21  1  0  0  0  0
 20 22  1  0  0  0  0
 20 23  1  0  0  0  0
 24 25  2  0  0  0  0
 24 26  1  0  0  0  0
 26 27  1  0  0  0  0
 26 28  1  0  0  0  0
 28 29  1  0  0  0  0
 28 30  1  0  0  0  0
 28 31  1  0  0  0  0
M  END
$$$$

  -OEChem-01062216083D

 31 30  0     1  0  0  0  0  0999 V2000
   -3.6953   -2.7333    0.8007 H   0  0  0  0  0  0  0  0  0  0  0  0
   -3.5509   -1.7658    0.3115 C   0  0  0  0  0  0  0  0  0  0  0  0
   -4.3571   -1.0936    0.6155 H   0  0  0  0  0  0  0  0  0  0  0  0
   -3.5938   -1.9112   -0.7707 H   0  0  0  0  0  0  0  0  0  0  0  0
   -2.2096   -1.1759    0.7038 C   0  0  0  0  0  0  0  0  0  0  0  0
   -1.5489   -1.7249    1.5704 O   0  0  0  0  0  0  0  0  0  0  0  0
   -1.8053    0.0148    0.1284 N   0  0  0  0  0  0  0  0  0  0  0  0
   -2.4418    0.3843   -0.5719 H   0  0  0  0  0  0  0  0  0  0  0  0
   -0.4650    0.6434    0.1827 C   0  0  1  0  0  0  0  0  0  0  0  0
   -0.4208    1.3975   -0.6074 H   0  0  0  0  0  0  0  0  0  0  0  0
   -0.2906    1.3387    1.5510 C   0  0  0  0  0  0  0  0  0  0  0  0
   -0.4462    0.6036    2.3475 H   0  0  0  0  0  0  0  0  0  0  0  0
    0.7429    1.6921    1.6376 H   0  0  0  0  0  0  0  0  0  0  0  0
   -1.2360    2.5395    1.7754 C   0  0  0  0  0  0  0  0  0  0  0  0
   -2.2731    2.2143    1.6439 H   0  0  0  0  0  0  0  0  0  0  0  0
   -1.0715    3.0437    3.2136 C   0  0  0  0  0  0  0  0  0  0  0  0
   -0.0449    3.3807    3.3899 H   0  0  0  0  0  0  0  0  0  0  0  0
   -1.7502    3.8807    3.4055 H   0  0  0  0  0  0  0  0  0  0  0  0
   -1.3034    2.2463    3.9267 H   0  0  0  0  0  0  0  0  0  0  0  0
   -0.9530    3.6952    0.8045 C   0  0  0  0  0  0  0  0  0  0  0  0
   -1.2114    3.4180   -0.2209 H   0  0  0  0  0  0  0  0  0  0  0  0
   -1.5510    4.5718    1.0725 H   0  0  0  0  0  0  0  0  0  0  0  0
    0.1048    3.9753    0.8363 H   0  0  0  0  0  0  0  0  0  0  0  0
    0.7601   -0.2757   -0.0649 C   0  0  0  0  0  0  0  0  0  0  0  0
    1.5118   -0.0045   -0.9925 O   0  0  0  0  0  0  0  0  0  0  0  0
    1.0536   -1.3694    0.7253 N   0  0  0  0  0  0  0  0  0  0  0  0
    0.3167   -1.6553    1.3752 H   0  0  0  0  0  0  0  0  0  0  0  0
    2.1460   -2.2936    0.4544 C   0  0  0  0  0  0  0  0  0  0  0  0
    3.1029   -1.7617    0.4390 H   0  0  0  0  0  0  0  0  0  0  0  0
    2.1914   -3.0607    1.2334 H   0  0  0  0  0  0  0  0  0  0  0  0
    1.9995   -2.7871   -0.5118 H   0  0  0  0  0  0  0  0  0  0  0  0
  1  2  1  0  0  0  0
  2  3  1  0  0  0  0
  2  4  1  0  0  0  0
  2  5  1  0  0  0  0
  5  6  2  0  0  0  0
  5  7  1  0  0  0  0
  7  8  1  0  0  0  0
  7  9  1  0  0  0  0
  9 10  1  0  0  0  0
  9 11  1  0  0  0  0
  9 24  1  0  0  0  0
 11 12  1  0  0  0  0
 11 13  1  0  0  0  0
 11 14  1  0  0  0  0
 14 15  1  0  0  0  0
 14 16  1  0  0  0  0
 14 20  1  0  0  0  0
 16 17  1  0  0  0  0
 16 18  1  0  0  0  0
 16 19  1  0  0  0  0
 20 21  1  0  0  0  0
 20 22  1  0  0  0  0
 20 23  1  0  0  0  0
 24 25  2  0  0  0  0
 24 26  1  0  0  0  0
 26 27  1  0  0  0  0
 26 28  1  0  0  0  0
 28 29  1  0  0  0  0
 28 30  1  0  0  0  0
 28 31  1  0  0  0  0
M  END
$$$$

  -OEChem-01062216083D

 31 30  0     1  0  0  0  0  0999 V2000
   -3.8235   -2.6714    0.8300 H   0  0  0  0  0  0  0  0  0  0  0  0
   -3.6454   -1.7187    0.3232 C   0  0  0  0  0  0  0  0  0  0  0  0
   -4.4257   -1.0128    0.6174 H   0  0  0  0  0  0  0  0  0  0  0  0
   -3.6974   -1.8812   -0.7560 H   0  0  0  0  0  0  0  0  0  0  0  0
   -2.2818   -1.1711    0.7012 C   0  0  0  0  0  0  0  0  0  0  0  0
   -1.6272   -1.7446    1.5562 O   0  0  0  0  0  0  0  0  0  0  0  0
   -1.8506    0.0094    0.1245 N   0  0  0  0  0  0  0  0  0  0  0  0
   -2.4945    0.4042   -0.5548 H   0  0  0  0  0  0  0  0  0  0  0  0
   -0.4984    0.6173    0.1589 C   0  0  1  0  0  0  0  0  0  0  0  0
   -0.4593    1.3731   -0.6298 H   0  0  0  0  0  0  0  0  0  0  0  0
   -0.2976    1.3033    1.5281 C   0  0  0  0  0  0  0  0  0  0  0  0
   -0.4522    0.5648    2.3220 H   0  0  0  0  0  0  0  0  0  0  0  0
    0.7415    1.6431    1.6041 H   0  0  0  0  0  0  0  0  0  0  0  0
   -1.2232    2.5159    1.7706 C   0  0  0  0  0  0  0  0  0  0  0  0
   -2.2658    2.2039    1.6526 H   0  0  0  0  0  0  0  0  0  0  0  0
   -1.0339    3.0109    3.2092 C   0  0  0  0  0  0  0  0  0  0  0  0
   -0.0023    3.3390    3.3725 H   0  0  0  0  0  0  0  0  0  0  0  0
   -1.7029    3.8523    3.4151 H   0  0  0  0  0  0  0  0  0  0  0  0
   -1.2615    2.2120    3.9220 H   0  0  0  0  0  0  0  0  0  0  0  0
   -0.9406    3.6727    0.8004 C   0  0  0  0  0  0  0  0  0  0  0  0
   -1.2083    3.4006   -0.2240 H   0  0  0  0  0  0  0  0  0  0  0  0
   -1.5315    4.5517    1.0760 H   0  0  0  0  0  0  0  0  0  0  0  0
    0.1191    3.9466    0.8246 H   0  0  0  0  0  0  0  0  0  0  0  0
    0.7293   -0.2972   -0.1013 C   0  0  0  0  0  0  0  0  0  0  0  0
    1.6043    0.1160   -0.8516 O   0  0  0  0  0  0  0  0  0  0  0  0
    0.8950   -1.5434    0.4687 N   0  0  0  0  0  0  0  0  0  0  0  0
    0.1480   -1.8631    1.0901 H   0  0  0  0  0  0  0  0  0  0  0  0
    2.0439   -2.4071    0.2342 C   0  0  0  0  0  0  0  0  0  0  0  0
    2.9699   -1.9009    0.5259 H   0  0  0  0  0  0  0  0  0  0  0  0
    1.9509   -3.3239    0.8239 H   0  0  0  0  0  0  0  0  0  0  0  0
    2.1081   -2.6802   -0.8241 H   0  0  0  0  0  0  0  0  0  0  0  0
  1  2  1  0  0  0  0
  2  3  1  0  0  0  0
  2  4  1  0  0  0  0
  2  5  1  0  0  0  0
  5  6  2  0  0  0  0
  5  7  1  0  0  0  0
  7  8  1  0  0  0  0
  7  9  1  0  0  0  0
  9 10  1  0  0  0  0
  9 11  1  0  0  0  0
  9 24  1  0  0  0  0
 11 12  1  0  0  0  0
 11 13  1  0  0  0  0
 11 14  1  0  0  0  0
 14 15  1  0  0  0  0
 14 16  1  0  0  0  0
 14 20  1  0  0  0  0
 16 17  1  0  0  0  0
 16 18  1  0  0  0  0
 16 19  1  0  0  0  0
 20 21  1  0  0  0  0
 20 22  1  0  0  0  0
 20 23  1  0  0  0  0
 24 25  2  0  0  0  0
 24 26  1  0  0  0  0
 26 27  1  0  0  0  0
 26 28  1  0  0  0  0
 28 29  1  0  0  0  0
 28 30  1  0  0  0  0
 28 31  1  0  0  0  0
M  END
$$$$

  -OEChem-01062216083D

 31 30  0     1  0  0  0  0  0999 V2000
   -3.8966   -2.6268    0.7351 H   0  0  0  0  0  0  0  0  0  0  0  0
   -3.7013   -1.6606    0.2613 C   0  0  0  0  0  0  0  0  0  0  0  0
   -4.4541   -0.9445    0.6000 H   0  0  0  0  0  0  0  0  0  0  0  0
   -3.7813   -1.7794   -0.8220 H   0  0  0  0  0  0  0  0  0  0  0  0
   -2.3144   -1.1670    0.6291 C   0  0  0  0  0  0  0  0  0  0  0  0
   -1.6590   -1.7903    1.4475 O   0  0  0  0  0  0  0  0  0  0  0  0
   -1.8574    0.0165    0.0794 N   0  0  0  0  0  0  0  0  0  0  0  0
   -2.5055    0.4602   -0.5650 H   0  0  0  0  0  0  0  0  0  0  0  0
   -0.4986    0.6090    0.1399 C   0  0  1  0  0  0  0  0  0  0  0  0
   -0.4439    1.3760   -0.6366 H   0  0  0  0  0  0  0  0  0  0  0  0
   -0.3193    1.2710    1.5246 C   0  0  0  0  0  0  0  0  0  0  0  0
   -0.4948    0.5196    2.3017 H   0  0  0  0  0  0  0  0  0  0  0  0
    0.7203    1.6020    1.6282 H   0  0  0  0  0  0  0  0  0  0  0  0
   -1.2393    2.4877    1.7698 C   0  0  0  0  0  0  0  0  0  0  0  0
   -2.2826    2.1890    1.6251 H   0  0  0  0  0  0  0  0  0  0  0  0
   -1.0746    2.9576    3.2199 C   0  0  0  0  0  0  0  0  0  0  0  0
   -0.0449    3.2788    3.4076 H   0  0  0  0  0  0  0  0  0  0  0  0
   -1.7440    3.7982    3.4277 H   0  0  0  0  0  0  0  0  0  0  0  0
   -1.3184    2.1477    3.9145 H   0  0  0  0  0  0  0  0  0  0  0  0
   -0.9231    3.6570    0.8256 C   0  0  0  0  0  0  0  0  0  0  0  0
   -1.1734    3.4054   -0.2084 H   0  0  0  0  0  0  0  0  0  0  0  0
   -1.5079    4.5393    1.1041 H   0  0  0  0  0  0  0  0  0  0  0  0
    0.1394    3.9162    0.8756 H   0  0  0  0  0  0  0  0  0  0  0  0
    0.7361   -0.2984   -0.1178 C   0  0  0  0  0  0  0  0  0  0  0  0
    1.7216    0.2142   -0.6337 O   0  0  0  0  0  0  0  0  0  0  0  0
    0.7844   -1.6474    0.1730 N   0  0  0  0  0  0  0  0  0  0  0  0
    0.0084   -2.0125    0.7295 H   0  0  0  0  0  0  0  0  0  0  0  0
    1.9719   -2.4734   -0.0001 C   0  0  0  0  0  0  0  0  0  0  0  0
    2.7946   -2.0967    0.6162 H   0  0  0  0  0  0  0  0  0  0  0  0
    1.7589   -3.5043    0.2979 H   0  0  0  0  0  0  0  0  0  0  0  0
    2.2875   -2.4756   -1.0485 H   0  0  0  0  0  0  0  0  0  0  0  0
  1  2  1  0  0  0  0
  2  3  1  0  0  0  0
  2  4  1  0  0  0  0
  2  5  1  0  0  0  0
  5  6  2  0  0  0  0
  5  7  1  0  0  0  0
  7  8  1  0  0  0  0
  7  9  1  0  0  0  0
  9 10  1  0  0  0  0
  9 11  1  0  0  0  0
  9 24  1  0  0  0  0
 11 12  1  0  0  0  0
 11 13  1  0  0  0  0
 11 14  1  0  0  0  0
 14 15  1  0  0  0  0
 14 16  1  0  0  0  0
 14 20  1  0  0  0  0
 16 17  1  0  0  0  0
 16 18  1  0  0  0  0
 16 19  1  0  0  0  0
 20 21  1  0  0  0  0
 20 22  1  0  0  0  0
 20 23  1  0  0  0  0
 24 25  2  0  0  0  0
 24 26  1  0  0  0  0
 26 27  1  0  0  0  0
 26 28  1  0  0  0  0
 28 29  1  0  0  0  0
 28 30  1  0  0  0  0
 28 31  1  0  0  0  0
M  END
$$$$

  -OEChem-01062216083D

 31 30  0     1  0  0  0  0  0999 V2000
   -3.9247   -2.5749    0.9186 H   0  0  0  0  0  0  0  0  0  0  0  0
   -3.7358   -1.6284    0.4041 C   0  0  0  0  0  0  0  0  0  0  0  0
   -4.4405   -0.8804    0.7755 H   0  0  0  0  0  0  0  0  0  0  0  0
   -3.8977   -1.7729   -0.6669 H   0  0  0  0  0  0  0  0  0  0  0  0
   -2.3120   -1.1697    0.6574 C   0  0  0  0  0  0  0  0  0  0  0  0
   -1.5962   -1.8277    1.3932 O   0  0  0  0  0  0  0  0  0  0  0  0
   -1.8750    0.0109    0.0858 N   0  0  0  0  0  0  0  0  0  0  0  0
   -2.5641    0.4859   -0.4900 H   0  0  0  0  0  0  0  0  0  0  0  0
   -0.5158    0.6060    0.0998 C   0  0  1  0  0  0  0  0  0  0  0  0
   -0.4833    1.3713   -0.6797 H   0  0  0  0  0  0  0  0  0  0  0  0
   -0.3063    1.2685    1.4810 C   0  0  0  0  0  0  0  0  0  0  0  0
   -0.4585    0.5144    2.2606 H   0  0  0  0  0  0  0  0  0  0  0  0
    0.7332    1.6054    1.5626 H   0  0  0  0  0  0  0  0  0  0  0  0
   -1.2255    2.4804    1.7515 C   0  0  0  0  0  0  0  0  0  0  0  0
   -2.2711    2.1781    1.6341 H   0  0  0  0  0  0  0  0  0  0  0  0
   -1.0234    2.9452    3.1983 C   0  0  0  0  0  0  0  0  0  0  0  0
    0.0117    3.2624    3.3615 H   0  0  0  0  0  0  0  0  0  0  0  0
   -1.6852    3.7866    3.4263 H   0  0  0  0  0  0  0  0  0  0  0  0
   -1.2519    2.1329    3.8956 H   0  0  0  0  0  0  0  0  0  0  0  0
   -0.9393    3.6521    0.8008 C   0  0  0  0  0  0  0  0  0  0  0  0
   -1.2248    3.4037   -0.2248 H   0  0  0  0  0  0  0  0  0  0  0  0
   -1.5127    4.5344    1.1015 H   0  0  0  0  0  0  0  0  0  0  0  0
    0.1246    3.9095    0.8154 H   0  0  0  0  0  0  0  0  0  0  0  0
    0.7153   -0.2981   -0.1898 C   0  0  0  0  0  0  0  0  0  0  0  0
    1.7564    0.2496   -0.5317 O   0  0  0  0  0  0  0  0  0  0  0  0
    0.6843   -1.6791   -0.1721 N   0  0  0  0  0  0  0  0  0  0  0  0
   -0.1071   -2.0849    0.3306 H   0  0  0  0  0  0  0  0  0  0  0  0
    1.8699   -2.5045   -0.3632 C   0  0  0  0  0  0  0  0  0  0  0  0
    2.6142   -2.2912    0.4111 H   0  0  0  0  0  0  0  0  0  0  0  0
    1.6031   -3.5641   -0.3069 H   0  0  0  0  0  0  0  0  0  0  0  0
    2.3163   -2.3135   -1.3446 H   0  0  0  0  0  0  0  0  0  0  0  0
  1  2  1  0  0  0  0
  2  3  1  0  0  0  0
  2  4  1  0  0  0  0
  2  5  1  0  0  0  0
  5  6  2  0  0  0  0
  5  7  1  0  0  0  0
  7  8  1  0  0  0  0
  7  9  1  0  0  0  0
  9 10  1  0  0  0  0
  9 11  1  0  0  0  0
  9 24  1  0  0  0  0
 11 12  1  0  0  0  0
 11 13  1  0  0  0  0
 11 14  1  0  0  0  0
 14 15  1  0  0  0  0
 14 16  1  0  0  0  0
 14 20  1  0  0  0  0
 16 17  1  0  0  0  0
 16 18  1  0  0  0  0
 16 19  1  0  0  0  0
 20 21  1  0  0  0  0
 20 22  1  0  0  0  0
 20 23  1  0  0  0  0
 24 25  2  0  0  0  0
 24 26  1  0  0  0  0
 26 27  1  0  0  0  0
 26 28  1  0  0  0  0
 28 29  1  0  0  0  0
 28 30  1  0  0  0  0
 28 31  1  0  0  0  0
M  END
$$$$

  -OEChem-01062216083D

 31 30  0     1  0  0  0  0  0999 V2000
   -3.8952   -2.5524    0.9633 H   0  0  0  0  0  0  0  0  0  0  0  0
   -3.7171   -1.6017    0.4525 C   0  0  0  0  0  0  0  0  0  0  0  0
   -4.3819   -0.8455    0.8768 H   0  0  0  0  0  0  0  0  0  0  0  0
   -3.9459   -1.7251   -0.6088 H   0  0  0  0  0  0  0  0  0  0  0  0
   -2.2713   -1.1769    0.6268 C   0  0  0  0  0  0  0  0  0  0  0  0
   -1.5146   -1.8837    1.2699 O   0  0  0  0  0  0  0  0  0  0  0  0
   -1.8463    0.0121    0.0646 N   0  0  0  0  0  0  0  0  0  0  0  0
   -2.5629    0.5345   -0.4308 H   0  0  0  0  0  0  0  0  0  0  0  0
   -0.4911    0.6150    0.0897 C   0  0  1  0  0  0  0  0  0  0  0  0
   -0.4540    1.3824   -0.6870 H   0  0  0  0  0  0  0  0  0  0  0  0
   -0.3045    1.2724    1.4783 C   0  0  0  0  0  0  0  0  0  0  0  0
   -0.4601    0.5124    2.2517 H   0  0  0  0  0  0  0  0  0  0  0  0
    0.7299    1.6198    1.5772 H   0  0  0  0  0  0  0  0  0  0  0  0
   -1.2380    2.4752    1.7427 C   0  0  0  0  0  0  0  0  0  0  0  0
   -2.2792    2.1653    1.6093 H   0  0  0  0  0  0  0  0  0  0  0  0
   -1.0609    2.9367    3.1939 C   0  0  0  0  0  0  0  0  0  0  0  0
   -0.0318    3.2653    3.3723 H   0  0  0  0  0  0  0  0  0  0  0  0
   -1.7355    3.7696    3.4153 H   0  0  0  0  0  0  0  0  0  0  0  0
   -1.2896    2.1195    3.8852 H   0  0  0  0  0  0  0  0  0  0  0  0
   -0.9488    3.6546    0.8024 C   0  0  0  0  0  0  0  0  0  0  0  0
   -1.2063    3.4056   -0.2303 H   0  0  0  0  0  0  0  0  0  0  0  0
   -1.5432    4.5266    1.0925 H   0  0  0  0  0  0  0  0  0  0  0  0
    0.1103    3.9291    0.8427 H   0  0  0  0  0  0  0  0  0  0  0  0
    0.7400   -0.2895   -0.2024 C   0  0  0  0  0  0  0  0  0  0  0  0
    1.8331    0.2469   -0.3393 O   0  0  0  0  0  0  0  0  0  0  0  0
    0.6382   -1.6387   -0.4852 N   0  0  0  0  0  0  0  0  0  0  0  0
   -0.1914   -2.0833   -0.0900 H   0  0  0  0  0  0  0  0  0  0  0  0
    1.8018   -2.4818   -0.7290 C   0  0  0  0  0  0  0  0  0  0  0  0
    2.4605   -2.4880    0.1456 H   0  0  0  0  0  0  0  0  0  0  0  0
    1.4852   -3.5090   -0.9336 H   0  0  0  0  0  0  0  0  0  0  0  0
    2.3665   -2.1178   -1.5936 H   0  0  0  0  0  0  0  0  0  0  0  0
  1  2  1  0  0  0  0
  2  3  1  0  0  0  0
  2  4  1  0  0  0  0
  2  5  1  0  0  0  0
  5  6  2  0  0  0  0
  5  7  1  0  0  0  0
  7  8  1  0  0  0  0
  7  9  1  0  0  0  0
  9 10  1  0  0  0  0
  9 11  1  0  0  0  0
  9 24  1  0  0  0  0
 11 12  1  0  0  0  0
 11 13  1  0  0  0  0
 11 14  1  0  0  0  0
 14 15  1  0  0  0  0
 14 16  1  0  0  0  0
 14 20  1  0  0  0  0
 16 17  1  0  0  0  0
 16 18  1  0  0  0  0
 16 19  1  0  0  0  0
 20 21  1  0  0  0  0
 20 22  1  0  0  0  0
 20 23  1  0  0  0  0
 24 25  2  0  0  0  0
 24 26  1  0  0  0  0
 26 27  1  0  0  0  0
 26 28  1  0  0  0  0
 28 29  1  0  0  0  0
 28 30  1  0  0  0  0
 28 31  1  0  0  0  0
M  END
$$$$

  -OEChem-01062216083D

 31 30  0     1  0  0  0  0  0999 V2000
   -3.8387   -2.5403    1.0122 H   0  0  0  0  0  0  0  0  0  0  0  0
   -3.6767   -1.5871    0.5009 C   0  0  0  0  0  0  0  0  0  0  0  0
   -4.3020   -0.8259    0.9739 H   0  0  0  0  0  0  0  0  0  0  0  0
   -3.9731   -1.6950   -0.5452 H   0  0  0  0  0  0  0  0  0  0  0  0
   -2.2156   -1.1876    0.5889 C   0  0  0  0  0  0  0  0  0  0  0  0
   -1.4217   -1.9381    1.1279 O   0  0  0  0  0  0  0  0  0  0  0  0
   -1.8086    0.0138    0.0399 N   0  0  0  0  0  0  0  0  0  0  0  0
   -2.5494    0.5781   -0.3658 H   0  0  0  0  0  0  0  0  0  0  0  0
   -0.4590    0.6272    0.0863 C   0  0  1  0  0  0  0  0  0  0  0  0
   -0.4126    1.3981   -0.6863 H   0  0  0  0  0  0  0  0  0  0  0  0
   -0.3024    1.2803    1.4820 C   0  0  0  0  0  0  0  0  0  0  0  0
   -0.4645    0.5142    2.2479 H   0  0  0  0  0  0  0  0  0  0  0  0
    0.7253    1.6391    1.6045 H   0  0  0  0  0  0  0  0  0  0  0  0
   -1.2523    2.4731    1.7336 C   0  0  0  0  0  0  0  0  0  0  0  0
   -2.2882    2.1541    1.5810 H   0  0  0  0  0  0  0  0  0  0  0  0
   -1.1060    2.9307    3.1894 C   0  0  0  0  0  0  0  0  0  0  0  0
   -0.0843    3.2710    3.3866 H   0  0  0  0  0  0  0  0  0  0  0  0
   -1.7941    3.7547    3.4025 H   0  0  0  0  0  0  0  0  0  0  0  0
   -1.3365    2.1082    3.8736 H   0  0  0  0  0  0  0  0  0  0  0  0
   -0.9569    3.6576    0.8016 C   0  0  0  0  0  0  0  0  0  0  0  0
   -1.1999    3.4114   -0.2354 H   0  0  0  0  0  0  0  0  0  0  0  0
   -1.5587    4.5259    1.0876 H   0  0  0  0  0  0  0  0  0  0  0  0
    0.1003    3.9367    0.8563 H   0  0  0  0  0  0  0  0  0  0  0  0
    0.7681   -0.2833   -0.2056 C   0  0  0  0  0  0  0  0  0  0  0  0
    1.8945    0.1918   -0.1187 O   0  0  0  0  0  0  0  0  0  0  0  0
    0.6307   -1.5292   -0.7896 N   0  0  0  0  0  0  0  0  0  0  0  0
   -0.2488   -1.9894   -0.5590 H   0  0  0  0  0  0  0  0  0  0  0  0
    1.7752   -2.3841   -1.0800 C   0  0  0  0  0  0  0  0  0  0  0  0
    2.3176   -2.6237   -0.1595 H   0  0  0  0  0  0  0  0  0  0  0  0
    1.4400   -3.3185   -1.5396 H   0  0  0  0  0  0  0  0  0  0  0  0
    2.4606   -1.8864   -1.7742 H   0  0  0  0  0  0  0  0  0  0  0  0
  1  2  1  0  0  0  0
  2  3  1  0  0  0  0
  2  4  1  0  0  0  0
  2  5  1  0  0  0  0
  5  6  2  0  0  0  0
  5  7  1  0  0  0  0
  7  8  1  0  0  0  0
  7  9  1  0  0  0  0
  9 10  1  0  0  0  0
  9 11  1  0  0  0  0
  9 24  1  0  0  0  0
 11 12  1  0  0  0  0
 11 13  1  0  0  0  0
 11 14  1  0  0  0  0
 14 15  1  0  0  0  0
 14 16  1  0  0  0  0
 14 20  1  0  0  0  0
 16 17  1  0  0  0  0
 16 18  1  0  0  0  0
 16 19  1  0  0  0  0
 20 21  1  0  0  0  0
 20 22  1  0  0  0  0
 20 23  1  0  0  0  0
 24 25  2  0  0  0  0
 24 26  1  0  0  0  0
 26 27  1  0  0  0  0
 26 28  1  0  0  0  0
 28 29  1  0  0  0  0
 28 30  1  0  0  0  0
 28 31  1  0  0  0  0
M  END
$$$$

  -OEChem-01062216083D

 31 30  0     1  0  0  0  0  0999 V2000
   -3.7383   -2.5628    1.0314 H   0  0  0  0  0  0  0  0  0  0  0  0
   -3.6029   -1.6028    0.5248 C   0  0  0  0  0  0  0  0  0  0  0  0
   -4.2119   -0.8505    1.0322 H   0  0  0  0  0  0  0  0  0  0  0  0
   -3.9413   -1.7004   -0.5095 H   0  0  0  0  0  0  0  0  0  0  0  0
   -2.1417   -1.1963    0.5584 C   0  0  0  0  0  0  0  0  0  0  0  0
   -1.3213   -1.9513    1.0471 O   0  0  0  0  0  0  0  0  0  0  0  0
   -1.7656    0.0196    0.0188 N   0  0  0  0  0  0  0  0  0  0  0  0
   -2.5273    0.5992   -0.3211 H   0  0  0  0  0  0  0  0  0  0  0  0
   -0.4262    0.6506    0.0842 C   0  0  1  0  0  0  0  0  0  0  0  0
   -0.3748    1.4254   -0.6838 H   0  0  0  0  0  0  0  0  0  0  0  0
   -0.2927    1.2995    1.4850 C   0  0  0  0  0  0  0  0  0  0  0  0
   -0.4493    0.5277    2.2463 H   0  0  0  0  0  0  0  0  0  0  0  0
    0.7271    1.6761    1.6187 H   0  0  0  0  0  0  0  0  0  0  0  0
   -1.2616    2.4780    1.7314 C   0  0  0  0  0  0  0  0  0  0  0  0
   -2.2912    2.1444    1.5680 H   0  0  0  0  0  0  0  0  0  0  0  0
   -1.1370    2.9315    3.1905 C   0  0  0  0  0  0  0  0  0  0  0  0
   -0.1227    3.2861    3.4001 H   0  0  0  0  0  0  0  0  0  0  0  0
   -1.8393    3.7443    3.3995 H   0  0  0  0  0  0  0  0  0  0  0  0
   -1.3622    2.1025    3.8686 H   0  0  0  0  0  0  0  0  0  0  0  0
   -0.9760    3.6699    0.8061 C   0  0  0  0  0  0  0  0  0  0  0  0
   -1.2074    3.4233   -0.2334 H   0  0  0  0  0  0  0  0  0  0  0  0
   -1.5929    4.5280    1.0904 H   0  0  0  0  0  0  0  0  0  0  0  0
    0.0765    3.9641    0.8704 H   0  0  0  0  0  0  0  0  0  0  0  0
    0.7911   -0.2717   -0.2118 C   0  0  0  0  0  0  0  0  0  0  0  0
    1.9205    0.0687    0.1212 O   0  0  0  0  0  0  0  0  0  0  0  0
    0.6610   -1.3478   -1.0717 N   0  0  0  0  0  0  0  0  0  0  0  0
   -0.2773   -1.7355   -1.1119 H   0  0  0  0  0  0  0  0  0  0  0  0
    1.7722   -2.2415   -1.3743 C   0  0  0  0  0  0  0  0  0  0  0  0
    2.1295   -2.7294   -0.4615 H   0  0  0  0  0  0  0  0  0  0  0  0
    1.4535   -3.0143   -2.0800 H   0  0  0  0  0  0  0  0  0  0  0  0
    2.6011   -1.6857   -1.8253 H   0  0  0  0  0  0  0  0  0  0  0  0
  1  2  1  0  0  0  0
  2  3  1  0  0  0  0
  2  4  1  0  0  0  0
  2  5  1  0  0  0  0
  5  6  2  0  0  0  0
  5  7  1  0  0  0  0
  7  8  1  0  0  0  0
  7  9  1  0  0  0  0
  9 10  1  0  0  0  0
  9 11  1  0  0  0  0
  9 24  1  0  0  0  0
 11 12  1  0  0  0  0
 11 13  1  0  0  0  0
 11 14  1  0  0  0  0
 14 15  1  0  0  0  0
 14 16  1  0  0  0  0
 14 20  1  0  0  0  0
 16 17  1  0  0  0  0
 16 18  1  0  0  0  0
 16 19  1  0  0  0  0
 20 21  1  0  0  0  0
 20 22  1  0  0  0  0
 20 23  1  0  0  0  0
 24 25  2  0  0  0  0
 24 26  1  0  0  0  0
 26 27  1  0  0  0  0
 26 28  1  0  0  0  0
 28 29  1  0  0  0  0
 28 30  1  0  0  0  0
 28 31  1  0  0  0  0
M  END
$$$$

  -OEChem-01062216083D

 31 30  0     1  0  0  0  0  0999 V2000
   -3.6482   -2.6110    1.0084 H   0  0  0  0  0  0  0  0  0  0  0  0
   -3.5326   -1.6445    0.5094 C   0  0  0  0  0  0  0  0  0  0  0  0
   -4.1597   -0.9098    1.0203 H   0  0  0  0  0  0  0  0  0  0  0  0
   -3.8650   -1.7417   -0.5269 H   0  0  0  0  0  0  0  0  0  0  0  0
   -2.0808   -1.2059    0.5509 C   0  0  0  0  0  0  0  0  0  0  0  0
   -1.2491   -1.9420    1.0487 O   0  0  0  0  0  0  0  0  0  0  0  0
   -1.7309    0.0209    0.0158 N   0  0  0  0  0  0  0  0  0  0  0  0
   -2.5050    0.5937   -0.3071 H   0  0  0  0  0  0  0  0  0  0  0  0
   -0.4023    0.6704    0.0951 C   0  0  1  0  0  0  0  0  0  0  0  0
   -0.3484    1.4462   -0.6717 H   0  0  0  0  0  0  0  0  0  0  0  0
   -0.2817    1.3228    1.4952 C   0  0  0  0  0  0  0  0  0  0  0  0
   -0.4306    0.5499    2.2571 H   0  0  0  0  0  0  0  0  0  0  0  0
    0.7335    1.7118    1.6292 H   0  0  0  0  0  0  0  0  0  0  0  0
   -1.2650    2.4901    1.7363 C   0  0  0  0  0  0  0  0  0  0  0  0
   -2.2898    2.1436    1.5699 H   0  0  0  0  0  0  0  0  0  0  0  0
   -1.1502    2.9463    3.1954 C   0  0  0  0  0  0  0  0  0  0  0  0
   -0.1405    3.3127    3.4080 H   0  0  0  0  0  0  0  0  0  0  0  0
   -1.8626    3.7510    3.4021 H   0  0  0  0  0  0  0  0  0  0  0  0
   -1.3676    2.1152    3.8737 H   0  0  0  0  0  0  0  0  0  0  0  0
   -0.9902    3.6847    0.8113 C   0  0  0  0  0  0  0  0  0  0  0  0
   -1.2115    3.4338   -0.2293 H   0  0  0  0  0  0  0  0  0  0  0  0
   -1.6210    4.5344    1.0903 H   0  0  0  0  0  0  0  0  0  0  0  0
    0.0575    3.9940    0.8821 H   0  0  0  0  0  0  0  0  0  0  0  0
    0.8046   -0.2635   -0.2020 C   0  0  0  0  0  0  0  0  0  0  0  0
    1.8863   -0.1091    0.3535 O   0  0  0  0  0  0  0  0  0  0  0  0
    0.7404   -1.1220   -1.2854 N   0  0  0  0  0  0  0  0  0  0  0  0
   -0.1959   -1.3429   -1.6077 H   0  0  0  0  0  0  0  0  0  0  0  0
    1.8156   -2.0506   -1.6116 C   0  0  0  0  0  0  0  0  0  0  0  0
    1.9827   -2.7469   -0.7831 H   0  0  0  0  0  0  0  0  0  0  0  0
    1.5587   -2.6275   -2.5050 H   0  0  0  0  0  0  0  0  0  0  0  0
    2.7459   -1.5075   -1.8089 H   0  0  0  0  0  0  0  0  0  0  0  0
  1  2  1  0  0  0  0
  2  3  1  0  0  0  0
  2  4  1  0  0  0  0
  2  5  1  0  0  0  0
  5  6  2  0  0  0  0
  5  7  1  0  0  0  0
  7  8  1  0  0  0  0
  7  9  1  0  0  0  0
  9 10  1  0  0  0  0
  9 11  1  0  0  0  0
  9 24  1  0  0  0  0
 11 12  1  0  0  0  0
 11 13  1  0  0  0  0
 11 14  1  0  0  0  0
 14 15  1  0  0  0  0
 14 16  1  0  0  0  0
 14 20  1  0  0  0  0
 16 17  1  0  0  0  0
 16 18  1  0  0  0  0
 16 19  1  0  0  0  0
 20 21  1  0  0  0  0
 20 22  1  0  0  0  0
 20 23  1  0  0  0  0
 24 25  2  0  0  0  0
 24 26  1  0  0  0  0
 26 27  1  0  0  0  0
 26 28  1  0  0  0  0
 28 29  1  0  0  0  0
 28 30  1  0  0  0  0
 28 31  1  0  0  0  0
M  END
$$$$

  -OEChem-01062216083D

 31 30  0     1  0  0  0  0  0999 V2000
   -3.6328   -2.6222    1.0062 H   0  0  0  0  0  0  0  0  0  0  0  0
   -3.5172   -1.6557    0.5071 C   0  0  0  0  0  0  0  0  0  0  0  0
   -4.1481   -0.9220    1.0147 H   0  0  0  0  0  0  0  0  0  0  0  0
   -3.8446   -1.7543   -0.5305 H   0  0  0  0  0  0  0  0  0  0  0  0
   -2.0664   -1.2141    0.5542 C   0  0  0  0  0  0  0  0  0  0  0  0
   -1.2376   -1.9464    1.0616 O   0  0  0  0  0  0  0  0  0  0  0  0
   -1.7188    0.0133    0.0188 N   0  0  0  0  0  0  0  0  0  0  0  0
   -2.4942    0.5826   -0.3065 H   0  0  0  0  0  0  0  0  0  0  0  0
   -0.3939    0.6666    0.1056 C   0  0  1  0  0  0  0  0  0  0  0  0
   -0.3351    1.4414   -0.6617 H   0  0  0  0  0  0  0  0  0  0  0  0
   -0.2797    1.3250    1.5027 C   0  0  0  0  0  0  0  0  0  0  0  0
   -0.4315    0.5547    2.2669 H   0  0  0  0  0  0  0  0  0  0  0  0
    0.7361    1.7130    1.6365 H   0  0  0  0  0  0  0  0  0  0  0  0
   -1.2652    2.4919    1.7367 C   0  0  0  0  0  0  0  0  0  0  0  0
   -2.2888    2.1422    1.5689 H   0  0  0  0  0  0  0  0  0  0  0  0
   -1.1562    2.9543    3.1945 C   0  0  0  0  0  0  0  0  0  0  0  0
   -0.1482    3.3236    3.4090 H   0  0  0  0  0  0  0  0  0  0  0  0
   -1.8710    3.7585    3.3951 H   0  0  0  0  0  0  0  0  0  0  0  0
   -1.3744    2.1256    3.8756 H   0  0  0  0  0  0  0  0  0  0  0  0
   -0.9910    3.6830    0.8069 C   0  0  0  0  0  0  0  0  0  0  0  0
   -1.2097    3.4268   -0.2331 H   0  0  0  0  0  0  0  0  0  0  0  0
   -1.6244    4.5325    1.0809 H   0  0  0  0  0  0  0  0  0  0  0  0
    0.0559    3.9950    0.8787 H   0  0  0  0  0  0  0  0  0  0  0  0
    0.8085   -0.2745   -0.1838 C   0  0  0  0  0  0  0  0  0  0  0  0
    1.8007   -0.3019    0.5355 O   0  0  0  0  0  0  0  0  0  0  0  0
    0.8789   -0.8940   -1.4192 N   0  0  0  0  0  0  0  0  0  0  0  0
    0.0104   -0.9488   -1.9406 H   0  0  0  0  0  0  0  0  0  0  0  0
    1.9682   -1.7892   -1.7891 C   0  0  0  0  0  0  0  0  0  0  0  0
    2.0080   -2.6445   -1.1062 H   0  0  0  0  0  0  0  0  0  0  0  0
    1.8221   -2.1630   -2.8069 H   0  0  0  0  0  0  0  0  0  0  0  0
    2.9277   -1.2627   -1.7509 H   0  0  0  0  0  0  0  0  0  0  0  0
  1  2  1  0  0  0  0
  2  3  1  0  0  0  0
  2  4  1  0  0  0  0
  2  5  1  0  0  0  0
  5  6  2  0  0  0  0
  5  7  1  0  0  0  0
  7  8  1  0  0  0  0
  7  9  1  0  0  0  0
  9 10  1  0  0  0  0
  9 11  1  0  0  0  0
  9 24  1  0  0  0  0
 11 12  1  0  0  0  0
 11 13  1  0  0  0  0
 11 14  1  0  0  0  0
 14 15  1  0  0  0  0
 14 16  1  0  0  0  0
 14 20  1  0  0  0  0
 16 17  1  0  0  0  0
 16 18  1  0  0  0  0
 16 19  1  0  0  0  0
 20 21  1  0  0  0  0
 20 22  1  0  0  0  0
 20 23  1  0  0  0  0
 24 25  2  0  0  0  0
 24 26  1  0  0  0  0
 26 27  1  0  0  0  0
 26 28  1  0  0  0  0
 28 29  1  0  0  0  0
 28 30  1  0  0  0  0
 28 31  1  0  0  0  0
M  END
$$$$

  -OEChem-01062216083D

 31 30  0     1  0  0  0  0  0999 V2000
   -3.6460   -2.6342    0.9975 H   0  0  0  0  0  0  0  0  0  0  0  0
   -3.5251   -1.6685    0.4981 C   0  0  0  0  0  0  0  0  0  0  0  0
   -4.1664   -0.9353    0.9931 H   0  0  0  0  0  0  0  0  0  0  0  0
   -3.8346   -1.7713   -0.5446 H   0  0  0  0  0  0  0  0  0  0  0  0
   -2.0768   -1.2219    0.5684 C   0  0  0  0  0  0  0  0  0  0  0  0
   -1.2571   -1.9495    1.0958 O   0  0  0  0  0  0  0  0  0  0  0  0
   -1.7252    0.0026    0.0288 N   0  0  0  0  0  0  0  0  0  0  0  0
   -2.4977    0.5653   -0.3138 H   0  0  0  0  0  0  0  0  0  0  0  0
   -0.4002    0.6550    0.1113 C   0  0  1  0  0  0  0  0  0  0  0  0
   -0.3446    1.4290   -0.6569 H   0  0  0  0  0  0  0  0  0  0  0  0
   -0.2793    1.3200    1.5039 C   0  0  0  0  0  0  0  0  0  0  0  0
   -0.4324    0.5542    2.2726 H   0  0  0  0  0  0  0  0  0  0  0  0
    0.7398    1.7018    1.6309 H   0  0  0  0  0  0  0  0  0  0  0  0
   -1.2608    2.4904    1.7366 C   0  0  0  0  0  0  0  0  0  0  0  0
   -2.2859    2.1431    1.5731 H   0  0  0  0  0  0  0  0  0  0  0  0
   -1.1441    2.9588    3.1916 C   0  0  0  0  0  0  0  0  0  0  0  0
   -0.1325    3.3213    3.4008 H   0  0  0  0  0  0  0  0  0  0  0  0
   -1.8522    3.7691    3.3909 H   0  0  0  0  0  0  0  0  0  0  0  0
   -1.3662    2.1350    3.8772 H   0  0  0  0  0  0  0  0  0  0  0  0
   -0.9853    3.6781    0.8026 C   0  0  0  0  0  0  0  0  0  0  0  0
   -1.2034    3.4190   -0.2367 H   0  0  0  0  0  0  0  0  0  0  0  0
   -1.6184    4.5289    1.0734 H   0  0  0  0  0  0  0  0  0  0  0  0
    0.0617    3.9896    0.8746 H   0  0  0  0  0  0  0  0  0  0  0  0
    0.8034   -0.2858   -0.1745 C   0  0  0  0  0  0  0  0  0  0  0  0
    1.6839   -0.4909    0.6531 O   0  0  0  0  0  0  0  0  0  0  0  0
    1.0480   -0.6571   -1.4853 N   0  0  0  0  0  0  0  0  0  0  0  0
    0.2821   -0.5412   -2.1403 H   0  0  0  0  0  0  0  0  0  0  0  0
    2.1770   -1.4945   -1.8734 C   0  0  0  0  0  0  0  0  0  0  0  0
    2.1263   -2.4637   -1.3659 H   0  0  0  0  0  0  0  0  0  0  0  0
    2.1661   -1.6667   -2.9538 H   0  0  0  0  0  0  0  0  0  0  0  0
    3.1236   -1.0095   -1.6123 H   0  0  0  0  0  0  0  0  0  0  0  0
  1  2  1  0  0  0  0
  2  3  1  0  0  0  0
  2  4  1  0  0  0  0
  2  5  1  0  0  0  0
  5  6  2  0  0  0  0
  5  7  1  0  0  0  0
  7  8  1  0  0  0  0
  7  9  1  0  0  0  0
  9 10  1  0  0  0  0
  9 11  1  0  0  0  0
  9 24  1  0  0  0  0
 11 12  1  0  0  0  0
 11 13  1  0  0  0  0
 11 14  1  0  0  0  0
 14 15  1  0  0  0  0
 14 16  1  0  0  0  0
 14 20  1  0  0  0  0
 16 17  1  0  0  0  0
 16 18  1  0  0  0  0
 16 19  1  0  0  0  0
 20 21  1  0  0  0  0
 20 22  1  0  0  0  0
 20 23  1  0  0  0  0
 24 25  2  0  0  0  0
 24 26  1  0  0  0  0
 26 27  1  0  0  0  0
 26 28  1  0  0  0  0
 28 29  1  0  0  0  0
 28 30  1  0  0  0  0
 28 31  1  0  0  0  0
M  END
$$$$

  -OEChem-01062216083D

 31 30  0     1  0  0  0  0  0999 V2000
   -3.6868   -2.6335    0.9975 H   0  0  0  0  0  0  0  0  0  0  0  0
   -3.5553   -1.6706    0.4954 C   0  0  0  0  0  0  0  0  0  0  0  0
   -4.1997   -0.9327    0.9792 H   0  0  0  0  0  0  0  0  0  0  0  0
   -3.8529   -1.7767   -0.5504 H   0  0  0  0  0  0  0  0  0  0  0  0
   -2.1053   -1.2312    0.5818 C   0  0  0  0  0  0  0  0  0  0  0  0
   -1.2995   -1.9584    1.1295 O   0  0  0  0  0  0  0  0  0  0  0  0
   -1.7428   -0.0125    0.0363 N   0  0  0  0  0  0  0  0  0  0  0  0
   -2.5088    0.5425   -0.3317 H   0  0  0  0  0  0  0  0  0  0  0  0
   -0.4150    0.6349    0.1083 C   0  0  1  0  0  0  0  0  0  0  0  0
   -0.3672    1.4085   -0.6607 H   0  0  0  0  0  0  0  0  0  0  0  0
   -0.2791    1.3049    1.4963 C   0  0  0  0  0  0  0  0  0  0  0  0
   -0.4311    0.5432    2.2695 H   0  0  0  0  0  0  0  0  0  0  0  0
    0.7446    1.6779    1.6124 H   0  0  0  0  0  0  0  0  0  0  0  0
   -1.2519    2.4814    1.7336 C   0  0  0  0  0  0  0  0  0  0  0  0
   -2.2806    2.1402    1.5800 H   0  0  0  0  0  0  0  0  0  0  0  0
   -1.1186    2.9532    3.1862 C   0  0  0  0  0  0  0  0  0  0  0  0
   -0.1018    3.3066    3.3861 H   0  0  0  0  0  0  0  0  0  0  0  0
   -1.8175    3.7704    3.3891 H   0  0  0  0  0  0  0  0  0  0  0  0
   -1.3429    2.1333    3.8759 H   0  0  0  0  0  0  0  0  0  0  0  0
   -0.9764    3.6644    0.7935 C   0  0  0  0  0  0  0  0  0  0  0  0
   -1.2071    3.4039   -0.2426 H   0  0  0  0  0  0  0  0  0  0  0  0
   -1.6000    4.5211    1.0678 H   0  0  0  0  0  0  0  0  0  0  0  0
    0.0736    3.9680    0.8539 H   0  0  0  0  0  0  0  0  0  0  0  0
    0.7950   -0.2991   -0.1752 C   0  0  0  0  0  0  0  0  0  0  0  0
    1.5523   -0.6742    0.7120 O   0  0  0  0  0  0  0  0  0  0  0  0
    1.2338   -0.4244   -1.4826 N   0  0  0  0  0  0  0  0  0  0  0  0
    0.5928   -0.1358   -2.2139 H   0  0  0  0  0  0  0  0  0  0  0  0
    2.4248   -1.1801   -1.8535 C   0  0  0  0  0  0  0  0  0  0  0  0
    2.3298   -2.2237   -1.5349 H   0  0  0  0  0  0  0  0  0  0  0  0
    2.5640   -1.1595   -2.9386 H   0  0  0  0  0  0  0  0  0  0  0  0
    3.3147   -0.7477   -1.3837 H   0  0  0  0  0  0  0  0  0  0  0  0
  1  2  1  0  0  0  0
  2  3  1  0  0  0  0
  2  4  1  0  0  0  0
  2  5  1  0  0  0  0
  5  6  2  0  0  0  0
  5  7  1  0  0  0  0
  7  8  1  0  0  0  0
  7  9  1  0  0  0  0
  9 10  1  0  0  0  0
  9 11  1  0  0  0  0
  9 24  1  0  0  0  0
 11 12  1  0  0  0  0
 11 13  1  0  0  0  0
 11 14  1  0  0  0  0
 14 15  1  0  0  0  0
 14 16  1  0  0  0  0
 14 20  1  0  0  0  0
 16 17  1  0  0  0  0
 16 18  1  0  0  0  0
 16 19  1  0  0  0  0
 20 21  1  0  0  0  0
 20 22  1  0  0  0  0
 20 23  1  0  0  0  0
 24 25  2  0  0  0  0
 24 26  1  0  0  0  0
 26 27  1  0  0  0  0
 26 28  1  0  0  0  0
 28 29  1  0  0  0  0
 28 30  1  0  0  0  0
 28 31  1  0  0  0  0
M  END
$$$$

  -OEChem-01062216083D

 31 30  0     1  0  0  0  0  0999 V2000
   -3.7271   -2.6442    0.9758 H   0  0  0  0  0  0  0  0  0  0  0  0
   -3.5803   -1.6885    0.4642 C   0  0  0  0  0  0  0  0  0  0  0  0
   -4.2538   -0.9489    0.9035 H   0  0  0  0  0  0  0  0  0  0  0  0
   -3.8254   -1.8155   -0.5929 H   0  0  0  0  0  0  0  0  0  0  0  0
   -2.1403   -1.2328    0.6124 C   0  0  0  0  0  0  0  0  0  0  0  0
   -1.3641   -1.9331    1.2313 O   0  0  0  0  0  0  0  0  0  0  0  0
   -1.7649   -0.0240    0.0537 N   0  0  0  0  0  0  0  0  0  0  0  0
   -2.5162    0.5022   -0.3804 H   0  0  0  0  0  0  0  0  0  0  0  0
   -0.4335    0.6192    0.1028 C   0  0  1  0  0  0  0  0  0  0  0  0
   -0.4016    1.3904   -0.6692 H   0  0  0  0  0  0  0  0  0  0  0  0
   -0.2717    1.2931    1.4853 C   0  0  0  0  0  0  0  0  0  0  0  0
   -0.4172    0.5346    2.2630 H   0  0  0  0  0  0  0  0  0  0  0  0
    0.7569    1.6574    1.5840 H   0  0  0  0  0  0  0  0  0  0  0  0
   -1.2347    2.4743    1.7367 C   0  0  0  0  0  0  0  0  0  0  0  0
   -2.2673    2.1370    1.6018 H   0  0  0  0  0  0  0  0  0  0  0  0
   -1.0738    2.9494    3.1855 C   0  0  0  0  0  0  0  0  0  0  0  0
   -0.0514    3.2955    3.3680 H   0  0  0  0  0  0  0  0  0  0  0  0
   -1.7624    3.7731    3.3975 H   0  0  0  0  0  0  0  0  0  0  0  0
   -1.2930    2.1331    3.8809 H   0  0  0  0  0  0  0  0  0  0  0  0
   -0.9706    3.6538    0.7894 C   0  0  0  0  0  0  0  0  0  0  0  0
   -1.2238    3.3928   -0.2415 H   0  0  0  0  0  0  0  0  0  0  0  0
   -1.5834    4.5146    1.0751 H   0  0  0  0  0  0  0  0  0  0  0  0
    0.0823    3.9510    0.8283 H   0  0  0  0  0  0  0  0  0  0  0  0
    0.7851   -0.3042   -0.1810 C   0  0  0  0  0  0  0  0  0  0  0  0
    1.4098   -0.8595    0.7136 O   0  0  0  0  0  0  0  0  0  0  0  0
    1.4133   -0.2023   -1.4119 N   0  0  0  0  0  0  0  0  0  0  0  0
    0.9164    0.2802   -2.1531 H   0  0  0  0  0  0  0  0  0  0  0  0
    2.6589   -0.8897   -1.7344 C   0  0  0  0  0  0  0  0  0  0  0  0
    2.5468   -1.9704   -1.5961 H   0  0  0  0  0  0  0  0  0  0  0  0
    2.9375   -0.7010   -2.7755 H   0  0  0  0  0  0  0  0  0  0  0  0
    3.4700   -0.5343   -1.0899 H   0  0  0  0  0  0  0  0  0  0  0  0
  1  2  1  0  0  0  0
  2  3  1  0  0  0  0
  2  4  1  0  0  0  0
  2  5  1  0  0  0  0
  5  6  2  0  0  0  0
  5  7  1  0  0  0  0
  7  8  1  0  0  0  0
  7  9  1  0  0  0  0
  9 10  1  0  0  0  0
  9 11  1  0  0  0  0
  9 24  1  0  0  0  0
 11 12  1  0  0  0  0
 11 13  1  0  0  0  0
 11 14  1  0  0  0  0
 14 15  1  0  0  0  0
 14 16  1  0  0  0  0
 14 20  1  0  0  0  0
 16 17  1  0  0  0  0
 16 18  1  0  0  0  0
 16 19  1  0  0  0  0
 20 21  1  0  0  0  0
 20 22  1  0  0  0  0
 20 23  1  0  0  0  0
 24 25  2  0  0  0  0
 24 26  1  0  0  0  0
 26 27  1  0  0  0  0
 26 28  1  0  0  0  0
 28 29  1  0  0  0  0
 28 30  1  0  0  0  0
 28 31  1  0  0  0  0
M  END
$$$$

  -OEChem-01062216083D

 31 30  0     1  0  0  0  0  0999 V2000
   -3.6669   -2.7553    0.8487 H   0  0  0  0  0  0  0  0  0  0  0  0
   -3.5226   -1.8054    0.3260 C   0  0  0  0  0  0  0  0  0  0  0  0
   -4.3311   -1.1248    0.6030 H   0  0  0  0  0  0  0  0  0  0  0  0
   -3.5591   -1.9892   -0.7502 H   0  0  0  0  0  0  0  0  0  0  0  0
   -2.1834   -1.2005    0.7048 C   0  0  0  0  0  0  0  0  0  0  0  0
   -1.5294   -1.7335    1.5796 O   0  0  0  0  0  0  0  0  0  0  0  0
   -1.8096   -0.0030    0.1198 N   0  0  0  0  0  0  0  0  0  0  0  0
   -2.4790    0.3630   -0.5489 H   0  0  0  0  0  0  0  0  0  0  0  0
   -0.4718    0.6314    0.1303 C   0  0  1  0  0  0  0  0  0  0  0  0
   -0.4628    1.3954   -0.6490 H   0  0  0  0  0  0  0  0  0  0  0  0
   -0.2539    1.3141    1.4995 C   0  0  0  0  0  0  0  0  0  0  0  0
   -0.3795    0.5665    2.2906 H   0  0  0  0  0  0  0  0  0  0  0  0
    0.7812    1.6678    1.5593 H   0  0  0  0  0  0  0  0  0  0  0  0
   -1.1966    2.5070    1.7709 C   0  0  0  0  0  0  0  0  0  0  0  0
   -2.2355    2.1748    1.6758 H   0  0  0  0  0  0  0  0  0  0  0  0
   -0.9832    2.9960    3.2081 C   0  0  0  0  0  0  0  0  0  0  0  0
    0.0453    3.3425    3.3507 H   0  0  0  0  0  0  0  0  0  0  0  0
   -1.6639    3.8222    3.4362 H   0  0  0  0  0  0  0  0  0  0  0  0
   -1.1787    2.1868    3.9191 H   0  0  0  0  0  0  0  0  0  0  0  0
   -0.9594    3.6747    0.8019 C   0  0  0  0  0  0  0  0  0  0  0  0
   -1.2568    3.4063   -0.2151 H   0  0  0  0  0  0  0  0  0  0  0  0
   -1.5525    4.5439    1.1031 H   0  0  0  0  0  0  0  0  0  0  0  0
    0.0967    3.9622    0.7956 H   0  0  0  0  0  0  0  0  0  0  0  0
    0.7453   -0.2895   -0.1669 C   0  0  0  0  0  0  0  0  0  0  0  0
    1.1680   -1.1251    0.6176 O   0  0  0  0  0  0  0  0  0  0  0  0
    1.5425    0.0065   -1.2609 N   0  0  0  0  0  0  0  0  0  0  0  0
    1.2405    0.7526   -1.8783 H   0  0  0  0  0  0  0  0  0  0  0  0
    2.7922   -0.6862   -1.5554 C   0  0  0  0  0  0  0  0  0  0  0  0
    2.6189   -1.7627   -1.6584 H   0  0  0  0  0  0  0  0  0  0  0  0
    3.2201   -0.3148   -2.4913 H   0  0  0  0  0  0  0  0  0  0  0  0
    3.5189   -0.5221   -0.7529 H   0  0  0  0  0  0  0  0  0  0  0  0
  1  2  1  0  0  0  0
  2  3  1  0  0  0  0
  2  4  1  0  0  0  0
  2  5  1  0  0  0  0
  5  6  2  0  0  0  0
  5  7  1  0  0  0  0
  7  8  1  0  0  0  0
  7  9  1  0  0  0  0
  9 10  1  0  0  0  0
  9 11  1  0  0  0  0
  9 24  1  0  0  0  0
 11 12  1  0  0  0  0
 11 13  1  0  0  0  0
 11 14  1  0  0  0  0
 14 15  1  0  0  0  0
 14 16  1  0  0  0  0
 14 20  1  0  0  0  0
 16 17  1  0  0  0  0
 16 18  1  0  0  0  0
 16 19  1  0  0  0  0
 20 21  1  0  0  0  0
 20 22  1  0  0  0  0
 20 23  1  0  0  0  0
 24 25  2  0  0  0  0
 24 26  1  0  0  0  0
 26 27  1  0  0  0  0
 26 28  1  0  0  0  0
 28 29  1  0  0  0  0
 28 30  1  0  0  0  0
 28 31  1  0  0  0  0
M  END
$$$$

  -OEChem-01062216083D

 31 30  0     1  0  0  0  0  0999 V2000
   -3.4266   -2.9122    0.7477 H   0  0  0  0  0  0  0  0  0  0  0  0
   -3.3235   -1.9739    0.1953 C   0  0  0  0  0  0  0  0  0  0  0  0
   -4.2621   -1.4189    0.2623 H   0  0  0  0  0  0  0  0  0  0  0  0
   -3.1156   -2.2066   -0.8518 H   0  0  0  0  0  0  0  0  0  0  0  0
   -2.1900   -1.1506    0.7779 C   0  0  0  0  0  0  0  0  0  0  0  0
   -1.7148   -1.4756    1.8524 O   0  0  0  0  0  0  0  0  0  0  0  0
   -1.8544    0.0518    0.1779 N   0  0  0  0  0  0  0  0  0  0  0  0
   -2.4037    0.2440   -0.6530 H   0  0  0  0  0  0  0  0  0  0  0  0
   -0.5077    0.6685    0.1986 C   0  0  1  0  0  0  0  0  0  0  0  0
   -0.4929    1.4222   -0.5907 H   0  0  0  0  0  0  0  0  0  0  0  0
   -0.2636    1.3677    1.5548 C   0  0  0  0  0  0  0  0  0  0  0  0
   -0.3909    0.6400    2.3628 H   0  0  0  0  0  0  0  0  0  0  0  0
    0.7768    1.7067    1.5980 H   0  0  0  0  0  0  0  0  0  0  0  0
   -1.1812    2.5835    1.8096 C   0  0  0  0  0  0  0  0  0  0  0  0
   -2.2263    2.2669    1.7261 H   0  0  0  0  0  0  0  0  0  0  0  0
   -0.9497    3.0943    3.2363 C   0  0  0  0  0  0  0  0  0  0  0  0
    0.0835    3.4325    3.3646 H   0  0  0  0  0  0  0  0  0  0  0  0
   -1.6198    3.9312    3.4558 H   0  0  0  0  0  0  0  0  0  0  0  0
   -1.1480    2.2995    3.9624 H   0  0  0  0  0  0  0  0  0  0  0  0
   -0.9296    3.7312    0.8200 C   0  0  0  0  0  0  0  0  0  0  0  0
   -1.2361    3.4516   -0.1912 H   0  0  0  0  0  0  0  0  0  0  0  0
   -1.5079    4.6143    1.1093 H   0  0  0  0  0  0  0  0  0  0  0  0
    0.1307    4.0025    0.8046 H   0  0  0  0  0  0  0  0  0  0  0  0
    0.7003   -0.2653   -0.0974 C   0  0  0  0  0  0  0  0  0  0  0  0
    0.7561   -1.4376    0.2416 O   0  0  0  0  0  0  0  0  0  0  0  0
    1.6814    0.1882   -0.9641 N   0  0  0  0  0  0  0  0  0  0  0  0
    1.6417    1.1602   -1.2530 H   0  0  0  0  0  0  0  0  0  0  0  0
    2.8231   -0.6198   -1.3794 C   0  0  0  0  0  0  0  0  0  0  0  0
    2.4859   -1.5306   -1.8854 H   0  0  0  0  0  0  0  0  0  0  0  0
    3.4544   -0.0552   -2.0720 H   0  0  0  0  0  0  0  0  0  0  0  0
    3.4281   -0.9029   -0.5115 H   0  0  0  0  0  0  0  0  0  0  0  0
  1  2  1  0  0  0  0
  2  3  1  0  0  0  0
  2  4  1  0  0  0  0
  2  5  1  0  0  0  0
  5  6  2  0  0  0  0
  5  7  1  0  0  0  0
  7  8  1  0  0  0  0
  7  9  1  0  0  0  0
  9 10  1  0  0  0  0
  9 11  1  0  0  0  0
  9 24  1  0  0  0  0
 11 12  1  0  0  0  0
 11 13  1  0  0  0  0
 11 14  1  0  0  0  0
 14 15  1  0  0  0  0
 14 16  1  0  0  0  0
 14 20  1  0  0  0  0
 16 17  1  0  0  0  0
 16 18  1  0  0  0  0
 16 19  1  0  0  0  0
 20 21  1  0  0  0  0
 20 22  1  0  0  0  0
 20 23  1  0  0  0  0
 24 25  2  0  0  0  0
 24 26  1  0  0  0  0
 26 27  1  0  0  0  0
 26 28  1  0  0  0  0
 28 29  1  0  0  0  0
 28 30  1  0  0  0  0
 28 31  1  0  0  0  0
M  END
$$$$

  -OEChem-01062216083D

 31 30  0     1  0  0  0  0  0999 V2000
   -3.4464   -2.8943    0.7962 H   0  0  0  0  0  0  0  0  0  0  0  0
   -3.3154   -1.9793    0.2118 C   0  0  0  0  0  0  0  0  0  0  0  0
   -4.2451   -1.4065    0.2386 H   0  0  0  0  0  0  0  0  0  0  0  0
   -3.0908   -2.2541   -0.8216 H   0  0  0  0  0  0  0  0  0  0  0  0
   -2.1783   -1.1542    0.7846 C   0  0  0  0  0  0  0  0  0  0  0  0
   -1.6684   -1.4908    1.8411 O   0  0  0  0  0  0  0  0  0  0  0  0
   -1.8479    0.0501    0.1853 N   0  0  0  0  0  0  0  0  0  0  0  0
   -2.3803    0.2312   -0.6591 H   0  0  0  0  0  0  0  0  0  0  0  0
   -0.4984    0.6582    0.2239 C   0  0  1  0  0  0  0  0  0  0  0  0
   -0.4663    1.4041   -0.5724 H   0  0  0  0  0  0  0  0  0  0  0  0
   -0.2726    1.3679    1.5789 C   0  0  0  0  0  0  0  0  0  0  0  0
   -0.4212    0.6493    2.3911 H   0  0  0  0  0  0  0  0  0  0  0  0
    0.7688    1.7009    1.6399 H   0  0  0  0  0  0  0  0  0  0  0  0
   -1.1871    2.5917    1.8063 C   0  0  0  0  0  0  0  0  0  0  0  0
   -2.2326    2.2813    1.7064 H   0  0  0  0  0  0  0  0  0  0  0  0
   -0.9785    3.1155    3.2321 C   0  0  0  0  0  0  0  0  0  0  0  0
    0.0525    3.4548    3.3735 H   0  0  0  0  0  0  0  0  0  0  0  0
   -1.6518    3.9546    3.4329 H   0  0  0  0  0  0  0  0  0  0  0  0
   -1.1887    2.3278    3.9626 H   0  0  0  0  0  0  0  0  0  0  0  0
   -0.9097    3.7285    0.8111 C   0  0  0  0  0  0  0  0  0  0  0  0
   -1.1983    3.4412   -0.2033 H   0  0  0  0  0  0  0  0  0  0  0  0
   -1.4881    4.6176    1.0810 H   0  0  0  0  0  0  0  0  0  0  0  0
    0.1523    3.9933    0.8137 H   0  0  0  0  0  0  0  0  0  0  0  0
    0.7065   -0.2833   -0.0606 C   0  0  0  0  0  0  0  0  0  0  0  0
    0.6037   -1.5012   -0.1185 O   0  0  0  0  0  0  0  0  0  0  0  0
    1.8362    0.2696   -0.6420 N   0  0  0  0  0  0  0  0  0  0  0  0
    1.9134    1.2818   -0.6456 H   0  0  0  0  0  0  0  0  0  0  0  0
    2.9646   -0.5205   -1.1230 C   0  0  0  0  0  0  0  0  0  0  0  0
    2.6484   -1.1884   -1.9310 H   0  0  0  0  0  0  0  0  0  0  0  0
    3.7508    0.1365   -1.5067 H   0  0  0  0  0  0  0  0  0  0  0  0
    3.3837   -1.1235   -0.3106 H   0  0  0  0  0  0  0  0  0  0  0  0
  1  2  1  0  0  0  0
  2  3  1  0  0  0  0
  2  4  1  0  0  0  0
  2  5  1  0  0  0  0
  5  6  2  0  0  0  0
  5  7  1  0  0  0  0
  7  8  1  0  0  0  0
  7  9  1  0  0  0  0
  9 10  1  0  0  0  0
  9 11  1  0  0  0  0
  9 24  1  0  0  0  0
 11 12  1  0  0  0  0
 11 13  1  0  0  0  0
 11 14  1  0  0  0  0
 14 15  1  0  0  0  0
 14 16  1  0  0  0  0
 14 20  1  0  0  0  0
 16 17  1  0  0  0  0
 16 18  1  0  0  0  0
 16 19  1  0  0  0  0
 20 21  1  0  0  0  0
 20 22  1  0  0  0  0
 20 23  1  0  0  0  0
 24 25  2  0  0  0  0
 24 26  1  0  0  0  0
 26 27  1  0  0  0  0
 26 28  1  0  0  0  0
 28 29  1  0  0  0  0
 28 30  1  0  0  0  0
 28 31  1  0  0  0  0
M  END
$$$$

  -OEChem-01062216083D

 31 30  0     1  0  0  0  0  0999 V2000
   -3.4419   -2.8785    0.8244 H   0  0  0  0  0  0  0  0  0  0  0  0
   -3.3165   -1.9662    0.2345 C   0  0  0  0  0  0  0  0  0  0  0  0
   -4.2391   -1.3834    0.2844 H   0  0  0  0  0  0  0  0  0  0  0  0
   -3.1210   -2.2453   -0.8037 H   0  0  0  0  0  0  0  0  0  0  0  0
   -2.1566   -1.1517    0.7751 C   0  0  0  0  0  0  0  0  0  0  0  0
   -1.5892   -1.5184    1.7922 O   0  0  0  0  0  0  0  0  0  0  0  0
   -1.8396    0.0573    0.1777 N   0  0  0  0  0  0  0  0  0  0  0  0
   -2.3760    0.2417   -0.6635 H   0  0  0  0  0  0  0  0  0  0  0  0
   -0.4918    0.6674    0.2224 C   0  0  1  0  0  0  0  0  0  0  0  0
   -0.4479    1.4143   -0.5727 H   0  0  0  0  0  0  0  0  0  0  0  0
   -0.2789    1.3743    1.5827 C   0  0  0  0  0  0  0  0  0  0  0  0
   -0.4320    0.6534    2.3918 H   0  0  0  0  0  0  0  0  0  0  0  0
    0.7594    1.7127    1.6565 H   0  0  0  0  0  0  0  0  0  0  0  0
   -1.1996    2.5939    1.8054 C   0  0  0  0  0  0  0  0  0  0  0  0
   -2.2436    2.2820    1.6952 H   0  0  0  0  0  0  0  0  0  0  0  0
   -1.0044    3.1143    3.2344 C   0  0  0  0  0  0  0  0  0  0  0  0
    0.0264    3.4490    3.3880 H   0  0  0  0  0  0  0  0  0  0  0  0
   -1.6766    3.9556    3.4297 H   0  0  0  0  0  0  0  0  0  0  0  0
   -1.2262    2.3260    3.9609 H   0  0  0  0  0  0  0  0  0  0  0  0
   -0.9150    3.7326    0.8144 C   0  0  0  0  0  0  0  0  0  0  0  0
   -1.1997    3.4476   -0.2018 H   0  0  0  0  0  0  0  0  0  0  0  0
   -1.4927    4.6226    1.0831 H   0  0  0  0  0  0  0  0  0  0  0  0
    0.1476    3.9952    0.8220 H   0  0  0  0  0  0  0  0  0  0  0  0
    0.6998   -0.2891   -0.0652 C   0  0  0  0  0  0  0  0  0  0  0  0
    0.5291   -1.4504   -0.4165 O   0  0  0  0  0  0  0  0  0  0  0  0
    1.9382    0.2664   -0.3438 N   0  0  0  0  0  0  0  0  0  0  0  0
    2.0749    1.2447   -0.1098 H   0  0  0  0  0  0  0  0  0  0  0  0
    3.0839   -0.5107   -0.8039 C   0  0  0  0  0  0  0  0  0  0  0  0
    2.8760   -0.9583   -1.7814 H   0  0  0  0  0  0  0  0  0  0  0  0
    3.9643    0.1320   -0.8986 H   0  0  0  0  0  0  0  0  0  0  0  0
    3.3146   -1.3102   -0.0920 H   0  0  0  0  0  0  0  0  0  0  0  0
  1  2  1  0  0  0  0
  2  3  1  0  0  0  0
  2  4  1  0  0  0  0
  2  5  1  0  0  0  0
  5  6  2  0  0  0  0
  5  7  1  0  0  0  0
  7  8  1  0  0  0  0
  7  9  1  0  0  0  0
  9 10  1  0  0  0  0
  9 11  1  0  0  0  0
  9 24  1  0  0  0  0
 11 12  1  0  0  0  0
 11 13  1  0  0  0  0
 11 14  1  0  0  0  0
 14 15  1  0  0  0  0
 14 16  1  0  0  0  0
 14 20  1  0  0  0  0
 16 17  1  0  0  0  0
 16 18  1  0  0  0  0
 16 19  1  0  0  0  0
 20 21  1  0  0  0  0
 20 22  1  0  0  0  0
 20 23  1  0  0  0  0
 24 25  2  0  0  0  0
 24 26  1  0  0  0  0
 26 27  1  0  0  0  0
 26 28  1  0  0  0  0
 28 29  1  0  0  0  0
 28 30  1  0  0  0  0
 28 31  1  0  0  0  0
M  END
$$$$

  -OEChem-01062216083D

 31 30  0     1  0  0  0  0  0999 V2000
   -3.4340   -2.8953    0.7113 H   0  0  0  0  0  0  0  0  0  0  0  0
   -3.3440   -1.9252    0.2145 C   0  0  0  0  0  0  0  0  0  0  0  0
   -4.2257   -1.3250    0.4502 H   0  0  0  0  0  0  0  0  0  0  0  0
   -3.2973   -2.0875   -0.8651 H   0  0  0  0  0  0  0  0  0  0  0  0
   -2.0891   -1.2131    0.6836 C   0  0  0  0  0  0  0  0  0  0  0  0
   -1.3880   -1.7417    1.5315 O   0  0  0  0  0  0  0  0  0  0  0  0
   -1.7864    0.0302    0.1536 N   0  0  0  0  0  0  0  0  0  0  0  0
   -2.3670    0.2952   -0.6356 H   0  0  0  0  0  0  0  0  0  0  0  0
   -0.4588    0.6769    0.2357 C   0  0  1  0  0  0  0  0  0  0  0  0
   -0.5080    1.5943   -0.3541 H   0  0  0  0  0  0  0  0  0  0  0  0
   -0.0891    1.0646    1.6914 C   0  0  0  0  0  0  0  0  0  0  0  0
   -0.1124    0.1807    2.3336 H   0  0  0  0  0  0  0  0  0  0  0  0
    0.9397    1.4357    1.7151 H   0  0  0  0  0  0  0  0  0  0  0  0
   -0.9983    2.1596    2.2904 C   0  0  0  0  0  0  0  0  0  0  0  0
   -2.0414    1.8305    2.2314 H   0  0  0  0  0  0  0  0  0  0  0  0
   -0.6396    2.3522    3.7685 C   0  0  0  0  0  0  0  0  0  0  0  0
    0.3976    2.6850    3.8757 H   0  0  0  0  0  0  0  0  0  0  0  0
   -1.2941    3.1001    4.2269 H   0  0  0  0  0  0  0  0  0  0  0  0
   -0.7614    1.4120    4.3158 H   0  0  0  0  0  0  0  0  0  0  0  0
   -0.8620    3.5062    1.5635 C   0  0  0  0  0  0  0  0  0  0  0  0
   -1.2590    3.4454    0.5467 H   0  0  0  0  0  0  0  0  0  0  0  0
   -1.4253    4.2813    2.0928 H   0  0  0  0  0  0  0  0  0  0  0  0
    0.1871    3.8145    1.5140 H   0  0  0  0  0  0  0  0  0  0  0  0
    0.6590   -0.1609   -0.4424 C   0  0  0  0  0  0  0  0  0  0  0  0
    0.3778   -1.0834   -1.1999 O   0  0  0  0  0  0  0  0  0  0  0  0
    1.9647    0.3011   -0.4529 N   0  0  0  0  0  0  0  0  0  0  0  0
    2.1918    1.0724    0.1666 H   0  0  0  0  0  0  0  0  0  0  0  0
    3.0484   -0.3785   -1.1537 C   0  0  0  0  0  0  0  0  0  0  0  0
    2.8447   -0.4176   -2.2290 H   0  0  0  0  0  0  0  0  0  0  0  0
    3.9912    0.1551   -1.0008 H   0  0  0  0  0  0  0  0  0  0  0  0
    3.1645   -1.4011   -0.7795 H   0  0  0  0  0  0  0  0  0  0  0  0
  1  2  1  0  0  0  0
  2  3  1  0  0  0  0
  2  4  1  0  0  0  0
  2  5  1  0  0  0  0
  5  6  2  0  0  0  0
  5  7  1  0  0  0  0
  7  8  1  0  0  0  0
  7  9  1  0  0  0  0
  9 10  1  0  0  0  0
  9 11  1  0  0  0  0
  9 24  1  0  0  0  0
 11 12  1  0  0  0  0
 11 13  1  0  0  0  0
 11 14  1  0  0  0  0
 14 15  1  0  0  0  0
 14 16  1  0  0  0  0
 14 20  1  0  0  0  0
 16 17  1  0  0  0  0
 16 18  1  0  0  0  0
 16 19  1  0  0  0  0
 20 21  1  0  0  0  0
 20 22  1  0  0  0  0
 20 23  1  0  0  0  0
 24 25  2  0  0  0  0
 24 26  1  0  0  0  0
 26 27  1  0  0  0  0
 26 28  1  0  0  0  0
 28 29  1  0  0  0  0
 28 30  1  0  0  0  0
 28 31  1  0  0  0  0
M  END
$$$$

  -OEChem-01062216083D

 31 30  0     1  0  0  0  0  0999 V2000
   -3.3936   -2.8997    0.6970 H   0  0  0  0  0  0  0  0  0  0  0  0
   -3.3207   -1.9176    0.2216 C   0  0  0  0  0  0  0  0  0  0  0  0
   -4.1967   -1.3261    0.4977 H   0  0  0  0  0  0  0  0  0  0  0  0
   -3.3053   -2.0533   -0.8626 H   0  0  0  0  0  0  0  0  0  0  0  0
   -2.0545   -1.2126    0.6705 C   0  0  0  0  0  0  0  0  0  0  0  0
   -1.3208   -1.7604    1.4780 O   0  0  0  0  0  0  0  0  0  0  0  0
   -1.7643    0.0385    0.1538 N   0  0  0  0  0  0  0  0  0  0  0  0
   -2.3546    0.3167   -0.6241 H   0  0  0  0  0  0  0  0  0  0  0  0
   -0.4432    0.6952    0.2446 C   0  0  1  0  0  0  0  0  0  0  0  0
   -0.4912    1.6146   -0.3420 H   0  0  0  0  0  0  0  0  0  0  0  0
   -0.0912    1.0824    1.7059 C   0  0  0  0  0  0  0  0  0  0  0  0
   -0.1147    0.1960    2.3450 H   0  0  0  0  0  0  0  0  0  0  0  0
    0.9318    1.4671    1.7421 H   0  0  0  0  0  0  0  0  0  0  0  0
   -1.0167    2.1684    2.2972 C   0  0  0  0  0  0  0  0  0  0  0  0
   -2.0561    1.8300    2.2264 H   0  0  0  0  0  0  0  0  0  0  0  0
   -0.6773    2.3631    3.7798 C   0  0  0  0  0  0  0  0  0  0  0  0
    0.3564    2.7027    3.9000 H   0  0  0  0  0  0  0  0  0  0  0  0
   -1.3421    3.1071    4.2296 H   0  0  0  0  0  0  0  0  0  0  0  0
   -0.8001    1.4222    4.3256 H   0  0  0  0  0  0  0  0  0  0  0  0
   -0.8863    3.5170    1.5728 C   0  0  0  0  0  0  0  0  0  0  0  0
   -1.2738    3.4532    0.5525 H   0  0  0  0  0  0  0  0  0  0  0  0
   -1.4615    4.2865    2.0974 H   0  0  0  0  0  0  0  0  0  0  0  0
    0.1602    3.8352    1.5326 H   0  0  0  0  0  0  0  0  0  0  0  0
    0.6663   -0.1432   -0.4462 C   0  0  0  0  0  0  0  0  0  0  0  0
    0.3755   -0.8931   -1.3724 O   0  0  0  0  0  0  0  0  0  0  0  0
    2.0076    0.1168   -0.2206 N   0  0  0  0  0  0  0  0  0  0  0  0
    2.2379    0.7083    0.5712 H   0  0  0  0  0  0  0  0  0  0  0  0
    3.0834   -0.6080   -0.8870 C   0  0  0  0  0  0  0  0  0  0  0  0
    3.0217   -0.4742   -1.9722 H   0  0  0  0  0  0  0  0  0  0  0  0
    4.0558   -0.2368   -0.5492 H   0  0  0  0  0  0  0  0  0  0  0  0
    3.0222   -1.6775   -0.6597 H   0  0  0  0  0  0  0  0  0  0  0  0
  1  2  1  0  0  0  0
  2  3  1  0  0  0  0
  2  4  1  0  0  0  0
  2  5  1  0  0  0  0
  5  6  2  0  0  0  0
  5  7  1  0  0  0  0
  7  8  1  0  0  0  0
  7  9  1  0  0  0  0
  9 10  1  0  0  0  0
  9 11  1  0  0  0  0
  9 24  1  0  0  0  0
 11 12  1  0  0  0  0
 11 13  1  0  0  0  0
 11 14  1  0  0  0  0
 14 15  1  0  0  0  0
 14 16  1  0  0  0  0
 14 20  1  0  0  0  0
 16 17  1  0  0  0  0
 16 18  1  0  0  0  0
 16 19  1  0  0  0  0
 20 21  1  0  0  0  0
 20 22  1  0  0  0  0
 20 23  1  0  0  0  0
 24 25  2  0  0  0  0
 24 26  1  0  0  0  0
 26 27  1  0  0  0  0
 26 28  1  0  0  0  0
 28 29  1  0  0  0  0
 28 30  1  0  0  0  0
 28 31  1  0  0  0  0
M  END
$$$$

  -OEChem-01062216083D

 31 30  0     1  0  0  0  0  0999 V2000
   -3.3621   -2.9001    0.6954 H   0  0  0  0  0  0  0  0  0  0  0  0
   -3.2981   -1.9147    0.2252 C   0  0  0  0  0  0  0  0  0  0  0  0
   -4.1696   -1.3255    0.5203 H   0  0  0  0  0  0  0  0  0  0  0  0
   -3.3019   -2.0430   -0.8601 H   0  0  0  0  0  0  0  0  0  0  0  0
   -2.0251   -1.2113    0.6569 C   0  0  0  0  0  0  0  0  0  0  0  0
   -1.2671   -1.7686    1.4353 O   0  0  0  0  0  0  0  0  0  0  0  0
   -1.7450    0.0447    0.1484 N   0  0  0  0  0  0  0  0  0  0  0  0
   -2.3452    0.3364   -0.6169 H   0  0  0  0  0  0  0  0  0  0  0  0
   -0.4316    0.7124    0.2505 C   0  0  1  0  0  0  0  0  0  0  0  0
   -0.4788    1.6328   -0.3352 H   0  0  0  0  0  0  0  0  0  0  0  0
   -0.0915    1.1006    1.7140 C   0  0  0  0  0  0  0  0  0  0  0  0
   -0.1097    0.2127    2.3520 H   0  0  0  0  0  0  0  0  0  0  0  0
    0.9267    1.4986    1.7528 H   0  0  0  0  0  0  0  0  0  0  0  0
   -1.0300    2.1774    2.3013 C   0  0  0  0  0  0  0  0  0  0  0  0
   -2.0658    1.8297    2.2244 H   0  0  0  0  0  0  0  0  0  0  0  0
   -0.7003    2.3729    3.7860 C   0  0  0  0  0  0  0  0  0  0  0  0
    0.3305    2.7198    3.9110 H   0  0  0  0  0  0  0  0  0  0  0  0
   -1.3724    3.1123    4.2327 H   0  0  0  0  0  0  0  0  0  0  0  0
   -0.8192    1.4308    4.3307 H   0  0  0  0  0  0  0  0  0  0  0  0
   -0.9077    3.5277    1.5793 C   0  0  0  0  0  0  0  0  0  0  0  0
   -1.2892    3.4615    0.5570 H   0  0  0  0  0  0  0  0  0  0  0  0
   -1.4922    4.2914    2.1018 H   0  0  0  0  0  0  0  0  0  0  0  0
    0.1363    3.8545    1.5451 H   0  0  0  0  0  0  0  0  0  0  0  0
    0.6746   -0.1268   -0.4427 C   0  0  0  0  0  0  0  0  0  0  0  0
    0.4182   -0.6945   -1.4992 O   0  0  0  0  0  0  0  0  0  0  0  0
    1.9908   -0.1013   -0.0136 N   0  0  0  0  0  0  0  0  0  0  0  0
    2.1626    0.2849    0.9093 H   0  0  0  0  0  0  0  0  0  0  0  0
    3.0465   -0.8829   -0.6466 C   0  0  0  0  0  0  0  0  0  0  0  0
    3.1551   -0.6002   -1.6990 H   0  0  0  0  0  0  0  0  0  0  0  0
    4.0015   -0.7055   -0.1430 H   0  0  0  0  0  0  0  0  0  0  0  0
    2.8172   -1.9523   -0.5902 H   0  0  0  0  0  0  0  0  0  0  0  0
  1  2  1  0  0  0  0
  2  3  1  0  0  0  0
  2  4  1  0  0  0  0
  2  5  1  0  0  0  0
  5  6  2  0  0  0  0
  5  7  1  0  0  0  0
  7  8  1  0  0  0  0
  7  9  1  0  0  0  0
  9 10  1  0  0  0  0
  9 11  1  0  0  0  0
  9 24  1  0  0  0  0
 11 12  1  0  0  0  0
 11 13  1  0  0  0  0
 11 14  1  0  0  0  0
 14 15  1  0  0  0  0
 14 16  1  0  0  0  0
 14 20  1  0  0  0  0
 16 17  1  0  0  0  0
 16 18  1  0  0  0  0
 16 19  1  0  0  0  0
 20 21  1  0  0  0  0
 20 22  1  0  0  0  0
 20 23  1  0  0  0  0
 24 25  2  0  0  0  0
 24 26  1  0  0  0  0
 26 27  1  0  0  0  0
 26 28  1  0  0  0  0
 28 29  1  0  0  0  0
 28 30  1  0  0  0  0
 28 31  1  0  0  0  0
M  END
$$$$

  -OEChem-01062216083D

 31 30  0     1  0  0  0  0  0999 V2000
   -3.3516   -2.8956    0.7003 H   0  0  0  0  0  0  0  0  0  0  0  0
   -3.2940   -1.9062    0.2381 C   0  0  0  0  0  0  0  0  0  0  0  0
   -4.1550   -1.3160    0.5607 H   0  0  0  0  0  0  0  0  0  0  0  0
   -3.3256   -2.0245   -0.8477 H   0  0  0  0  0  0  0  0  0  0  0  0
   -2.0073   -1.2126    0.6445 C   0  0  0  0  0  0  0  0  0  0  0  0
   -1.2316   -1.7798    1.3980 O   0  0  0  0  0  0  0  0  0  0  0  0
   -1.7291    0.0445    0.1387 N   0  0  0  0  0  0  0  0  0  0  0  0
   -2.3416    0.3536   -0.6103 H   0  0  0  0  0  0  0  0  0  0  0  0
   -0.4207    0.7187    0.2508 C   0  0  1  0  0  0  0  0  0  0  0  0
   -0.4667    1.6391   -0.3351 H   0  0  0  0  0  0  0  0  0  0  0  0
   -0.0910    1.1083    1.7153 C   0  0  0  0  0  0  0  0  0  0  0  0
   -0.1103    0.2202    2.3531 H   0  0  0  0  0  0  0  0  0  0  0  0
    0.9271    1.5083    1.7553 H   0  0  0  0  0  0  0  0  0  0  0  0
   -1.0371    2.1804    2.2983 C   0  0  0  0  0  0  0  0  0  0  0  0
   -2.0714    1.8298    2.2157 H   0  0  0  0  0  0  0  0  0  0  0  0
   -0.7147    2.3750    3.7844 C   0  0  0  0  0  0  0  0  0  0  0  0
    0.3139    2.7262    3.9148 H   0  0  0  0  0  0  0  0  0  0  0  0
   -1.3923    3.1100    4.2302 H   0  0  0  0  0  0  0  0  0  0  0  0
   -0.8314    1.4312    4.3265 H   0  0  0  0  0  0  0  0  0  0  0  0
   -0.9150    3.5323    1.5781 C   0  0  0  0  0  0  0  0  0  0  0  0
   -1.2904    3.4667    0.5533 H   0  0  0  0  0  0  0  0  0  0  0  0
   -1.5045    4.2939    2.0985 H   0  0  0  0  0  0  0  0  0  0  0  0
    0.1281    3.8629    1.5493 H   0  0  0  0  0  0  0  0  0  0  0  0
    0.6885   -0.1195   -0.4350 C   0  0  0  0  0  0  0  0  0  0  0  0
    0.5112   -0.5011   -1.5866 O   0  0  0  0  0  0  0  0  0  0  0  0
    1.9188   -0.3411    0.1593 N   0  0  0  0  0  0  0  0  0  0  0  0
    1.9732   -0.1614    1.1573 H   0  0  0  0  0  0  0  0  0  0  0  0
    2.9528   -1.1684   -0.4501 C   0  0  0  0  0  0  0  0  0  0  0  0
    3.2409   -0.7660   -1.4270 H   0  0  0  0  0  0  0  0  0  0  0  0
    3.8416   -1.1913    0.1877 H   0  0  0  0  0  0  0  0  0  0  0  0
    2.5935   -2.1943   -0.5833 H   0  0  0  0  0  0  0  0  0  0  0  0
  1  2  1  0  0  0  0
  2  3  1  0  0  0  0
  2  4  1  0  0  0  0
  2  5  1  0  0  0  0
  5  6  2  0  0  0  0
  5  7  1  0  0  0  0
  7  8  1  0  0  0  0
  7  9  1  0  0  0  0
  9 10  1  0  0  0  0
  9 11  1  0  0  0  0
  9 24  1  0  0  0  0
 11 12  1  0  0  0  0
 11 13  1  0  0  0  0
 11 14  1  0  0  0  0
 14 15  1  0  0  0  0
 14 16  1  0  0  0  0
 14 20  1  0  0  0  0
 16 17  1  0  0  0  0
 16 18  1  0  0  0  0
 16 19  1  0  0  0  0
 20 21  1  0  0  0  0
 20 22  1  0  0  0  0
 20 23  1  0  0  0  0
 24 25  2  0  0  0  0
 24 26  1  0  0  0  0
 26 27  1  0  0  0  0
 26 28  1  0  0  0  0
 28 29  1  0  0  0  0
 28 30  1  0  0  0  0
 28 31  1  0  0  0  0
M  END
$$$$

  -OEChem-01062216083D

 31 30  0     1  0  0  0  0  0999 V2000
   -3.3618   -2.8818    0.7175 H   0  0  0  0  0  0  0  0  0  0  0  0
   -3.3006   -1.8934    0.2532 C   0  0  0  0  0  0  0  0  0  0  0  0
   -4.1467   -1.2916    0.5934 H   0  0  0  0  0  0  0  0  0  0  0  0
   -3.3573   -2.0115   -0.8317 H   0  0  0  0  0  0  0  0  0  0  0  0
   -1.9967   -1.2169    0.6325 C   0  0  0  0  0  0  0  0  0  0  0  0
   -1.2080   -1.7959    1.3637 O   0  0  0  0  0  0  0  0  0  0  0  0
   -1.7143    0.0392    0.1278 N   0  0  0  0  0  0  0  0  0  0  0  0
   -2.3462    0.3750   -0.5931 H   0  0  0  0  0  0  0  0  0  0  0  0
   -0.4098    0.7172    0.2483 C   0  0  1  0  0  0  0  0  0  0  0  0
   -0.4542    1.6372   -0.3387 H   0  0  0  0  0  0  0  0  0  0  0  0
   -0.0877    1.1080    1.7131 C   0  0  0  0  0  0  0  0  0  0  0  0
   -0.1131    0.2201    2.3507 H   0  0  0  0  0  0  0  0  0  0  0  0
    0.9325    1.5038    1.7555 H   0  0  0  0  0  0  0  0  0  0  0  0
   -1.0381    2.1778    2.2931 C   0  0  0  0  0  0  0  0  0  0  0  0
   -2.0713    1.8255    2.2062 H   0  0  0  0  0  0  0  0  0  0  0  0
   -0.7217    2.3733    3.7805 C   0  0  0  0  0  0  0  0  0  0  0  0
    0.3054    2.7275    3.9147 H   0  0  0  0  0  0  0  0  0  0  0  0
   -1.4031    3.1064    4.2234 H   0  0  0  0  0  0  0  0  0  0  0  0
   -0.8380    1.4294    4.3224 H   0  0  0  0  0  0  0  0  0  0  0  0
   -0.9159    3.5296    1.5736 C   0  0  0  0  0  0  0  0  0  0  0  0
   -1.2875    3.4627    0.5476 H   0  0  0  0  0  0  0  0  0  0  0  0
   -1.5086    4.2903    2.0914 H   0  0  0  0  0  0  0  0  0  0  0  0
    0.1269    3.8616    1.5487 H   0  0  0  0  0  0  0  0  0  0  0  0
    0.7062   -0.1175   -0.4259 C   0  0  0  0  0  0  0  0  0  0  0  0
    0.6475   -0.3074   -1.6352 O   0  0  0  0  0  0  0  0  0  0  0  0
    1.7982   -0.5889    0.2810 N   0  0  0  0  0  0  0  0  0  0  0  0
    1.6940   -0.6022    1.2918 H   0  0  0  0  0  0  0  0  0  0  0  0
    2.8047   -1.4568   -0.3166 C   0  0  0  0  0  0  0  0  0  0  0  0
    3.2746   -0.9655   -1.1751 H   0  0  0  0  0  0  0  0  0  0  0  0
    3.5842   -1.6897    0.4149 H   0  0  0  0  0  0  0  0  0  0  0  0
    2.3502   -2.3950   -0.6520 H   0  0  0  0  0  0  0  0  0  0  0  0
  1  2  1  0  0  0  0
  2  3  1  0  0  0  0
  2  4  1  0  0  0  0
  2  5  1  0  0  0  0
  5  6  2  0  0  0  0
  5  7  1  0  0  0  0
  7  8  1  0  0  0  0
  7  9  1  0  0  0  0
  9 10  1  0  0  0  0
  9 11  1  0  0  0  0
  9 24  1  0  0  0  0
 11 12  1  0  0  0  0
 11 13  1  0  0  0  0
 11 14  1  0  0  0  0
 14 15  1  0  0  0  0
 14 16  1  0  0  0  0
 14 20  1  0  0  0  0
 16 17  1  0  0  0  0
 16 18  1  0  0  0  0
 16 19  1  0  0  0  0
 20 21  1  0  0  0  0
 20 22  1  0  0  0  0
 20 23  1  0  0  0  0
 24 25  2  0  0  0  0
 24 26  1  0  0  0  0
 26 27  1  0  0  0  0
 26 28  1  0  0  0  0
 28 29  1  0  0  0  0
 28 30  1  0  0  0  0
 28 31  1  0  0  0  0
M  END
$$$$

  -OEChem-01062216083D

 31 30  0     1  0  0  0  0  0999 V2000
   -3.3922   -2.8620    0.7434 H   0  0  0  0  0  0  0  0  0  0  0  0
   -3.3257   -1.8745    0.2779 C   0  0  0  0  0  0  0  0  0  0  0  0
   -4.1514   -1.2577    0.6405 H   0  0  0  0  0  0  0  0  0  0  0  0
   -3.4129   -1.9906   -0.8052 H   0  0  0  0  0  0  0  0  0  0  0  0
   -2.0010   -1.2212    0.6238 C   0  0  0  0  0  0  0  0  0  0  0  0
   -1.2033   -1.8136    1.3352 O   0  0  0  0  0  0  0  0  0  0  0  0
   -1.7086    0.0308    0.1146 N   0  0  0  0  0  0  0  0  0  0  0  0
   -2.3617    0.3980   -0.5715 H   0  0  0  0  0  0  0  0  0  0  0  0
   -0.4038    0.7063    0.2408 C   0  0  1  0  0  0  0  0  0  0  0  0
   -0.4451    1.6259   -0.3475 H   0  0  0  0  0  0  0  0  0  0  0  0
   -0.0857    1.0967    1.7056 C   0  0  0  0  0  0  0  0  0  0  0  0
   -0.1171    0.2095    2.3441 H   0  0  0  0  0  0  0  0  0  0  0  0
    0.9377    1.4849    1.7482 H   0  0  0  0  0  0  0  0  0  0  0  0
   -1.0349    2.1688    2.2840 C   0  0  0  0  0  0  0  0  0  0  0  0
   -2.0687    1.8186    2.1946 H   0  0  0  0  0  0  0  0  0  0  0  0
   -0.7225    2.3640    3.7725 C   0  0  0  0  0  0  0  0  0  0  0  0
    0.3054    2.7147    3.9095 H   0  0  0  0  0  0  0  0  0  0  0  0
   -1.4026    3.0996    4.2132 H   0  0  0  0  0  0  0  0  0  0  0  0
   -0.8441    1.4212    4.3151 H   0  0  0  0  0  0  0  0  0  0  0  0
   -0.9073    3.5197    1.5642 C   0  0  0  0  0  0  0  0  0  0  0  0
   -1.2775    3.4536    0.5377 H   0  0  0  0  0  0  0  0  0  0  0  0
   -1.4984    4.2826    2.0805 H   0  0  0  0  0  0  0  0  0  0  0  0
    0.1367    3.8479    1.5410 H   0  0  0  0  0  0  0  0  0  0  0  0
    0.7203   -0.1284   -0.4170 C   0  0  0  0  0  0  0  0  0  0  0  0
    0.8322   -0.1113   -1.6369 O   0  0  0  0  0  0  0  0  0  0  0  0
    1.6293   -0.8423    0.3424 N   0  0  0  0  0  0  0  0  0  0  0  0
    1.3200   -1.0506    1.2897 H   0  0  0  0  0  0  0  0  0  0  0  0
    2.6293   -1.7183   -0.2544 C   0  0  0  0  0  0  0  0  0  0  0  0
    3.2738   -1.1560   -0.9380 H   0  0  0  0  0  0  0  0  0  0  0  0
    3.2576   -2.1583    0.5258 H   0  0  0  0  0  0  0  0  0  0  0  0
    2.1458   -2.5280   -0.8108 H   0  0  0  0  0  0  0  0  0  0  0  0
  1  2  1  0  0  0  0
  2  3  1  0  0  0  0
  2  4  1  0  0  0  0
  2  5  1  0  0  0  0
  5  6  2  0  0  0  0
  5  7  1  0  0  0  0
  7  8  1  0  0  0  0
  7  9  1  0  0  0  0
  9 10  1  0  0  0  0
  9 11  1  0  0  0  0
  9 24  1  0  0  0  0
 11 12  1  0  0  0  0
 11 13  1  0  0  0  0
 11 14  1  0  0  0  0
 14 15  1  0  0  0  0
 14 16  1  0  0  0  0
 14 20  1  0  0  0  0
 16 17  1  0  0  0  0
 16 18  1  0  0  0  0
 16 19  1  0  0  0  0
 20 21  1  0  0  0  0
 20 22  1  0  0  0  0
 20 23  1  0  0  0  0
 24 25  2  0  0  0  0
 24 26  1  0  0  0  0
 26 27  1  0  0  0  0
 26 28  1  0  0  0  0
 28 29  1  0  0  0  0
 28 30  1  0  0  0  0
 28 31  1  0  0  0  0
M  END
$$$$

  -OEChem-01062216083D

 31 30  0     1  0  0  0  0  0999 V2000
   -3.4590   -2.8288    0.7759 H   0  0  0  0  0  0  0  0  0  0  0  0
   -3.3765   -1.8446    0.3061 C   0  0  0  0  0  0  0  0  0  0  0  0
   -4.1772   -1.2055    0.6858 H   0  0  0  0  0  0  0  0  0  0  0  0
   -3.4920   -1.9602   -0.7743 H   0  0  0  0  0  0  0  0  0  0  0  0
   -2.0266   -1.2272    0.6192 C   0  0  0  0  0  0  0  0  0  0  0  0
   -1.2315   -1.8386    1.3176 O   0  0  0  0  0  0  0  0  0  0  0  0
   -1.7128    0.0166    0.1022 N   0  0  0  0  0  0  0  0  0  0  0  0
   -2.3878    0.4186   -0.5421 H   0  0  0  0  0  0  0  0  0  0  0  0
   -0.4048    0.6887    0.2255 C   0  0  1  0  0  0  0  0  0  0  0  0
   -0.4459    1.6082   -0.3640 H   0  0  0  0  0  0  0  0  0  0  0  0
   -0.0851    1.0759    1.6898 C   0  0  0  0  0  0  0  0  0  0  0  0
   -0.1202    0.1874    2.3263 H   0  0  0  0  0  0  0  0  0  0  0  0
    0.9411    1.4572    1.7325 H   0  0  0  0  0  0  0  0  0  0  0  0
   -1.0301    2.1497    2.2712 C   0  0  0  0  0  0  0  0  0  0  0  0
   -2.0658    1.8051    2.1819 H   0  0  0  0  0  0  0  0  0  0  0  0
   -0.7142    2.3394    3.7594 C   0  0  0  0  0  0  0  0  0  0  0  0
    0.3161    2.6834    3.8948 H   0  0  0  0  0  0  0  0  0  0  0  0
   -1.3887    3.0783    4.2031 H   0  0  0  0  0  0  0  0  0  0  0  0
   -0.8397    1.3959    4.2999 H   0  0  0  0  0  0  0  0  0  0  0  0
   -0.8957    3.5013    1.5539 C   0  0  0  0  0  0  0  0  0  0  0  0
   -1.2672    3.4392    0.5276 H   0  0  0  0  0  0  0  0  0  0  0  0
   -1.4810    4.2669    2.0727 H   0  0  0  0  0  0  0  0  0  0  0  0
    0.1502    3.8234    1.5295 H   0  0  0  0  0  0  0  0  0  0  0  0
    0.7314   -0.1427   -0.4134 C   0  0  0  0  0  0  0  0  0  0  0  0
    1.0375    0.0627   -1.5813 O   0  0  0  0  0  0  0  0  0  0  0  0
    1.4358   -1.0732    0.3268 N   0  0  0  0  0  0  0  0  0  0  0  0
    0.9397   -1.4100    1.1533 H   0  0  0  0  0  0  0  0  0  0  0  0
    2.4445   -1.9429   -0.2633 C   0  0  0  0  0  0  0  0  0  0  0  0
    3.2379   -1.3488   -0.7290 H   0  0  0  0  0  0  0  0  0  0  0  0
    2.8959   -2.5734    0.5088 H   0  0  0  0  0  0  0  0  0  0  0  0
    1.9955   -2.5900   -1.0239 H   0  0  0  0  0  0  0  0  0  0  0  0
  1  2  1  0  0  0  0
  2  3  1  0  0  0  0
  2  4  1  0  0  0  0
  2  5  1  0  0  0  0
  5  6  2  0  0  0  0
  5  7  1  0  0  0  0
  7  8  1  0  0  0  0
  7  9  1  0  0  0  0
  9 10  1  0  0  0  0
  9 11  1  0  0  0  0
  9 24  1  0  0  0  0
 11 12  1  0  0  0  0
 11 13  1  0  0  0  0
 11 14  1  0  0  0  0
 14 15  1  0  0  0  0
 14 16  1  0  0  0  0
 14 20  1  0  0  0  0
 16 17  1  0  0  0  0
 16 18  1  0  0  0  0
 16 19  1  0  0  0  0
 20 21  1  0  0  0  0
 20 22  1  0  0  0  0
 20 23  1  0  0  0  0
 24 25  2  0  0  0  0
 24 26  1  0  0  0  0
 26 27  1  0  0  0  0
 26 28  1  0  0  0  0
 28 29  1  0  0  0  0
 28 30  1  0  0  0  0
 28 31  1  0  0  0  0
M  END
$$$$

  -OEChem-01062216083D

 31 30  0     1  0  0  0  0  0999 V2000
   -3.5659   -2.7777    0.8079 H   0  0  0  0  0  0  0  0  0  0  0  0
   -3.4520   -1.7995    0.3324 C   0  0  0  0  0  0  0  0  0  0  0  0
   -4.2217   -1.1284    0.7206 H   0  0  0  0  0  0  0  0  0  0  0  0
   -3.5882   -1.9151   -0.7455 H   0  0  0  0  0  0  0  0  0  0  0  0
   -2.0753   -1.2329    0.6235 C   0  0  0  0  0  0  0  0  0  0  0  0
   -1.2991   -1.8697    1.3197 O   0  0  0  0  0  0  0  0  0  0  0  0
   -1.7274   -0.0016    0.0976 N   0  0  0  0  0  0  0  0  0  0  0  0
   -2.4129    0.4279   -0.5173 H   0  0  0  0  0  0  0  0  0  0  0  0
   -0.4124    0.6639    0.2089 C   0  0  1  0  0  0  0  0  0  0  0  0
   -0.4563    1.5827   -0.3816 H   0  0  0  0  0  0  0  0  0  0  0  0
   -0.0890    1.0473    1.6720 C   0  0  0  0  0  0  0  0  0  0  0  0
   -0.1267    0.1560    2.3049 H   0  0  0  0  0  0  0  0  0  0  0  0
    0.9393    1.4228    1.7143 H   0  0  0  0  0  0  0  0  0  0  0  0
   -1.0269    2.1249    2.2579 C   0  0  0  0  0  0  0  0  0  0  0  0
   -2.0644    1.7861    2.1703 H   0  0  0  0  0  0  0  0  0  0  0  0
   -0.7069    2.3101    3.7457 C   0  0  0  0  0  0  0  0  0  0  0  0
    0.3248    2.6509    3.8800 H   0  0  0  0  0  0  0  0  0  0  0  0
   -1.3788    3.0495    4.1924 H   0  0  0  0  0  0  0  0  0  0  0  0
   -0.8343    1.3653    4.2835 H   0  0  0  0  0  0  0  0  0  0  0  0
   -0.8869    3.4771    1.5429 C   0  0  0  0  0  0  0  0  0  0  0  0
   -1.2609    3.4188    0.5173 H   0  0  0  0  0  0  0  0  0  0  0  0
   -1.4673    4.2446    2.0642 H   0  0  0  0  0  0  0  0  0  0  0  0
    0.1607    3.7936    1.5171 H   0  0  0  0  0  0  0  0  0  0  0  0
    0.7442   -0.1559   -0.4098 C   0  0  0  0  0  0  0  0  0  0  0  0
    1.2329    0.2089   -1.4717 O   0  0  0  0  0  0  0  0  0  0  0  0
    1.2564   -1.2687    0.2287 N   0  0  0  0  0  0  0  0  0  0  0  0
    0.6548   -1.6571    0.9595 H   0  0  0  0  0  0  0  0  0  0  0  0
    2.2689   -2.1308   -0.3651 C   0  0  0  0  0  0  0  0  0  0  0  0
    3.1691   -1.5556   -0.6053 H   0  0  0  0  0  0  0  0  0  0  0  0
    2.5451   -2.9239    0.3362 H   0  0  0  0  0  0  0  0  0  0  0  0
    1.8896   -2.5926   -1.2825 H   0  0  0  0  0  0  0  0  0  0  0  0
  1  2  1  0  0  0  0
  2  3  1  0  0  0  0
  2  4  1  0  0  0  0
  2  5  1  0  0  0  0
  5  6  2  0  0  0  0
  5  7  1  0  0  0  0
  7  8  1  0  0  0  0
  7  9  1  0  0  0  0
  9 10  1  0  0  0  0
  9 11  1  0  0  0  0
  9 24  1  0  0  0  0
 11 12  1  0  0  0  0
 11 13  1  0  0  0  0
 11 14  1  0  0  0  0
 14 15  1  0  0  0  0
 14 16  1  0  0  0  0
 14 20  1  0  0  0  0
 16 17  1  0  0  0  0
 16 18  1  0  0  0  0
 16 19  1  0  0  0  0
 20 21  1  0  0  0  0
 20 22  1  0  0  0  0
 20 23  1  0  0  0  0
 24 25  2  0  0  0  0
 24 26  1  0  0  0  0
 26 27  1  0  0  0  0
 26 28  1  0  0  0  0
 28 29  1  0  0  0  0
 28 30  1  0  0  0  0
 28 31  1  0  0  0  0
M  END
$$$$

  -OEChem-01062216083D

 31 30  0     1  0  0  0  0  0999 V2000
   -3.6691   -2.7321    0.8320 H   0  0  0  0  0  0  0  0  0  0  0  0
   -3.5290   -1.7598    0.3511 C   0  0  0  0  0  0  0  0  0  0  0  0
   -4.2791   -1.0656    0.7375 H   0  0  0  0  0  0  0  0  0  0  0  0
   -3.6705   -1.8775   -0.7260 H   0  0  0  0  0  0  0  0  0  0  0  0
   -2.1363   -1.2302    0.6363 C   0  0  0  0  0  0  0  0  0  0  0  0
   -1.3805   -1.8853    1.3365 O   0  0  0  0  0  0  0  0  0  0  0  0
   -1.7564   -0.0131    0.0994 N   0  0  0  0  0  0  0  0  0  0  0  0
   -2.4465    0.4359   -0.4958 H   0  0  0  0  0  0  0  0  0  0  0  0
   -0.4318    0.6414    0.1917 C   0  0  1  0  0  0  0  0  0  0  0  0
   -0.4776    1.5590   -0.4004 H   0  0  0  0  0  0  0  0  0  0  0  0
   -0.0975    1.0202    1.6526 C   0  0  0  0  0  0  0  0  0  0  0  0
   -0.1368    0.1265    2.2822 H   0  0  0  0  0  0  0  0  0  0  0  0
    0.9338    1.3881    1.6897 H   0  0  0  0  0  0  0  0  0  0  0  0
   -1.0225    2.1046    2.2467 C   0  0  0  0  0  0  0  0  0  0  0  0
   -2.0634    1.7746    2.1655 H   0  0  0  0  0  0  0  0  0  0  0  0
   -0.6911    2.2838    3.7327 C   0  0  0  0  0  0  0  0  0  0  0  0
    0.3447    2.6145    3.8609 H   0  0  0  0  0  0  0  0  0  0  0  0
   -1.3527    3.0289    4.1855 H   0  0  0  0  0  0  0  0  0  0  0  0
   -0.8236    1.3393    4.2700 H   0  0  0  0  0  0  0  0  0  0  0  0
   -0.8753    3.4575    1.5340 C   0  0  0  0  0  0  0  0  0  0  0  0
   -1.2517    3.4045    0.5091 H   0  0  0  0  0  0  0  0  0  0  0  0
   -1.4492    4.2278    2.0587 H   0  0  0  0  0  0  0  0  0  0  0  0
    0.1743    3.7671    1.5066 H   0  0  0  0  0  0  0  0  0  0  0  0
    0.7363   -0.1732   -0.4155 C   0  0  0  0  0  0  0  0  0  0  0  0
    1.3845    0.3129   -1.3335 O   0  0  0  0  0  0  0  0  0  0  0  0
    1.0713   -1.4293    0.0502 N   0  0  0  0  0  0  0  0  0  0  0  0
    0.4244   -1.8415    0.7280 H   0  0  0  0  0  0  0  0  0  0  0  0
    2.1022   -2.2676   -0.5452 C   0  0  0  0  0  0  0  0  0  0  0  0
    3.0685   -1.7530   -0.5346 H   0  0  0  0  0  0  0  0  0  0  0  0
    2.2019   -3.1991    0.0200 H   0  0  0  0  0  0  0  0  0  0  0  0
    1.8441   -2.5143   -1.5800 H   0  0  0  0  0  0  0  0  0  0  0  0
  1  2  1  0  0  0  0
  2  3  1  0  0  0  0
  2  4  1  0  0  0  0
  2  5  1  0  0  0  0
  5  6  2  0  0  0  0
  5  7  1  0  0  0  0
  7  8  1  0  0  0  0
  7  9  1  0  0  0  0
  9 10  1  0  0  0  0
  9 11  1  0  0  0  0
  9 24  1  0  0  0  0
 11 12  1  0  0  0  0
 11 13  1  0  0  0  0
 11 14  1  0  0  0  0
 14 15  1  0  0  0  0
 14 16  1  0  0  0  0
 14 20  1  0  0  0  0
 16 17  1  0  0  0  0
 16 18  1  0  0  0  0
 16 19  1  0  0  0  0
 20 21  1  0  0  0  0
 20 22  1  0  0  0  0
 20 23  1  0  0  0  0
 24 25  2  0  0  0  0
 24 26  1  0  0  0  0
 26 27  1  0  0  0  0
 26 28  1  0  0  0  0
 28 29  1  0  0  0  0
 28 30  1  0  0  0  0
 28 31  1  0  0  0  0
M  END
$$$$

  -OEChem-01062216083D

 31 30  0     1  0  0  0  0  0999 V2000
   -3.7859   -2.6703    0.8904 H   0  0  0  0  0  0  0  0  0  0  0  0
   -3.6252   -1.7098    0.3923 C   0  0  0  0  0  0  0  0  0  0  0  0
   -4.3386   -0.9844    0.7905 H   0  0  0  0  0  0  0  0  0  0  0  0
   -3.8020   -1.8356   -0.6787 H   0  0  0  0  0  0  0  0  0  0  0  0
   -2.2069   -1.2271    0.6310 C   0  0  0  0  0  0  0  0  0  0  0  0
   -1.4480   -1.9122    1.2978 O   0  0  0  0  0  0  0  0  0  0  0  0
   -1.8096   -0.0180    0.0892 N   0  0  0  0  0  0  0  0  0  0  0  0
   -2.5145    0.4618   -0.4632 H   0  0  0  0  0  0  0  0  0  0  0  0
   -0.4738    0.6199    0.1555 C   0  0  1  0  0  0  0  0  0  0  0  0
   -0.5231    1.5400   -0.4325 H   0  0  0  0  0  0  0  0  0  0  0  0
   -0.1106    0.9849    1.6124 C   0  0  0  0  0  0  0  0  0  0  0  0
   -0.1490    0.0861    2.2351 H   0  0  0  0  0  0  0  0  0  0  0  0
    0.9254    1.3412    1.6348 H   0  0  0  0  0  0  0  0  0  0  0  0
   -1.0114    2.0761    2.2306 C   0  0  0  0  0  0  0  0  0  0  0  0
   -2.0577    1.7597    2.1658 H   0  0  0  0  0  0  0  0  0  0  0  0
   -0.6518    2.2407    3.7117 C   0  0  0  0  0  0  0  0  0  0  0  0
    0.3909    2.5548    3.8236 H   0  0  0  0  0  0  0  0  0  0  0  0
   -1.2937    2.9934    4.1799 H   0  0  0  0  0  0  0  0  0  0  0  0
   -0.7897    1.2952    4.2456 H   0  0  0  0  0  0  0  0  0  0  0  0
   -0.8603    3.4319    1.5249 C   0  0  0  0  0  0  0  0  0  0  0  0
   -1.2551    3.3906    0.5063 H   0  0  0  0  0  0  0  0  0  0  0  0
   -1.4153    4.2052    2.0651 H   0  0  0  0  0  0  0  0  0  0  0  0
    0.1925    3.7288    1.4812 H   0  0  0  0  0  0  0  0  0  0  0  0
    0.6929   -0.1886   -0.4649 C   0  0  0  0  0  0  0  0  0  0  0  0
    1.4966    0.3949   -1.1808 O   0  0  0  0  0  0  0  0  0  0  0  0
    0.8657   -1.5392   -0.2361 N   0  0  0  0  0  0  0  0  0  0  0  0
    0.2072   -1.9764    0.4137 H   0  0  0  0  0  0  0  0  0  0  0  0
    1.9835   -2.3188   -0.7491 C   0  0  0  0  0  0  0  0  0  0  0  0
    2.9338   -1.9000   -0.4022 H   0  0  0  0  0  0  0  0  0  0  0  0
    1.9126   -3.3529   -0.3988 H   0  0  0  0  0  0  0  0  0  0  0  0
    1.9769   -2.3228   -1.8439 H   0  0  0  0  0  0  0  0  0  0  0  0
  1  2  1  0  0  0  0
  2  3  1  0  0  0  0
  2  4  1  0  0  0  0
  2  5  1  0  0  0  0
  5  6  2  0  0  0  0
  5  7  1  0  0  0  0
  7  8  1  0  0  0  0
  7  9  1  0  0  0  0
  9 10  1  0  0  0  0
  9 11  1  0  0  0  0
  9 24  1  0  0  0  0
 11 12  1  0  0  0  0
 11 13  1  0  0  0  0
 11 14  1  0  0  0  0
 14 15  1  0  0  0  0
 14 16  1  0  0  0  0
 14 20  1  0  0  0  0
 16 17  1  0  0  0  0
 16 18  1  0  0  0  0
 16 19  1  0  0  0  0
 20 21  1  0  0  0  0
 20 22  1  0  0  0  0
 20 23  1  0  0  0  0
 24 25  2  0  0  0  0
 24 26  1  0  0  0  0
 26 27  1  0  0  0  0
 26 28  1  0  0  0  0
 28 29  1  0  0  0  0
 28 30  1  0  0  0  0
 28 31  1  0  0  0  0
M  END
$$$$

  -OEChem-01062216083D

 31 30  0     1  0  0  0  0  0999 V2000
   -3.8277   -2.6347    0.9368 H   0  0  0  0  0  0  0  0  0  0  0  0
   -3.6658   -1.6747    0.4382 C   0  0  0  0  0  0  0  0  0  0  0  0
   -4.3454   -0.9358    0.8697 H   0  0  0  0  0  0  0  0  0  0  0  0
   -3.8892   -1.7891   -0.6253 H   0  0  0  0  0  0  0  0  0  0  0  0
   -2.2285   -1.2250    0.6197 C   0  0  0  0  0  0  0  0  0  0  0  0
   -1.4501   -1.9415    1.2277 O   0  0  0  0  0  0  0  0  0  0  0  0
   -1.8292   -0.0170    0.0779 N   0  0  0  0  0  0  0  0  0  0  0  0
   -2.5505    0.4922   -0.4246 H   0  0  0  0  0  0  0  0  0  0  0  0
   -0.4890    0.6136    0.1333 C   0  0  1  0  0  0  0  0  0  0  0  0
   -0.5397    1.5354   -0.4514 H   0  0  0  0  0  0  0  0  0  0  0  0
   -0.1201    0.9702    1.5916 C   0  0  0  0  0  0  0  0  0  0  0  0
   -0.1613    0.0671    2.2084 H   0  0  0  0  0  0  0  0  0  0  0  0
    0.9176    1.3218    1.6145 H   0  0  0  0  0  0  0  0  0  0  0  0
   -1.0133    2.0627    2.2192 C   0  0  0  0  0  0  0  0  0  0  0  0
   -2.0612    1.7524    2.1575 H   0  0  0  0  0  0  0  0  0  0  0  0
   -0.6469    2.2169    3.6999 C   0  0  0  0  0  0  0  0  0  0  0  0
    0.3967    2.5288    3.8091 H   0  0  0  0  0  0  0  0  0  0  0  0
   -1.2852    2.9673    4.1767 H   0  0  0  0  0  0  0  0  0  0  0  0
   -0.7831    1.2678    4.2281 H   0  0  0  0  0  0  0  0  0  0  0  0
   -0.8575    3.4209    1.5192 C   0  0  0  0  0  0  0  0  0  0  0  0
   -1.2563    3.3859    0.5021 H   0  0  0  0  0  0  0  0  0  0  0  0
   -1.4063    4.1949    2.0647 H   0  0  0  0  0  0  0  0  0  0  0  0
    0.1967    3.7121    1.4726 H   0  0  0  0  0  0  0  0  0  0  0  0
    0.6790   -0.1880   -0.4964 C   0  0  0  0  0  0  0  0  0  0  0  0
    1.6016    0.4324   -1.0098 O   0  0  0  0  0  0  0  0  0  0  0  0
    0.7067   -1.5684   -0.5348 N   0  0  0  0  0  0  0  0  0  0  0  0
    0.0196   -2.0380    0.0593 H   0  0  0  0  0  0  0  0  0  0  0  0
    1.8396   -2.3361   -1.0335 C   0  0  0  0  0  0  0  0  0  0  0  0
    2.7408   -2.1102   -0.4542 H   0  0  0  0  0  0  0  0  0  0  0  0
    1.6334   -3.4074   -0.9511 H   0  0  0  0  0  0  0  0  0  0  0  0
    2.0275   -2.1010   -2.0863 H   0  0  0  0  0  0  0  0  0  0  0  0
  1  2  1  0  0  0  0
  2  3  1  0  0  0  0
  2  4  1  0  0  0  0
  2  5  1  0  0  0  0
  5  6  2  0  0  0  0
  5  7  1  0  0  0  0
  7  8  1  0  0  0  0
  7  9  1  0  0  0  0
  9 10  1  0  0  0  0
  9 11  1  0  0  0  0
  9 24  1  0  0  0  0
 11 12  1  0  0  0  0
 11 13  1  0  0  0  0
 11 14  1  0  0  0  0
 14 15  1  0  0  0  0
 14 16  1  0  0  0  0
 14 20  1  0  0  0  0
 16 17  1  0  0  0  0
 16 18  1  0  0  0  0
 16 19  1  0  0  0  0
 20 21  1  0  0  0  0
 20 22  1  0  0  0  0
 20 23  1  0  0  0  0
 24 25  2  0  0  0  0
 24 26  1  0  0  0  0
 26 27  1  0  0  0  0
 26 28  1  0  0  0  0
 28 29  1  0  0  0  0
 28 30  1  0  0  0  0
 28 31  1  0  0  0  0
M  END
$$$$

  -OEChem-01062216083D

 31 30  0     1  0  0  0  0  0999 V2000
   -3.8244   -2.5918    1.0136 H   0  0  0  0  0  0  0  0  0  0  0  0
   -3.6734   -1.6343    0.5070 C   0  0  0  0  0  0  0  0  0  0  0  0
   -4.3042   -0.8813    0.9859 H   0  0  0  0  0  0  0  0  0  0  0  0
   -3.9719   -1.7389   -0.5389 H   0  0  0  0  0  0  0  0  0  0  0  0
   -2.2162   -1.2212    0.5920 C   0  0  0  0  0  0  0  0  0  0  0  0
   -1.4081   -1.9759    1.1069 O   0  0  0  0  0  0  0  0  0  0  0  0
   -1.8245   -0.0107    0.0510 N   0  0  0  0  0  0  0  0  0  0  0  0
   -2.5691    0.5407   -0.3654 H   0  0  0  0  0  0  0  0  0  0  0  0
   -0.4834    0.6192    0.1068 C   0  0  1  0  0  0  0  0  0  0  0  0
   -0.5311    1.5444   -0.4727 H   0  0  0  0  0  0  0  0  0  0  0  0
   -0.1266    0.9619    1.5722 C   0  0  0  0  0  0  0  0  0  0  0  0
   -0.1734    0.0519    2.1783 H   0  0  0  0  0  0  0  0  0  0  0  0
    0.9108    1.3134    1.6108 H   0  0  0  0  0  0  0  0  0  0  0  0
   -1.0262    2.0478    2.2028 C   0  0  0  0  0  0  0  0  0  0  0  0
   -2.0739    1.7389    2.1289 H   0  0  0  0  0  0  0  0  0  0  0  0
   -0.6734    2.1886    3.6880 C   0  0  0  0  0  0  0  0  0  0  0  0
    0.3688    2.5008    3.8098 H   0  0  0  0  0  0  0  0  0  0  0  0
   -1.3176    2.9335    4.1653 H   0  0  0  0  0  0  0  0  0  0  0  0
   -0.8136    1.2342    4.2054 H   0  0  0  0  0  0  0  0  0  0  0  0
   -0.8638    3.4127    1.5177 C   0  0  0  0  0  0  0  0  0  0  0  0
   -1.2558    3.3884    0.4977 H   0  0  0  0  0  0  0  0  0  0  0  0
   -1.4151    4.1816    2.0678 H   0  0  0  0  0  0  0  0  0  0  0  0
    0.1913    3.7026    1.4813 H   0  0  0  0  0  0  0  0  0  0  0  0
    0.6880   -0.1772   -0.5253 C   0  0  0  0  0  0  0  0  0  0  0  0
    1.7054    0.4298   -0.8363 O   0  0  0  0  0  0  0  0  0  0  0  0
    0.5933   -1.5191   -0.8406 N   0  0  0  0  0  0  0  0  0  0  0  0
   -0.1448   -2.0185   -0.3411 H   0  0  0  0  0  0  0  0  0  0  0  0
    1.7170   -2.2927   -1.3525 C   0  0  0  0  0  0  0  0  0  0  0  0
    2.5425   -2.2914   -0.6332 H   0  0  0  0  0  0  0  0  0  0  0  0
    1.4118   -3.3285   -1.5289 H   0  0  0  0  0  0  0  0  0  0  0  0
    2.0726   -1.8731   -2.2994 H   0  0  0  0  0  0  0  0  0  0  0  0
  1  2  1  0  0  0  0
  2  3  1  0  0  0  0
  2  4  1  0  0  0  0
  2  5  1  0  0  0  0
  5  6  2  0  0  0  0
  5  7  1  0  0  0  0
  7  8  1  0  0  0  0
  7  9  1  0  0  0  0
  9 10  1  0  0  0  0
  9 11  1  0  0  0  0
  9 24  1  0  0  0  0
 11 12  1  0  0  0  0
 11 13  1  0  0  0  0
 11 14  1  0  0  0  0
 14 15  1  0  0  0  0
 14 16  1  0  0  0  0
 14 20  1  0  0  0  0
 16 17  1  0  0  0  0
 16 18  1  0  0  0  0
 16 19  1  0  0  0  0
 20 21  1  0  0  0  0
 20 22  1  0  0  0  0
 20 23  1  0  0  0  0
 24 25  2  0  0  0  0
 24 26  1  0  0  0  0
 26 27  1  0  0  0  0
 26 28  1  0  0  0  0
 28 29  1  0  0  0  0
 28 30  1  0  0  0  0
 28 31  1  0  0  0  0
M  END
$$$$

  -OEChem-01062216083D

 31 30  0     1  0  0  0  0  0999 V2000
   -3.7763   -2.5750    1.0651 H   0  0  0  0  0  0  0  0  0  0  0  0
   -3.6438   -1.6133    0.5611 C   0  0  0  0  0  0  0  0  0  0  0  0
   -4.2325   -0.8583    1.0876 H   0  0  0  0  0  0  0  0  0  0  0  0
   -4.0077   -1.7003   -0.4655 H   0  0  0  0  0  0  0  0  0  0  0  0
   -2.1786   -1.2212    0.5597 C   0  0  0  0  0  0  0  0  0  0  0  0
   -1.3454   -2.0061    0.9791 O   0  0  0  0  0  0  0  0  0  0  0  0
   -1.8019   -0.0037    0.0246 N   0  0  0  0  0  0  0  0  0  0  0  0
   -2.5650    0.5819   -0.3020 H   0  0  0  0  0  0  0  0  0  0  0  0
   -0.4628    0.6285    0.0949 C   0  0  1  0  0  0  0  0  0  0  0  0
   -0.5019    1.5554   -0.4822 H   0  0  0  0  0  0  0  0  0  0  0  0
   -0.1297    0.9632    1.5695 C   0  0  0  0  0  0  0  0  0  0  0  0
   -0.1836    0.0481    2.1680 H   0  0  0  0  0  0  0  0  0  0  0  0
    0.9050    1.3186    1.6297 H   0  0  0  0  0  0  0  0  0  0  0  0
   -1.0425    2.0429    2.1923 C   0  0  0  0  0  0  0  0  0  0  0  0
   -2.0879    1.7320    2.0994 H   0  0  0  0  0  0  0  0  0  0  0  0
   -0.7141    2.1756    3.6839 C   0  0  0  0  0  0  0  0  0  0  0  0
    0.3242    2.4930    3.8250 H   0  0  0  0  0  0  0  0  0  0  0  0
   -1.3703    2.9136    4.1555 H   0  0  0  0  0  0  0  0  0  0  0  0
   -0.8566    1.2174    4.1933 H   0  0  0  0  0  0  0  0  0  0  0  0
   -0.8718    3.4129    1.5192 C   0  0  0  0  0  0  0  0  0  0  0  0
   -1.2369    3.3929    0.4891 H   0  0  0  0  0  0  0  0  0  0  0  0
   -1.4418    4.1752    2.0594 H   0  0  0  0  0  0  0  0  0  0  0  0
    0.1820    3.7096    1.5118 H   0  0  0  0  0  0  0  0  0  0  0  0
    0.7078   -0.1702   -0.5369 C   0  0  0  0  0  0  0  0  0  0  0  0
    1.8010    0.3714   -0.6494 O   0  0  0  0  0  0  0  0  0  0  0  0
    0.5142   -1.4037   -1.1297 N   0  0  0  0  0  0  0  0  0  0  0  0
   -0.2886   -1.9135   -0.7612 H   0  0  0  0  0  0  0  0  0  0  0  0
    1.6100   -2.1842   -1.6896 C   0  0  0  0  0  0  0  0  0  0  0  0
    2.3474   -2.4207   -0.9153 H   0  0  0  0  0  0  0  0  0  0  0  0
    1.2298   -3.1221   -2.1055 H   0  0  0  0  0  0  0  0  0  0  0  0
    2.1063   -1.6284   -2.4921 H   0  0  0  0  0  0  0  0  0  0  0  0
  1  2  1  0  0  0  0
  2  3  1  0  0  0  0
  2  4  1  0  0  0  0
  2  5  1  0  0  0  0
  5  6  2  0  0  0  0
  5  7  1  0  0  0  0
  7  8  1  0  0  0  0
  7  9  1  0  0  0  0
  9 10  1  0  0  0  0
  9 11  1  0  0  0  0
  9 24  1  0  0  0  0
 11 12  1  0  0  0  0
 11 13  1  0  0  0  0
 11 14  1  0  0  0  0
 14 15  1  0  0  0  0
 14 16  1  0  0  0  0
 14 20  1  0  0  0  0
 16 17  1  0  0  0  0
 16 18  1  0  0  0  0
 16 19  1  0  0  0  0
 20 21  1  0  0  0  0
 20 22  1  0  0  0  0
 20 23  1  0  0  0  0
 24 25  2  0  0  0  0
 24 26  1  0  0  0  0
 26 27  1  0  0  0  0
 26 28  1  0  0  0  0
 28 29  1  0  0  0  0
 28 30  1  0  0  0  0
 28 31  1  0  0  0  0
M  END
$$$$

  -OEChem-01062216083D

 31 30  0     1  0  0  0  0  0999 V2000
   -3.7052   -2.5809    1.0917 H   0  0  0  0  0  0  0  0  0  0  0  0
   -3.5936   -1.6155    0.5896 C   0  0  0  0  0  0  0  0  0  0  0  0
   -4.1608   -0.8647    1.1450 H   0  0  0  0  0  0  0  0  0  0  0  0
   -3.9995   -1.6952   -0.4218 H   0  0  0  0  0  0  0  0  0  0  0  0
   -2.1295   -1.2223    0.5329 C   0  0  0  0  0  0  0  0  0  0  0  0
   -1.2779   -2.0130    0.8984 O   0  0  0  0  0  0  0  0  0  0  0  0
   -1.7739    0.0049    0.0059 N   0  0  0  0  0  0  0  0  0  0  0  0
   -2.5495    0.6061   -0.2570 H   0  0  0  0  0  0  0  0  0  0  0  0
   -0.4387    0.6422    0.0927 C   0  0  1  0  0  0  0  0  0  0  0  0
   -0.4716    1.5717   -0.4800 H   0  0  0  0  0  0  0  0  0  0  0  0
   -0.1266    0.9708    1.5743 C   0  0  0  0  0  0  0  0  0  0  0  0
   -0.1828    0.0521    2.1669 H   0  0  0  0  0  0  0  0  0  0  0  0
    0.9042    1.3330    1.6533 H   0  0  0  0  0  0  0  0  0  0  0  0
   -1.0535    2.0430    2.1894 C   0  0  0  0  0  0  0  0  0  0  0  0
   -2.0958    1.7262    2.0823 H   0  0  0  0  0  0  0  0  0  0  0  0
   -0.7465    2.1708    3.6861 C   0  0  0  0  0  0  0  0  0  0  0  0
    0.2882    2.4930    3.8421 H   0  0  0  0  0  0  0  0  0  0  0  0
   -1.4128    2.9030    4.1526 H   0  0  0  0  0  0  0  0  0  0  0  0
   -0.8907    1.2095    4.1890 H   0  0  0  0  0  0  0  0  0  0  0  0
   -0.8829    3.4160    1.5224 C   0  0  0  0  0  0  0  0  0  0  0  0
   -1.2436    3.3987    0.4905 H   0  0  0  0  0  0  0  0  0  0  0  0
   -1.4571    4.1752    2.0626 H   0  0  0  0  0  0  0  0  0  0  0  0
    0.1702    3.7154    1.5205 H   0  0  0  0  0  0  0  0  0  0  0  0
    0.7253   -0.1629   -0.5448 C   0  0  0  0  0  0  0  0  0  0  0  0
    1.8737    0.2538   -0.4512 O   0  0  0  0  0  0  0  0  0  0  0  0
    0.4738   -1.2200   -1.4002 N   0  0  0  0  0  0  0  0  0  0  0  0
   -0.4212   -1.6760   -1.2415 H   0  0  0  0  0  0  0  0  0  0  0  0
    1.5414   -2.0131   -1.9962 C   0  0  0  0  0  0  0  0  0  0  0  0
    2.1422   -2.4930   -1.2166 H   0  0  0  0  0  0  0  0  0  0  0  0
    1.1189   -2.7912   -2.6388 H   0  0  0  0  0  0  0  0  0  0  0  0
    2.1950   -1.3812   -2.6067 H   0  0  0  0  0  0  0  0  0  0  0  0
  1  2  1  0  0  0  0
  2  3  1  0  0  0  0
  2  4  1  0  0  0  0
  2  5  1  0  0  0  0
  5  6  2  0  0  0  0
  5  7  1  0  0  0  0
  7  8  1  0  0  0  0
  7  9  1  0  0  0  0
  9 10  1  0  0  0  0
  9 11  1  0  0  0  0
  9 24  1  0  0  0  0
 11 12  1  0  0  0  0
 11 13  1  0  0  0  0
 11 14  1  0  0  0  0
 14 15  1  0  0  0  0
 14 16  1  0  0  0  0
 14 20  1  0  0  0  0
 16 17  1  0  0  0  0
 16 18  1  0  0  0  0
 16 19  1  0  0  0  0
 20 21  1  0  0  0  0
 20 22  1  0  0  0  0
 20 23  1  0  0  0  0
 24 25  2  0  0  0  0
 24 26  1  0  0  0  0
 26 27  1  0  0  0  0
 26 28  1  0  0  0  0
 28 29  1  0  0  0  0
 28 30  1  0  0  0  0
 28 31  1  0  0  0  0
M  END
$$$$

  -OEChem-01062216083D

 31 30  0     1  0  0  0  0  0999 V2000
   -3.6233   -2.6253    1.0591 H   0  0  0  0  0  0  0  0  0  0  0  0
   -3.5298   -1.6528    0.5671 C   0  0  0  0  0  0  0  0  0  0  0  0
   -4.1143   -0.9195    1.1279 H   0  0  0  0  0  0  0  0  0  0  0  0
   -3.9305   -1.7314   -0.4463 H   0  0  0  0  0  0  0  0  0  0  0  0
   -2.0735   -1.2299    0.5196 C   0  0  0  0  0  0  0  0  0  0  0  0
   -1.2106   -2.0013    0.8980 O   0  0  0  0  0  0  0  0  0  0  0  0
   -1.7411    0.0089    0.0025 N   0  0  0  0  0  0  0  0  0  0  0  0
   -2.5269    0.6067   -0.2361 H   0  0  0  0  0  0  0  0  0  0  0  0
   -0.4137    0.6579    0.1047 C   0  0  1  0  0  0  0  0  0  0  0  0
   -0.4446    1.5882   -0.4665 H   0  0  0  0  0  0  0  0  0  0  0  0
   -0.1145    0.9892    1.5892 C   0  0  0  0  0  0  0  0  0  0  0  0
   -0.1652    0.0698    2.1813 H   0  0  0  0  0  0  0  0  0  0  0  0
    0.9114    1.3628    1.6756 H   0  0  0  0  0  0  0  0  0  0  0  0
   -1.0558    2.0530    2.1967 C   0  0  0  0  0  0  0  0  0  0  0  0
   -2.0940    1.7260    2.0815 H   0  0  0  0  0  0  0  0  0  0  0  0
   -0.7616    2.1845    3.6955 C   0  0  0  0  0  0  0  0  0  0  0  0
    0.2685    2.5173    3.8592 H   0  0  0  0  0  0  0  0  0  0  0  0
   -1.4389    2.9101    4.1566 H   0  0  0  0  0  0  0  0  0  0  0  0
   -0.8998    1.2219    4.1978 H   0  0  0  0  0  0  0  0  0  0  0  0
   -0.8931    3.4278    1.5314 C   0  0  0  0  0  0  0  0  0  0  0  0
   -1.2385    3.4058    0.4945 H   0  0  0  0  0  0  0  0  0  0  0  0
   -1.4850    4.1793    2.0632 H   0  0  0  0  0  0  0  0  0  0  0  0
    0.1559    3.7409    1.5450 H   0  0  0  0  0  0  0  0  0  0  0  0
    0.7384   -0.1556   -0.5438 C   0  0  0  0  0  0  0  0  0  0  0  0
    1.9072    0.0659   -0.2500 O   0  0  0  0  0  0  0  0  0  0  0  0
    0.4753   -0.9794   -1.6236 N   0  0  0  0  0  0  0  0  0  0  0  0
   -0.4935   -1.2668   -1.7183 H   0  0  0  0  0  0  0  0  0  0  0  0
    1.5017   -1.8016   -2.2519 C   0  0  0  0  0  0  0  0  0  0  0  0
    1.9223   -2.5066   -1.5272 H   0  0  0  0  0  0  0  0  0  0  0  0
    1.0738   -2.3700   -3.0830 H   0  0  0  0  0  0  0  0  0  0  0  0
    2.3093   -1.1748   -2.6442 H   0  0  0  0  0  0  0  0  0  0  0  0
  1  2  1  0  0  0  0
  2  3  1  0  0  0  0
  2  4  1  0  0  0  0
  2  5  1  0  0  0  0
  5  6  2  0  0  0  0
  5  7  1  0  0  0  0
  7  8  1  0  0  0  0
  7  9  1  0  0  0  0
  9 10  1  0  0  0  0
  9 11  1  0  0  0  0
  9 24  1  0  0  0  0
 11 12  1  0  0  0  0
 11 13  1  0  0  0  0
 11 14  1  0  0  0  0
 14 15  1  0  0  0  0
 14 16  1  0  0  0  0
 14 20  1  0  0  0  0
 16 17  1  0  0  0  0
 16 18  1  0  0  0  0
 16 19  1  0  0  0  0
 20 21  1  0  0  0  0
 20 22  1  0  0  0  0
 20 23  1  0  0  0  0
 24 25  2  0  0  0  0
 24 26  1  0  0  0  0
 26 27  1  0  0  0  0
 26 28  1  0  0  0  0
 28 29  1  0  0  0  0
 28 30  1  0  0  0  0
 28 31  1  0  0  0  0
M  END
$$$$

  -OEChem-01062216083D

 31 30  0     1  0  0  0  0  0999 V2000
   -3.5862   -2.6491    1.0335 H   0  0  0  0  0  0  0  0  0  0  0  0
   -3.4955   -1.6752    0.5439 C   0  0  0  0  0  0  0  0  0  0  0  0
   -4.0956   -0.9485    1.0967 H   0  0  0  0  0  0  0  0  0  0  0  0
   -3.8792   -1.7568   -0.4758 H   0  0  0  0  0  0  0  0  0  0  0  0
   -2.0431   -1.2377    0.5181 C   0  0  0  0  0  0  0  0  0  0  0  0
   -1.1806   -1.9983    0.9181 O   0  0  0  0  0  0  0  0  0  0  0  0
   -1.7181    0.0046    0.0039 N   0  0  0  0  0  0  0  0  0  0  0  0
   -2.5078    0.5961   -0.2375 H   0  0  0  0  0  0  0  0  0  0  0  0
   -0.3962    0.6606    0.1167 C   0  0  1  0  0  0  0  0  0  0  0  0
   -0.4241    1.5902   -0.4558 H   0  0  0  0  0  0  0  0  0  0  0  0
   -0.1066    0.9986    1.6019 C   0  0  0  0  0  0  0  0  0  0  0  0
   -0.1561    0.0809    2.1968 H   0  0  0  0  0  0  0  0  0  0  0  0
    0.9173    1.3777    1.6905 H   0  0  0  0  0  0  0  0  0  0  0  0
   -1.0561    2.0598    2.2019 C   0  0  0  0  0  0  0  0  0  0  0  0
   -2.0922    1.7269    2.0831 H   0  0  0  0  0  0  0  0  0  0  0  0
   -0.7697    2.1970    3.7019 C   0  0  0  0  0  0  0  0  0  0  0  0
    0.2580    2.5347    3.8701 H   0  0  0  0  0  0  0  0  0  0  0  0
   -1.4525    2.9209    4.1576 H   0  0  0  0  0  0  0  0  0  0  0  0
   -0.9060    1.2350    4.2061 H   0  0  0  0  0  0  0  0  0  0  0  0
   -0.8983    3.4334    1.5330 C   0  0  0  0  0  0  0  0  0  0  0  0
   -1.2391    3.4057    0.4948 H   0  0  0  0  0  0  0  0  0  0  0  0
   -1.4972    4.1829    2.0598 H   0  0  0  0  0  0  0  0  0  0  0  0
    0.1487    3.7528    1.5506 H   0  0  0  0  0  0  0  0  0  0  0  0
    0.7478   -0.1638   -0.5315 C   0  0  0  0  0  0  0  0  0  0  0  0
    1.8860   -0.1518   -0.0781 O   0  0  0  0  0  0  0  0  0  0  0  0
    0.5422   -0.7281   -1.7780 N   0  0  0  0  0  0  0  0  0  0  0  0
   -0.4268   -0.8287   -2.0613 H   0  0  0  0  0  0  0  0  0  0  0  0
    1.5511   -1.5338   -2.4547 C   0  0  0  0  0  0  0  0  0  0  0  0
    1.8077   -2.4105   -1.8508 H   0  0  0  0  0  0  0  0  0  0  0  0
    1.1741   -1.8765   -3.4229 H   0  0  0  0  0  0  0  0  0  0  0  0
    2.4592   -0.9466   -2.6273 H   0  0  0  0  0  0  0  0  0  0  0  0
  1  2  1  0  0  0  0
  2  3  1  0  0  0  0
  2  4  1  0  0  0  0
  2  5  1  0  0  0  0
  5  6  2  0  0  0  0
  5  7  1  0  0  0  0
  7  8  1  0  0  0  0
  7  9  1  0  0  0  0
  9 10  1  0  0  0  0
  9 11  1  0  0  0  0
  9 24  1  0  0  0  0
 11 12  1  0  0  0  0
 11 13  1  0  0  0  0
 11 14  1  0  0  0  0
 14 15  1  0  0  0  0
 14 16  1  0  0  0  0
 14 20  1  0  0  0  0
 16 17  1  0  0  0  0
 16 18  1  0  0  0  0
 16 19  1  0  0  0  0
 20 21  1  0  0  0  0
 20 22  1  0  0  0  0
 20 23  1  0  0  0  0
 24 25  2  0  0  0  0
 24 26  1  0  0  0  0
 26 27  1  0  0  0  0
 26 28  1  0  0  0  0
 28 29  1  0  0  0  0
 28 30  1  0  0  0  0
 28 31  1  0  0  0  0
M  END
$$$$

  -OEChem-01062216083D

 31 30  0     1  0  0  0  0  0999 V2000
   -3.5879   -2.6633    1.0180 H   0  0  0  0  0  0  0  0  0  0  0  0
   -3.4931   -1.6879    0.5316 C   0  0  0  0  0  0  0  0  0  0  0  0
   -4.1031   -0.9640    1.0771 H   0  0  0  0  0  0  0  0  0  0  0  0
   -3.8620   -1.7685   -0.4935 H   0  0  0  0  0  0  0  0  0  0  0  0
   -2.0417   -1.2463    0.5272 C   0  0  0  0  0  0  0  0  0  0  0  0
   -1.1866   -1.9989    0.9560 O   0  0  0  0  0  0  0  0  0  0  0  0
   -1.7150   -0.0051    0.0110 N   0  0  0  0  0  0  0  0  0  0  0  0
   -2.5043    0.5806   -0.2436 H   0  0  0  0  0  0  0  0  0  0  0  0
   -0.3950    0.6524    0.1234 C   0  0  1  0  0  0  0  0  0  0  0  0
   -0.4227    1.5813   -0.4499 H   0  0  0  0  0  0  0  0  0  0  0  0
   -0.1046    0.9977    1.6061 C   0  0  0  0  0  0  0  0  0  0  0  0
   -0.1524    0.0828    2.2057 H   0  0  0  0  0  0  0  0  0  0  0  0
    0.9200    1.3769    1.6894 H   0  0  0  0  0  0  0  0  0  0  0  0
   -1.0541    2.0608    2.2018 C   0  0  0  0  0  0  0  0  0  0  0  0
   -2.0900    1.7270    2.0851 H   0  0  0  0  0  0  0  0  0  0  0  0
   -0.7652    2.2039    3.7005 C   0  0  0  0  0  0  0  0  0  0  0  0
    0.2628    2.5422    3.8653 H   0  0  0  0  0  0  0  0  0  0  0  0
   -1.4471    2.9296    4.1546 H   0  0  0  0  0  0  0  0  0  0  0  0
   -0.9003    1.2437    4.2085 H   0  0  0  0  0  0  0  0  0  0  0  0
   -0.8958    3.4319    1.5278 C   0  0  0  0  0  0  0  0  0  0  0  0
   -1.2383    3.4017    0.4903 H   0  0  0  0  0  0  0  0  0  0  0  0
   -1.4926    4.1841    2.0530 H   0  0  0  0  0  0  0  0  0  0  0  0
    0.1517    3.7497    1.5427 H   0  0  0  0  0  0  0  0  0  0  0  0
    0.7460   -0.1772   -0.5228 C   0  0  0  0  0  0  0  0  0  0  0  0
    1.8109   -0.3761    0.0496 O   0  0  0  0  0  0  0  0  0  0  0  0
    0.6641   -0.4750   -1.8719 N   0  0  0  0  0  0  0  0  0  0  0  0
   -0.2515   -0.3828   -2.2991 H   0  0  0  0  0  0  0  0  0  0  0  0
    1.6930   -1.2271   -2.5800 C   0  0  0  0  0  0  0  0  0  0  0  0
    1.8106   -2.2225   -2.1387 H   0  0  0  0  0  0  0  0  0  0  0  0
    1.4194   -1.3436   -3.6329 H   0  0  0  0  0  0  0  0  0  0  0  0
    2.6538   -0.7036   -2.5301 H   0  0  0  0  0  0  0  0  0  0  0  0
  1  2  1  0  0  0  0
  2  3  1  0  0  0  0
  2  4  1  0  0  0  0
  2  5  1  0  0  0  0
  5  6  2  0  0  0  0
  5  7  1  0  0  0  0
  7  8  1  0  0  0  0
  7  9  1  0  0  0  0
  9 10  1  0  0  0  0
  9 11  1  0  0  0  0
  9 24  1  0  0  0  0
 11 12  1  0  0  0  0
 11 13  1  0  0  0  0
 11 14  1  0  0  0  0
 14 15  1  0  0  0  0
 14 16  1  0  0  0  0
 14 20  1  0  0  0  0
 16 17  1  0  0  0  0
 16 18  1  0  0  0  0
 16 19  1  0  0  0  0
 20 21  1  0  0  0  0
 20 22  1  0  0  0  0
 20 23  1  0  0  0  0
 24 25  2  0  0  0  0
 24 26  1  0  0  0  0
 26 27  1  0  0  0  0
 26 28  1  0  0  0  0
 28 29  1  0  0  0  0
 28 30  1  0  0  0  0
 28 31  1  0  0  0  0
M  END
$$$$

  -OEChem-01062216083D

 31 30  0     1  0  0  0  0  0999 V2000
   -3.6159   -2.6770    0.9964 H   0  0  0  0  0  0  0  0  0  0  0  0
   -3.5094   -1.7042    0.5074 C   0  0  0  0  0  0  0  0  0  0  0  0
   -4.1403   -0.9797    1.0275 H   0  0  0  0  0  0  0  0  0  0  0  0
   -3.8437   -1.7927   -0.5290 H   0  0  0  0  0  0  0  0  0  0  0  0
   -2.0606   -1.2557    0.5476 C   0  0  0  0  0  0  0  0  0  0  0  0
   -1.2199   -1.9989    1.0179 O   0  0  0  0  0  0  0  0  0  0  0  0
   -1.7260   -0.0183    0.0275 N   0  0  0  0  0  0  0  0  0  0  0  0
   -2.5091    0.5541   -0.2720 H   0  0  0  0  0  0  0  0  0  0  0  0
   -0.4057    0.6388    0.1292 C   0  0  1  0  0  0  0  0  0  0  0  0
   -0.4395    1.5667   -0.4448 H   0  0  0  0  0  0  0  0  0  0  0  0
   -0.1004    0.9934    1.6060 C   0  0  0  0  0  0  0  0  0  0  0  0
   -0.1461    0.0826    2.2123 H   0  0  0  0  0  0  0  0  0  0  0  0
    0.9269    1.3674    1.6750 H   0  0  0  0  0  0  0  0  0  0  0  0
   -1.0420    2.0613    2.2049 C   0  0  0  0  0  0  0  0  0  0  0  0
   -2.0790    1.7262    2.1018 H   0  0  0  0  0  0  0  0  0  0  0  0
   -0.7368    2.2133    3.6994 C   0  0  0  0  0  0  0  0  0  0  0  0
    0.2931    2.5525    3.8511 H   0  0  0  0  0  0  0  0  0  0  0  0
   -1.4136    2.9418    4.1562 H   0  0  0  0  0  0  0  0  0  0  0  0
   -0.8668    1.2566    4.2149 H   0  0  0  0  0  0  0  0  0  0  0  0
   -0.8930    3.4279    1.5200 C   0  0  0  0  0  0  0  0  0  0  0  0
   -1.2463    3.3898    0.4864 H   0  0  0  0  0  0  0  0  0  0  0  0
   -1.4864    4.1823    2.0460 H   0  0  0  0  0  0  0  0  0  0  0  0
    0.1538    3.7480    1.5222 H   0  0  0  0  0  0  0  0  0  0  0  0
    0.7353   -0.1902   -0.5182 C   0  0  0  0  0  0  0  0  0  0  0  0
    1.6965   -0.5941    0.1247 O   0  0  0  0  0  0  0  0  0  0  0  0
    0.8196   -0.2282   -1.8996 N   0  0  0  0  0  0  0  0  0  0  0  0
   -0.0021    0.0637   -2.4178 H   0  0  0  0  0  0  0  0  0  0  0  0
    1.8918   -0.9122   -2.6130 C   0  0  0  0  0  0  0  0  0  0  0  0
    1.8969   -1.9788   -2.3644 H   0  0  0  0  0  0  0  0  0  0  0  0
    1.7547   -0.8075   -3.6935 H   0  0  0  0  0  0  0  0  0  0  0  0
    2.8638   -0.4835   -2.3466 H   0  0  0  0  0  0  0  0  0  0  0  0
  1  2  1  0  0  0  0
  2  3  1  0  0  0  0
  2  4  1  0  0  0  0
  2  5  1  0  0  0  0
  5  6  2  0  0  0  0
  5  7  1  0  0  0  0
  7  8  1  0  0  0  0
  7  9  1  0  0  0  0
  9 10  1  0  0  0  0
  9 11  1  0  0  0  0
  9 24  1  0  0  0  0
 11 12  1  0  0  0  0
 11 13  1  0  0  0  0
 11 14  1  0  0  0  0
 14 15  1  0  0  0  0
 14 16  1  0  0  0  0
 14 20  1  0  0  0  0
 16 17  1  0  0  0  0
 16 18  1  0  0  0  0
 16 19  1  0  0  0  0
 20 21  1  0  0  0  0
 20 22  1  0  0  0  0
 20 23  1  0  0  0  0
 24 25  2  0  0  0  0
 24 26  1  0  0  0  0
 26 27  1  0  0  0  0
 26 28  1  0  0  0  0
 28 29  1  0  0  0  0
 28 30  1  0  0  0  0
 28 31  1  0  0  0  0
M  END
$$$$

  -OEChem-01062216083D

 31 30  0     1  0  0  0  0  0999 V2000
   -3.6414   -2.7036    0.9555 H   0  0  0  0  0  0  0  0  0  0  0  0
   -3.5284   -1.7287    0.4726 C   0  0  0  0  0  0  0  0  0  0  0  0
   -4.1918   -1.0143    0.9657 H   0  0  0  0  0  0  0  0  0  0  0  0
   -3.8160   -1.8218   -0.5773 H   0  0  0  0  0  0  0  0  0  0  0  0
   -2.0892   -1.2596    0.5767 C   0  0  0  0  0  0  0  0  0  0  0  0
   -1.2727   -1.9766    1.1228 O   0  0  0  0  0  0  0  0  0  0  0  0
   -1.7459   -0.0284    0.0467 N   0  0  0  0  0  0  0  0  0  0  0  0
   -2.5153    0.5110   -0.3369 H   0  0  0  0  0  0  0  0  0  0  0  0
   -0.4247    0.6307    0.1284 C   0  0  1  0  0  0  0  0  0  0  0  0
   -0.4717    1.5580   -0.4456 H   0  0  0  0  0  0  0  0  0  0  0  0
   -0.0954    0.9914    1.5976 C   0  0  0  0  0  0  0  0  0  0  0  0
   -0.1317    0.0841    2.2097 H   0  0  0  0  0  0  0  0  0  0  0  0
    0.9343    1.3622    1.6460 H   0  0  0  0  0  0  0  0  0  0  0  0
   -1.0269    2.0612    2.2083 C   0  0  0  0  0  0  0  0  0  0  0  0
   -2.0658    1.7268    2.1231 H   0  0  0  0  0  0  0  0  0  0  0  0
   -0.6970    2.2190    3.6971 C   0  0  0  0  0  0  0  0  0  0  0  0
    0.3369    2.5537    3.8307 H   0  0  0  0  0  0  0  0  0  0  0  0
   -1.3634    2.9526    4.1615 H   0  0  0  0  0  0  0  0  0  0  0  0
   -0.8233    1.2653    4.2192 H   0  0  0  0  0  0  0  0  0  0  0  0
   -0.8863    3.4253    1.5168 C   0  0  0  0  0  0  0  0  0  0  0  0
   -1.2634    3.3865    0.4916 H   0  0  0  0  0  0  0  0  0  0  0  0
   -1.4628    4.1847    2.0544 H   0  0  0  0  0  0  0  0  0  0  0  0
    0.1623    3.7393    1.4941 H   0  0  0  0  0  0  0  0  0  0  0  0
    0.7199   -0.1928   -0.5201 C   0  0  0  0  0  0  0  0  0  0  0  0
    1.5469   -0.8047    0.1435 O   0  0  0  0  0  0  0  0  0  0  0  0
    0.9954    0.0044   -1.8629 N   0  0  0  0  0  0  0  0  0  0  0  0
    0.3101    0.5138   -2.4104 H   0  0  0  0  0  0  0  0  0  0  0  0
    2.1190   -0.6222   -2.5496 C   0  0  0  0  0  0  0  0  0  0  0  0
    2.0404   -1.7131   -2.4954 H   0  0  0  0  0  0  0  0  0  0  0  0
    2.1308   -0.3271   -3.6031 H   0  0  0  0  0  0  0  0  0  0  0  0
    3.0663   -0.3144   -2.0946 H   0  0  0  0  0  0  0  0  0  0  0  0
  1  2  1  0  0  0  0
  2  3  1  0  0  0  0
  2  4  1  0  0  0  0
  2  5  1  0  0  0  0
  5  6  2  0  0  0  0
  5  7  1  0  0  0  0
  7  8  1  0  0  0  0
  7  9  1  0  0  0  0
  9 10  1  0  0  0  0
  9 11  1  0  0  0  0
  9 24  1  0  0  0  0
 11 12  1  0  0  0  0
 11 13  1  0  0  0  0
 11 14  1  0  0  0  0
 14 15  1  0  0  0  0
 14 16  1  0  0  0  0
 14 20  1  0  0  0  0
 16 17  1  0  0  0  0
 16 18  1  0  0  0  0
 16 19  1  0  0  0  0
 20 21  1  0  0  0  0
 20 22  1  0  0  0  0
 20 23  1  0  0  0  0
 24 25  2  0  0  0  0
 24 26  1  0  0  0  0
 26 27  1  0  0  0  0
 26 28  1  0  0  0  0
 28 29  1  0  0  0  0
 28 30  1  0  0  0  0
 28 31  1  0  0  0  0
M  END
$$$$

  -OEChem-01062216083D

 31 30  0     1  0  0  0  0  0999 V2000
   -3.6403   -2.7694    0.8470 H   0  0  0  0  0  0  0  0  0  0  0  0
   -3.5183   -1.7929    0.3695 C   0  0  0  0  0  0  0  0  0  0  0  0
   -4.2630   -1.1064    0.7792 H   0  0  0  0  0  0  0  0  0  0  0  0
   -3.6842   -1.9055   -0.7045 H   0  0  0  0  0  0  0  0  0  0  0  0
   -2.1219   -1.2567    0.6260 C   0  0  0  0  0  0  0  0  0  0  0  0
   -1.3659   -1.9043    1.3243 O   0  0  0  0  0  0  0  0  0  0  0  0
   -1.7731   -0.0295    0.0880 N   0  0  0  0  0  0  0  0  0  0  0  0
   -2.4984    0.4251   -0.4569 H   0  0  0  0  0  0  0  0  0  0  0  0
   -0.4520    0.6339    0.1460 C   0  0  1  0  0  0  0  0  0  0  0  0
   -0.5214    1.5583   -0.4299 H   0  0  0  0  0  0  0  0  0  0  0  0
   -0.0823    1.0064    1.6018 C   0  0  0  0  0  0  0  0  0  0  0  0
   -0.0996    0.1058    2.2236 H   0  0  0  0  0  0  0  0  0  0  0  0
    0.9482    1.3772    1.6173 H   0  0  0  0  0  0  0  0  0  0  0  0
   -0.9973    2.0798    2.2306 C   0  0  0  0  0  0  0  0  0  0  0  0
   -2.0371    1.7410    2.1772 H   0  0  0  0  0  0  0  0  0  0  0  0
   -0.6251    2.2491    3.7083 C   0  0  0  0  0  0  0  0  0  0  0  0
    0.4100    2.5910    3.8101 H   0  0  0  0  0  0  0  0  0  0  0  0
   -1.2824    2.9813    4.1876 H   0  0  0  0  0  0  0  0  0  0  0  0
   -0.7304    1.2976    4.2392 H   0  0  0  0  0  0  0  0  0  0  0  0
   -0.8815    3.4398    1.5261 C   0  0  0  0  0  0  0  0  0  0  0  0
   -1.2850    3.3920    0.5115 H   0  0  0  0  0  0  0  0  0  0  0  0
   -1.4483    4.1997    2.0732 H   0  0  0  0  0  0  0  0  0  0  0  0
    0.1643    3.7590    1.4746 H   0  0  0  0  0  0  0  0  0  0  0  0
    0.6950   -0.1792   -0.5111 C   0  0  0  0  0  0  0  0  0  0  0  0
    1.3319   -1.0320    0.0905 O   0  0  0  0  0  0  0  0  0  0  0  0
    1.1718    0.2214   -1.7485 N   0  0  0  0  0  0  0  0  0  0  0  0
    0.6695    0.9579   -2.2325 H   0  0  0  0  0  0  0  0  0  0  0  0
    2.3152   -0.4005   -2.4067 C   0  0  0  0  0  0  0  0  0  0  0  0
    2.1197   -1.4624   -2.5895 H   0  0  0  0  0  0  0  0  0  0  0  0
    2.5105    0.0861   -3.3670 H   0  0  0  0  0  0  0  0  0  0  0  0
    3.2121   -0.3094   -1.7850 H   0  0  0  0  0  0  0  0  0  0  0  0
  1  2  1  0  0  0  0
  2  3  1  0  0  0  0
  2  4  1  0  0  0  0
  2  5  1  0  0  0  0
  5  6  2  0  0  0  0
  5  7  1  0  0  0  0
  7  8  1  0  0  0  0
  7  9  1  0  0  0  0
  9 10  1  0  0  0  0
  9 11  1  0  0  0  0
  9 24  1  0  0  0  0
 11 12  1  0  0  0  0
 11 13  1  0  0  0  0
 11 14  1  0  0  0  0
 14 15  1  0  0  0  0
 14 16  1  0  0  0  0
 14 20  1  0  0  0  0
 16 17  1  0  0  0  0
 16 18  1  0  0  0  0
 16 19  1  0  0  0  0
 20 21  1  0  0  0  0
 20 22  1  0  0  0  0
 20 23  1  0  0  0  0
 24 25  2  0  0  0  0
 24 26  1  0  0  0  0
 26 27  1  0  0  0  0
 26 28  1  0  0  0  0
 28 29  1  0  0  0  0
 28 30  1  0  0  0  0
 28 31  1  0  0  0  0
M  END
$$$$

  -OEChem-01062216083D

 31 30  0     1  0  0  0  0  0999 V2000
   -3.5498   -2.8659    0.7151 H   0  0  0  0  0  0  0  0  0  0  0  0
   -3.4339   -1.8963    0.2221 C   0  0  0  0  0  0  0  0  0  0  0  0
   -4.2923   -1.2689    0.4731 H   0  0  0  0  0  0  0  0  0  0  0  0
   -3.4069   -2.0545   -0.8585 H   0  0  0  0  0  0  0  0  0  0  0  0
   -2.1509   -1.2283    0.6811 C   0  0  0  0  0  0  0  0  0  0  0  0
   -1.5154   -1.7455    1.5814 O   0  0  0  0  0  0  0  0  0  0  0  0
   -1.8120   -0.0007    0.1345 N   0  0  0  0  0  0  0  0  0  0  0  0
   -2.4436    0.3150   -0.5940 H   0  0  0  0  0  0  0  0  0  0  0  0
   -0.4860    0.6562    0.1842 C   0  0  1  0  0  0  0  0  0  0  0  0
   -0.5663    1.5775   -0.3954 H   0  0  0  0  0  0  0  0  0  0  0  0
   -0.0743    1.0351    1.6259 C   0  0  0  0  0  0  0  0  0  0  0  0
   -0.0712    0.1422    2.2571 H   0  0  0  0  0  0  0  0  0  0  0  0
    0.9566    1.4046    1.6082 H   0  0  0  0  0  0  0  0  0  0  0  0
   -0.9671    2.1191    2.2678 C   0  0  0  0  0  0  0  0  0  0  0  0
   -2.0098    1.7849    2.2425 H   0  0  0  0  0  0  0  0  0  0  0  0
   -0.5574    2.2985    3.7342 C   0  0  0  0  0  0  0  0  0  0  0  0
    0.4817    2.6351    3.8075 H   0  0  0  0  0  0  0  0  0  0  0  0
   -1.1988    3.0384    4.2231 H   0  0  0  0  0  0  0  0  0  0  0  0
   -0.6552    1.3520    4.2756 H   0  0  0  0  0  0  0  0  0  0  0  0
   -0.8626    3.4733    1.5503 C   0  0  0  0  0  0  0  0  0  0  0  0
   -1.2972    3.4214    0.5487 H   0  0  0  0  0  0  0  0  0  0  0  0
   -1.4077    4.2408    2.1089 H   0  0  0  0  0  0  0  0  0  0  0  0
    0.1832    3.7853    1.4652 H   0  0  0  0  0  0  0  0  0  0  0  0
    0.6559   -0.1575   -0.4795 C   0  0  0  0  0  0  0  0  0  0  0  0
    0.9717   -1.2813   -0.1198 O   0  0  0  0  0  0  0  0  0  0  0  0
    1.3461    0.3995   -1.5434 N   0  0  0  0  0  0  0  0  0  0  0  0
    1.1084    1.3473   -1.8172 H   0  0  0  0  0  0  0  0  0  0  0  0
    2.4533   -0.2692   -2.2179 C   0  0  0  0  0  0  0  0  0  0  0  0
    2.1289   -1.2321   -2.6264 H   0  0  0  0  0  0  0  0  0  0  0  0
    2.8224    0.3481   -3.0425 H   0  0  0  0  0  0  0  0  0  0  0  0
    3.2783   -0.4435   -1.5191 H   0  0  0  0  0  0  0  0  0  0  0  0
  1  2  1  0  0  0  0
  2  3  1  0  0  0  0
  2  4  1  0  0  0  0
  2  5  1  0  0  0  0
  5  6  2  0  0  0  0
  5  7  1  0  0  0  0
  7  8  1  0  0  0  0
  7  9  1  0  0  0  0
  9 10  1  0  0  0  0
  9 11  1  0  0  0  0
  9 24  1  0  0  0  0
 11 12  1  0  0  0  0
 11 13  1  0  0  0  0
 11 14  1  0  0  0  0
 14 15  1  0  0  0  0
 14 16  1  0  0  0  0
 14 20  1  0  0  0  0
 16 17  1  0  0  0  0
 16 18  1  0  0  0  0
 16 19  1  0  0  0  0
 20 21  1  0  0  0  0
 20 22  1  0  0  0  0
 20 23  1  0  0  0  0
 24 25  2  0  0  0  0
 24 26  1  0  0  0  0
 26 27  1  0  0  0  0
 26 28  1  0  0  0  0
 28 29  1  0  0  0  0
 28 30  1  0  0  0  0
 28 31  1  0  0  0  0
M  END
$$$$

  -OEChem-01062216083D

 31 30  0     1  0  0  0  0  0999 V2000
   -3.4768   -2.9159    0.6680 H   0  0  0  0  0  0  0  0  0  0  0  0
   -3.3682   -1.9507    0.1653 C   0  0  0  0  0  0  0  0  0  0  0  0
   -4.2715   -1.3604    0.3354 H   0  0  0  0  0  0  0  0  0  0  0  0
   -3.2484   -2.1272   -0.9062 H   0  0  0  0  0  0  0  0  0  0  0  0
   -2.1565   -1.2148    0.7056 C   0  0  0  0  0  0  0  0  0  0  0  0
   -1.5705   -1.6776    1.6692 O   0  0  0  0  0  0  0  0  0  0  0  0
   -1.8265    0.0146    0.1567 N   0  0  0  0  0  0  0  0  0  0  0  0
   -2.4034    0.2688   -0.6382 H   0  0  0  0  0  0  0  0  0  0  0  0
   -0.4940    0.6574    0.2180 C   0  0  1  0  0  0  0  0  0  0  0  0
   -0.5671    1.5735   -0.3709 H   0  0  0  0  0  0  0  0  0  0  0  0
   -0.0783    1.0466    1.6558 C   0  0  0  0  0  0  0  0  0  0  0  0
   -0.0829    0.1622    2.2983 H   0  0  0  0  0  0  0  0  0  0  0  0
    0.9559    1.4066    1.6356 H   0  0  0  0  0  0  0  0  0  0  0  0
   -0.9593    2.1478    2.2836 C   0  0  0  0  0  0  0  0  0  0  0  0
   -2.0054    1.8236    2.2611 H   0  0  0  0  0  0  0  0  0  0  0  0
   -0.5492    2.3391    3.7486 C   0  0  0  0  0  0  0  0  0  0  0  0
    0.4913    2.6718    3.8201 H   0  0  0  0  0  0  0  0  0  0  0  0
   -1.1880    3.0859    4.2302 H   0  0  0  0  0  0  0  0  0  0  0  0
   -0.6517    1.3977    4.2983 H   0  0  0  0  0  0  0  0  0  0  0  0
   -0.8410    3.4921    1.5494 C   0  0  0  0  0  0  0  0  0  0  0  0
   -1.2795    3.4326    0.5499 H   0  0  0  0  0  0  0  0  0  0  0  0
   -1.3758    4.2724    2.0999 H   0  0  0  0  0  0  0  0  0  0  0  0
    0.2077    3.7914    1.4570 H   0  0  0  0  0  0  0  0  0  0  0  0
    0.6476   -0.1616   -0.4404 C   0  0  0  0  0  0  0  0  0  0  0  0
    0.6774   -1.3839   -0.4340 O   0  0  0  0  0  0  0  0  0  0  0  0
    1.5464    0.4958   -1.2640 N   0  0  0  0  0  0  0  0  0  0  0  0
    1.5235    1.5105   -1.2704 H   0  0  0  0  0  0  0  0  0  0  0  0
    2.6068   -0.1857   -1.9978 C   0  0  0  0  0  0  0  0  0  0  0  0
    2.1830   -0.9195   -2.6915 H   0  0  0  0  0  0  0  0  0  0  0  0
    3.1920    0.5365   -2.5751 H   0  0  0  0  0  0  0  0  0  0  0  0
    3.2797   -0.7031   -1.3059 H   0  0  0  0  0  0  0  0  0  0  0  0
  1  2  1  0  0  0  0
  2  3  1  0  0  0  0
  2  4  1  0  0  0  0
  2  5  1  0  0  0  0
  5  6  2  0  0  0  0
  5  7  1  0  0  0  0
  7  8  1  0  0  0  0
  7  9  1  0  0  0  0
  9 10  1  0  0  0  0
  9 11  1  0  0  0  0
  9 24  1  0  0  0  0
 11 12  1  0  0  0  0
 11 13  1  0  0  0  0
 11 14  1  0  0  0  0
 14 15  1  0  0  0  0
 14 16  1  0  0  0  0
 14 20  1  0  0  0  0
 16 17  1  0  0  0  0
 16 18  1  0  0  0  0
 16 19  1  0  0  0  0
 20 21  1  0  0  0  0
 20 22  1  0  0  0  0
 20 23  1  0  0  0  0
 24 25  2  0  0  0  0
 24 26  1  0  0  0  0
 26 27  1  0  0  0  0
 26 28  1  0  0  0  0
 28 29  1  0  0  0  0
 28 30  1  0  0  0  0
 28 31  1  0  0  0  0
M  END
$$$$

  -OEChem-01062216083D

 31 30  0     1  0  0  0  0  0999 V2000
   -3.4700   -2.9185    0.6744 H   0  0  0  0  0  0  0  0  0  0  0  0
   -3.3723   -1.9462    0.1837 C   0  0  0  0  0  0  0  0  0  0  0  0
   -4.2690   -1.3566    0.3874 H   0  0  0  0  0  0  0  0  0  0  0  0
   -3.2826   -2.1064   -0.8934 H   0  0  0  0  0  0  0  0  0  0  0  0
   -2.1444   -1.2210    0.7018 C   0  0  0  0  0  0  0  0  0  0  0  0
   -1.5209   -1.7055    1.6316 O   0  0  0  0  0  0  0  0  0  0  0  0
   -1.8189    0.0116    0.1578 N   0  0  0  0  0  0  0  0  0  0  0  0
   -2.3930    0.2687   -0.6383 H   0  0  0  0  0  0  0  0  0  0  0  0
   -0.4842    0.6478    0.2278 C   0  0  1  0  0  0  0  0  0  0  0  0
   -0.5473    1.5617   -0.3656 H   0  0  0  0  0  0  0  0  0  0  0  0
   -0.0811    1.0422    1.6691 C   0  0  0  0  0  0  0  0  0  0  0  0
   -0.0995    0.1622    2.3173 H   0  0  0  0  0  0  0  0  0  0  0  0
    0.9546    1.3969    1.6609 H   0  0  0  0  0  0  0  0  0  0  0  0
   -0.9643    2.1509    2.2808 C   0  0  0  0  0  0  0  0  0  0  0  0
   -2.0113    1.8309    2.2480 H   0  0  0  0  0  0  0  0  0  0  0  0
   -0.5712    2.3501    3.7493 C   0  0  0  0  0  0  0  0  0  0  0  0
    0.4709    2.6752    3.8314 H   0  0  0  0  0  0  0  0  0  0  0  0
   -1.2095    3.1062    4.2171 H   0  0  0  0  0  0  0  0  0  0  0  0
   -0.6886    1.4142    4.3049 H   0  0  0  0  0  0  0  0  0  0  0  0
   -0.8328    3.4908    1.5412 C   0  0  0  0  0  0  0  0  0  0  0  0
   -1.2565    3.4265    0.5356 H   0  0  0  0  0  0  0  0  0  0  0  0
   -1.3747    4.2751    2.0791 H   0  0  0  0  0  0  0  0  0  0  0  0
    0.2177    3.7878    1.4632 H   0  0  0  0  0  0  0  0  0  0  0  0
    0.6550   -0.1742   -0.4317 C   0  0  0  0  0  0  0  0  0  0  0  0
    0.5223   -1.3526   -0.7360 O   0  0  0  0  0  0  0  0  0  0  0  0
    1.7295    0.5060   -0.9806 N   0  0  0  0  0  0  0  0  0  0  0  0
    1.8295    1.4892   -0.7482 H   0  0  0  0  0  0  0  0  0  0  0  0
    2.7978   -0.1509   -1.7257 C   0  0  0  0  0  0  0  0  0  0  0  0
    2.3963   -0.6472   -2.6155 H   0  0  0  0  0  0  0  0  0  0  0  0
    3.5422    0.5838   -2.0473 H   0  0  0  0  0  0  0  0  0  0  0  0
    3.2966   -0.8990   -1.1004 H   0  0  0  0  0  0  0  0  0  0  0  0
  1  2  1  0  0  0  0
  2  3  1  0  0  0  0
  2  4  1  0  0  0  0
  2  5  1  0  0  0  0
  5  6  2  0  0  0  0
  5  7  1  0  0  0  0
  7  8  1  0  0  0  0
  7  9  1  0  0  0  0
  9 10  1  0  0  0  0
  9 11  1  0  0  0  0
  9 24  1  0  0  0  0
 11 12  1  0  0  0  0
 11 13  1  0  0  0  0
 11 14  1  0  0  0  0
 14 15  1  0  0  0  0
 14 16  1  0  0  0  0
 14 20  1  0  0  0  0
 16 17  1  0  0  0  0
 16 18  1  0  0  0  0
 16 19  1  0  0  0  0
 20 21  1  0  0  0  0
 20 22  1  0  0  0  0
 20 23  1  0  0  0  0
 24 25  2  0  0  0  0
 24 26  1  0  0  0  0
 26 27  1  0  0  0  0
 26 28  1  0  0  0  0
 28 29  1  0  0  0  0
 28 30  1  0  0  0  0
 28 31  1  0  0  0  0
M  END
$$$$

  -OEChem-01062216083D

 31 30  0     1  0  0  0  0  0999 V2000
   -3.4529   -2.9100    0.6921 H   0  0  0  0  0  0  0  0  0  0  0  0
   -3.3537   -1.9440    0.1893 C   0  0  0  0  0  0  0  0  0  0  0  0
   -4.2494   -1.3500    0.3846 H   0  0  0  0  0  0  0  0  0  0  0  0
   -3.2638   -2.1173   -0.8859 H   0  0  0  0  0  0  0  0  0  0  0  0
   -2.1245   -1.2149    0.6983 C   0  0  0  0  0  0  0  0  0  0  0  0
   -1.4668   -1.7168    1.5954 O   0  0  0  0  0  0  0  0  0  0  0  0
   -1.8097    0.0214    0.1579 N   0  0  0  0  0  0  0  0  0  0  0  0
   -2.3780    0.2723   -0.6446 H   0  0  0  0  0  0  0  0  0  0  0  0
   -0.4767    0.6587    0.2351 C   0  0  1  0  0  0  0  0  0  0  0  0
   -0.5295    1.5729   -0.3594 H   0  0  0  0  0  0  0  0  0  0  0  0
   -0.0869    1.0525    1.6822 C   0  0  0  0  0  0  0  0  0  0  0  0
   -0.1097    0.1726    2.3297 H   0  0  0  0  0  0  0  0  0  0  0  0
    0.9472    1.4106    1.6874 H   0  0  0  0  0  0  0  0  0  0  0  0
   -0.9771    2.1591    2.2874 C   0  0  0  0  0  0  0  0  0  0  0  0
   -2.0235    1.8389    2.2445 H   0  0  0  0  0  0  0  0  0  0  0  0
   -0.5960    2.3555    3.7593 C   0  0  0  0  0  0  0  0  0  0  0  0
    0.4446    2.6829    3.8503 H   0  0  0  0  0  0  0  0  0  0  0  0
   -1.2398    3.1088    4.2239 H   0  0  0  0  0  0  0  0  0  0  0  0
   -0.7152    1.4180    4.3118 H   0  0  0  0  0  0  0  0  0  0  0  0
   -0.8397    3.5006    1.5520 C   0  0  0  0  0  0  0  0  0  0  0  0
   -1.2510    3.4375    0.5413 H   0  0  0  0  0  0  0  0  0  0  0  0
   -1.3897    4.2824    2.0851 H   0  0  0  0  0  0  0  0  0  0  0  0
    0.2110    3.8001    1.4872 H   0  0  0  0  0  0  0  0  0  0  0  0
    0.6510   -0.1753   -0.4295 C   0  0  0  0  0  0  0  0  0  0  0  0
    0.4182   -1.2426   -0.9852 O   0  0  0  0  0  0  0  0  0  0  0  0
    1.8660    0.4313   -0.7013 N   0  0  0  0  0  0  0  0  0  0  0  0
    2.0492    1.3290   -0.2643 H   0  0  0  0  0  0  0  0  0  0  0  0
    2.9404   -0.2219   -1.4404 C   0  0  0  0  0  0  0  0  0  0  0  0
    2.6134   -0.4648   -2.4570 H   0  0  0  0  0  0  0  0  0  0  0  0
    3.8105    0.4382   -1.5067 H   0  0  0  0  0  0  0  0  0  0  0  0
    3.2441   -1.1459   -0.9370 H   0  0  0  0  0  0  0  0  0  0  0  0
  1  2  1  0  0  0  0
  2  3  1  0  0  0  0
  2  4  1  0  0  0  0
  2  5  1  0  0  0  0
  5  6  2  0  0  0  0
  5  7  1  0  0  0  0
  7  8  1  0  0  0  0
  7  9  1  0  0  0  0
  9 10  1  0  0  0  0
  9 11  1  0  0  0  0
  9 24  1  0  0  0  0
 11 12  1  0  0  0  0
 11 13  1  0  0  0  0
 11 14  1  0  0  0  0
 14 15  1  0  0  0  0
 14 16  1  0  0  0  0
 14 20  1  0  0  0  0
 16 17  1  0  0  0  0
 16 18  1  0  0  0  0
 16 19  1  0  0  0  0
 20 21  1  0  0  0  0
 20 22  1  0  0  0  0
 20 23  1  0  0  0  0
 24 25  2  0  0  0  0
 24 26  1  0  0  0  0
 26 27  1  0  0  0  0
 26 28  1  0  0  0  0
 28 29  1  0  0  0  0
 28 30  1  0  0  0  0
 28 31  1  0  0  0  0
M  END
$$$$

  -OEChem-01062216083D

 31 30  0     1  0  0  0  0  0999 V2000
   -3.5270   -2.8824    0.5972 H   0  0  0  0  0  0  0  0  0  0  0  0
   -3.4075   -1.8876    0.1592 C   0  0  0  0  0  0  0  0  0  0  0  0
   -4.2496   -1.2634    0.4669 H   0  0  0  0  0  0  0  0  0  0  0  0
   -3.4082   -1.9818   -0.9297 H   0  0  0  0  0  0  0  0  0  0  0  0
   -2.1034   -1.2654    0.6222 C   0  0  0  0  0  0  0  0  0  0  0  0
   -1.3929   -1.8929    1.3895 O   0  0  0  0  0  0  0  0  0  0  0  0
   -1.7640   -0.0118    0.1432 N   0  0  0  0  0  0  0  0  0  0  0  0
   -2.3551    0.3079   -0.6180 H   0  0  0  0  0  0  0  0  0  0  0  0
   -0.4411    0.6436    0.2510 C   0  0  1  0  0  0  0  0  0  0  0  0
   -0.5698    1.6696   -0.0988 H   0  0  0  0  0  0  0  0  0  0  0  0
    0.1236    0.7179    1.6955 C   0  0  0  0  0  0  0  0  0  0  0  0
    0.2192   -0.2814    2.1250 H   0  0  0  0  0  0  0  0  0  0  0  0
    1.1370    1.1279    1.6602 H   0  0  0  0  0  0  0  0  0  0  0  0
   -0.7054    1.6195    2.6358 C   0  0  0  0  0  0  0  0  0  0  0  0
   -1.7427    1.2679    2.6425 H   0  0  0  0  0  0  0  0  0  0  0  0
   -0.1512    1.5016    4.0604 C   0  0  0  0  0  0  0  0  0  0  0  0
    0.8879    1.8434    4.1025 H   0  0  0  0  0  0  0  0  0  0  0  0
   -0.7450    2.1065    4.7529 H   0  0  0  0  0  0  0  0  0  0  0  0
   -0.1892    0.4612    4.3987 H   0  0  0  0  0  0  0  0  0  0  0  0
   -0.6864    3.0964    2.2131 C   0  0  0  0  0  0  0  0  0  0  0  0
   -1.2227    3.2418    1.2718 H   0  0  0  0  0  0  0  0  0  0  0  0
   -1.1768    3.7144    2.9718 H   0  0  0  0  0  0  0  0  0  0  0  0
    0.3421    3.4505    2.0912 H   0  0  0  0  0  0  0  0  0  0  0  0
    0.5785    0.0262   -0.7418 C   0  0  0  0  0  0  0  0  0  0  0  0
    0.2057   -0.7311   -1.6313 O   0  0  0  0  0  0  0  0  0  0  0  0
    1.8786    0.4995   -0.7972 N   0  0  0  0  0  0  0  0  0  0  0  0
    2.1807    1.1241   -0.0562 H   0  0  0  0  0  0  0  0  0  0  0  0
    2.8663    0.0185   -1.7563 C   0  0  0  0  0  0  0  0  0  0  0  0
    2.5283    0.2053   -2.7810 H   0  0  0  0  0  0  0  0  0  0  0  0
    3.8197    0.5346   -1.6086 H   0  0  0  0  0  0  0  0  0  0  0  0
    3.0306   -1.0568   -1.6298 H   0  0  0  0  0  0  0  0  0  0  0  0
  1  2  1  0  0  0  0
  2  3  1  0  0  0  0
  2  4  1  0  0  0  0
  2  5  1  0  0  0  0
  5  6  2  0  0  0  0
  5  7  1  0  0  0  0
  7  8  1  0  0  0  0
  7  9  1  0  0  0  0
  9 10  1  0  0  0  0
  9 11  1  0  0  0  0
  9 24  1  0  0  0  0
 11 12  1  0  0  0  0
 11 13  1  0  0  0  0
 11 14  1  0  0  0  0
 14 15  1  0  0  0  0
 14 16  1  0  0  0  0
 14 20  1  0  0  0  0
 16 17  1  0  0  0  0
 16 18  1  0  0  0  0
 16 19  1  0  0  0  0
 20 21  1  0  0  0  0
 20 22  1  0  0  0  0
 20 23  1  0  0  0  0
 24 25  2  0  0  0  0
 24 26  1  0  0  0  0
 26 27  1  0  0  0  0
 26 28  1  0  0  0  0
 28 29  1  0  0  0  0
 28 30  1  0  0  0  0
 28 31  1  0  0  0  0
M  END
$$$$

  -OEChem-01062216083D

 31 30  0     1  0  0  0  0  0999 V2000
   -3.5051   -2.8754    0.6081 H   0  0  0  0  0  0  0  0  0  0  0  0
   -3.3912   -1.8776    0.1753 C   0  0  0  0  0  0  0  0  0  0  0  0
   -4.2196   -1.2506    0.5129 H   0  0  0  0  0  0  0  0  0  0  0  0
   -3.4248   -1.9615   -0.9138 H   0  0  0  0  0  0  0  0  0  0  0  0
   -2.0701   -1.2680    0.6055 C   0  0  0  0  0  0  0  0  0  0  0  0
   -1.3282   -1.9159    1.3248 O   0  0  0  0  0  0  0  0  0  0  0  0
   -1.7387   -0.0079    0.1396 N   0  0  0  0  0  0  0  0  0  0  0  0
   -2.3418    0.3305   -0.6042 H   0  0  0  0  0  0  0  0  0  0  0  0
   -0.4217    0.6556    0.2590 C   0  0  1  0  0  0  0  0  0  0  0  0
   -0.5492    1.6825   -0.0887 H   0  0  0  0  0  0  0  0  0  0  0  0
    0.1220    0.7295    1.7126 C   0  0  0  0  0  0  0  0  0  0  0  0
    0.2162   -0.2704    2.1413 H   0  0  0  0  0  0  0  0  0  0  0  0
    1.1314    1.1495    1.6950 H   0  0  0  0  0  0  0  0  0  0  0  0
   -0.7259    1.6240    2.6430 C   0  0  0  0  0  0  0  0  0  0  0  0
   -1.7613    1.2670    2.6335 H   0  0  0  0  0  0  0  0  0  0  0  0
   -0.1914    1.5055    4.0755 C   0  0  0  0  0  0  0  0  0  0  0  0
    0.8458    1.8508    4.1326 H   0  0  0  0  0  0  0  0  0  0  0  0
   -0.7967    2.1078    4.7604 H   0  0  0  0  0  0  0  0  0  0  0  0
   -0.2308    0.4645    4.4123 H   0  0  0  0  0  0  0  0  0  0  0  0
   -0.7085    3.1022    2.2248 C   0  0  0  0  0  0  0  0  0  0  0  0
   -1.2302    3.2476    1.2753 H   0  0  0  0  0  0  0  0  0  0  0  0
   -1.2146    3.7151    2.9772 H   0  0  0  0  0  0  0  0  0  0  0  0
    0.3198    3.4624    2.1206 H   0  0  0  0  0  0  0  0  0  0  0  0
    0.5930    0.0423   -0.7417 C   0  0  0  0  0  0  0  0  0  0  0  0
    0.1900   -0.5023   -1.7642 O   0  0  0  0  0  0  0  0  0  0  0  0
    1.9535    0.2687   -0.6188 N   0  0  0  0  0  0  0  0  0  0  0  0
    2.2791    0.6814    0.2494 H   0  0  0  0  0  0  0  0  0  0  0  0
    2.9392   -0.2565   -1.5563 C   0  0  0  0  0  0  0  0  0  0  0  0
    2.7468    0.1201   -2.5665 H   0  0  0  0  0  0  0  0  0  0  0  0
    3.9457    0.0533   -1.2596 H   0  0  0  0  0  0  0  0  0  0  0  0
    2.9044   -1.3510   -1.5754 H   0  0  0  0  0  0  0  0  0  0  0  0
  1  2  1  0  0  0  0
  2  3  1  0  0  0  0
  2  4  1  0  0  0  0
  2  5  1  0  0  0  0
  5  6  2  0  0  0  0
  5  7  1  0  0  0  0
  7  8  1  0  0  0  0
  7  9  1  0  0  0  0
  9 10  1  0  0  0  0
  9 11  1  0  0  0  0
  9 24  1  0  0  0  0
 11 12  1  0  0  0  0
 11 13  1  0  0  0  0
 11 14  1  0  0  0  0
 14 15  1  0  0  0  0
 14 16  1  0  0  0  0
 14 20  1  0  0  0  0
 16 17  1  0  0  0  0
 16 18  1  0  0  0  0
 16 19  1  0  0  0  0
 20 21  1  0  0  0  0
 20 22  1  0  0  0  0
 20 23  1  0  0  0  0
 24 25  2  0  0  0  0
 24 26  1  0  0  0  0
 26 27  1  0  0  0  0
 26 28  1  0  0  0  0
 28 29  1  0  0  0  0
 28 30  1  0  0  0  0
 28 31  1  0  0  0  0
M  END
$$$$

  -OEChem-01062216083D

 31 30  0     1  0  0  0  0  0999 V2000
   -3.4799   -2.8812    0.5934 H   0  0  0  0  0  0  0  0  0  0  0  0
   -3.3754   -1.8754    0.1767 C   0  0  0  0  0  0  0  0  0  0  0  0
   -4.1999   -1.2567    0.5385 H   0  0  0  0  0  0  0  0  0  0  0  0
   -3.4262   -1.9402   -0.9130 H   0  0  0  0  0  0  0  0  0  0  0  0
   -2.0492   -1.2695    0.5961 C   0  0  0  0  0  0  0  0  0  0  0  0
   -1.2893   -1.9287    1.2861 O   0  0  0  0  0  0  0  0  0  0  0  0
   -1.7209   -0.0060    0.1392 N   0  0  0  0  0  0  0  0  0  0  0  0
   -2.3337    0.3520   -0.5878 H   0  0  0  0  0  0  0  0  0  0  0  0
   -0.4079    0.6600    0.2717 C   0  0  1  0  0  0  0  0  0  0  0  0
   -0.5327    1.6872   -0.0765 H   0  0  0  0  0  0  0  0  0  0  0  0
    0.1208    0.7382    1.7299 C   0  0  0  0  0  0  0  0  0  0  0  0
    0.2119   -0.2606    2.1625 H   0  0  0  0  0  0  0  0  0  0  0  0
    1.1289    1.1630    1.7184 H   0  0  0  0  0  0  0  0  0  0  0  0
   -0.7387    1.6330    2.6491 C   0  0  0  0  0  0  0  0  0  0  0  0
   -1.7734    1.2746    2.6297 H   0  0  0  0  0  0  0  0  0  0  0  0
   -0.2182    1.5184    4.0868 C   0  0  0  0  0  0  0  0  0  0  0  0
    0.8154    1.8725    4.1548 H   0  0  0  0  0  0  0  0  0  0  0  0
   -0.8356    2.1152    4.7655 H   0  0  0  0  0  0  0  0  0  0  0  0
   -0.2522    0.4769    4.4223 H   0  0  0  0  0  0  0  0  0  0  0  0
   -0.7188    3.1106    2.2277 C   0  0  0  0  0  0  0  0  0  0  0  0
   -1.2377    3.2542    1.2762 H   0  0  0  0  0  0  0  0  0  0  0  0
   -1.2261    3.7260    2.9774 H   0  0  0  0  0  0  0  0  0  0  0  0
    0.3102    3.4699    2.1250 H   0  0  0  0  0  0  0  0  0  0  0  0
    0.6041    0.0463   -0.7291 C   0  0  0  0  0  0  0  0  0  0  0  0
    0.2194   -0.2715   -1.8494 O   0  0  0  0  0  0  0  0  0  0  0  0
    1.9612   -0.0051   -0.4604 N   0  0  0  0  0  0  0  0  0  0  0  0
    2.2460    0.1660    0.4989 H   0  0  0  0  0  0  0  0  0  0  0  0
    2.9369   -0.5650   -1.3879 C   0  0  0  0  0  0  0  0  0  0  0  0
    2.9102   -0.0286   -2.3422 H   0  0  0  0  0  0  0  0  0  0  0  0
    3.9456   -0.4778   -0.9731 H   0  0  0  0  0  0  0  0  0  0  0  0
    2.7272   -1.6239   -1.5722 H   0  0  0  0  0  0  0  0  0  0  0  0
  1  2  1  0  0  0  0
  2  3  1  0  0  0  0
  2  4  1  0  0  0  0
  2  5  1  0  0  0  0
  5  6  2  0  0  0  0
  5  7  1  0  0  0  0
  7  8  1  0  0  0  0
  7  9  1  0  0  0  0
  9 10  1  0  0  0  0
  9 11  1  0  0  0  0
  9 24  1  0  0  0  0
 11 12  1  0  0  0  0
 11 13  1  0  0  0  0
 11 14  1  0  0  0  0
 14 15  1  0  0  0  0
 14 16  1  0  0  0  0
 14 20  1  0  0  0  0
 16 17  1  0  0  0  0
 16 18  1  0  0  0  0
 16 19  1  0  0  0  0
 20 21  1  0  0  0  0
 20 22  1  0  0  0  0
 20 23  1  0  0  0  0
 24 25  2  0  0  0  0
 24 26  1  0  0  0  0
 26 27  1  0  0  0  0
 26 28  1  0  0  0  0
 28 29  1  0  0  0  0
 28 30  1  0  0  0  0
 28 31  1  0  0  0  0
M  END
$$$$

  -OEChem-01062216083D

 31 30  0     1  0  0  0  0  0999 V2000
   -3.4767   -2.8646    0.6232 H   0  0  0  0  0  0  0  0  0  0  0  0
   -3.3736   -1.8605    0.2024 C   0  0  0  0  0  0  0  0  0  0  0  0
   -4.1769   -1.2312    0.5927 H   0  0  0  0  0  0  0  0  0  0  0  0
   -3.4640   -1.9243   -0.8848 H   0  0  0  0  0  0  0  0  0  0  0  0
   -2.0258   -1.2722    0.5751 C   0  0  0  0  0  0  0  0  0  0  0  0
   -1.2408   -1.9463    1.2218 O   0  0  0  0  0  0  0  0  0  0  0  0
   -1.7008   -0.0065    0.1231 N   0  0  0  0  0  0  0  0  0  0  0  0
   -2.3353    0.3801   -0.5700 H   0  0  0  0  0  0  0  0  0  0  0  0
   -0.3934    0.6650    0.2693 C   0  0  1  0  0  0  0  0  0  0  0  0
   -0.5177    1.6924   -0.0793 H   0  0  0  0  0  0  0  0  0  0  0  0
    0.1223    0.7433    1.7313 C   0  0  0  0  0  0  0  0  0  0  0  0
    0.2101   -0.2561    2.1634 H   0  0  0  0  0  0  0  0  0  0  0  0
    1.1302    1.1702    1.7244 H   0  0  0  0  0  0  0  0  0  0  0  0
   -0.7485    1.6323    2.6454 C   0  0  0  0  0  0  0  0  0  0  0  0
   -1.7817    1.2699    2.6175 H   0  0  0  0  0  0  0  0  0  0  0  0
   -0.2391    1.5175    4.0871 C   0  0  0  0  0  0  0  0  0  0  0  0
    0.7931    1.8743    4.1632 H   0  0  0  0  0  0  0  0  0  0  0  0
   -0.8632    2.1118    4.7618 H   0  0  0  0  0  0  0  0  0  0  0  0
   -0.2733    0.4759    4.4216 H   0  0  0  0  0  0  0  0  0  0  0  0
   -0.7321    3.1107    2.2268 C   0  0  0  0  0  0  0  0  0  0  0  0
   -1.2438    3.2537    1.2714 H   0  0  0  0  0  0  0  0  0  0  0  0
   -1.2488    3.7223    2.9732 H   0  0  0  0  0  0  0  0  0  0  0  0
    0.2959    3.4749    2.1333 H   0  0  0  0  0  0  0  0  0  0  0  0
    0.6250    0.0539   -0.7234 C   0  0  0  0  0  0  0  0  0  0  0  0
    0.3097   -0.0537   -1.9032 O   0  0  0  0  0  0  0  0  0  0  0  0
    1.9144   -0.2769   -0.3444 N   0  0  0  0  0  0  0  0  0  0  0  0
    2.0958   -0.3210    0.6540 H   0  0  0  0  0  0  0  0  0  0  0  0
    2.8741   -0.8917   -1.2530 C   0  0  0  0  0  0  0  0  0  0  0  0
    3.0398   -0.2512   -2.1256 H   0  0  0  0  0  0  0  0  0  0  0  0
    3.8331   -1.0382   -0.7472 H   0  0  0  0  0  0  0  0  0  0  0  0
    2.5081   -1.8655   -1.5946 H   0  0  0  0  0  0  0  0  0  0  0  0
  1  2  1  0  0  0  0
  2  3  1  0  0  0  0
  2  4  1  0  0  0  0
  2  5  1  0  0  0  0
  5  6  2  0  0  0  0
  5  7  1  0  0  0  0
  7  8  1  0  0  0  0
  7  9  1  0  0  0  0
  9 10  1  0  0  0  0
  9 11  1  0  0  0  0
  9 24  1  0  0  0  0
 11 12  1  0  0  0  0
 11 13  1  0  0  0  0
 11 14  1  0  0  0  0
 14 15  1  0  0  0  0
 14 16  1  0  0  0  0
 14 20  1  0  0  0  0
 16 17  1  0  0  0  0
 16 18  1  0  0  0  0
 16 19  1  0  0  0  0
 20 21  1  0  0  0  0
 20 22  1  0  0  0  0
 20 23  1  0  0  0  0
 24 25  2  0  0  0  0
 24 26  1  0  0  0  0
 26 27  1  0  0  0  0
 26 28  1  0  0  0  0
 28 29  1  0  0  0  0
 28 30  1  0  0  0  0
 28 31  1  0  0  0  0
M  END
$$$$

  -OEChem-01062216083D

 31 30  0     1  0  0  0  0  0999 V2000
   -3.4776   -2.8499    0.6524 H   0  0  0  0  0  0  0  0  0  0  0  0
   -3.3768   -1.8466    0.2287 C   0  0  0  0  0  0  0  0  0  0  0  0
   -4.1584   -1.2079    0.6469 H   0  0  0  0  0  0  0  0  0  0  0  0
   -3.5054   -1.9079   -0.8547 H   0  0  0  0  0  0  0  0  0  0  0  0
   -2.0099   -1.2749    0.5557 C   0  0  0  0  0  0  0  0  0  0  0  0
   -1.2036   -1.9625    1.1612 O   0  0  0  0  0  0  0  0  0  0  0  0
   -1.6849   -0.0093    0.1047 N   0  0  0  0  0  0  0  0  0  0  0  0
   -2.3465    0.4124   -0.5410 H   0  0  0  0  0  0  0  0  0  0  0  0
   -0.3816    0.6651    0.2629 C   0  0  1  0  0  0  0  0  0  0  0  0
   -0.5049    1.6925   -0.0862 H   0  0  0  0  0  0  0  0  0  0  0  0
    0.1241    0.7439    1.7276 C   0  0  0  0  0  0  0  0  0  0  0  0
    0.2065   -0.2556    2.1607 H   0  0  0  0  0  0  0  0  0  0  0  0
    1.1340    1.1673    1.7231 H   0  0  0  0  0  0  0  0  0  0  0  0
   -0.7535    1.6297    2.6382 C   0  0  0  0  0  0  0  0  0  0  0  0
   -1.7854    1.2646    2.6040 H   0  0  0  0  0  0  0  0  0  0  0  0
   -0.2512    1.5140    4.0823 C   0  0  0  0  0  0  0  0  0  0  0  0
    0.7812    1.8691    4.1625 H   0  0  0  0  0  0  0  0  0  0  0  0
   -0.8771    2.1100    4.7539 H   0  0  0  0  0  0  0  0  0  0  0  0
   -0.2887    0.4724    4.4173 H   0  0  0  0  0  0  0  0  0  0  0  0
   -0.7380    3.1083    2.2219 C   0  0  0  0  0  0  0  0  0  0  0  0
   -1.2420    3.2512    1.2625 H   0  0  0  0  0  0  0  0  0  0  0  0
   -1.2625    3.7172    2.9648 H   0  0  0  0  0  0  0  0  0  0  0  0
    0.2899    3.4750    2.1377 H   0  0  0  0  0  0  0  0  0  0  0  0
    0.6459    0.0551   -0.7173 C   0  0  0  0  0  0  0  0  0  0  0  0
    0.4442    0.1536   -1.9220 O   0  0  0  0  0  0  0  0  0  0  0  0
    1.8089   -0.5485   -0.2733 N   0  0  0  0  0  0  0  0  0  0  0  0
    1.8366   -0.7882    0.7141 H   0  0  0  0  0  0  0  0  0  0  0  0
    2.7458   -1.2108   -1.1719 C   0  0  0  0  0  0  0  0  0  0  0  0
    3.1140   -0.5087   -1.9274 H   0  0  0  0  0  0  0  0  0  0  0  0
    3.6037   -1.5912   -0.6094 H   0  0  0  0  0  0  0  0  0  0  0  0
    2.2605   -2.0516   -1.6784 H   0  0  0  0  0  0  0  0  0  0  0  0
  1  2  1  0  0  0  0
  2  3  1  0  0  0  0
  2  4  1  0  0  0  0
  2  5  1  0  0  0  0
  5  6  2  0  0  0  0
  5  7  1  0  0  0  0
  7  8  1  0  0  0  0
  7  9  1  0  0  0  0
  9 10  1  0  0  0  0
  9 11  1  0  0  0  0
  9 24  1  0  0  0  0
 11 12  1  0  0  0  0
 11 13  1  0  0  0  0
 11 14  1  0  0  0  0
 14 15  1  0  0  0  0
 14 16  1  0  0  0  0
 14 20  1  0  0  0  0
 16 17  1  0  0  0  0
 16 18  1  0  0  0  0
 16 19  1  0  0  0  0
 20 21  1  0  0  0  0
 20 22  1  0  0  0  0
 20 23  1  0  0  0  0
 24 25  2  0  0  0  0
 24 26  1  0  0  0  0
 26 27  1  0  0  0  0
 26 28  1  0  0  0  0
 28 29  1  0  0  0  0
 28 30  1  0  0  0  0
 28 31  1  0  0  0  0
M  END
$$$$

  -OEChem-01062216083D

 31 30  0     1  0  0  0  0  0999 V2000
   -3.4859   -2.8265    0.7015 H   0  0  0  0  0  0  0  0  0  0  0  0
   -3.3872   -1.8256    0.2720 C   0  0  0  0  0  0  0  0  0  0  0  0
   -4.1377   -1.1732    0.7247 H   0  0  0  0  0  0  0  0  0  0  0  0
   -3.5665   -1.8855   -0.8043 H   0  0  0  0  0  0  0  0  0  0  0  0
   -1.9973   -1.2778    0.5354 C   0  0  0  0  0  0  0  0  0  0  0  0
   -1.1685   -1.9827    1.0897 O   0  0  0  0  0  0  0  0  0  0  0  0
   -1.6715   -0.0136    0.0816 N   0  0  0  0  0  0  0  0  0  0  0  0
   -2.3682    0.4524   -0.4928 H   0  0  0  0  0  0  0  0  0  0  0  0
   -0.3699    0.6592    0.2509 C   0  0  1  0  0  0  0  0  0  0  0  0
   -0.4895    1.6870   -0.0991 H   0  0  0  0  0  0  0  0  0  0  0  0
    0.1257    0.7354    1.7183 C   0  0  0  0  0  0  0  0  0  0  0  0
    0.1994   -0.2645    2.1519 H   0  0  0  0  0  0  0  0  0  0  0  0
    1.1388    1.1517    1.7187 H   0  0  0  0  0  0  0  0  0  0  0  0
   -0.7575    1.6208    2.6241 C   0  0  0  0  0  0  0  0  0  0  0  0
   -1.7897    1.2570    2.5823 H   0  0  0  0  0  0  0  0  0  0  0  0
   -0.2659    1.5033    4.0716 C   0  0  0  0  0  0  0  0  0  0  0  0
    0.7658    1.8583    4.1596 H   0  0  0  0  0  0  0  0  0  0  0  0
   -0.8965    2.0986    4.7391 H   0  0  0  0  0  0  0  0  0  0  0  0
   -0.3055    0.4615    4.4050 H   0  0  0  0  0  0  0  0  0  0  0  0
   -0.7377    3.0996    2.2085 C   0  0  0  0  0  0  0  0  0  0  0  0
   -1.2369    3.2437    1.2467 H   0  0  0  0  0  0  0  0  0  0  0  0
   -1.2642    3.7093    2.9492 H   0  0  0  0  0  0  0  0  0  0  0  0
    0.2912    3.4643    2.1289 H   0  0  0  0  0  0  0  0  0  0  0  0
    0.6675    0.0470   -0.7143 C   0  0  0  0  0  0  0  0  0  0  0  0
    0.6325    0.3528   -1.9000 O   0  0  0  0  0  0  0  0  0  0  0  0
    1.6508   -0.8106   -0.2568 N   0  0  0  0  0  0  0  0  0  0  0  0
    1.4760   -1.2218    0.6579 H   0  0  0  0  0  0  0  0  0  0  0  0
    2.5720   -1.4963   -1.1536 C   0  0  0  0  0  0  0  0  0  0  0  0
    3.1380   -0.7725   -1.7495 H   0  0  0  0  0  0  0  0  0  0  0  0
    3.2827   -2.0967   -0.5777 H   0  0  0  0  0  0  0  0  0  0  0  0
    2.0240   -2.1592   -1.8311 H   0  0  0  0  0  0  0  0  0  0  0  0
  1  2  1  0  0  0  0
  2  3  1  0  0  0  0
  2  4  1  0  0  0  0
  2  5  1  0  0  0  0
  5  6  2  0  0  0  0
  5  7  1  0  0  0  0
  7  8  1  0  0  0  0
  7  9  1  0  0  0  0
  9 10  1  0  0  0  0
  9 11  1  0  0  0  0
  9 24  1  0  0  0  0
 11 12  1  0  0  0  0
 11 13  1  0  0  0  0
 11 14  1  0  0  0  0
 14 15  1  0  0  0  0
 14 16  1  0  0  0  0
 14 20  1  0  0  0  0
 16 17  1  0  0  0  0
 16 18  1  0  0  0  0
 16 19  1  0  0  0  0
 20 21  1  0  0  0  0
 20 22  1  0  0  0  0
 20 23  1  0  0  0  0
 24 25  2  0  0  0  0
 24 26  1  0  0  0  0
 26 27  1  0  0  0  0
 26 28  1  0  0  0  0
 28 29  1  0  0  0  0
 28 30  1  0  0  0  0
 28 31  1  0  0  0  0
M  END
$$$$

  -OEChem-01062216083D

 31 30  0     1  0  0  0  0  0999 V2000
   -3.5175   -2.7849    0.7822 H   0  0  0  0  0  0  0  0  0  0  0  0
   -3.4131   -1.7949    0.3295 C   0  0  0  0  0  0  0  0  0  0  0  0
   -4.1233   -1.1146    0.8055 H   0  0  0  0  0  0  0  0  0  0  0  0
   -3.6459   -1.8684   -0.7356 H   0  0  0  0  0  0  0  0  0  0  0  0
   -1.9980   -1.2807    0.5158 C   0  0  0  0  0  0  0  0  0  0  0  0
   -1.1530   -2.0074    1.0169 O   0  0  0  0  0  0  0  0  0  0  0  0
   -1.6674   -0.0202    0.0539 N   0  0  0  0  0  0  0  0  0  0  0  0
   -2.3977    0.4897   -0.4350 H   0  0  0  0  0  0  0  0  0  0  0  0
   -0.3648    0.6504    0.2287 C   0  0  1  0  0  0  0  0  0  0  0  0
   -0.4809    1.6791   -0.1212 H   0  0  0  0  0  0  0  0  0  0  0  0
    0.1237    0.7200    1.6980 C   0  0  0  0  0  0  0  0  0  0  0  0
    0.1905   -0.2824    2.1275 H   0  0  0  0  0  0  0  0  0  0  0  0
    1.1396    1.1299    1.7038 H   0  0  0  0  0  0  0  0  0  0  0  0
   -0.7612    1.6035    2.6040 C   0  0  0  0  0  0  0  0  0  0  0  0
   -1.7941    1.2431    2.5567 H   0  0  0  0  0  0  0  0  0  0  0  0
   -0.2763    1.4792    4.0534 C   0  0  0  0  0  0  0  0  0  0  0  0
    0.7553    1.8333    4.1484 H   0  0  0  0  0  0  0  0  0  0  0  0
   -0.9102    2.0713    4.7207 H   0  0  0  0  0  0  0  0  0  0  0  0
   -0.3178    0.4358    4.3818 H   0  0  0  0  0  0  0  0  0  0  0  0
   -0.7349    3.0837    2.1935 C   0  0  0  0  0  0  0  0  0  0  0  0
   -1.2330    3.2328    1.2318 H   0  0  0  0  0  0  0  0  0  0  0  0
   -1.2590    3.6936    2.9359 H   0  0  0  0  0  0  0  0  0  0  0  0
    0.2956    3.4444    2.1152 H   0  0  0  0  0  0  0  0  0  0  0  0
    0.6847    0.0345   -0.7194 C   0  0  0  0  0  0  0  0  0  0  0  0
    0.8587    0.5224   -1.8291 O   0  0  0  0  0  0  0  0  0  0  0  0
    1.4520   -1.0384   -0.3078 N   0  0  0  0  0  0  0  0  0  0  0  0
    1.0692   -1.5540    0.4856 H   0  0  0  0  0  0  0  0  0  0  0  0
    2.3753   -1.7315   -1.1965 C   0  0  0  0  0  0  0  0  0  0  0  0
    3.1182   -1.0345   -1.5986 H   0  0  0  0  0  0  0  0  0  0  0  0
    2.9040   -2.5187   -0.6505 H   0  0  0  0  0  0  0  0  0  0  0  0
    1.8333   -2.1890   -2.0305 H   0  0  0  0  0  0  0  0  0  0  0  0
  1  2  1  0  0  0  0
  2  3  1  0  0  0  0
  2  4  1  0  0  0  0
  2  5  1  0  0  0  0
  5  6  2  0  0  0  0
  5  7  1  0  0  0  0
  7  8  1  0  0  0  0
  7  9  1  0  0  0  0
  9 10  1  0  0  0  0
  9 11  1  0  0  0  0
  9 24  1  0  0  0  0
 11 12  1  0  0  0  0
 11 13  1  0  0  0  0
 11 14  1  0  0  0  0
 14 15  1  0  0  0  0
 14 16  1  0  0  0  0
 14 20  1  0  0  0  0
 16 17  1  0  0  0  0
 16 18  1  0  0  0  0
 16 19  1  0  0  0  0
 20 21  1  0  0  0  0
 20 22  1  0  0  0  0
 20 23  1  0  0  0  0
 24 25  2  0  0  0  0
 24 26  1  0  0  0  0
 26 27  1  0  0  0  0
 26 28  1  0  0  0  0
 28 29  1  0  0  0  0
 28 30  1  0  0  0  0
 28 31  1  0  0  0  0
M  END
$$$$

  -OEChem-01062216083D

 31 30  0     1  0  0  0  0  0999 V2000
   -3.5820   -2.7399    0.8387 H   0  0  0  0  0  0  0  0  0  0  0  0
   -3.4569   -1.7650    0.3591 C   0  0  0  0  0  0  0  0  0  0  0  0
   -4.1462   -1.0551    0.8228 H   0  0  0  0  0  0  0  0  0  0  0  0
   -3.7013   -1.8603   -0.7018 H   0  0  0  0  0  0  0  0  0  0  0  0
   -2.0278   -1.2821    0.5195 C   0  0  0  0  0  0  0  0  0  0  0  0
   -1.1913   -2.0270    1.0074 O   0  0  0  0  0  0  0  0  0  0  0  0
   -1.6791   -0.0308    0.0455 N   0  0  0  0  0  0  0  0  0  0  0  0
   -2.4190    0.4985   -0.4069 H   0  0  0  0  0  0  0  0  0  0  0  0
   -0.3727    0.6388    0.2114 C   0  0  1  0  0  0  0  0  0  0  0  0
   -0.4892    1.6668   -0.1407 H   0  0  0  0  0  0  0  0  0  0  0  0
    0.1205    0.7036    1.6777 C   0  0  0  0  0  0  0  0  0  0  0  0
    0.1881   -0.3013    2.1012 H   0  0  0  0  0  0  0  0  0  0  0  0
    1.1373    1.1113    1.6809 H   0  0  0  0  0  0  0  0  0  0  0  0
   -0.7587    1.5858    2.5905 C   0  0  0  0  0  0  0  0  0  0  0  0
   -1.7926    1.2274    2.5475 H   0  0  0  0  0  0  0  0  0  0  0  0
   -0.2666    1.4552    4.0368 C   0  0  0  0  0  0  0  0  0  0  0  0
    0.7642    1.8125    4.1277 H   0  0  0  0  0  0  0  0  0  0  0  0
   -0.8988    2.0419    4.7105 H   0  0  0  0  0  0  0  0  0  0  0  0
   -0.3023    0.4100    4.3603 H   0  0  0  0  0  0  0  0  0  0  0  0
   -0.7322    3.0668    2.1840 C   0  0  0  0  0  0  0  0  0  0  0  0
   -1.2314    3.2186    1.2234 H   0  0  0  0  0  0  0  0  0  0  0  0
   -1.2547    3.6749    2.9289 H   0  0  0  0  0  0  0  0  0  0  0  0
    0.2984    3.4268    2.1050 H   0  0  0  0  0  0  0  0  0  0  0  0
    0.6913    0.0213   -0.7194 C   0  0  0  0  0  0  0  0  0  0  0  0
    1.0607    0.6335   -1.7133 O   0  0  0  0  0  0  0  0  0  0  0  0
    1.2403   -1.2113   -0.4237 N   0  0  0  0  0  0  0  0  0  0  0  0
    0.7324   -1.7538    0.2793 H   0  0  0  0  0  0  0  0  0  0  0  0
    2.1585   -1.9083   -1.3137 C   0  0  0  0  0  0  0  0  0  0  0  0
    3.0388   -1.2898   -1.5179 H   0  0  0  0  0  0  0  0  0  0  0  0
    2.4943   -2.8419   -0.8524 H   0  0  0  0  0  0  0  0  0  0  0  0
    1.6661   -2.1453   -2.2624 H   0  0  0  0  0  0  0  0  0  0  0  0
  1  2  1  0  0  0  0
  2  3  1  0  0  0  0
  2  4  1  0  0  0  0
  2  5  1  0  0  0  0
  5  6  2  0  0  0  0
  5  7  1  0  0  0  0
  7  8  1  0  0  0  0
  7  9  1  0  0  0  0
  9 10  1  0  0  0  0
  9 11  1  0  0  0  0
  9 24  1  0  0  0  0
 11 12  1  0  0  0  0
 11 13  1  0  0  0  0
 11 14  1  0  0  0  0
 14 15  1  0  0  0  0
 14 16  1  0  0  0  0
 14 20  1  0  0  0  0
 16 17  1  0  0  0  0
 16 18  1  0  0  0  0
 16 19  1  0  0  0  0
 20 21  1  0  0  0  0
 20 22  1  0  0  0  0
 20 23  1  0  0  0  0
 24 25  2  0  0  0  0
 24 26  1  0  0  0  0
 26 27  1  0  0  0  0
 26 28  1  0  0  0  0
 28 29  1  0  0  0  0
 28 30  1  0  0  0  0
 28 31  1  0  0  0  0
M  END
$$$$

  -OEChem-01062216083D

 31 30  0     1  0  0  0  0  0999 V2000
   -3.6600   -2.7101    0.8669 H   0  0  0  0  0  0  0  0  0  0  0  0
   -3.5257   -1.7284    0.4040 C   0  0  0  0  0  0  0  0  0  0  0  0
   -4.1831   -1.0124    0.9030 H   0  0  0  0  0  0  0  0  0  0  0  0
   -3.8034   -1.7957   -0.6507 H   0  0  0  0  0  0  0  0  0  0  0  0
   -2.0813   -1.2826    0.5312 C   0  0  0  0  0  0  0  0  0  0  0  0
   -1.2561   -2.0488    1.0038 O   0  0  0  0  0  0  0  0  0  0  0  0
   -1.7125   -0.0424    0.0432 N   0  0  0  0  0  0  0  0  0  0  0  0
   -2.4578    0.5037   -0.3793 H   0  0  0  0  0  0  0  0  0  0  0  0
   -0.3980    0.6203    0.1882 C   0  0  1  0  0  0  0  0  0  0  0  0
   -0.5145    1.6479   -0.1652 H   0  0  0  0  0  0  0  0  0  0  0  0
    0.1078    0.6798    1.6489 C   0  0  0  0  0  0  0  0  0  0  0  0
    0.1725   -0.3279    2.0675 H   0  0  0  0  0  0  0  0  0  0  0  0
    1.1276    1.0801    1.6437 H   0  0  0  0  0  0  0  0  0  0  0  0
   -0.7562    1.5666    2.5718 C   0  0  0  0  0  0  0  0  0  0  0  0
   -1.7931    1.2164    2.5375 H   0  0  0  0  0  0  0  0  0  0  0  0
   -0.2515    1.4295    4.0129 C   0  0  0  0  0  0  0  0  0  0  0  0
    0.7869    1.7670    4.0926 H   0  0  0  0  0  0  0  0  0  0  0  0
   -0.8651    2.0292    4.6923 H   0  0  0  0  0  0  0  0  0  0  0  0
   -0.3041    0.3856    4.3381 H   0  0  0  0  0  0  0  0  0  0  0  0
   -0.7217    3.0484    2.1685 C   0  0  0  0  0  0  0  0  0  0  0  0
   -1.2214    3.2057    1.2090 H   0  0  0  0  0  0  0  0  0  0  0  0
   -1.2398    3.6574    2.9159 H   0  0  0  0  0  0  0  0  0  0  0  0
    0.3110    3.4029    2.0890 H   0  0  0  0  0  0  0  0  0  0  0  0
    0.6753    0.0028   -0.7337 C   0  0  0  0  0  0  0  0  0  0  0  0
    1.2351    0.7021   -1.5681 O   0  0  0  0  0  0  0  0  0  0  0  0
    1.0160   -1.3304   -0.6198 N   0  0  0  0  0  0  0  0  0  0  0  0
    0.4529   -1.8842    0.0312 H   0  0  0  0  0  0  0  0  0  0  0  0
    1.9718   -2.0026   -1.4884 C   0  0  0  0  0  0  0  0  0  0  0  0
    2.9437   -1.4997   -1.4502 H   0  0  0  0  0  0  0  0  0  0  0  0
    2.1074   -3.0395   -1.1668 H   0  0  0  0  0  0  0  0  0  0  0  0
    1.6142   -2.0028   -2.5231 H   0  0  0  0  0  0  0  0  0  0  0  0
  1  2  1  0  0  0  0
  2  3  1  0  0  0  0
  2  4  1  0  0  0  0
  2  5  1  0  0  0  0
  5  6  2  0  0  0  0
  5  7  1  0  0  0  0
  7  8  1  0  0  0  0
  7  9  1  0  0  0  0
  9 10  1  0  0  0  0
  9 11  1  0  0  0  0
  9 24  1  0  0  0  0
 11 12  1  0  0  0  0
 11 13  1  0  0  0  0
 11 14  1  0  0  0  0
 14 15  1  0  0  0  0
 14 16  1  0  0  0  0
 14 20  1  0  0  0  0
 16 17  1  0  0  0  0
 16 18  1  0  0  0  0
 16 19  1  0  0  0  0
 20 21  1  0  0  0  0
 20 22  1  0  0  0  0
 20 23  1  0  0  0  0
 24 25  2  0  0  0  0
 24 26  1  0  0  0  0
 26 27  1  0  0  0  0
 26 28  1  0  0  0  0
 28 29  1  0  0  0  0
 28 30  1  0  0  0  0
 28 31  1  0  0  0  0
M  END
$$$$

  -OEChem-01062216083D

 31 30  0     1  0  0  0  0  0999 V2000
   -3.7325   -2.6674    0.9414 H   0  0  0  0  0  0  0  0  0  0  0  0
   -3.5938   -1.6924    0.4657 C   0  0  0  0  0  0  0  0  0  0  0  0
   -4.2152   -0.9581    0.9842 H   0  0  0  0  0  0  0  0  0  0  0  0
   -3.9141   -1.7608   -0.5769 H   0  0  0  0  0  0  0  0  0  0  0  0
   -2.1358   -1.2792    0.5338 C   0  0  0  0  0  0  0  0  0  0  0  0
   -1.3083   -2.0686    0.9610 O   0  0  0  0  0  0  0  0  0  0  0  0
   -1.7599   -0.0445    0.0376 N   0  0  0  0  0  0  0  0  0  0  0  0
   -2.5149    0.5230   -0.3367 H   0  0  0  0  0  0  0  0  0  0  0  0
   -0.4357    0.6079    0.1573 C   0  0  1  0  0  0  0  0  0  0  0  0
   -0.5520    1.6369   -0.1920 H   0  0  0  0  0  0  0  0  0  0  0  0
    0.0897    0.6557    1.6109 C   0  0  0  0  0  0  0  0  0  0  0  0
    0.1515   -0.3556    2.0214 H   0  0  0  0  0  0  0  0  0  0  0  0
    1.1129    1.0474    1.5950 H   0  0  0  0  0  0  0  0  0  0  0  0
   -0.7530    1.5457    2.5498 C   0  0  0  0  0  0  0  0  0  0  0  0
   -1.7936    1.2064    2.5282 H   0  0  0  0  0  0  0  0  0  0  0  0
   -0.2297    1.3962    3.9829 C   0  0  0  0  0  0  0  0  0  0  0  0
    0.8125    1.7243    4.0507 H   0  0  0  0  0  0  0  0  0  0  0  0
   -0.8290    1.9974    4.6736 H   0  0  0  0  0  0  0  0  0  0  0  0
   -0.2870    0.3510    4.3026 H   0  0  0  0  0  0  0  0  0  0  0  0
   -0.7086    3.0291    2.1534 C   0  0  0  0  0  0  0  0  0  0  0  0
   -1.2208    3.1968    1.2024 H   0  0  0  0  0  0  0  0  0  0  0  0
   -1.2085    3.6400    2.9116 H   0  0  0  0  0  0  0  0  0  0  0  0
    0.3265    3.3729    2.0599 H   0  0  0  0  0  0  0  0  0  0  0  0
    0.6353   -0.0041   -0.7729 C   0  0  0  0  0  0  0  0  0  0  0  0
    1.3723    0.7360   -1.4114 O   0  0  0  0  0  0  0  0  0  0  0  0
    0.7784   -1.3724   -0.8921 N   0  0  0  0  0  0  0  0  0  0  0  0
    0.1938   -1.9418   -0.2745 H   0  0  0  0  0  0  0  0  0  0  0  0
    1.8091   -2.0158   -1.6943 C   0  0  0  0  0  0  0  0  0  0  0  0
    2.8043   -1.6999   -1.3647 H   0  0  0  0  0  0  0  0  0  0  0  0
    1.7398   -3.1031   -1.5938 H   0  0  0  0  0  0  0  0  0  0  0  0
    1.6878   -1.7571   -2.7513 H   0  0  0  0  0  0  0  0  0  0  0  0
  1  2  1  0  0  0  0
  2  3  1  0  0  0  0
  2  4  1  0  0  0  0
  2  5  1  0  0  0  0
  5  6  2  0  0  0  0
  5  7  1  0  0  0  0
  7  8  1  0  0  0  0
  7  9  1  0  0  0  0
  9 10  1  0  0  0  0
  9 11  1  0  0  0  0
  9 24  1  0  0  0  0
 11 12  1  0  0  0  0
 11 13  1  0  0  0  0
 11 14  1  0  0  0  0
 14 15  1  0  0  0  0
 14 16  1  0  0  0  0
 14 20  1  0  0  0  0
 16 17  1  0  0  0  0
 16 18  1  0  0  0  0
 16 19  1  0  0  0  0
 20 21  1  0  0  0  0
 20 22  1  0  0  0  0
 20 23  1  0  0  0  0
 24 25  2  0  0  0  0
 24 26  1  0  0  0  0
 26 27  1  0  0  0  0
 26 28  1  0  0  0  0
 28 29  1  0  0  0  0
 28 30  1  0  0  0  0
 28 31  1  0  0  0  0
M  END
$$$$

  -OEChem-01062216083D

 31 30  0     1  0  0  0  0  0999 V2000
   -3.7440   -2.6386    1.0117 H   0  0  0  0  0  0  0  0  0  0  0  0
   -3.6193   -1.6570    0.5456 C   0  0  0  0  0  0  0  0  0  0  0  0
   -4.1883   -0.9219    1.1197 H   0  0  0  0  0  0  0  0  0  0  0  0
   -4.0118   -1.6980   -0.4733 H   0  0  0  0  0  0  0  0  0  0  0  0
   -2.1520   -1.2732    0.5212 C   0  0  0  0  0  0  0  0  0  0  0  0
   -1.3116   -2.0869    0.8688 O   0  0  0  0  0  0  0  0  0  0  0  0
   -1.7815   -0.0398    0.0185 N   0  0  0  0  0  0  0  0  0  0  0  0
   -2.5503    0.5526   -0.2819 H   0  0  0  0  0  0  0  0  0  0  0  0
   -0.4532    0.6082    0.1262 C   0  0  1  0  0  0  0  0  0  0  0  0
   -0.5683    1.6381   -0.2203 H   0  0  0  0  0  0  0  0  0  0  0  0
    0.0740    0.6436    1.5801 C   0  0  0  0  0  0  0  0  0  0  0  0
    0.1298   -0.3718    1.9820 H   0  0  0  0  0  0  0  0  0  0  0  0
    1.0994    1.0296    1.5669 H   0  0  0  0  0  0  0  0  0  0  0  0
   -0.7621    1.5306    2.5281 C   0  0  0  0  0  0  0  0  0  0  0  0
   -1.8045    1.1965    2.5076 H   0  0  0  0  0  0  0  0  0  0  0  0
   -0.2357    1.3670    3.9587 C   0  0  0  0  0  0  0  0  0  0  0  0
    0.8061    1.6964    4.0275 H   0  0  0  0  0  0  0  0  0  0  0  0
   -0.8347    1.9598    4.6568 H   0  0  0  0  0  0  0  0  0  0  0  0
   -0.2900    0.3184    4.2678 H   0  0  0  0  0  0  0  0  0  0  0  0
   -0.7126    3.0162    2.1419 C   0  0  0  0  0  0  0  0  0  0  0  0
   -1.2160    3.1906    1.1874 H   0  0  0  0  0  0  0  0  0  0  0  0
   -1.2188    3.6224    2.8996 H   0  0  0  0  0  0  0  0  0  0  0  0
    0.3238    3.3591    2.0598 H   0  0  0  0  0  0  0  0  0  0  0  0
    0.6210    0.0028   -0.8065 C   0  0  0  0  0  0  0  0  0  0  0  0
    1.5045    0.7260   -1.2487 O   0  0  0  0  0  0  0  0  0  0  0  0
    0.5876   -1.3289   -1.1725 N   0  0  0  0  0  0  0  0  0  0  0  0
   -0.0443   -1.9145   -0.6216 H   0  0  0  0  0  0  0  0  0  0  0  0
    1.6387   -1.9721   -1.9488 C   0  0  0  0  0  0  0  0  0  0  0  0
    2.5921   -1.9308   -1.4120 H   0  0  0  0  0  0  0  0  0  0  0  0
    1.3853   -3.0214   -2.1274 H   0  0  0  0  0  0  0  0  0  0  0  0
    1.7573   -1.4765   -2.9181 H   0  0  0  0  0  0  0  0  0  0  0  0
  1  2  1  0  0  0  0
  2  3  1  0  0  0  0
  2  4  1  0  0  0  0
  2  5  1  0  0  0  0
  5  6  2  0  0  0  0
  5  7  1  0  0  0  0
  7  8  1  0  0  0  0
  7  9  1  0  0  0  0
  9 10  1  0  0  0  0
  9 11  1  0  0  0  0
  9 24  1  0  0  0  0
 11 12  1  0  0  0  0
 11 13  1  0  0  0  0
 11 14  1  0  0  0  0
 14 15  1  0  0  0  0
 14 16  1  0  0  0  0
 14 20  1  0  0  0  0
 16 17  1  0  0  0  0
 16 18  1  0  0  0  0
 16 19  1  0  0  0  0
 20 21  1  0  0  0  0
 20 22  1  0  0  0  0
 20 23  1  0  0  0  0
 24 25  2  0  0  0  0
 24 26  1  0  0  0  0
 26 27  1  0  0  0  0
 26 28  1  0  0  0  0
 28 29  1  0  0  0  0
 28 30  1  0  0  0  0
 28 31  1  0  0  0  0
M  END
$$$$

  -OEChem-01062216083D

 31 30  0     1  0  0  0  0  0999 V2000
   -3.7180   -2.6374    1.0385 H   0  0  0  0  0  0  0  0  0  0  0  0
   -3.6086   -1.6377    0.6083 C   0  0  0  0  0  0  0  0  0  0  0  0
   -4.1292   -0.9214    1.2485 H   0  0  0  0  0  0  0  0  0  0  0  0
   -4.0657   -1.6297   -0.3842 H   0  0  0  0  0  0  0  0  0  0  0  0
   -2.1405   -1.2702    0.5062 C   0  0  0  0  0  0  0  0  0  0  0  0
   -1.2889   -2.1034    0.7674 O   0  0  0  0  0  0  0  0  0  0  0  0
   -1.7806   -0.0345    0.0036 N   0  0  0  0  0  0  0  0  0  0  0  0
   -2.5582    0.5779   -0.2257 H   0  0  0  0  0  0  0  0  0  0  0  0
   -0.4500    0.6092    0.1140 C   0  0  1  0  0  0  0  0  0  0  0  0
   -0.5600    1.6401   -0.2304 H   0  0  0  0  0  0  0  0  0  0  0  0
    0.0644    0.6369    1.5738 C   0  0  0  0  0  0  0  0  0  0  0  0
    0.1106   -0.3808    1.9715 H   0  0  0  0  0  0  0  0  0  0  0  0
    1.0919    1.0175    1.5748 H   0  0  0  0  0  0  0  0  0  0  0  0
   -0.7778    1.5251    2.5156 C   0  0  0  0  0  0  0  0  0  0  0  0
   -1.8215    1.1968    2.4830 H   0  0  0  0  0  0  0  0  0  0  0  0
   -0.2680    1.3561    3.9514 C   0  0  0  0  0  0  0  0  0  0  0  0
    0.7750    1.6789    4.0321 H   0  0  0  0  0  0  0  0  0  0  0  0
   -0.8711    1.9517    4.6438 H   0  0  0  0  0  0  0  0  0  0  0  0
   -0.3321    0.3074    4.2584 H   0  0  0  0  0  0  0  0  0  0  0  0
   -0.7151    3.0116    2.1338 C   0  0  0  0  0  0  0  0  0  0  0  0
   -1.2163    3.1937    1.1796 H   0  0  0  0  0  0  0  0  0  0  0  0
   -1.2157    3.6201    2.8933 H   0  0  0  0  0  0  0  0  0  0  0  0
    0.3242    3.3457    2.0531 H   0  0  0  0  0  0  0  0  0  0  0  0
    0.6265    0.0067   -0.8199 C   0  0  0  0  0  0  0  0  0  0  0  0
    1.6257    0.6647   -1.0814 O   0  0  0  0  0  0  0  0  0  0  0  0
    0.4408   -1.2162   -1.4361 N   0  0  0  0  0  0  0  0  0  0  0  0
   -0.2580   -1.8101   -0.9870 H   0  0  0  0  0  0  0  0  0  0  0  0
    1.4693   -1.8561   -2.2458 C   0  0  0  0  0  0  0  0  0  0  0  0
    2.3557   -2.0692   -1.6394 H   0  0  0  0  0  0  0  0  0  0  0  0
    1.0935   -2.7980   -2.6570 H   0  0  0  0  0  0  0  0  0  0  0  0
    1.7599   -1.2086   -3.0798 H   0  0  0  0  0  0  0  0  0  0  0  0
  1  2  1  0  0  0  0
  2  3  1  0  0  0  0
  2  4  1  0  0  0  0
  2  5  1  0  0  0  0
  5  6  2  0  0  0  0
  5  7  1  0  0  0  0
  7  8  1  0  0  0  0
  7  9  1  0  0  0  0
  9 10  1  0  0  0  0
  9 11  1  0  0  0  0
  9 24  1  0  0  0  0
 11 12  1  0  0  0  0
 11 13  1  0  0  0  0
 11 14  1  0  0  0  0
 14 15  1  0  0  0  0
 14 16  1  0  0  0  0
 14 20  1  0  0  0  0
 16 17  1  0  0  0  0
 16 18  1  0  0  0  0
 16 19  1  0  0  0  0
 20 21  1  0  0  0  0
 20 22  1  0  0  0  0
 20 23  1  0  0  0  0
 24 25  2  0  0  0  0
 24 26  1  0  0  0  0
 26 27  1  0  0  0  0
 26 28  1  0  0  0  0
 28 29  1  0  0  0  0
 28 30  1  0  0  0  0
 28 31  1  0  0  0  0
M  END
$$$$

  -OEChem-01062216083D

 31 30  0     1  0  0  0  0  0999 V2000
   -3.6732   -2.6093    1.1273 H   0  0  0  0  0  0  0  0  0  0  0  0
   -3.5809   -1.6278    0.6535 C   0  0  0  0  0  0  0  0  0  0  0  0
   -4.0807   -0.8874    1.2829 H   0  0  0  0  0  0  0  0  0  0  0  0
   -4.0717   -1.6595   -0.3223 H   0  0  0  0  0  0  0  0  0  0  0  0
   -2.1177   -1.2653    0.4869 C   0  0  0  0  0  0  0  0  0  0  0  0
   -1.2587   -2.1060    0.6885 O   0  0  0  0  0  0  0  0  0  0  0  0
   -1.7717   -0.0254   -0.0139 N   0  0  0  0  0  0  0  0  0  0  0  0
   -2.5551    0.5985   -0.1848 H   0  0  0  0  0  0  0  0  0  0  0  0
   -0.4409    0.6166    0.1041 C   0  0  1  0  0  0  0  0  0  0  0  0
   -0.5451    1.6489   -0.2376 H   0  0  0  0  0  0  0  0  0  0  0  0
    0.0581    0.6358    1.5707 C   0  0  0  0  0  0  0  0  0  0  0  0
    0.0971   -0.3845    1.9623 H   0  0  0  0  0  0  0  0  0  0  0  0
    1.0863    1.0139    1.5880 H   0  0  0  0  0  0  0  0  0  0  0  0
   -0.7913    1.5205    2.5097 C   0  0  0  0  0  0  0  0  0  0  0  0
   -1.8357    1.1955    2.4658 H   0  0  0  0  0  0  0  0  0  0  0  0
   -0.2945    1.3405    3.9488 C   0  0  0  0  0  0  0  0  0  0  0  0
    0.7483    1.6616    4.0399 H   0  0  0  0  0  0  0  0  0  0  0  0
   -0.9023    1.9317    4.6409 H   0  0  0  0  0  0  0  0  0  0  0  0
   -0.3619    0.2896    4.2476 H   0  0  0  0  0  0  0  0  0  0  0  0
   -0.7202    3.0093    2.1382 C   0  0  0  0  0  0  0  0  0  0  0  0
   -1.2035    3.1978    1.1760 H   0  0  0  0  0  0  0  0  0  0  0  0
   -1.2340    3.6137    2.8923 H   0  0  0  0  0  0  0  0  0  0  0  0
    0.3209    3.3424    2.0788 H   0  0  0  0  0  0  0  0  0  0  0  0
    0.6350    0.0136   -0.8320 C   0  0  0  0  0  0  0  0  0  0  0  0
    1.7290    0.5572   -0.9223 O   0  0  0  0  0  0  0  0  0  0  0  0
    0.3332   -1.0335   -1.6826 N   0  0  0  0  0  0  0  0  0  0  0  0
   -0.4638   -1.5933   -1.3846 H   0  0  0  0  0  0  0  0  0  0  0  0
    1.3340   -1.6676   -2.5312 C   0  0  0  0  0  0  0  0  0  0  0  0
    2.1310   -2.1058   -1.9213 H   0  0  0  0  0  0  0  0  0  0  0  0
    0.8741   -2.4620   -3.1266 H   0  0  0  0  0  0  0  0  0  0  0  0
    1.7756   -0.9365   -3.2164 H   0  0  0  0  0  0  0  0  0  0  0  0
  1  2  1  0  0  0  0
  2  3  1  0  0  0  0
  2  4  1  0  0  0  0
  2  5  1  0  0  0  0
  5  6  2  0  0  0  0
  5  7  1  0  0  0  0
  7  8  1  0  0  0  0
  7  9  1  0  0  0  0
  9 10  1  0  0  0  0
  9 11  1  0  0  0  0
  9 24  1  0  0  0  0
 11 12  1  0  0  0  0
 11 13  1  0  0  0  0
 11 14  1  0  0  0  0
 14 15  1  0  0  0  0
 14 16  1  0  0  0  0
 14 20  1  0  0  0  0
 16 17  1  0  0  0  0
 16 18  1  0  0  0  0
 16 19  1  0  0  0  0
 20 21  1  0  0  0  0
 20 22  1  0  0  0  0
 20 23  1  0  0  0  0
 24 25  2  0  0  0  0
 24 26  1  0  0  0  0
 26 27  1  0  0  0  0
 26 28  1  0  0  0  0
 28 29  1  0  0  0  0
 28 30  1  0  0  0  0
 28 31  1  0  0  0  0
M  END
$$$$

  -OEChem-01062216083D

 31 30  0     1  0  0  0  0  0999 V2000
   -3.6257   -2.6702    1.0318 H   0  0  0  0  0  0  0  0  0  0  0  0
   -3.5409   -1.6529    0.6388 C   0  0  0  0  0  0  0  0  0  0  0  0
   -4.0307   -0.9669    1.3342 H   0  0  0  0  0  0  0  0  0  0  0  0
   -4.0472   -1.6056   -0.3284 H   0  0  0  0  0  0  0  0  0  0  0  0
   -2.0807   -1.2744    0.4807 C   0  0  0  0  0  0  0  0  0  0  0  0
   -1.2149   -2.1029    0.6992 O   0  0  0  0  0  0  0  0  0  0  0  0
   -1.7490   -0.0265   -0.0119 N   0  0  0  0  0  0  0  0  0  0  0  0
   -2.5383    0.5947   -0.1649 H   0  0  0  0  0  0  0  0  0  0  0  0
   -0.4219    0.6211    0.1130 C   0  0  1  0  0  0  0  0  0  0  0  0
   -0.5271    1.6533   -0.2279 H   0  0  0  0  0  0  0  0  0  0  0  0
    0.0679    0.6446    1.5848 C   0  0  0  0  0  0  0  0  0  0  0  0
    0.1116   -0.3747    1.9787 H   0  0  0  0  0  0  0  0  0  0  0  0
    1.0928    1.0300    1.6115 H   0  0  0  0  0  0  0  0  0  0  0  0
   -0.7925    1.5274    2.5156 C   0  0  0  0  0  0  0  0  0  0  0  0
   -1.8347    1.1966    2.4645 H   0  0  0  0  0  0  0  0  0  0  0  0
   -0.3063    1.3531    3.9591 C   0  0  0  0  0  0  0  0  0  0  0  0
    0.7365    1.6720    4.0571 H   0  0  0  0  0  0  0  0  0  0  0  0
   -0.9180    1.9485    4.6440 H   0  0  0  0  0  0  0  0  0  0  0  0
   -0.3790    0.3038    4.2618 H   0  0  0  0  0  0  0  0  0  0  0  0
   -0.7279    3.0156    2.1413 C   0  0  0  0  0  0  0  0  0  0  0  0
   -1.2104    3.1996    1.1779 H   0  0  0  0  0  0  0  0  0  0  0  0
   -1.2466    3.6191    2.8929 H   0  0  0  0  0  0  0  0  0  0  0  0
    0.3119    3.3536    2.0836 H   0  0  0  0  0  0  0  0  0  0  0  0
    0.6443    0.0189   -0.8363 C   0  0  0  0  0  0  0  0  0  0  0  0
    1.8108    0.3863   -0.7664 O   0  0  0  0  0  0  0  0  0  0  0  0
    0.2637   -0.7918   -1.8899 N   0  0  0  0  0  0  0  0  0  0  0  0
   -0.6545   -1.2151   -1.7906 H   0  0  0  0  0  0  0  0  0  0  0  0
    1.2253   -1.4322   -2.7782 C   0  0  0  0  0  0  0  0  0  0  0  0
    1.8763   -2.1082   -2.2138 H   0  0  0  0  0  0  0  0  0  0  0  0
    0.7025   -2.0118   -3.5449 H   0  0  0  0  0  0  0  0  0  0  0  0
    1.8456   -0.6813   -3.2786 H   0  0  0  0  0  0  0  0  0  0  0  0
  1  2  1  0  0  0  0
  2  3  1  0  0  0  0
  2  4  1  0  0  0  0
  2  5  1  0  0  0  0
  5  6  2  0  0  0  0
  5  7  1  0  0  0  0
  7  8  1  0  0  0  0
  7  9  1  0  0  0  0
  9 10  1  0  0  0  0
  9 11  1  0  0  0  0
  9 24  1  0  0  0  0
 11 12  1  0  0  0  0
 11 13  1  0  0  0  0
 11 14  1  0  0  0  0
 14 15  1  0  0  0  0
 14 16  1  0  0  0  0
 14 20  1  0  0  0  0
 16 17  1  0  0  0  0
 16 18  1  0  0  0  0
 16 19  1  0  0  0  0
 20 21  1  0  0  0  0
 20 22  1  0  0  0  0
 20 23  1  0  0  0  0
 24 25  2  0  0  0  0
 24 26  1  0  0  0  0
 26 27  1  0  0  0  0
 26 28  1  0  0  0  0
 28 29  1  0  0  0  0
 28 30  1  0  0  0  0
 28 31  1  0  0  0  0
M  END
$$$$

  -OEChem-01062216083D

 31 30  0     1  0  0  0  0  0999 V2000
   -3.5962   -2.6608    1.0784 H   0  0  0  0  0  0  0  0  0  0  0  0
   -3.5126   -1.6775    0.6066 C   0  0  0  0  0  0  0  0  0  0  0  0
   -4.0433   -0.9480    1.2230 H   0  0  0  0  0  0  0  0  0  0  0  0
   -3.9782   -1.7197   -0.3809 H   0  0  0  0  0  0  0  0  0  0  0  0
   -2.0533   -1.2844    0.4756 C   0  0  0  0  0  0  0  0  0  0  0  0
   -1.1860   -2.1021    0.7249 O   0  0  0  0  0  0  0  0  0  0  0  0
   -1.7274   -0.0307   -0.0081 N   0  0  0  0  0  0  0  0  0  0  0  0
   -2.5198    0.5873   -0.1571 H   0  0  0  0  0  0  0  0  0  0  0  0
   -0.4026    0.6190    0.1262 C   0  0  1  0  0  0  0  0  0  0  0  0
   -0.5055    1.6512   -0.2146 H   0  0  0  0  0  0  0  0  0  0  0  0
    0.0780    0.6479    1.6018 C   0  0  0  0  0  0  0  0  0  0  0  0
    0.1222   -0.3701    1.9992 H   0  0  0  0  0  0  0  0  0  0  0  0
    1.1010    1.0377    1.6345 H   0  0  0  0  0  0  0  0  0  0  0  0
   -0.7905    1.5319    2.5240 C   0  0  0  0  0  0  0  0  0  0  0  0
   -1.8315    1.1988    2.4675 H   0  0  0  0  0  0  0  0  0  0  0  0
   -0.3127    1.3624    3.9708 C   0  0  0  0  0  0  0  0  0  0  0  0
    0.7268    1.6897    4.0759 H   0  0  0  0  0  0  0  0  0  0  0  0
   -0.9339    1.9535    4.6509 H   0  0  0  0  0  0  0  0  0  0  0  0
   -0.3781    0.3125    4.2736 H   0  0  0  0  0  0  0  0  0  0  0  0
   -0.7264    3.0196    2.1461 C   0  0  0  0  0  0  0  0  0  0  0  0
   -1.2024    3.2002    1.1787 H   0  0  0  0  0  0  0  0  0  0  0  0
   -1.2513    3.6241    2.8926 H   0  0  0  0  0  0  0  0  0  0  0  0
    0.3129    3.3598    2.0948 H   0  0  0  0  0  0  0  0  0  0  0  0
    0.6538    0.0128   -0.8323 C   0  0  0  0  0  0  0  0  0  0  0  0
    1.8524    0.1585   -0.6258 O   0  0  0  0  0  0  0  0  0  0  0  0
    0.2517   -0.5195   -2.0442 N   0  0  0  0  0  0  0  0  0  0  0  0
   -0.7336   -0.7531   -2.1128 H   0  0  0  0  0  0  0  0  0  0  0  0
    1.1803   -1.1361   -2.9832 C   0  0  0  0  0  0  0  0  0  0  0  0
    1.6761   -1.9960   -2.5207 H   0  0  0  0  0  0  0  0  0  0  0  0
    0.6454   -1.4801   -3.8733 H   0  0  0  0  0  0  0  0  0  0  0  0
    1.9430   -0.4160   -3.2975 H   0  0  0  0  0  0  0  0  0  0  0  0
  1  2  1  0  0  0  0
  2  3  1  0  0  0  0
  2  4  1  0  0  0  0
  2  5  1  0  0  0  0
  5  6  2  0  0  0  0
  5  7  1  0  0  0  0
  7  8  1  0  0  0  0
  7  9  1  0  0  0  0
  9 10  1  0  0  0  0
  9 11  1  0  0  0  0
  9 24  1  0  0  0  0
 11 12  1  0  0  0  0
 11 13  1  0  0  0  0
 11 14  1  0  0  0  0
 14 15  1  0  0  0  0
 14 16  1  0  0  0  0
 14 20  1  0  0  0  0
 16 17  1  0  0  0  0
 16 18  1  0  0  0  0
 16 19  1  0  0  0  0
 20 21  1  0  0  0  0
 20 22  1  0  0  0  0
 20 23  1  0  0  0  0
 24 25  2  0  0  0  0
 24 26  1  0  0  0  0
 26 27  1  0  0  0  0
 26 28  1  0  0  0  0
 28 29  1  0  0  0  0
 28 30  1  0  0  0  0
 28 31  1  0  0  0  0
M  END
$$$$

  -OEChem-01062216083D

 31 30  0     1  0  0  0  0  0999 V2000
   -3.5832   -2.6799    1.0495 H   0  0  0  0  0  0  0  0  0  0  0  0
   -3.4985   -1.6926    0.5861 C   0  0  0  0  0  0  0  0  0  0  0  0
   -4.0373   -0.9696    1.2032 H   0  0  0  0  0  0  0  0  0  0  0  0
   -3.9549   -1.7293   -0.4060 H   0  0  0  0  0  0  0  0  0  0  0  0
   -2.0389   -1.2942    0.4728 C   0  0  0  0  0  0  0  0  0  0  0  0
   -1.1742   -2.1054    0.7494 O   0  0  0  0  0  0  0  0  0  0  0  0
   -1.7132   -0.0388   -0.0078 N   0  0  0  0  0  0  0  0  0  0  0  0
   -2.5070    0.5753   -0.1629 H   0  0  0  0  0  0  0  0  0  0  0  0
   -0.3914    0.6133    0.1325 C   0  0  1  0  0  0  0  0  0  0  0  0
   -0.4927    1.6452   -0.2095 H   0  0  0  0  0  0  0  0  0  0  0  0
    0.0842    0.6489    1.6094 C   0  0  0  0  0  0  0  0  0  0  0  0
    0.1314   -0.3675    2.0107 H   0  0  0  0  0  0  0  0  0  0  0  0
    1.1058    1.0423    1.6422 H   0  0  0  0  0  0  0  0  0  0  0  0
   -0.7891    1.5346    2.5255 C   0  0  0  0  0  0  0  0  0  0  0  0
   -1.8293    1.1987    2.4662 H   0  0  0  0  0  0  0  0  0  0  0  0
   -0.3159    1.3719    3.9746 C   0  0  0  0  0  0  0  0  0  0  0  0
    0.7226    1.7013    4.0821 H   0  0  0  0  0  0  0  0  0  0  0  0
   -0.9405    1.9648    4.6499 H   0  0  0  0  0  0  0  0  0  0  0  0
   -0.3807    0.3233    4.2817 H   0  0  0  0  0  0  0  0  0  0  0  0
   -0.7265    3.0211    2.1431 C   0  0  0  0  0  0  0  0  0  0  0  0
   -1.1995    3.1977    1.1738 H   0  0  0  0  0  0  0  0  0  0  0  0
   -1.2551    3.6267    2.8859 H   0  0  0  0  0  0  0  0  0  0  0  0
    0.3123    3.3631    2.0946 H   0  0  0  0  0  0  0  0  0  0  0  0
    0.6595    0.0009   -0.8279 C   0  0  0  0  0  0  0  0  0  0  0  0
    1.8411   -0.0873   -0.5177 O   0  0  0  0  0  0  0  0  0  0  0  0
    0.3057   -0.2394   -2.1439 N   0  0  0  0  0  0  0  0  0  0  0  0
   -0.6897   -0.2674   -2.3386 H   0  0  0  0  0  0  0  0  0  0  0  0
    1.2253   -0.8128   -3.1191 C   0  0  0  0  0  0  0  0  0  0  0  0
    1.5500   -1.8084   -2.7987 H   0  0  0  0  0  0  0  0  0  0  0  0
    0.7360   -0.9032   -4.0935 H   0  0  0  0  0  0  0  0  0  0  0  0
    2.1075   -0.1745   -3.2356 H   0  0  0  0  0  0  0  0  0  0  0  0
  1  2  1  0  0  0  0
  2  3  1  0  0  0  0
  2  4  1  0  0  0  0
  2  5  1  0  0  0  0
  5  6  2  0  0  0  0
  5  7  1  0  0  0  0
  7  8  1  0  0  0  0
  7  9  1  0  0  0  0
  9 10  1  0  0  0  0
  9 11  1  0  0  0  0
  9 24  1  0  0  0  0
 11 12  1  0  0  0  0
 11 13  1  0  0  0  0
 11 14  1  0  0  0  0
 14 15  1  0  0  0  0
 14 16  1  0  0  0  0
 14 20  1  0  0  0  0
 16 17  1  0  0  0  0
 16 18  1  0  0  0  0
 16 19  1  0  0  0  0
 20 21  1  0  0  0  0
 20 22  1  0  0  0  0
 20 23  1  0  0  0  0
 24 25  2  0  0  0  0
 24 26  1  0  0  0  0
 26 27  1  0  0  0  0
 26 28  1  0  0  0  0
 28 29  1  0  0  0  0
 28 30  1  0  0  0  0
 28 31  1  0  0  0  0
M  END
$$$$

  -OEChem-01062216083D

 31 30  0     1  0  0  0  0  0999 V2000
   -3.5935   -2.7029    0.9980 H   0  0  0  0  0  0  0  0  0  0  0  0
   -3.4996   -1.7115    0.5454 C   0  0  0  0  0  0  0  0  0  0  0  0
   -4.0651   -0.9972    1.1484 H   0  0  0  0  0  0  0  0  0  0  0  0
   -3.9195   -1.7440   -0.4627 H   0  0  0  0  0  0  0  0  0  0  0  0
   -2.0400   -1.3016    0.4854 C   0  0  0  0  0  0  0  0  0  0  0  0
   -1.1829   -2.1034    0.8080 O   0  0  0  0  0  0  0  0  0  0  0  0
   -1.7105   -0.0474    0.0036 N   0  0  0  0  0  0  0  0  0  0  0  0
   -2.5042    0.5570   -0.1849 H   0  0  0  0  0  0  0  0  0  0  0  0
   -0.3917    0.6101    0.1390 C   0  0  1  0  0  0  0  0  0  0  0  0
   -0.4979    1.6413   -0.2029 H   0  0  0  0  0  0  0  0  0  0  0  0
    0.0915    0.6536    1.6127 C   0  0  0  0  0  0  0  0  0  0  0  0
    0.1444   -0.3608    2.0183 H   0  0  0  0  0  0  0  0  0  0  0  0
    1.1128    1.0495    1.6355 H   0  0  0  0  0  0  0  0  0  0  0  0
   -0.7803    1.5387    2.5306 C   0  0  0  0  0  0  0  0  0  0  0  0
   -1.8192    1.1978    2.4788 H   0  0  0  0  0  0  0  0  0  0  0  0
   -0.2970    1.3821    3.9770 C   0  0  0  0  0  0  0  0  0  0  0  0
    0.7422    1.7124    4.0756 H   0  0  0  0  0  0  0  0  0  0  0  0
   -0.9170    1.9765    4.6552 H   0  0  0  0  0  0  0  0  0  0  0  0
   -0.3589    0.3343    4.2879 H   0  0  0  0  0  0  0  0  0  0  0  0
   -0.7258    3.0242    2.1428 C   0  0  0  0  0  0  0  0  0  0  0  0
   -1.2054    3.1961    1.1757 H   0  0  0  0  0  0  0  0  0  0  0  0
   -1.2521    3.6305    2.8868 H   0  0  0  0  0  0  0  0  0  0  0  0
    0.3115    3.3698    2.0868 H   0  0  0  0  0  0  0  0  0  0  0  0
    0.6548   -0.0057   -0.8242 C   0  0  0  0  0  0  0  0  0  0  0  0
    1.7724   -0.3343   -0.4464 O   0  0  0  0  0  0  0  0  0  0  0  0
    0.4114    0.0376   -2.1861 N   0  0  0  0  0  0  0  0  0  0  0  0
   -0.5428    0.2322   -2.4700 H   0  0  0  0  0  0  0  0  0  0  0  0
    1.3420   -0.4911   -3.1762 C   0  0  0  0  0  0  0  0  0  0  0  0
    1.5053   -1.5617   -3.0139 H   0  0  0  0  0  0  0  0  0  0  0  0
    0.9424   -0.3495   -4.1847 H   0  0  0  0  0  0  0  0  0  0  0  0
    2.3051    0.0262   -3.1122 H   0  0  0  0  0  0  0  0  0  0  0  0
  1  2  1  0  0  0  0
  2  3  1  0  0  0  0
  2  4  1  0  0  0  0
  2  5  1  0  0  0  0
  5  6  2  0  0  0  0
  5  7  1  0  0  0  0
  7  8  1  0  0  0  0
  7  9  1  0  0  0  0
  9 10  1  0  0  0  0
  9 11  1  0  0  0  0
  9 24  1  0  0  0  0
 11 12  1  0  0  0  0
 11 13  1  0  0  0  0
 11 14  1  0  0  0  0
 14 15  1  0  0  0  0
 14 16  1  0  0  0  0
 14 20  1  0  0  0  0
 16 17  1  0  0  0  0
 16 18  1  0  0  0  0
 16 19  1  0  0  0  0
 20 21  1  0  0  0  0
 20 22  1  0  0  0  0
 20 23  1  0  0  0  0
 24 25  2  0  0  0  0
 24 26  1  0  0  0  0
 26 27  1  0  0  0  0
 26 28  1  0  0  0  0
 28 29  1  0  0  0  0
 28 30  1  0  0  0  0
 28 31  1  0  0  0  0
M  END
$$$$

  -OEChem-01062216083D

 31 30  0     1  0  0  0  0  0999 V2000
   -3.6276   -2.7233    0.9513 H   0  0  0  0  0  0  0  0  0  0  0  0
   -3.5179   -1.7373    0.4905 C   0  0  0  0  0  0  0  0  0  0  0  0
   -4.1250   -1.0209    1.0489 H   0  0  0  0  0  0  0  0  0  0  0  0
   -3.8780   -1.7889   -0.5397 H   0  0  0  0  0  0  0  0  0  0  0  0
   -2.0616   -1.3117    0.5091 C   0  0  0  0  0  0  0  0  0  0  0  0
   -1.2221   -2.0955    0.9107 O   0  0  0  0  0  0  0  0  0  0  0  0
   -1.7222   -0.0610    0.0240 N   0  0  0  0  0  0  0  0  0  0  0  0
   -2.5090    0.5212   -0.2449 H   0  0  0  0  0  0  0  0  0  0  0  0
   -0.4052    0.6021    0.1464 C   0  0  1  0  0  0  0  0  0  0  0  0
   -0.5205    1.6324   -0.1953 H   0  0  0  0  0  0  0  0  0  0  0  0
    0.1000    0.6570    1.6115 C   0  0  0  0  0  0  0  0  0  0  0  0
    0.1643   -0.3541    2.0237 H   0  0  0  0  0  0  0  0  0  0  0  0
    1.1203    1.0557    1.6122 H   0  0  0  0  0  0  0  0  0  0  0  0
   -0.7609    1.5432    2.5383 C   0  0  0  0  0  0  0  0  0  0  0  0
   -1.7989    1.1967    2.5041 H   0  0  0  0  0  0  0  0  0  0  0  0
   -0.2551    1.3982    3.9783 C   0  0  0  0  0  0  0  0  0  0  0  0
    0.7847    1.7313    4.0586 H   0  0  0  0  0  0  0  0  0  0  0  0
   -0.8661    1.9968    4.6611 H   0  0  0  0  0  0  0  0  0  0  0  0
   -0.3103    0.3527    4.2983 H   0  0  0  0  0  0  0  0  0  0  0  0
   -0.7198    3.0270    2.1432 C   0  0  0  0  0  0  0  0  0  0  0  0
   -1.2095    3.1915    1.1800 H   0  0  0  0  0  0  0  0  0  0  0  0
   -1.2436    3.6328    2.8894 H   0  0  0  0  0  0  0  0  0  0  0  0
    0.3146    3.3793    2.0765 H   0  0  0  0  0  0  0  0  0  0  0  0
    0.6386   -0.0131   -0.8194 C   0  0  0  0  0  0  0  0  0  0  0  0
    1.6470   -0.5793   -0.4178 O   0  0  0  0  0  0  0  0  0  0  0  0
    0.5558    0.2903   -2.1677 N   0  0  0  0  0  0  0  0  0  0  0  0
   -0.3010    0.7252   -2.4926 H   0  0  0  0  0  0  0  0  0  0  0  0
    1.5213   -0.1826   -3.1527 C   0  0  0  0  0  0  0  0  0  0  0  0
    1.5386   -1.2773   -3.1772 H   0  0  0  0  0  0  0  0  0  0  0  0
    1.2553    0.1825   -4.1491 H   0  0  0  0  0  0  0  0  0  0  0  0
    2.5255    0.1803   -2.9095 H   0  0  0  0  0  0  0  0  0  0  0  0
  1  2  1  0  0  0  0
  2  3  1  0  0  0  0
  2  4  1  0  0  0  0
  2  5  1  0  0  0  0
  5  6  2  0  0  0  0
  5  7  1  0  0  0  0
  7  8  1  0  0  0  0
  7  9  1  0  0  0  0
  9 10  1  0  0  0  0
  9 11  1  0  0  0  0
  9 24  1  0  0  0  0
 11 12  1  0  0  0  0
 11 13  1  0  0  0  0
 11 14  1  0  0  0  0
 14 15  1  0  0  0  0
 14 16  1  0  0  0  0
 14 20  1  0  0  0  0
 16 17  1  0  0  0  0
 16 18  1  0  0  0  0
 16 19  1  0  0  0  0
 20 21  1  0  0  0  0
 20 22  1  0  0  0  0
 20 23  1  0  0  0  0
 24 25  2  0  0  0  0
 24 26  1  0  0  0  0
 26 27  1  0  0  0  0
 26 28  1  0  0  0  0
 28 29  1  0  0  0  0
 28 30  1  0  0  0  0
 28 31  1  0  0  0  0
M  END
$$$$

  -OEChem-01062216083D

 31 30  0     1  0  0  0  0  0999 V2000
   -3.6613   -2.7602    0.8542 H   0  0  0  0  0  0  0  0  0  0  0  0
   -3.5316   -1.7765    0.3936 C   0  0  0  0  0  0  0  0  0  0  0  0
   -4.2095   -1.0702    0.8787 H   0  0  0  0  0  0  0  0  0  0  0  0
   -3.7861   -1.8495   -0.6663 H   0  0  0  0  0  0  0  0  0  0  0  0
   -2.0956   -1.3112    0.5501 C   0  0  0  0  0  0  0  0  0  0  0  0
   -1.2939   -2.0546    1.0833 O   0  0  0  0  0  0  0  0  0  0  0  0
   -1.7453   -0.0651    0.0590 N   0  0  0  0  0  0  0  0  0  0  0  0
   -2.5069    0.4645   -0.3522 H   0  0  0  0  0  0  0  0  0  0  0  0
   -0.4306    0.6065    0.1607 C   0  0  1  0  0  0  0  0  0  0  0  0
   -0.5634    1.6354   -0.1785 H   0  0  0  0  0  0  0  0  0  0  0  0
    0.1115    0.6719    1.6109 C   0  0  0  0  0  0  0  0  0  0  0  0
    0.1951   -0.3359    2.0263 H   0  0  0  0  0  0  0  0  0  0  0  0
    1.1292    1.0760    1.5809 H   0  0  0  0  0  0  0  0  0  0  0  0
   -0.7309    1.5547    2.5570 C   0  0  0  0  0  0  0  0  0  0  0  0
   -1.7658    1.1970    2.5529 H   0  0  0  0  0  0  0  0  0  0  0  0
   -0.1841    1.4182    3.9829 C   0  0  0  0  0  0  0  0  0  0  0  0
    0.8513    1.7699    4.0356 H   0  0  0  0  0  0  0  0  0  0  0  0
   -0.7872    2.0050    4.6826 H   0  0  0  0  0  0  0  0  0  0  0  0
   -0.2122    0.3718    4.3030 H   0  0  0  0  0  0  0  0  0  0  0  0
   -0.7173    3.0369    2.1539 C   0  0  0  0  0  0  0  0  0  0  0  0
   -1.2472    3.1918    1.2106 H   0  0  0  0  0  0  0  0  0  0  0  0
   -1.2159    3.6422    2.9175 H   0  0  0  0  0  0  0  0  0  0  0  0
    0.3105    3.3972    2.0438 H   0  0  0  0  0  0  0  0  0  0  0  0
    0.6112   -0.0049   -0.8097 C   0  0  0  0  0  0  0  0  0  0  0  0
    1.4526   -0.8133   -0.4423 O   0  0  0  0  0  0  0  0  0  0  0  0
    0.7258    0.5155   -2.0881 N   0  0  0  0  0  0  0  0  0  0  0  0
    0.0304    1.1913   -2.3858 H   0  0  0  0  0  0  0  0  0  0  0  0
    1.7276    0.0659   -3.0482 C   0  0  0  0  0  0  0  0  0  0  0  0
    1.5972   -0.9992   -3.2669 H   0  0  0  0  0  0  0  0  0  0  0  0
    1.6338    0.6257   -3.9835 H   0  0  0  0  0  0  0  0  0  0  0  0
    2.7365    0.2232   -2.6522 H   0  0  0  0  0  0  0  0  0  0  0  0
  1  2  1  0  0  0  0
  2  3  1  0  0  0  0
  2  4  1  0  0  0  0
  2  5  1  0  0  0  0
  5  6  2  0  0  0  0
  5  7  1  0  0  0  0
  7  8  1  0  0  0  0
  7  9  1  0  0  0  0
  9 10  1  0  0  0  0
  9 11  1  0  0  0  0
  9 24  1  0  0  0  0
 11 12  1  0  0  0  0
 11 13  1  0  0  0  0
 11 14  1  0  0  0  0
 14 15  1  0  0  0  0
 14 16  1  0  0  0  0
 14 20  1  0  0  0  0
 16 17  1  0  0  0  0
 16 18  1  0  0  0  0
 16 19  1  0  0  0  0
 20 21  1  0  0  0  0
 20 22  1  0  0  0  0
 20 23  1  0  0  0  0
 24 25  2  0  0  0  0
 24 26  1  0  0  0  0
 26 27  1  0  0  0  0
 26 28  1  0  0  0  0
 28 29  1  0  0  0  0
 28 30  1  0  0  0  0
 28 31  1  0  0  0  0
M  END
$$$$

  -OEChem-01062216083D

 31 30  0     1  0  0  0  0  0999 V2000
   -3.6501   -2.8177    0.7220 H   0  0  0  0  0  0  0  0  0  0  0  0
   -3.5156   -1.8282    0.2754 C   0  0  0  0  0  0  0  0  0  0  0  0
   -4.2759   -1.1548    0.6781 H   0  0  0  0  0  0  0  0  0  0  0  0
   -3.6453   -1.9119   -0.8063 H   0  0  0  0  0  0  0  0  0  0  0  0
   -2.1300   -1.2965    0.5931 C   0  0  0  0  0  0  0  0  0  0  0  0
   -1.3970   -1.9681    1.2946 O   0  0  0  0  0  0  0  0  0  0  0  0
   -1.7737   -0.0534    0.0962 N   0  0  0  0  0  0  0  0  0  0  0  0
   -2.4770    0.3857   -0.4886 H   0  0  0  0  0  0  0  0  0  0  0  0
   -0.4578    0.6195    0.1827 C   0  0  1  0  0  0  0  0  0  0  0  0
   -0.6032    1.6469   -0.1549 H   0  0  0  0  0  0  0  0  0  0  0  0
    0.1235    0.6894    1.6160 C   0  0  0  0  0  0  0  0  0  0  0  0
    0.2279   -0.3159    2.0319 H   0  0  0  0  0  0  0  0  0  0  0  0
    1.1370    1.1001    1.5567 H   0  0  0  0  0  0  0  0  0  0  0  0
   -0.6984    1.5717    2.5803 C   0  0  0  0  0  0  0  0  0  0  0  0
   -1.7309    1.2075    2.6025 H   0  0  0  0  0  0  0  0  0  0  0  0
   -0.1165    1.4437    3.9930 C   0  0  0  0  0  0  0  0  0  0  0  0
    0.9207    1.7931    4.0179 H   0  0  0  0  0  0  0  0  0  0  0  0
   -0.7011    2.0369    4.7031 H   0  0  0  0  0  0  0  0  0  0  0  0
   -0.1394    0.3996    4.3211 H   0  0  0  0  0  0  0  0  0  0  0  0
   -0.7046    3.0529    2.1726 C   0  0  0  0  0  0  0  0  0  0  0  0
   -1.2603    3.2017    1.2431 H   0  0  0  0  0  0  0  0  0  0  0  0
   -1.1874    3.6572    2.9471 H   0  0  0  0  0  0  0  0  0  0  0  0
    0.3176    3.4195    2.0351 H   0  0  0  0  0  0  0  0  0  0  0  0
    0.5789    0.0097   -0.7923 C   0  0  0  0  0  0  0  0  0  0  0  0
    1.1673   -1.0349   -0.5543 O   0  0  0  0  0  0  0  0  0  0  0  0
    0.9148    0.7022   -1.9439 N   0  0  0  0  0  0  0  0  0  0  0  0
    0.4520    1.5887   -2.1155 H   0  0  0  0  0  0  0  0  0  0  0  0
    1.9301    0.2440   -2.8854 C   0  0  0  0  0  0  0  0  0  0  0  0
    1.6636   -0.7389   -3.2884 H   0  0  0  0  0  0  0  0  0  0  0  0
    2.0182    0.9470   -3.7194 H   0  0  0  0  0  0  0  0  0  0  0  0
    2.9043    0.1691   -2.3908 H   0  0  0  0  0  0  0  0  0  0  0  0
  1  2  1  0  0  0  0
  2  3  1  0  0  0  0
  2  4  1  0  0  0  0
  2  5  1  0  0  0  0
  5  6  2  0  0  0  0
  5  7  1  0  0  0  0
  7  8  1  0  0  0  0
  7  9  1  0  0  0  0
  9 10  1  0  0  0  0
  9 11  1  0  0  0  0
  9 24  1  0  0  0  0
 11 12  1  0  0  0  0
 11 13  1  0  0  0  0
 11 14  1  0  0  0  0
 14 15  1  0  0  0  0
 14 16  1  0  0  0  0
 14 20  1  0  0  0  0
 16 17  1  0  0  0  0
 16 18  1  0  0  0  0
 16 19  1  0  0  0  0
 20 21  1  0  0  0  0
 20 22  1  0  0  0  0
 20 23  1  0  0  0  0
 24 25  2  0  0  0  0
 24 26  1  0  0  0  0
 26 27  1  0  0  0  0
 26 28  1  0  0  0  0
 28 29  1  0  0  0  0
 28 30  1  0  0  0  0
 28 31  1  0  0  0  0
M  END
$$$$

  -OEChem-01062216083D

 31 30  0     1  0  0  0  0  0999 V2000
   -3.5799   -2.8742    0.6032 H   0  0  0  0  0  0  0  0  0  0  0  0
   -3.4461   -1.8897    0.1460 C   0  0  0  0  0  0  0  0  0  0  0  0
   -4.2944   -1.2575    0.4181 H   0  0  0  0  0  0  0  0  0  0  0  0
   -3.4189   -2.0097   -0.9396 H   0  0  0  0  0  0  0  0  0  0  0  0
   -2.1526   -1.2602    0.6296 C   0  0  0  0  0  0  0  0  0  0  0  0
   -1.5084   -1.8431    1.4829 O   0  0  0  0  0  0  0  0  0  0  0  0
   -1.7998   -0.0177    0.1261 N   0  0  0  0  0  0  0  0  0  0  0  0
   -2.4241    0.3223   -0.5980 H   0  0  0  0  0  0  0  0  0  0  0  0
   -0.4791    0.6473    0.2152 C   0  0  1  0  0  0  0  0  0  0  0  0
   -0.6255    1.6741   -0.1240 H   0  0  0  0  0  0  0  0  0  0  0  0
    0.1273    0.7151    1.6370 C   0  0  0  0  0  0  0  0  0  0  0  0
    0.2434   -0.2896    2.0504 H   0  0  0  0  0  0  0  0  0  0  0  0
    1.1389    1.1272    1.5601 H   0  0  0  0  0  0  0  0  0  0  0  0
   -0.6762    1.5997    2.6140 C   0  0  0  0  0  0  0  0  0  0  0  0
   -1.7088    1.2365    2.6529 H   0  0  0  0  0  0  0  0  0  0  0  0
   -0.0709    1.4706    4.0167 C   0  0  0  0  0  0  0  0  0  0  0  0
    0.9652    1.8240    4.0257 H   0  0  0  0  0  0  0  0  0  0  0  0
   -0.6464    2.0588    4.7382 H   0  0  0  0  0  0  0  0  0  0  0  0
   -0.0847    0.4253    4.3420 H   0  0  0  0  0  0  0  0  0  0  0  0
   -0.6868    3.0806    2.2057 C   0  0  0  0  0  0  0  0  0  0  0  0
   -1.2590    3.2296    1.2865 H   0  0  0  0  0  0  0  0  0  0  0  0
   -1.1547    3.6862    2.9882 H   0  0  0  0  0  0  0  0  0  0  0  0
    0.3333    3.4454    2.0497 H   0  0  0  0  0  0  0  0  0  0  0  0
    0.5528    0.0278   -0.7581 C   0  0  0  0  0  0  0  0  0  0  0  0
    0.8122   -1.1669   -0.7571 O   0  0  0  0  0  0  0  0  0  0  0  0
    1.1337    0.8236   -1.7312 N   0  0  0  0  0  0  0  0  0  0  0  0
    0.9313    1.8181   -1.7123 H   0  0  0  0  0  0  0  0  0  0  0  0
    2.1046    0.3231   -2.6978 C   0  0  0  0  0  0  0  0  0  0  0  0
    1.6696   -0.4845   -3.2961 H   0  0  0  0  0  0  0  0  0  0  0  0
    2.4134    1.1254   -3.3746 H   0  0  0  0  0  0  0  0  0  0  0  0
    2.9934   -0.0587   -2.1846 H   0  0  0  0  0  0  0  0  0  0  0  0
  1  2  1  0  0  0  0
  2  3  1  0  0  0  0
  2  4  1  0  0  0  0
  2  5  1  0  0  0  0
  5  6  2  0  0  0  0
  5  7  1  0  0  0  0
  7  8  1  0  0  0  0
  7  9  1  0  0  0  0
  9 10  1  0  0  0  0
  9 11  1  0  0  0  0
  9 24  1  0  0  0  0
 11 12  1  0  0  0  0
 11 13  1  0  0  0  0
 11 14  1  0  0  0  0
 14 15  1  0  0  0  0
 14 16  1  0  0  0  0
 14 20  1  0  0  0  0
 16 17  1  0  0  0  0
 16 18  1  0  0  0  0
 16 19  1  0  0  0  0
 20 21  1  0  0  0  0
 20 22  1  0  0  0  0
 20 23  1  0  0  0  0
 24 25  2  0  0  0  0
 24 26  1  0  0  0  0
 26 27  1  0  0  0  0
 26 28  1  0  0  0  0
 28 29  1  0  0  0  0
 28 30  1  0  0  0  0
 28 31  1  0  0  0  0
M  END
$$$$

  -OEChem-01062216083D

 31 30  0     1  0  0  0  0  0999 V2000
   -3.5610   -2.8867    0.5906 H   0  0  0  0  0  0  0  0  0  0  0  0
   -3.4257   -1.9064    0.1248 C   0  0  0  0  0  0  0  0  0  0  0  0
   -4.2894   -1.2812    0.3623 H   0  0  0  0  0  0  0  0  0  0  0  0
   -3.3640   -2.0395   -0.9580 H   0  0  0  0  0  0  0  0  0  0  0  0
   -2.1552   -1.2550    0.6387 C   0  0  0  0  0  0  0  0  0  0  0  0
   -1.5264   -1.8190    1.5171 O   0  0  0  0  0  0  0  0  0  0  0  0
   -1.8030   -0.0134    0.1334 N   0  0  0  0  0  0  0  0  0  0  0  0
   -2.3960    0.2944   -0.6305 H   0  0  0  0  0  0  0  0  0  0  0  0
   -0.4781    0.6428    0.2279 C   0  0  1  0  0  0  0  0  0  0  0  0
   -0.6211    1.6676   -0.1189 H   0  0  0  0  0  0  0  0  0  0  0  0
    0.1268    0.7152    1.6505 C   0  0  0  0  0  0  0  0  0  0  0  0
    0.2381   -0.2871    2.0705 H   0  0  0  0  0  0  0  0  0  0  0  0
    1.1401    1.1228    1.5737 H   0  0  0  0  0  0  0  0  0  0  0  0
   -0.6730    1.6104    2.6207 C   0  0  0  0  0  0  0  0  0  0  0  0
   -1.7079    1.2534    2.6600 H   0  0  0  0  0  0  0  0  0  0  0  0
   -0.0712    1.4864    4.0252 C   0  0  0  0  0  0  0  0  0  0  0  0
    0.9665    1.8352    4.0346 H   0  0  0  0  0  0  0  0  0  0  0  0
   -0.6456    2.0818    4.7416 H   0  0  0  0  0  0  0  0  0  0  0  0
   -0.0909    0.4433    4.3567 H   0  0  0  0  0  0  0  0  0  0  0  0
   -0.6756    3.0890    2.2042 C   0  0  0  0  0  0  0  0  0  0  0  0
   -1.2432    3.2355    1.2815 H   0  0  0  0  0  0  0  0  0  0  0  0
   -1.1448    3.7003    2.9816 H   0  0  0  0  0  0  0  0  0  0  0  0
    0.3466    3.4493    2.0512 H   0  0  0  0  0  0  0  0  0  0  0  0
    0.5585    0.0211   -0.7400 C   0  0  0  0  0  0  0  0  0  0  0  0
    0.5654   -1.1737   -1.0035 O   0  0  0  0  0  0  0  0  0  0  0  0
    1.3714    0.8573   -1.4863 N   0  0  0  0  0  0  0  0  0  0  0  0
    1.3589    1.8477   -1.2638 H   0  0  0  0  0  0  0  0  0  0  0  0
    2.3267    0.3711   -2.4754 C   0  0  0  0  0  0  0  0  0  0  0  0
    1.8120   -0.1892   -3.2631 H   0  0  0  0  0  0  0  0  0  0  0  0
    2.8529    1.2115   -2.9380 H   0  0  0  0  0  0  0  0  0  0  0  0
    3.0668   -0.2841   -2.0039 H   0  0  0  0  0  0  0  0  0  0  0  0
  1  2  1  0  0  0  0
  2  3  1  0  0  0  0
  2  4  1  0  0  0  0
  2  5  1  0  0  0  0
  5  6  2  0  0  0  0
  5  7  1  0  0  0  0
  7  8  1  0  0  0  0
  7  9  1  0  0  0  0
  9 10  1  0  0  0  0
  9 11  1  0  0  0  0
  9 24  1  0  0  0  0
 11 12  1  0  0  0  0
 11 13  1  0  0  0  0
 11 14  1  0  0  0  0
 14 15  1  0  0  0  0
 14 16  1  0  0  0  0
 14 20  1  0  0  0  0
 16 17  1  0  0  0  0
 16 18  1  0  0  0  0
 16 19  1  0  0  0  0
 20 21  1  0  0  0  0
 20 22  1  0  0  0  0
 20 23  1  0  0  0  0
 24 25  2  0  0  0  0
 24 26  1  0  0  0  0
 26 27  1  0  0  0  0
 26 28  1  0  0  0  0
 28 29  1  0  0  0  0
 28 30  1  0  0  0  0
 28 31  1  0  0  0  0
M  END
$$$$

  -OEChem-01062216083D

 31 30  0     1  0  0  0  0  0999 V2000
   -3.5430   -2.9000    0.5776 H   0  0  0  0  0  0  0  0  0  0  0  0
   -3.4206   -1.9109    0.1273 C   0  0  0  0  0  0  0  0  0  0  0  0
   -4.2877   -1.2970    0.3815 H   0  0  0  0  0  0  0  0  0  0  0  0
   -3.3653   -2.0253   -0.9579 H   0  0  0  0  0  0  0  0  0  0  0  0
   -2.1524   -1.2562    0.6419 C   0  0  0  0  0  0  0  0  0  0  0  0
   -1.5072   -1.8304    1.5022 O   0  0  0  0  0  0  0  0  0  0  0  0
   -1.8035   -0.0128    0.1398 N   0  0  0  0  0  0  0  0  0  0  0  0
   -2.3859    0.2855   -0.6361 H   0  0  0  0  0  0  0  0  0  0  0  0
   -0.4758    0.6374    0.2347 C   0  0  1  0  0  0  0  0  0  0  0  0
   -0.6138    1.6616   -0.1168 H   0  0  0  0  0  0  0  0  0  0  0  0
    0.1247    0.7122    1.6604 C   0  0  0  0  0  0  0  0  0  0  0  0
    0.2304   -0.2880    2.0862 H   0  0  0  0  0  0  0  0  0  0  0  0
    1.1400    1.1155    1.5886 H   0  0  0  0  0  0  0  0  0  0  0  0
   -0.6754    1.6156    2.6228 C   0  0  0  0  0  0  0  0  0  0  0  0
   -1.7128    1.2655    2.6580 H   0  0  0  0  0  0  0  0  0  0  0  0
   -0.0814    1.4954    4.0311 C   0  0  0  0  0  0  0  0  0  0  0  0
    0.9601    1.8322    4.0427 H   0  0  0  0  0  0  0  0  0  0  0  0
   -0.6522    2.1031    4.7401 H   0  0  0  0  0  0  0  0  0  0  0  0
   -0.1147    0.4551    4.3709 H   0  0  0  0  0  0  0  0  0  0  0  0
   -0.6653    3.0923    2.1999 C   0  0  0  0  0  0  0  0  0  0  0  0
   -1.2241    3.2386    1.2720 H   0  0  0  0  0  0  0  0  0  0  0  0
   -1.1372    3.7097    2.9707 H   0  0  0  0  0  0  0  0  0  0  0  0
    0.3604    3.4453    2.0541 H   0  0  0  0  0  0  0  0  0  0  0  0
    0.5570    0.0163   -0.7385 C   0  0  0  0  0  0  0  0  0  0  0  0
    0.3836   -1.0839   -1.2480 O   0  0  0  0  0  0  0  0  0  0  0  0
    1.5723    0.8116   -1.2419 N   0  0  0  0  0  0  0  0  0  0  0  0
    1.7051    1.7259   -0.8209 H   0  0  0  0  0  0  0  0  0  0  0  0
    2.5446    0.3422   -2.2224 C   0  0  0  0  0  0  0  0  0  0  0  0
    2.0422    0.0408   -3.1475 H   0  0  0  0  0  0  0  0  0  0  0  0
    3.2564    1.1384   -2.4601 H   0  0  0  0  0  0  0  0  0  0  0  0
    3.1014   -0.5149   -1.8290 H   0  0  0  0  0  0  0  0  0  0  0  0
  1  2  1  0  0  0  0
  2  3  1  0  0  0  0
  2  4  1  0  0  0  0
  2  5  1  0  0  0  0
  5  6  2  0  0  0  0
  5  7  1  0  0  0  0
  7  8  1  0  0  0  0
  7  9  1  0  0  0  0
  9 10  1  0  0  0  0
  9 11  1  0  0  0  0
  9 24  1  0  0  0  0
 11 12  1  0  0  0  0
 11 13  1  0  0  0  0
 11 14  1  0  0  0  0
 14 15  1  0  0  0  0
 14 16  1  0  0  0  0
 14 20  1  0  0  0  0
 16 17  1  0  0  0  0
 16 18  1  0  0  0  0
 16 19  1  0  0  0  0
 20 21  1  0  0  0  0
 20 22  1  0  0  0  0
 20 23  1  0  0  0  0
 24 25  2  0  0  0  0
 24 26  1  0  0  0  0
 26 27  1  0  0  0  0
 26 28  1  0  0  0  0
 28 29  1  0  0  0  0
 28 30  1  0  0  0  0
 28 31  1  0  0  0  0
M  END
$$$$

  -OEChem-01062216083D

 31 30  0     1  0  0  0  0  0999 V2000
   -3.5508   -2.8834    0.6030 H   0  0  0  0  0  0  0  0  0  0  0  0
   -3.4246   -1.8935    0.1553 C   0  0  0  0  0  0  0  0  0  0  0  0
   -4.2726   -1.2664    0.4405 H   0  0  0  0  0  0  0  0  0  0  0  0
   -3.4055   -2.0011   -0.9320 H   0  0  0  0  0  0  0  0  0  0  0  0
   -2.1295   -1.2639    0.6331 C   0  0  0  0  0  0  0  0  0  0  0  0
   -1.4483   -1.8693    1.4433 O   0  0  0  0  0  0  0  0  0  0  0  0
   -1.7833   -0.0169    0.1396 N   0  0  0  0  0  0  0  0  0  0  0  0
   -2.3742    0.2956   -0.6245 H   0  0  0  0  0  0  0  0  0  0  0  0
   -0.4574    0.6353    0.2379 C   0  0  1  0  0  0  0  0  0  0  0  0
   -0.5910    1.6598   -0.1144 H   0  0  0  0  0  0  0  0  0  0  0  0
    0.1253    0.7096    1.6731 C   0  0  0  0  0  0  0  0  0  0  0  0
    0.2248   -0.2900    2.1011 H   0  0  0  0  0  0  0  0  0  0  0  0
    1.1407    1.1144    1.6193 H   0  0  0  0  0  0  0  0  0  0  0  0
   -0.6889    1.6131    2.6241 C   0  0  0  0  0  0  0  0  0  0  0  0
   -1.7267    1.2634    2.6445 H   0  0  0  0  0  0  0  0  0  0  0  0
   -0.1154    1.4942    4.0412 C   0  0  0  0  0  0  0  0  0  0  0  0
    0.9244    1.8352    4.0691 H   0  0  0  0  0  0  0  0  0  0  0  0
   -0.6994    2.0990    4.7420 H   0  0  0  0  0  0  0  0  0  0  0  0
   -0.1501    0.4536    4.3796 H   0  0  0  0  0  0  0  0  0  0  0  0
   -0.6724    3.0898    2.2003 C   0  0  0  0  0  0  0  0  0  0  0  0
   -1.2175    3.2355    1.2642 H   0  0  0  0  0  0  0  0  0  0  0  0
   -1.1555    3.7080    2.9634 H   0  0  0  0  0  0  0  0  0  0  0  0
    0.3552    3.4428    2.0690 H   0  0  0  0  0  0  0  0  0  0  0  0
    0.5719    0.0172   -0.7423 C   0  0  0  0  0  0  0  0  0  0  0  0
    0.2794   -0.9329   -1.4592 O   0  0  0  0  0  0  0  0  0  0  0  0
    1.7521    0.6908   -1.0084 N   0  0  0  0  0  0  0  0  0  0  0  0
    1.9809    1.4867   -0.4211 H   0  0  0  0  0  0  0  0  0  0  0  0
    2.7371    0.2279   -1.9790 C   0  0  0  0  0  0  0  0  0  0  0  0
    2.2955    0.1768   -2.9798 H   0  0  0  0  0  0  0  0  0  0  0  0
    3.5877    0.9154   -2.0125 H   0  0  0  0  0  0  0  0  0  0  0  0
    3.1056   -0.7664   -1.7053 H   0  0  0  0  0  0  0  0  0  0  0  0
  1  2  1  0  0  0  0
  2  3  1  0  0  0  0
  2  4  1  0  0  0  0
  2  5  1  0  0  0  0
  5  6  2  0  0  0  0
  5  7  1  0  0  0  0
  7  8  1  0  0  0  0
  7  9  1  0  0  0  0
  9 10  1  0  0  0  0
  9 11  1  0  0  0  0
  9 24  1  0  0  0  0
 11 12  1  0  0  0  0
 11 13  1  0  0  0  0
 11 14  1  0  0  0  0
 14 15  1  0  0  0  0
 14 16  1  0  0  0  0
 14 20  1  0  0  0  0
 16 17  1  0  0  0  0
 16 18  1  0  0  0  0
 16 19  1  0  0  0  0
 20 21  1  0  0  0  0
 20 22  1  0  0  0  0
 20 23  1  0  0  0  0
 24 25  2  0  0  0  0
 24 26  1  0  0  0  0
 26 27  1  0  0  0  0
 26 28  1  0  0  0  0
 28 29  1  0  0  0  0
 28 30  1  0  0  0  0
 28 31  1  0  0  0  0
M  END
$$$$

  -OEChem-01062216083D

 31 30  0     1  0  0  0  0  0999 V2000
   -3.6054   -2.8501    0.4901 H   0  0  0  0  0  0  0  0  0  0  0  0
   -3.4495   -1.8480    0.0810 C   0  0  0  0  0  0  0  0  0  0  0  0
   -4.2895   -1.2136    0.3730 H   0  0  0  0  0  0  0  0  0  0  0  0
   -3.4123   -1.9166   -1.0091 H   0  0  0  0  0  0  0  0  0  0  0  0
   -2.1513   -1.2637    0.6061 C   0  0  0  0  0  0  0  0  0  0  0  0
   -1.5087   -1.9109    1.4149 O   0  0  0  0  0  0  0  0  0  0  0  0
   -1.7629   -0.0181    0.1426 N   0  0  0  0  0  0  0  0  0  0  0  0
   -2.3241    0.3013   -0.6423 H   0  0  0  0  0  0  0  0  0  0  0  0
   -0.4360    0.6342    0.2560 C   0  0  1  0  0  0  0  0  0  0  0  0
   -0.6071    1.7089    0.1689 H   0  0  0  0  0  0  0  0  0  0  0  0
    0.3289    0.3973    1.5858 C   0  0  0  0  0  0  0  0  0  0  0  0
    0.5044   -0.6694    1.7433 H   0  0  0  0  0  0  0  0  0  0  0  0
    1.3203    0.8528    1.5106 H   0  0  0  0  0  0  0  0  0  0  0  0
   -0.3639    1.0225    2.8160 C   0  0  0  0  0  0  0  0  0  0  0  0
   -1.3866    0.6362    2.8835 H   0  0  0  0  0  0  0  0  0  0  0  0
    0.3902    0.6025    4.0828 C   0  0  0  0  0  0  0  0  0  0  0  0
    1.4230    0.9640    4.0574 H   0  0  0  0  0  0  0  0  0  0  0  0
   -0.1000    1.0103    4.9724 H   0  0  0  0  0  0  0  0  0  0  0  0
    0.4050   -0.4885    4.1721 H   0  0  0  0  0  0  0  0  0  0  0  0
   -0.4192    2.5561    2.7511 C   0  0  0  0  0  0  0  0  0  0  0  0
   -1.0797    2.8907    1.9469 H   0  0  0  0  0  0  0  0  0  0  0  0
   -0.8098    2.9609    3.6899 H   0  0  0  0  0  0  0  0  0  0  0  0
    0.5791    2.9721    2.5838 H   0  0  0  0  0  0  0  0  0  0  0  0
    0.4463    0.2735   -0.9671 C   0  0  0  0  0  0  0  0  0  0  0  0
   -0.0368   -0.3068   -1.9338 O   0  0  0  0  0  0  0  0  0  0  0  0
    1.7345    0.7680   -1.0818 N   0  0  0  0  0  0  0  0  0  0  0  0
    2.1280    1.2426   -0.2751 H   0  0  0  0  0  0  0  0  0  0  0  0
    2.5903    0.5180   -2.2358 C   0  0  0  0  0  0  0  0  0  0  0  0
    2.1265    0.9060   -3.1488 H   0  0  0  0  0  0  0  0  0  0  0  0
    3.5572    1.0131   -2.1039 H   0  0  0  0  0  0  0  0  0  0  0  0
    2.7648   -0.5562   -2.3575 H   0  0  0  0  0  0  0  0  0  0  0  0
  1  2  1  0  0  0  0
  2  3  1  0  0  0  0
  2  4  1  0  0  0  0
  2  5  1  0  0  0  0
  5  6  2  0  0  0  0
  5  7  1  0  0  0  0
  7  8  1  0  0  0  0
  7  9  1  0  0  0  0
  9 10  1  0  0  0  0
  9 11  1  0  0  0  0
  9 24  1  0  0  0  0
 11 12  1  0  0  0  0
 11 13  1  0  0  0  0
 11 14  1  0  0  0  0
 14 15  1  0  0  0  0
 14 16  1  0  0  0  0
 14 20  1  0  0  0  0
 16 17  1  0  0  0  0
 16 18  1  0  0  0  0
 16 19  1  0  0  0  0
 20 21  1  0  0  0  0
 20 22  1  0  0  0  0
 20 23  1  0  0  0  0
 24 25  2  0  0  0  0
 24 26  1  0  0  0  0
 26 27  1  0  0  0  0
 26 28  1  0  0  0  0
 28 29  1  0  0  0  0
 28 30  1  0  0  0  0
 28 31  1  0  0  0  0
M  END
$$$$

  -OEChem-01062216083D

 31 30  0     1  0  0  0  0  0999 V2000
   -3.5994   -2.8411    0.4919 H   0  0  0  0  0  0  0  0  0  0  0  0
   -3.4382   -1.8389    0.0852 C   0  0  0  0  0  0  0  0  0  0  0  0
   -4.2640   -1.1951    0.3967 H   0  0  0  0  0  0  0  0  0  0  0  0
   -3.4234   -1.9014   -1.0057 H   0  0  0  0  0  0  0  0  0  0  0  0
   -2.1226   -1.2743    0.5875 C   0  0  0  0  0  0  0  0  0  0  0  0
   -1.4531   -1.9488    1.3509 O   0  0  0  0  0  0  0  0  0  0  0  0
   -1.7360   -0.0224    0.1411 N   0  0  0  0  0  0  0  0  0  0  0  0
   -2.3060    0.3200   -0.6281 H   0  0  0  0  0  0  0  0  0  0  0  0
   -0.4141    0.6358    0.2686 C   0  0  1  0  0  0  0  0  0  0  0  0
   -0.5869    1.7105    0.1832 H   0  0  0  0  0  0  0  0  0  0  0  0
    0.3336    0.4032    1.6099 C   0  0  0  0  0  0  0  0  0  0  0  0
    0.5132   -0.6620    1.7719 H   0  0  0  0  0  0  0  0  0  0  0  0
    1.3216    0.8676    1.5505 H   0  0  0  0  0  0  0  0  0  0  0  0
   -0.3789    1.0271    2.8297 C   0  0  0  0  0  0  0  0  0  0  0  0
   -1.4001    0.6346    2.8838 H   0  0  0  0  0  0  0  0  0  0  0  0
    0.3608    0.6104    4.1059 C   0  0  0  0  0  0  0  0  0  0  0  0
    1.3909    0.9802    4.0949 H   0  0  0  0  0  0  0  0  0  0  0  0
   -0.1440    1.0126    4.9898 H   0  0  0  0  0  0  0  0  0  0  0  0
    0.3827   -0.4806    4.1931 H   0  0  0  0  0  0  0  0  0  0  0  0
   -0.4435    2.5605    2.7651 C   0  0  0  0  0  0  0  0  0  0  0  0
   -1.1017    2.8910    1.9573 H   0  0  0  0  0  0  0  0  0  0  0  0
   -0.8424    2.9623    3.7019 H   0  0  0  0  0  0  0  0  0  0  0  0
    0.5529    2.9836    2.6041 H   0  0  0  0  0  0  0  0  0  0  0  0
    0.4628    0.2821   -0.9614 C   0  0  0  0  0  0  0  0  0  0  0  0
   -0.0714   -0.0595   -2.0116 O   0  0  0  0  0  0  0  0  0  0  0  0
    1.8304    0.4990   -0.9674 N   0  0  0  0  0  0  0  0  0  0  0  0
    2.2676    0.7453   -0.0849 H   0  0  0  0  0  0  0  0  0  0  0  0
    2.6830    0.2105   -2.1147 C   0  0  0  0  0  0  0  0  0  0  0  0
    2.3705    0.7998   -2.9831 H   0  0  0  0  0  0  0  0  0  0  0  0
    3.7232    0.4608   -1.8853 H   0  0  0  0  0  0  0  0  0  0  0  0
    2.6307   -0.8524   -2.3728 H   0  0  0  0  0  0  0  0  0  0  0  0
  1  2  1  0  0  0  0
  2  3  1  0  0  0  0
  2  4  1  0  0  0  0
  2  5  1  0  0  0  0
  5  6  2  0  0  0  0
  5  7  1  0  0  0  0
  7  8  1  0  0  0  0
  7  9  1  0  0  0  0
  9 10  1  0  0  0  0
  9 11  1  0  0  0  0
  9 24  1  0  0  0  0
 11 12  1  0  0  0  0
 11 13  1  0  0  0  0
 11 14  1  0  0  0  0
 14 15  1  0  0  0  0
 14 16  1  0  0  0  0
 14 20  1  0  0  0  0
 16 17  1  0  0  0  0
 16 18  1  0  0  0  0
 16 19  1  0  0  0  0
 20 21  1  0  0  0  0
 20 22  1  0  0  0  0
 20 23  1  0  0  0  0
 24 25  2  0  0  0  0
 24 26  1  0  0  0  0
 26 27  1  0  0  0  0
 26 28  1  0  0  0  0
 28 29  1  0  0  0  0
 28 30  1  0  0  0  0
 28 31  1  0  0  0  0
M  END
$$$$

  -OEChem-01062216083D

 31 30  0     1  0  0  0  0  0999 V2000
   -3.5990   -2.8348    0.5035 H   0  0  0  0  0  0  0  0  0  0  0  0
   -3.4408   -1.8274    0.1085 C   0  0  0  0  0  0  0  0  0  0  0  0
   -4.2431   -1.1788    0.4678 H   0  0  0  0  0  0  0  0  0  0  0  0
   -3.4747   -1.8692   -0.9829 H   0  0  0  0  0  0  0  0  0  0  0  0
   -2.0970   -1.2899    0.5642 C   0  0  0  0  0  0  0  0  0  0  0  0
   -1.3952   -1.9929    1.2709 O   0  0  0  0  0  0  0  0  0  0  0  0
   -1.7120   -0.0336    0.1309 N   0  0  0  0  0  0  0  0  0  0  0  0
   -2.3049    0.3447   -0.6036 H   0  0  0  0  0  0  0  0  0  0  0  0
   -0.3949    0.6286    0.2729 C   0  0  1  0  0  0  0  0  0  0  0  0
   -0.5702    1.7027    0.1857 H   0  0  0  0  0  0  0  0  0  0  0  0
    0.3361    0.4027    1.6247 C   0  0  0  0  0  0  0  0  0  0  0  0
    0.5184   -0.6608    1.7947 H   0  0  0  0  0  0  0  0  0  0  0  0
    1.3213    0.8755    1.5736 H   0  0  0  0  0  0  0  0  0  0  0  0
   -0.3935    1.0283    2.8330 C   0  0  0  0  0  0  0  0  0  0  0  0
   -1.4147    0.6350    2.8745 H   0  0  0  0  0  0  0  0  0  0  0  0
    0.3302    0.6179    4.1207 C   0  0  0  0  0  0  0  0  0  0  0  0
    1.3606    0.9873    4.1221 H   0  0  0  0  0  0  0  0  0  0  0  0
   -0.1865    1.0241    4.9960 H   0  0  0  0  0  0  0  0  0  0  0  0
    0.3508   -0.4727    4.2134 H   0  0  0  0  0  0  0  0  0  0  0  0
   -0.4563    2.5620    2.7619 C   0  0  0  0  0  0  0  0  0  0  0  0
   -1.1024    2.8905    1.9435 H   0  0  0  0  0  0  0  0  0  0  0  0
   -0.8673    2.9687    3.6912 H   0  0  0  0  0  0  0  0  0  0  0  0
    0.5427    2.9834    2.6127 H   0  0  0  0  0  0  0  0  0  0  0  0
    0.4842    0.2824   -0.9559 C   0  0  0  0  0  0  0  0  0  0  0  0
   -0.0437    0.1796   -2.0582 O   0  0  0  0  0  0  0  0  0  0  0  0
    1.8643    0.2047   -0.8774 N   0  0  0  0  0  0  0  0  0  0  0  0
    2.2756    0.2087    0.0510 H   0  0  0  0  0  0  0  0  0  0  0  0
    2.7146   -0.1158   -2.0176 C   0  0  0  0  0  0  0  0  0  0  0  0
    2.5727    0.6154   -2.8204 H   0  0  0  0  0  0  0  0  0  0  0  0
    3.7673   -0.0985   -1.7199 H   0  0  0  0  0  0  0  0  0  0  0  0
    2.4793   -1.1134   -2.4033 H   0  0  0  0  0  0  0  0  0  0  0  0
  1  2  1  0  0  0  0
  2  3  1  0  0  0  0
  2  4  1  0  0  0  0
  2  5  1  0  0  0  0
  5  6  2  0  0  0  0
  5  7  1  0  0  0  0
  7  8  1  0  0  0  0
  7  9  1  0  0  0  0
  9 10  1  0  0  0  0
  9 11  1  0  0  0  0
  9 24  1  0  0  0  0
 11 12  1  0  0  0  0
 11 13  1  0  0  0  0
 11 14  1  0  0  0  0
 14 15  1  0  0  0  0
 14 16  1  0  0  0  0
 14 20  1  0  0  0  0
 16 17  1  0  0  0  0
 16 18  1  0  0  0  0
 16 19  1  0  0  0  0
 20 21  1  0  0  0  0
 20 22  1  0  0  0  0
 20 23  1  0  0  0  0
 24 25  2  0  0  0  0
 24 26  1  0  0  0  0
 26 27  1  0  0  0  0
 26 28  1  0  0  0  0
 28 29  1  0  0  0  0
 28 30  1  0  0  0  0
 28 31  1  0  0  0  0
M  END
$$$$

  -OEChem-01062216083D

 31 30  0     1  0  0  0  0  0999 V2000
   -3.6035   -2.8196    0.5354 H   0  0  0  0  0  0  0  0  0  0  0  0
   -3.4455   -1.8133    0.1375 C   0  0  0  0  0  0  0  0  0  0  0  0
   -4.2213   -1.1532    0.5325 H   0  0  0  0  0  0  0  0  0  0  0  0
   -3.5260   -1.8498   -0.9517 H   0  0  0  0  0  0  0  0  0  0  0  0
   -2.0753   -1.2997    0.5391 C   0  0  0  0  0  0  0  0  0  0  0  0
   -1.3435   -2.0266    1.1890 O   0  0  0  0  0  0  0  0  0  0  0  0
   -1.6918   -0.0406    0.1141 N   0  0  0  0  0  0  0  0  0  0  0  0
   -2.3129    0.3764   -0.5747 H   0  0  0  0  0  0  0  0  0  0  0  0
   -0.3795    0.6248    0.2711 C   0  0  1  0  0  0  0  0  0  0  0  0
   -0.5568    1.6988    0.1831 H   0  0  0  0  0  0  0  0  0  0  0  0
    0.3394    0.4034    1.6289 C   0  0  0  0  0  0  0  0  0  0  0  0
    0.5211   -0.6592    1.8049 H   0  0  0  0  0  0  0  0  0  0  0  0
    1.3244    0.8785    1.5800 H   0  0  0  0  0  0  0  0  0  0  0  0
   -0.4032    1.0276    2.8300 C   0  0  0  0  0  0  0  0  0  0  0  0
   -1.4235    0.6309    2.8629 H   0  0  0  0  0  0  0  0  0  0  0  0
    0.3111    0.6210    4.1239 C   0  0  0  0  0  0  0  0  0  0  0  0
    1.3397    0.9949    4.1333 H   0  0  0  0  0  0  0  0  0  0  0  0
   -0.2148    1.0259    4.9942 H   0  0  0  0  0  0  0  0  0  0  0  0
    0.3356   -0.4694    4.2178 H   0  0  0  0  0  0  0  0  0  0  0  0
   -0.4720    2.5610    2.7576 C   0  0  0  0  0  0  0  0  0  0  0  0
   -1.1148    2.8869    1.9354 H   0  0  0  0  0  0  0  0  0  0  0  0
   -0.8900    2.9661    3.6846 H   0  0  0  0  0  0  0  0  0  0  0  0
    0.5262    2.9865    2.6140 H   0  0  0  0  0  0  0  0  0  0  0  0
    0.5075    0.2837   -0.9502 C   0  0  0  0  0  0  0  0  0  0  0  0
    0.0366    0.4076   -2.0754 O   0  0  0  0  0  0  0  0  0  0  0  0
    1.8341   -0.0898   -0.8202 N   0  0  0  0  0  0  0  0  0  0  0  0
    2.1582   -0.3097    0.1172 H   0  0  0  0  0  0  0  0  0  0  0  0
    2.6731   -0.4590   -1.9538 C   0  0  0  0  0  0  0  0  0  0  0  0
    2.7305    0.3650   -2.6729 H   0  0  0  0  0  0  0  0  0  0  0  0
    3.6874   -0.6893   -1.6143 H   0  0  0  0  0  0  0  0  0  0  0  0
    2.2671   -1.3412   -2.4597 H   0  0  0  0  0  0  0  0  0  0  0  0
  1  2  1  0  0  0  0
  2  3  1  0  0  0  0
  2  4  1  0  0  0  0
  2  5  1  0  0  0  0
  5  6  2  0  0  0  0
  5  7  1  0  0  0  0
  7  8  1  0  0  0  0
  7  9  1  0  0  0  0
  9 10  1  0  0  0  0
  9 11  1  0  0  0  0
  9 24  1  0  0  0  0
 11 12  1  0  0  0  0
 11 13  1  0  0  0  0
 11 14  1  0  0  0  0
 14 15  1  0  0  0  0
 14 16  1  0  0  0  0
 14 20  1  0  0  0  0
 16 17  1  0  0  0  0
 16 18  1  0  0  0  0
 16 19  1  0  0  0  0
 20 21  1  0  0  0  0
 20 22  1  0  0  0  0
 20 23  1  0  0  0  0
 24 25  2  0  0  0  0
 24 26  1  0  0  0  0
 26 27  1  0  0  0  0
 26 28  1  0  0  0  0
 28 29  1  0  0  0  0
 28 30  1  0  0  0  0
 28 31  1  0  0  0  0
M  END
$$$$

  -OEChem-01062216083D

 31 30  0     1  0  0  0  0  0999 V2000
   -3.6074   -2.8093    0.5621 H   0  0  0  0  0  0  0  0  0  0  0  0
   -3.4528   -1.8009    0.1677 C   0  0  0  0  0  0  0  0  0  0  0  0
   -4.2040   -1.1355    0.5998 H   0  0  0  0  0  0  0  0  0  0  0  0
   -3.5771   -1.8250   -0.9178 H   0  0  0  0  0  0  0  0  0  0  0  0
   -2.0608   -1.3093    0.5178 C   0  0  0  0  0  0  0  0  0  0  0  0
   -1.3017   -2.0592    1.1077 O   0  0  0  0  0  0  0  0  0  0  0  0
   -1.6778   -0.0488    0.0980 N   0  0  0  0  0  0  0  0  0  0  0  0
   -2.3310    0.4105   -0.5313 H   0  0  0  0  0  0  0  0  0  0  0  0
   -0.3679    0.6155    0.2663 C   0  0  1  0  0  0  0  0  0  0  0  0
   -0.5458    1.6893    0.1782 H   0  0  0  0  0  0  0  0  0  0  0  0
    0.3408    0.3982    1.6297 C   0  0  0  0  0  0  0  0  0  0  0  0
    0.5141   -0.6643    1.8132 H   0  0  0  0  0  0  0  0  0  0  0  0
    1.3298    0.8660    1.5803 H   0  0  0  0  0  0  0  0  0  0  0  0
   -0.4100    1.0261    2.8238 C   0  0  0  0  0  0  0  0  0  0  0  0
   -1.4310    0.6309    2.8509 H   0  0  0  0  0  0  0  0  0  0  0  0
    0.2943    0.6236    4.1245 C   0  0  0  0  0  0  0  0  0  0  0  0
    1.3224    0.9995    4.1407 H   0  0  0  0  0  0  0  0  0  0  0  0
   -0.2386    1.0300    4.9898 H   0  0  0  0  0  0  0  0  0  0  0  0
    0.3196   -0.4665    4.2220 H   0  0  0  0  0  0  0  0  0  0  0  0
   -0.4750    2.5589    2.7447 C   0  0  0  0  0  0  0  0  0  0  0  0
   -1.1165    2.8823    1.9206 H   0  0  0  0  0  0  0  0  0  0  0  0
   -0.8927    2.9691    3.6695 H   0  0  0  0  0  0  0  0  0  0  0  0
    0.5245    2.9812    2.5996 H   0  0  0  0  0  0  0  0  0  0  0  0
    0.5292    0.2799   -0.9458 C   0  0  0  0  0  0  0  0  0  0  0  0
    0.1621    0.6200   -2.0643 O   0  0  0  0  0  0  0  0  0  0  0  0
    1.7392   -0.3759   -0.8031 N   0  0  0  0  0  0  0  0  0  0  0  0
    1.9288   -0.7850    0.1078 H   0  0  0  0  0  0  0  0  0  0  0  0
    2.5604   -0.7839   -1.9359 C   0  0  0  0  0  0  0  0  0  0  0  0
    2.8298    0.0843   -2.5467 H   0  0  0  0  0  0  0  0  0  0  0  0
    3.4825   -1.2555   -1.5831 H   0  0  0  0  0  0  0  0  0  0  0  0
    2.0197   -1.5013   -2.5620 H   0  0  0  0  0  0  0  0  0  0  0  0
  1  2  1  0  0  0  0
  2  3  1  0  0  0  0
  2  4  1  0  0  0  0
  2  5  1  0  0  0  0
  5  6  2  0  0  0  0
  5  7  1  0  0  0  0
  7  8  1  0  0  0  0
  7  9  1  0  0  0  0
  9 10  1  0  0  0  0
  9 11  1  0  0  0  0
  9 24  1  0  0  0  0
 11 12  1  0  0  0  0
 11 13  1  0  0  0  0
 11 14  1  0  0  0  0
 14 15  1  0  0  0  0
 14 16  1  0  0  0  0
 14 20  1  0  0  0  0
 16 17  1  0  0  0  0
 16 18  1  0  0  0  0
 16 19  1  0  0  0  0
 20 21  1  0  0  0  0
 20 22  1  0  0  0  0
 20 23  1  0  0  0  0
 24 25  2  0  0  0  0
 24 26  1  0  0  0  0
 26 27  1  0  0  0  0
 26 28  1  0  0  0  0
 28 29  1  0  0  0  0
 28 30  1  0  0  0  0
 28 31  1  0  0  0  0
M  END
$$$$

  -OEChem-01062216083D

 31 30  0     1  0  0  0  0  0999 V2000
   -3.6120   -2.7845    0.6289 H   0  0  0  0  0  0  0  0  0  0  0  0
   -3.4624   -1.7785    0.2270 C   0  0  0  0  0  0  0  0  0  0  0  0
   -4.1711   -1.0996    0.7074 H   0  0  0  0  0  0  0  0  0  0  0  0
   -3.6562   -1.7963   -0.8482 H   0  0  0  0  0  0  0  0  0  0  0  0
   -2.0410   -1.3164    0.4882 C   0  0  0  0  0  0  0  0  0  0  0  0
   -1.2469   -2.0929    0.9924 O   0  0  0  0  0  0  0  0  0  0  0  0
   -1.6615   -0.0552    0.0687 N   0  0  0  0  0  0  0  0  0  0  0  0
   -2.3570    0.4549   -0.4692 H   0  0  0  0  0  0  0  0  0  0  0  0
   -0.3539    0.6079    0.2507 C   0  0  1  0  0  0  0  0  0  0  0  0
   -0.5313    1.6821    0.1617 H   0  0  0  0  0  0  0  0  0  0  0  0
    0.3425    0.3902    1.6196 C   0  0  0  0  0  0  0  0  0  0  0  0
    0.5099   -0.6722    1.8078 H   0  0  0  0  0  0  0  0  0  0  0  0
    1.3343    0.8526    1.5744 H   0  0  0  0  0  0  0  0  0  0  0  0
   -0.4190    1.0182    2.8074 C   0  0  0  0  0  0  0  0  0  0  0  0
   -1.4398    0.6221    2.8259 H   0  0  0  0  0  0  0  0  0  0  0  0
    0.2736    0.6159    4.1146 C   0  0  0  0  0  0  0  0  0  0  0  0
    1.3016    0.9911    4.1391 H   0  0  0  0  0  0  0  0  0  0  0  0
   -0.2661    1.0238    4.9751 H   0  0  0  0  0  0  0  0  0  0  0  0
    0.2979   -0.4741    4.2132 H   0  0  0  0  0  0  0  0  0  0  0  0
   -0.4870    2.5508    2.7271 C   0  0  0  0  0  0  0  0  0  0  0  0
   -1.1225    2.8723    1.8977 H   0  0  0  0  0  0  0  0  0  0  0  0
   -0.9131    2.9606    3.6482 H   0  0  0  0  0  0  0  0  0  0  0  0
    0.5124    2.9756    2.5896 H   0  0  0  0  0  0  0  0  0  0  0  0
    0.5568    0.2728   -0.9482 C   0  0  0  0  0  0  0  0  0  0  0  0
    0.3499    0.8181   -2.0251 O   0  0  0  0  0  0  0  0  0  0  0  0
    1.5928   -0.6357   -0.8306 N   0  0  0  0  0  0  0  0  0  0  0  0
    1.5902   -1.2074    0.0109 H   0  0  0  0  0  0  0  0  0  0  0  0
    2.3951   -1.0726   -1.9661 C   0  0  0  0  0  0  0  0  0  0  0  0
    2.8776   -0.2153   -2.4474 H   0  0  0  0  0  0  0  0  0  0  0  0
    3.1754   -1.7637   -1.6333 H   0  0  0  0  0  0  0  0  0  0  0  0
    1.7682   -1.5842   -2.7038 H   0  0  0  0  0  0  0  0  0  0  0  0
  1  2  1  0  0  0  0
  2  3  1  0  0  0  0
  2  4  1  0  0  0  0
  2  5  1  0  0  0  0
  5  6  2  0  0  0  0
  5  7  1  0  0  0  0
  7  8  1  0  0  0  0
  7  9  1  0  0  0  0
  9 10  1  0  0  0  0
  9 11  1  0  0  0  0
  9 24  1  0  0  0  0
 11 12  1  0  0  0  0
 11 13  1  0  0  0  0
 11 14  1  0  0  0  0
 14 15  1  0  0  0  0
 14 16  1  0  0  0  0
 14 20  1  0  0  0  0
 16 17  1  0  0  0  0
 16 18  1  0  0  0  0
 16 19  1  0  0  0  0
 20 21  1  0  0  0  0
 20 22  1  0  0  0  0
 20 23  1  0  0  0  0
 24 25  2  0  0  0  0
 24 26  1  0  0  0  0
 26 27  1  0  0  0  0
 26 28  1  0  0  0  0
 28 29  1  0  0  0  0
 28 30  1  0  0  0  0
 28 31  1  0  0  0  0
M  END
$$$$

  -OEChem-01062216083D

 31 30  0     1  0  0  0  0  0999 V2000
   -3.6214   -2.7320    0.7730 H   0  0  0  0  0  0  0  0  0  0  0  0
   -3.4750   -1.7524    0.3090 C   0  0  0  0  0  0  0  0  0  0  0  0
   -4.1344   -1.0312    0.7978 H   0  0  0  0  0  0  0  0  0  0  0  0
   -3.7397   -1.8200   -0.7491 H   0  0  0  0  0  0  0  0  0  0  0  0
   -2.0290   -1.3166    0.4528 C   0  0  0  0  0  0  0  0  0  0  0  0
   -1.1993   -2.1183    0.8510 O   0  0  0  0  0  0  0  0  0  0  0  0
   -1.6587   -0.0552    0.0264 N   0  0  0  0  0  0  0  0  0  0  0  0
   -2.3948    0.5025   -0.3978 H   0  0  0  0  0  0  0  0  0  0  0  0
   -0.3522    0.6053    0.2221 C   0  0  1  0  0  0  0  0  0  0  0  0
   -0.5266    1.6803    0.1338 H   0  0  0  0  0  0  0  0  0  0  0  0
    0.3362    0.3803    1.5932 C   0  0  0  0  0  0  0  0  0  0  0  0
    0.4999   -0.6834    1.7777 H   0  0  0  0  0  0  0  0  0  0  0  0
    1.3302    0.8395    1.5534 H   0  0  0  0  0  0  0  0  0  0  0  0
   -0.4302    1.0016    2.7806 C   0  0  0  0  0  0  0  0  0  0  0  0
   -1.4520    0.6077    2.7917 H   0  0  0  0  0  0  0  0  0  0  0  0
    0.2562    0.5911    4.0884 C   0  0  0  0  0  0  0  0  0  0  0  0
    1.2825    0.9703    4.1222 H   0  0  0  0  0  0  0  0  0  0  0  0
   -0.2908    0.9899    4.9483 H   0  0  0  0  0  0  0  0  0  0  0  0
    0.2845   -0.4994    4.1788 H   0  0  0  0  0  0  0  0  0  0  0  0
   -0.4926    2.5351    2.7088 C   0  0  0  0  0  0  0  0  0  0  0  0
   -1.1252    2.8634    1.8797 H   0  0  0  0  0  0  0  0  0  0  0  0
   -0.9188    2.9412    3.6316 H   0  0  0  0  0  0  0  0  0  0  0  0
    0.5088    2.9567    2.5757 H   0  0  0  0  0  0  0  0  0  0  0  0
    0.5731    0.2651   -0.9610 C   0  0  0  0  0  0  0  0  0  0  0  0
    0.5882    0.9868   -1.9502 O   0  0  0  0  0  0  0  0  0  0  0  0
    1.3854   -0.8516   -0.9051 N   0  0  0  0  0  0  0  0  0  0  0  0
    1.1649   -1.5181   -0.1660 H   0  0  0  0  0  0  0  0  0  0  0  0
    2.1935   -1.3005   -2.0307 C   0  0  0  0  0  0  0  0  0  0  0  0
    2.8764   -0.5072   -2.3527 H   0  0  0  0  0  0  0  0  0  0  0  0
    2.7902   -2.1715   -1.7432 H   0  0  0  0  0  0  0  0  0  0  0  0
    1.5532   -1.5789   -2.8741 H   0  0  0  0  0  0  0  0  0  0  0  0
  1  2  1  0  0  0  0
  2  3  1  0  0  0  0
  2  4  1  0  0  0  0
  2  5  1  0  0  0  0
  5  6  2  0  0  0  0
  5  7  1  0  0  0  0
  7  8  1  0  0  0  0
  7  9  1  0  0  0  0
  9 10  1  0  0  0  0
  9 11  1  0  0  0  0
  9 24  1  0  0  0  0
 11 12  1  0  0  0  0
 11 13  1  0  0  0  0
 11 14  1  0  0  0  0
 14 15  1  0  0  0  0
 14 16  1  0  0  0  0
 14 20  1  0  0  0  0
 16 17  1  0  0  0  0
 16 18  1  0  0  0  0
 16 19  1  0  0  0  0
 20 21  1  0  0  0  0
 20 22  1  0  0  0  0
 20 23  1  0  0  0  0
 24 25  2  0  0  0  0
 24 26  1  0  0  0  0
 26 27  1  0  0  0  0
 26 28  1  0  0  0  0
 28 29  1  0  0  0  0
 28 30  1  0  0  0  0
 28 31  1  0  0  0  0
M  END
$$$$

  -OEChem-01062216083D

 31 30  0     1  0  0  0  0  0999 V2000
   -3.5965   -2.7274    0.8116 H   0  0  0  0  0  0  0  0  0  0  0  0
   -3.4781   -1.7218    0.3981 C   0  0  0  0  0  0  0  0  0  0  0  0
   -4.0715   -1.0251    0.9951 H   0  0  0  0  0  0  0  0  0  0  0  0
   -3.8477   -1.7178   -0.6302 H   0  0  0  0  0  0  0  0  0  0  0  0
   -2.0171   -1.3146    0.4252 C   0  0  0  0  0  0  0  0  0  0  0  0
   -1.1677   -2.1381    0.7276 O   0  0  0  0  0  0  0  0  0  0  0  0
   -1.6539   -0.0553   -0.0121 N   0  0  0  0  0  0  0  0  0  0  0  0
   -2.4173    0.5356   -0.3293 H   0  0  0  0  0  0  0  0  0  0  0  0
   -0.3473    0.6041    0.1930 C   0  0  1  0  0  0  0  0  0  0  0  0
   -0.5172    1.6798    0.1021 H   0  0  0  0  0  0  0  0  0  0  0  0
    0.3280    0.3705    1.5679 C   0  0  0  0  0  0  0  0  0  0  0  0
    0.4873   -0.6949    1.7469 H   0  0  0  0  0  0  0  0  0  0  0  0
    1.3238    0.8261    1.5385 H   0  0  0  0  0  0  0  0  0  0  0  0
   -0.4480    0.9875    2.7520 C   0  0  0  0  0  0  0  0  0  0  0  0
   -1.4708    0.5963    2.7522 H   0  0  0  0  0  0  0  0  0  0  0  0
    0.2262    0.5682    4.0633 C   0  0  0  0  0  0  0  0  0  0  0  0
    1.2558    0.9378    4.1046 H   0  0  0  0  0  0  0  0  0  0  0  0
   -0.3221    0.9694    4.9212 H   0  0  0  0  0  0  0  0  0  0  0  0
    0.2441   -0.5227    4.1510 H   0  0  0  0  0  0  0  0  0  0  0  0
   -0.5057    2.5215    2.6894 C   0  0  0  0  0  0  0  0  0  0  0  0
   -1.1152    2.8585    1.8468 H   0  0  0  0  0  0  0  0  0  0  0  0
   -0.9552    2.9214    3.6038 H   0  0  0  0  0  0  0  0  0  0  0  0
    0.4998    2.9418    2.5859 H   0  0  0  0  0  0  0  0  0  0  0  0
    0.5922    0.2552   -0.9750 C   0  0  0  0  0  0  0  0  0  0  0  0
    0.8411    1.0858   -1.8393 O   0  0  0  0  0  0  0  0  0  0  0  0
    1.1563   -1.0043   -1.0341 N   0  0  0  0  0  0  0  0  0  0  0  0
    0.7600   -1.6935   -0.3921 H   0  0  0  0  0  0  0  0  0  0  0  0
    1.9552   -1.4687   -2.1596 C   0  0  0  0  0  0  0  0  0  0  0  0
    2.8127   -0.8069   -2.3201 H   0  0  0  0  0  0  0  0  0  0  0  0
    2.3312   -2.4774   -1.9637 H   0  0  0  0  0  0  0  0  0  0  0  0
    1.3518   -1.4925   -3.0729 H   0  0  0  0  0  0  0  0  0  0  0  0
  1  2  1  0  0  0  0
  2  3  1  0  0  0  0
  2  4  1  0  0  0  0
  2  5  1  0  0  0  0
  5  6  2  0  0  0  0
  5  7  1  0  0  0  0
  7  8  1  0  0  0  0
  7  9  1  0  0  0  0
  9 10  1  0  0  0  0
  9 11  1  0  0  0  0
  9 24  1  0  0  0  0
 11 12  1  0  0  0  0
 11 13  1  0  0  0  0
 11 14  1  0  0  0  0
 14 15  1  0  0  0  0
 14 16  1  0  0  0  0
 14 20  1  0  0  0  0
 16 17  1  0  0  0  0
 16 18  1  0  0  0  0
 16 19  1  0  0  0  0
 20 21  1  0  0  0  0
 20 22  1  0  0  0  0
 20 23  1  0  0  0  0
 24 25  2  0  0  0  0
 24 26  1  0  0  0  0
 26 27  1  0  0  0  0
 26 28  1  0  0  0  0
 28 29  1  0  0  0  0
 28 30  1  0  0  0  0
 28 31  1  0  0  0  0
M  END
$$$$

  -OEChem-01062216083D

 31 30  0     1  0  0  0  0  0999 V2000
   -3.6402   -2.6862    0.9081 H   0  0  0  0  0  0  0  0  0  0  0  0
   -3.5189   -1.6930    0.4663 C   0  0  0  0  0  0  0  0  0  0  0  0
   -4.0768   -0.9715    1.0681 H   0  0  0  0  0  0  0  0  0  0  0  0
   -3.9264   -1.7056   -0.5475 H   0  0  0  0  0  0  0  0  0  0  0  0
   -2.0510   -1.3137    0.4292 C   0  0  0  0  0  0  0  0  0  0  0  0
   -1.2038   -2.1566    0.6789 O   0  0  0  0  0  0  0  0  0  0  0  0
   -1.6837   -0.0607   -0.0223 N   0  0  0  0  0  0  0  0  0  0  0  0
   -2.4546    0.5444   -0.2907 H   0  0  0  0  0  0  0  0  0  0  0  0
   -0.3715    0.5957    0.1681 C   0  0  1  0  0  0  0  0  0  0  0  0
   -0.5390    1.6718    0.0764 H   0  0  0  0  0  0  0  0  0  0  0  0
    0.3105    0.3544    1.5370 C   0  0  0  0  0  0  0  0  0  0  0  0
    0.4632   -0.7136    1.7081 H   0  0  0  0  0  0  0  0  0  0  0  0
    1.3093    0.8032    1.5027 H   0  0  0  0  0  0  0  0  0  0  0  0
   -0.4528    0.9708    2.7294 C   0  0  0  0  0  0  0  0  0  0  0  0
   -1.4780    0.5866    2.7365 H   0  0  0  0  0  0  0  0  0  0  0  0
    0.2290    0.5427    4.0340 C   0  0  0  0  0  0  0  0  0  0  0  0
    1.2615    0.9050    4.0679 H   0  0  0  0  0  0  0  0  0  0  0  0
   -0.3095    0.9455    4.8976 H   0  0  0  0  0  0  0  0  0  0  0  0
    0.2400   -0.5486    4.1181 H   0  0  0  0  0  0  0  0  0  0  0  0
   -0.5006    2.5051    2.6707 C   0  0  0  0  0  0  0  0  0  0  0  0
   -1.1143    2.8475    1.8333 H   0  0  0  0  0  0  0  0  0  0  0  0
   -0.9398    2.9064    3.5893 H   0  0  0  0  0  0  0  0  0  0  0  0
    0.5070    2.9184    2.5598 H   0  0  0  0  0  0  0  0  0  0  0  0
    0.5758    0.2435   -0.9930 C   0  0  0  0  0  0  0  0  0  0  0  0
    1.0442    1.1253   -1.7010 O   0  0  0  0  0  0  0  0  0  0  0  0
    0.8974   -1.0796   -1.2235 N   0  0  0  0  0  0  0  0  0  0  0  0
    0.4134   -1.7685   -0.6428 H   0  0  0  0  0  0  0  0  0  0  0  0
    1.7371   -1.5310   -2.3235 C   0  0  0  0  0  0  0  0  0  0  0  0
    2.7173   -1.0448   -2.2820 H   0  0  0  0  0  0  0  0  0  0  0  0
    1.8863   -2.6133   -2.2636 H   0  0  0  0  0  0  0  0  0  0  0  0
    1.2671   -1.2968   -3.2841 H   0  0  0  0  0  0  0  0  0  0  0  0
  1  2  1  0  0  0  0
  2  3  1  0  0  0  0
  2  4  1  0  0  0  0
  2  5  1  0  0  0  0
  5  6  2  0  0  0  0
  5  7  1  0  0  0  0
  7  8  1  0  0  0  0
  7  9  1  0  0  0  0
  9 10  1  0  0  0  0
  9 11  1  0  0  0  0
  9 24  1  0  0  0  0
 11 12  1  0  0  0  0
 11 13  1  0  0  0  0
 11 14  1  0  0  0  0
 14 15  1  0  0  0  0
 14 16  1  0  0  0  0
 14 20  1  0  0  0  0
 16 17  1  0  0  0  0
 16 18  1  0  0  0  0
 16 19  1  0  0  0  0
 20 21  1  0  0  0  0
 20 22  1  0  0  0  0
 20 23  1  0  0  0  0
 24 25  2  0  0  0  0
 24 26  1  0  0  0  0
 26 27  1  0  0  0  0
 26 28  1  0  0  0  0
 28 29  1  0  0  0  0
 28 30  1  0  0  0  0
 28 31  1  0  0  0  0
M  END
$$$$

  -OEChem-01062216083D

 31 30  0     1  0  0  0  0  0999 V2000
   -3.6799   -2.6770    0.9595 H   0  0  0  0  0  0  0  0  0  0  0  0
   -3.5679   -1.6679    0.5527 C   0  0  0  0  0  0  0  0  0  0  0  0
   -4.0717   -0.9640    1.2196 H   0  0  0  0  0  0  0  0  0  0  0  0
   -4.0404   -1.6300   -0.4319 H   0  0  0  0  0  0  0  0  0  0  0  0
   -2.0979   -1.3117    0.4364 C   0  0  0  0  0  0  0  0  0  0  0  0
   -1.2513   -2.1695    0.6283 O   0  0  0  0  0  0  0  0  0  0  0  0
   -1.7343   -0.0625   -0.0279 N   0  0  0  0  0  0  0  0  0  0  0  0
   -2.5127    0.5537   -0.2440 H   0  0  0  0  0  0  0  0  0  0  0  0
   -0.4156    0.5919    0.1348 C   0  0  1  0  0  0  0  0  0  0  0  0
   -0.5825    1.6685    0.0474 H   0  0  0  0  0  0  0  0  0  0  0  0
    0.2858    0.3411    1.4916 C   0  0  0  0  0  0  0  0  0  0  0  0
    0.4353   -0.7293    1.6531 H   0  0  0  0  0  0  0  0  0  0  0  0
    1.2862    0.7852    1.4450 H   0  0  0  0  0  0  0  0  0  0  0  0
   -0.4549    0.9551    2.6992 C   0  0  0  0  0  0  0  0  0  0  0  0
   -1.4814    0.5754    2.7218 H   0  0  0  0  0  0  0  0  0  0  0  0
    0.2455    0.5173    3.9906 C   0  0  0  0  0  0  0  0  0  0  0  0
    1.2774    0.8822    4.0141 H   0  0  0  0  0  0  0  0  0  0  0  0
   -0.2827    0.9111    4.8644 H   0  0  0  0  0  0  0  0  0  0  0  0
    0.2609   -0.5747    4.0650 H   0  0  0  0  0  0  0  0  0  0  0  0
   -0.4967    2.4896    2.6485 C   0  0  0  0  0  0  0  0  0  0  0  0
   -1.1284    2.8377    1.8271 H   0  0  0  0  0  0  0  0  0  0  0  0
   -0.9118    2.8890    3.5791 H   0  0  0  0  0  0  0  0  0  0  0  0
    0.5098    2.8989    2.5152 H   0  0  0  0  0  0  0  0  0  0  0  0
    0.5277    0.2444   -1.0329 C   0  0  0  0  0  0  0  0  0  0  0  0
    1.2024    1.1187   -1.5608 O   0  0  0  0  0  0  0  0  0  0  0  0
    0.6204   -1.0621   -1.4713 N   0  0  0  0  0  0  0  0  0  0  0  0
    0.1065   -1.7557   -0.9229 H   0  0  0  0  0  0  0  0  0  0  0  0
    1.5527   -1.5079   -2.4969 C   0  0  0  0  0  0  0  0  0  0  0  0
    2.5849   -1.3231   -2.1822 H   0  0  0  0  0  0  0  0  0  0  0  0
    1.4309   -2.5803   -2.6761 H   0  0  0  0  0  0  0  0  0  0  0  0
    1.3697   -0.9776   -3.4373 H   0  0  0  0  0  0  0  0  0  0  0  0
  1  2  1  0  0  0  0
  2  3  1  0  0  0  0
  2  4  1  0  0  0  0
  2  5  1  0  0  0  0
  5  6  2  0  0  0  0
  5  7  1  0  0  0  0
  7  8  1  0  0  0  0
  7  9  1  0  0  0  0
  9 10  1  0  0  0  0
  9 11  1  0  0  0  0
  9 24  1  0  0  0  0
 11 12  1  0  0  0  0
 11 13  1  0  0  0  0
 11 14  1  0  0  0  0
 14 15  1  0  0  0  0
 14 16  1  0  0  0  0
 14 20  1  0  0  0  0
 16 17  1  0  0  0  0
 16 18  1  0  0  0  0
 16 19  1  0  0  0  0
 20 21  1  0  0  0  0
 20 22  1  0  0  0  0
 20 23  1  0  0  0  0
 24 25  2  0  0  0  0
 24 26  1  0  0  0  0
 26 27  1  0  0  0  0
 26 28  1  0  0  0  0
 28 29  1  0  0  0  0
 28 30  1  0  0  0  0
 28 31  1  0  0  0  0
M  END
$$$$

  -OEChem-01062216083D

 31 30  0     1  0  0  0  0  0999 V2000
   -3.6790   -2.6711    1.0101 H   0  0  0  0  0  0  0  0  0  0  0  0
   -3.5765   -1.6567    0.6142 C   0  0  0  0  0  0  0  0  0  0  0  0
   -4.0438   -0.9592    1.3132 H   0  0  0  0  0  0  0  0  0  0  0  0
   -4.0922   -1.5998   -0.3475 H   0  0  0  0  0  0  0  0  0  0  0  0
   -2.1102   -1.3113    0.4381 C   0  0  0  0  0  0  0  0  0  0  0  0
   -1.2640   -2.1809    0.5637 O   0  0  0  0  0  0  0  0  0  0  0  0
   -1.7533   -0.0619   -0.0299 N   0  0  0  0  0  0  0  0  0  0  0  0
   -2.5360    0.5650   -0.1936 H   0  0  0  0  0  0  0  0  0  0  0  0
   -0.4299    0.5887    0.1210 C   0  0  1  0  0  0  0  0  0  0  0  0
   -0.5950    1.6654    0.0353 H   0  0  0  0  0  0  0  0  0  0  0  0
    0.2713    0.3317    1.4772 C   0  0  0  0  0  0  0  0  0  0  0  0
    0.4110   -0.7404    1.6360 H   0  0  0  0  0  0  0  0  0  0  0  0
    1.2757    0.7672    1.4320 H   0  0  0  0  0  0  0  0  0  0  0  0
   -0.4644    0.9498    2.6862 C   0  0  0  0  0  0  0  0  0  0  0  0
   -1.4934    0.5771    2.7104 H   0  0  0  0  0  0  0  0  0  0  0  0
    0.2338    0.5063    3.9770 C   0  0  0  0  0  0  0  0  0  0  0  0
    1.2677    0.8657    4.0003 H   0  0  0  0  0  0  0  0  0  0  0  0
   -0.2918    0.9020    4.8516 H   0  0  0  0  0  0  0  0  0  0  0  0
    0.2431   -0.5858    4.0505 H   0  0  0  0  0  0  0  0  0  0  0  0
   -0.4967    2.4846    2.6343 C   0  0  0  0  0  0  0  0  0  0  0  0
   -1.1328    2.8359    1.8175 H   0  0  0  0  0  0  0  0  0  0  0  0
   -0.9019    2.8881    3.5675 H   0  0  0  0  0  0  0  0  0  0  0  0
    0.5112    2.8875    2.4921 H   0  0  0  0  0  0  0  0  0  0  0  0
    0.5151    0.2499   -1.0500 C   0  0  0  0  0  0  0  0  0  0  0  0
    1.3552    1.0634   -1.4120 O   0  0  0  0  0  0  0  0  0  0  0  0
    0.4000   -0.9616   -1.7045 N   0  0  0  0  0  0  0  0  0  0  0  0
   -0.1830   -1.6551   -1.2325 H   0  0  0  0  0  0  0  0  0  0  0  0
    1.3350   -1.4087   -2.7277 C   0  0  0  0  0  0  0  0  0  0  0  0
    2.3404   -1.5144   -2.3073 H   0  0  0  0  0  0  0  0  0  0  0  0
    1.0209   -2.3777   -3.1274 H   0  0  0  0  0  0  0  0  0  0  0  0
    1.3712   -0.6910   -3.5540 H   0  0  0  0  0  0  0  0  0  0  0  0
  1  2  1  0  0  0  0
  2  3  1  0  0  0  0
  2  4  1  0  0  0  0
  2  5  1  0  0  0  0
  5  6  2  0  0  0  0
  5  7  1  0  0  0  0
  7  8  1  0  0  0  0
  7  9  1  0  0  0  0
  9 10  1  0  0  0  0
  9 11  1  0  0  0  0
  9 24  1  0  0  0  0
 11 12  1  0  0  0  0
 11 13  1  0  0  0  0
 11 14  1  0  0  0  0
 14 15  1  0  0  0  0
 14 16  1  0  0  0  0
 14 20  1  0  0  0  0
 16 17  1  0  0  0  0
 16 18  1  0  0  0  0
 16 19  1  0  0  0  0
 20 21  1  0  0  0  0
 20 22  1  0  0  0  0
 20 23  1  0  0  0  0
 24 25  2  0  0  0  0
 24 26  1  0  0  0  0
 26 27  1  0  0  0  0
 26 28  1  0  0  0  0
 28 29  1  0  0  0  0
 28 30  1  0  0  0  0
 28 31  1  0  0  0  0
M  END
$$$$

  -OEChem-01062216083D

 31 30  0     1  0  0  0  0  0999 V2000
   -3.6740   -2.6330    1.1218 H   0  0  0  0  0  0  0  0  0  0  0  0
   -3.5786   -1.6461    0.6599 C   0  0  0  0  0  0  0  0  0  0  0  0
   -4.0372   -0.9055    1.3196 H   0  0  0  0  0  0  0  0  0  0  0  0
   -4.1077   -1.6510   -0.2962 H   0  0  0  0  0  0  0  0  0  0  0  0
   -2.1152   -1.3122    0.4415 C   0  0  0  0  0  0  0  0  0  0  0  0
   -1.2734   -2.1883    0.5381 O   0  0  0  0  0  0  0  0  0  0  0  0
   -1.7624   -0.0637   -0.0309 N   0  0  0  0  0  0  0  0  0  0  0  0
   -2.5471    0.5677   -0.1646 H   0  0  0  0  0  0  0  0  0  0  0  0
   -0.4371    0.5867    0.1121 C   0  0  1  0  0  0  0  0  0  0  0  0
   -0.6019    1.6631    0.0265 H   0  0  0  0  0  0  0  0  0  0  0  0
    0.2609    0.3253    1.4703 C   0  0  0  0  0  0  0  0  0  0  0  0
    0.3968   -0.7479    1.6263 H   0  0  0  0  0  0  0  0  0  0  0  0
    1.2668    0.7579    1.4295 H   0  0  0  0  0  0  0  0  0  0  0  0
   -0.4727    0.9437    2.6804 C   0  0  0  0  0  0  0  0  0  0  0  0
   -1.5033    0.5758    2.7038 H   0  0  0  0  0  0  0  0  0  0  0  0
    0.2252    0.4931    3.9689 C   0  0  0  0  0  0  0  0  0  0  0  0
    1.2620    0.8444    3.9905 H   0  0  0  0  0  0  0  0  0  0  0  0
   -0.2952    0.8909    4.8456 H   0  0  0  0  0  0  0  0  0  0  0  0
    0.2268   -0.5993    4.0400 H   0  0  0  0  0  0  0  0  0  0  0  0
   -0.4978    2.4789    2.6338 C   0  0  0  0  0  0  0  0  0  0  0  0
   -1.1197    2.8369    1.8090 H   0  0  0  0  0  0  0  0  0  0  0  0
   -0.9155    2.8802    3.5626 H   0  0  0  0  0  0  0  0  0  0  0  0
    0.5143    2.8775    2.5089 H   0  0  0  0  0  0  0  0  0  0  0  0
    0.5125    0.2534   -1.0589 C   0  0  0  0  0  0  0  0  0  0  0  0
    1.4854    0.9651   -1.2732 O   0  0  0  0  0  0  0  0  0  0  0  0
    0.2298   -0.7940   -1.9150 N   0  0  0  0  0  0  0  0  0  0  0  0
   -0.4494   -1.4645   -1.5570 H   0  0  0  0  0  0  0  0  0  0  0  0
    1.1407   -1.2220   -2.9685 C   0  0  0  0  0  0  0  0  0  0  0  0
    2.0948   -1.5475   -2.5411 H   0  0  0  0  0  0  0  0  0  0  0  0
    0.7063   -2.0570   -3.5263 H   0  0  0  0  0  0  0  0  0  0  0  0
    1.3295   -0.4018   -3.6691 H   0  0  0  0  0  0  0  0  0  0  0  0
  1  2  1  0  0  0  0
  2  3  1  0  0  0  0
  2  4  1  0  0  0  0
  2  5  1  0  0  0  0
  5  6  2  0  0  0  0
  5  7  1  0  0  0  0
  7  8  1  0  0  0  0
  7  9  1  0  0  0  0
  9 10  1  0  0  0  0
  9 11  1  0  0  0  0
  9 24  1  0  0  0  0
 11 12  1  0  0  0  0
 11 13  1  0  0  0  0
 11 14  1  0  0  0  0
 14 15  1  0  0  0  0
 14 16  1  0  0  0  0
 14 20  1  0  0  0  0
 16 17  1  0  0  0  0
 16 18  1  0  0  0  0
 16 19  1  0  0  0  0
 20 21  1  0  0  0  0
 20 22  1  0  0  0  0
 20 23  1  0  0  0  0
 24 25  2  0  0  0  0
 24 26  1  0  0  0  0
 26 27  1  0  0  0  0
 26 28  1  0  0  0  0
 28 29  1  0  0  0  0
 28 30  1  0  0  0  0
 28 31  1  0  0  0  0
M  END
$$$$

  -OEChem-01062216083D

 31 30  0     1  0  0  0  0  0999 V2000
   -3.6696   -2.6909    1.0219 H   0  0  0  0  0  0  0  0  0  0  0  0
   -3.5683   -1.6665    0.6521 C   0  0  0  0  0  0  0  0  0  0  0  0
   -4.0136   -0.9854    1.3812 H   0  0  0  0  0  0  0  0  0  0  0  0
   -4.1060   -1.5794   -0.2951 H   0  0  0  0  0  0  0  0  0  0  0  0
   -2.1036   -1.3267    0.4519 C   0  0  0  0  0  0  0  0  0  0  0  0
   -1.2615   -2.1975    0.5778 O   0  0  0  0  0  0  0  0  0  0  0  0
   -1.7540   -0.0748   -0.0167 N   0  0  0  0  0  0  0  0  0  0  0  0
   -2.5405    0.5556   -0.1458 H   0  0  0  0  0  0  0  0  0  0  0  0
   -0.4278    0.5769    0.1195 C   0  0  1  0  0  0  0  0  0  0  0  0
   -0.5942    1.6526    0.0326 H   0  0  0  0  0  0  0  0  0  0  0  0
    0.2663    0.3223    1.4834 C   0  0  0  0  0  0  0  0  0  0  0  0
    0.4015   -0.7496    1.6476 H   0  0  0  0  0  0  0  0  0  0  0  0
    1.2729    0.7530    1.4473 H   0  0  0  0  0  0  0  0  0  0  0  0
   -0.4717    0.9508    2.6860 C   0  0  0  0  0  0  0  0  0  0  0  0
   -1.5030    0.5846    2.7073 H   0  0  0  0  0  0  0  0  0  0  0  0
    0.2184    0.5089    3.9817 C   0  0  0  0  0  0  0  0  0  0  0  0
    1.2555    0.8588    4.0063 H   0  0  0  0  0  0  0  0  0  0  0  0
   -0.3061    0.9139    4.8527 H   0  0  0  0  0  0  0  0  0  0  0  0
    0.2178   -0.5829    4.0608 H   0  0  0  0  0  0  0  0  0  0  0  0
   -0.4939    2.4858    2.6289 C   0  0  0  0  0  0  0  0  0  0  0  0
   -1.1128    2.8392    1.8000 H   0  0  0  0  0  0  0  0  0  0  0  0
   -0.9135    2.8941    3.5537 H   0  0  0  0  0  0  0  0  0  0  0  0
    0.5191    2.8819    2.5042 H   0  0  0  0  0  0  0  0  0  0  0  0
    0.5149    0.2511   -1.0621 C   0  0  0  0  0  0  0  0  0  0  0  0
    1.5999    0.8117   -1.1517 O   0  0  0  0  0  0  0  0  0  0  0  0
    0.0934   -0.5690   -2.0923 N   0  0  0  0  0  0  0  0  0  0  0  0
   -0.7125   -1.1497   -1.8749 H   0  0  0  0  0  0  0  0  0  0  0  0
    0.9637   -0.9715   -3.1895 C   0  0  0  0  0  0  0  0  0  0  0  0
    1.8169   -1.5439   -2.8108 H   0  0  0  0  0  0  0  0  0  0  0  0
    0.4126   -1.5962   -3.8987 H   0  0  0  0  0  0  0  0  0  0  0  0
    1.3381   -0.0925   -3.7246 H   0  0  0  0  0  0  0  0  0  0  0  0
  1  2  1  0  0  0  0
  2  3  1  0  0  0  0
  2  4  1  0  0  0  0
  2  5  1  0  0  0  0
  5  6  2  0  0  0  0
  5  7  1  0  0  0  0
  7  8  1  0  0  0  0
  7  9  1  0  0  0  0
  9 10  1  0  0  0  0
  9 11  1  0  0  0  0
  9 24  1  0  0  0  0
 11 12  1  0  0  0  0
 11 13  1  0  0  0  0
 11 14  1  0  0  0  0
 14 15  1  0  0  0  0
 14 16  1  0  0  0  0
 14 20  1  0  0  0  0
 16 17  1  0  0  0  0
 16 18  1  0  0  0  0
 16 19  1  0  0  0  0
 20 21  1  0  0  0  0
 20 22  1  0  0  0  0
 20 23  1  0  0  0  0
 24 25  2  0  0  0  0
 24 26  1  0  0  0  0
 26 27  1  0  0  0  0
 26 28  1  0  0  0  0
 28 29  1  0  0  0  0
 28 30  1  0  0  0  0
 28 31  1  0  0  0  0
M  END
$$$$

  -OEChem-01062216083D

 31 30  0     1  0  0  0  0  0999 V2000
   -3.6534   -2.7066    0.9987 H   0  0  0  0  0  0  0  0  0  0  0  0
   -3.5509   -1.6830    0.6268 C   0  0  0  0  0  0  0  0  0  0  0  0
   -4.0103   -1.0014    1.3467 H   0  0  0  0  0  0  0  0  0  0  0  0
   -4.0743   -1.6018   -0.3288 H   0  0  0  0  0  0  0  0  0  0  0  0
   -2.0845   -1.3370    0.4484 C   0  0  0  0  0  0  0  0  0  0  0  0
   -1.2422   -2.2021    0.6053 O   0  0  0  0  0  0  0  0  0  0  0  0
   -1.7383   -0.0802   -0.0123 N   0  0  0  0  0  0  0  0  0  0  0  0
   -2.5273    0.5481   -0.1351 H   0  0  0  0  0  0  0  0  0  0  0  0
   -0.4137    0.5746    0.1262 C   0  0  1  0  0  0  0  0  0  0  0  0
   -0.5822    1.6502    0.0405 H   0  0  0  0  0  0  0  0  0  0  0  0
    0.2748    0.3235    1.4948 C   0  0  0  0  0  0  0  0  0  0  0  0
    0.4140   -0.7474    1.6611 H   0  0  0  0  0  0  0  0  0  0  0  0
    1.2799    0.7578    1.4670 H   0  0  0  0  0  0  0  0  0  0  0  0
   -0.4700    0.9529    2.6925 C   0  0  0  0  0  0  0  0  0  0  0  0
   -1.5005    0.5842    2.7102 H   0  0  0  0  0  0  0  0  0  0  0  0
    0.2162    0.5135    3.9912 C   0  0  0  0  0  0  0  0  0  0  0  0
    1.2541    0.8610    4.0168 H   0  0  0  0  0  0  0  0  0  0  0  0
   -0.3093    0.9224    4.8598 H   0  0  0  0  0  0  0  0  0  0  0  0
    0.2131   -0.5781    4.0735 H   0  0  0  0  0  0  0  0  0  0  0  0
   -0.4949    2.4876    2.6319 C   0  0  0  0  0  0  0  0  0  0  0  0
   -1.1202    2.8376    1.8065 H   0  0  0  0  0  0  0  0  0  0  0  0
   -0.9084    2.8978    3.5585 H   0  0  0  0  0  0  0  0  0  0  0  0
    0.5166    2.8847    2.4991 H   0  0  0  0  0  0  0  0  0  0  0  0
    0.5218    0.2539   -1.0650 C   0  0  0  0  0  0  0  0  0  0  0  0
    1.6920    0.6145   -1.0533 O   0  0  0  0  0  0  0  0  0  0  0  0
    0.0059   -0.2917   -2.2266 N   0  0  0  0  0  0  0  0  0  0  0  0
   -0.9133   -0.7138   -2.1359 H   0  0  0  0  0  0  0  0  0  0  0  0
    0.8384   -0.6721   -3.3610 C   0  0  0  0  0  0  0  0  0  0  0  0
    1.5596   -1.4413   -3.0653 H   0  0  0  0  0  0  0  0  0  0  0  0
    0.2171   -1.0702   -4.1687 H   0  0  0  0  0  0  0  0  0  0  0  0
    1.3857    0.1956   -3.7441 H   0  0  0  0  0  0  0  0  0  0  0  0
  1  2  1  0  0  0  0
  2  3  1  0  0  0  0
  2  4  1  0  0  0  0
  2  5  1  0  0  0  0
  5  6  2  0  0  0  0
  5  7  1  0  0  0  0
  7  8  1  0  0  0  0
  7  9  1  0  0  0  0
  9 10  1  0  0  0  0
  9 11  1  0  0  0  0
  9 24  1  0  0  0  0
 11 12  1  0  0  0  0
 11 13  1  0  0  0  0
 11 14  1  0  0  0  0
 14 15  1  0  0  0  0
 14 16  1  0  0  0  0
 14 20  1  0  0  0  0
 16 17  1  0  0  0  0
 16 18  1  0  0  0  0
 16 19  1  0  0  0  0
 20 21  1  0  0  0  0
 20 22  1  0  0  0  0
 20 23  1  0  0  0  0
 24 25  2  0  0  0  0
 24 26  1  0  0  0  0
 26 27  1  0  0  0  0
 26 28  1  0  0  0  0
 28 29  1  0  0  0  0
 28 30  1  0  0  0  0
 28 31  1  0  0  0  0
M  END
$$$$

  -OEChem-01062216083D

 31 30  0     1  0  0  0  0  0999 V2000
   -3.6309   -2.7108    1.0042 H   0  0  0  0  0  0  0  0  0  0  0  0
   -3.5301   -1.6944    0.6125 C   0  0  0  0  0  0  0  0  0  0  0  0
   -3.9974   -1.0007    1.3156 H   0  0  0  0  0  0  0  0  0  0  0  0
   -4.0469   -1.6351   -0.3483 H   0  0  0  0  0  0  0  0  0  0  0  0
   -2.0638   -1.3462    0.4378 C   0  0  0  0  0  0  0  0  0  0  0  0
   -1.2221   -2.2076    0.6151 O   0  0  0  0  0  0  0  0  0  0  0  0
   -1.7195   -0.0861   -0.0169 N   0  0  0  0  0  0  0  0  0  0  0  0
   -2.5102    0.5416   -0.1294 H   0  0  0  0  0  0  0  0  0  0  0  0
   -0.3958    0.5684    0.1284 C   0  0  1  0  0  0  0  0  0  0  0  0
   -0.5623    1.6441    0.0424 H   0  0  0  0  0  0  0  0  0  0  0  0
    0.2830    0.3204    1.5034 C   0  0  0  0  0  0  0  0  0  0  0  0
    0.4227   -0.7498    1.6732 H   0  0  0  0  0  0  0  0  0  0  0  0
    1.2873    0.7570    1.4830 H   0  0  0  0  0  0  0  0  0  0  0  0
   -0.4710    0.9538    2.6937 C   0  0  0  0  0  0  0  0  0  0  0  0
   -1.5015    0.5849    2.7042 H   0  0  0  0  0  0  0  0  0  0  0  0
    0.2044    0.5182    3.9992 C   0  0  0  0  0  0  0  0  0  0  0  0
    1.2413    0.8677    4.0333 H   0  0  0  0  0  0  0  0  0  0  0  0
   -0.3297    0.9277    4.8622 H   0  0  0  0  0  0  0  0  0  0  0  0
    0.2026   -0.5733    4.0830 H   0  0  0  0  0  0  0  0  0  0  0  0
   -0.4969    2.4885    2.6287 C   0  0  0  0  0  0  0  0  0  0  0  0
   -1.1178    2.8357    1.7987 H   0  0  0  0  0  0  0  0  0  0  0  0
   -0.9162    2.9006    3.5519 H   0  0  0  0  0  0  0  0  0  0  0  0
    0.5149    2.8862    2.5009 H   0  0  0  0  0  0  0  0  0  0  0  0
    0.5333    0.2460   -1.0686 C   0  0  0  0  0  0  0  0  0  0  0  0
    1.7487    0.3673   -0.9814 O   0  0  0  0  0  0  0  0  0  0  0  0
   -0.0170    0.0049   -2.3148 N   0  0  0  0  0  0  0  0  0  0  0  0
   -1.0060   -0.2230   -2.3221 H   0  0  0  0  0  0  0  0  0  0  0  0
    0.7860   -0.3311   -3.4844 C   0  0  0  0  0  0  0  0  0  0  0  0
    1.3401   -1.2601   -3.3137 H   0  0  0  0  0  0  0  0  0  0  0  0
    0.1425   -0.4655   -4.3590 H   0  0  0  0  0  0  0  0  0  0  0  0
    1.5003    0.4697   -3.7032 H   0  0  0  0  0  0  0  0  0  0  0  0
  1  2  1  0  0  0  0
  2  3  1  0  0  0  0
  2  4  1  0  0  0  0
  2  5  1  0  0  0  0
  5  6  2  0  0  0  0
  5  7  1  0  0  0  0
  7  8  1  0  0  0  0
  7  9  1  0  0  0  0
  9 10  1  0  0  0  0
  9 11  1  0  0  0  0
  9 24  1  0  0  0  0
 11 12  1  0  0  0  0
 11 13  1  0  0  0  0
 11 14  1  0  0  0  0
 14 15  1  0  0  0  0
 14 16  1  0  0  0  0
 14 20  1  0  0  0  0
 16 17  1  0  0  0  0
 16 18  1  0  0  0  0
 16 19  1  0  0  0  0
 20 21  1  0  0  0  0
 20 22  1  0  0  0  0
 20 23  1  0  0  0  0
 24 25  2  0  0  0  0
 24 26  1  0  0  0  0
 26 27  1  0  0  0  0
 26 28  1  0  0  0  0
 28 29  1  0  0  0  0
 28 30  1  0  0  0  0
 28 31  1  0  0  0  0
M  END
$$$$

  -OEChem-01062216083D

 31 30  0     1  0  0  0  0  0999 V2000
   -3.6371   -2.7109    0.9983 H   0  0  0  0  0  0  0  0  0  0  0  0
   -3.5280   -1.7159    0.5573 C   0  0  0  0  0  0  0  0  0  0  0  0
   -4.0434   -0.9932    1.1943 H   0  0  0  0  0  0  0  0  0  0  0  0
   -3.9904   -1.7172   -0.4326 H   0  0  0  0  0  0  0  0  0  0  0  0
   -2.0587   -1.3552    0.4425 C   0  0  0  0  0  0  0  0  0  0  0  0
   -1.2211   -2.2086    0.6692 O   0  0  0  0  0  0  0  0  0  0  0  0
   -1.7100   -0.0947   -0.0095 N   0  0  0  0  0  0  0  0  0  0  0  0
   -2.5012    0.5258   -0.1518 H   0  0  0  0  0  0  0  0  0  0  0  0
   -0.3883    0.5621    0.1366 C   0  0  1  0  0  0  0  0  0  0  0  0
   -0.5556    1.6373    0.0492 H   0  0  0  0  0  0  0  0  0  0  0  0
    0.2928    0.3229    1.5122 C   0  0  0  0  0  0  0  0  0  0  0  0
    0.4372   -0.7458    1.6867 H   0  0  0  0  0  0  0  0  0  0  0  0
    1.2956    0.7625    1.4856 H   0  0  0  0  0  0  0  0  0  0  0  0
   -0.4605    0.9593    2.7014 C   0  0  0  0  0  0  0  0  0  0  0  0
   -1.4904    0.5886    2.7150 H   0  0  0  0  0  0  0  0  0  0  0  0
    0.2189    0.5309    4.0073 C   0  0  0  0  0  0  0  0  0  0  0  0
    1.2551    0.8826    4.0382 H   0  0  0  0  0  0  0  0  0  0  0  0
   -0.3147    0.9421    4.8697 H   0  0  0  0  0  0  0  0  0  0  0  0
    0.2199   -0.5602    4.0958 H   0  0  0  0  0  0  0  0  0  0  0  0
   -0.4874    2.4939    2.6327 C   0  0  0  0  0  0  0  0  0  0  0  0
   -1.1010    2.8396    1.7968 H   0  0  0  0  0  0  0  0  0  0  0  0
   -0.9153    2.9073    3.5513 H   0  0  0  0  0  0  0  0  0  0  0  0
    0.5253    2.8924    2.5135 H   0  0  0  0  0  0  0  0  0  0  0  0
    0.5328    0.2349   -1.0649 C   0  0  0  0  0  0  0  0  0  0  0  0
    1.7419    0.0939   -0.9330 O   0  0  0  0  0  0  0  0  0  0  0  0
    0.0161    0.3016   -2.3470 N   0  0  0  0  0  0  0  0  0  0  0  0
   -0.9954    0.3056   -2.4230 H   0  0  0  0  0  0  0  0  0  0  0  0
    0.8061    0.0179   -3.5393 C   0  0  0  0  0  0  0  0  0  0  0  0
    1.1731   -1.0136   -3.5186 H   0  0  0  0  0  0  0  0  0  0  0  0
    0.1960    0.1524   -4.4375 H   0  0  0  0  0  0  0  0  0  0  0  0
    1.6638    0.6960   -3.6020 H   0  0  0  0  0  0  0  0  0  0  0  0
  1  2  1  0  0  0  0
  2  3  1  0  0  0  0
  2  4  1  0  0  0  0
  2  5  1  0  0  0  0
  5  6  2  0  0  0  0
  5  7  1  0  0  0  0
  7  8  1  0  0  0  0
  7  9  1  0  0  0  0
  9 10  1  0  0  0  0
  9 11  1  0  0  0  0
  9 24  1  0  0  0  0
 11 12  1  0  0  0  0
 11 13  1  0  0  0  0
 11 14  1  0  0  0  0
 14 15  1  0  0  0  0
 14 16  1  0  0  0  0
 14 20  1  0  0  0  0
 16 17  1  0  0  0  0
 16 18  1  0  0  0  0
 16 19  1  0  0  0  0
 20 21  1  0  0  0  0
 20 22  1  0  0  0  0
 20 23  1  0  0  0  0
 24 25  2  0  0  0  0
 24 26  1  0  0  0  0
 26 27  1  0  0  0  0
 26 28  1  0  0  0  0
 28 29  1  0  0  0  0
 28 30  1  0  0  0  0
 28 31  1  0  0  0  0
M  END
$$$$

  -OEChem-01062216083D

 31 30  0     1  0  0  0  0  0999 V2000
   -3.6678   -2.7334    0.9219 H   0  0  0  0  0  0  0  0  0  0  0  0
   -3.5420   -1.7366    0.4889 C   0  0  0  0  0  0  0  0  0  0  0  0
   -4.1003   -1.0191    1.0949 H   0  0  0  0  0  0  0  0  0  0  0  0
   -3.9461   -1.7411   -0.5262 H   0  0  0  0  0  0  0  0  0  0  0  0
   -2.0715   -1.3626    0.4608 C   0  0  0  0  0  0  0  0  0  0  0  0
   -1.2469   -2.1999    0.7760 O   0  0  0  0  0  0  0  0  0  0  0  0
   -1.7122   -0.1050    0.0075 N   0  0  0  0  0  0  0  0  0  0  0  0
   -2.4994    0.4994   -0.2054 H   0  0  0  0  0  0  0  0  0  0  0  0
   -0.3932    0.5576    0.1465 C   0  0  1  0  0  0  0  0  0  0  0  0
   -0.5648    1.6319    0.0593 H   0  0  0  0  0  0  0  0  0  0  0  0
    0.3027    0.3292    1.5156 C   0  0  0  0  0  0  0  0  0  0  0  0
    0.4566   -0.7378    1.6935 H   0  0  0  0  0  0  0  0  0  0  0  0
    1.3024    0.7749    1.4736 H   0  0  0  0  0  0  0  0  0  0  0  0
   -0.4420    0.9655    2.7098 C   0  0  0  0  0  0  0  0  0  0  0  0
   -1.4691    0.5871    2.7353 H   0  0  0  0  0  0  0  0  0  0  0  0
    0.2543    0.5466    4.0100 C   0  0  0  0  0  0  0  0  0  0  0  0
    1.2889    0.9040    4.0277 H   0  0  0  0  0  0  0  0  0  0  0  0
   -0.2718    0.9590    4.8764 H   0  0  0  0  0  0  0  0  0  0  0  0
    0.2619   -0.5441    4.1035 H   0  0  0  0  0  0  0  0  0  0  0  0
   -0.4802    2.4998    2.6358 C   0  0  0  0  0  0  0  0  0  0  0  0
   -1.1053    2.8381    1.8055 H   0  0  0  0  0  0  0  0  0  0  0  0
   -0.9011    2.9136    3.5575 H   0  0  0  0  0  0  0  0  0  0  0  0
    0.5285    2.9044    2.5044 H   0  0  0  0  0  0  0  0  0  0  0  0
    0.5214    0.2251   -1.0584 C   0  0  0  0  0  0  0  0  0  0  0  0
    1.6675   -0.1805   -0.9147 O   0  0  0  0  0  0  0  0  0  0  0  0
    0.1078    0.5787   -2.3314 N   0  0  0  0  0  0  0  0  0  0  0  0
   -0.8631    0.8504   -2.4411 H   0  0  0  0  0  0  0  0  0  0  0  0
    0.9114    0.3454   -3.5257 C   0  0  0  0  0  0  0  0  0  0  0  0
    1.0926   -0.7258   -3.6624 H   0  0  0  0  0  0  0  0  0  0  0  0
    0.3926    0.7256   -4.4108 H   0  0  0  0  0  0  0  0  0  0  0  0
    1.8756    0.8583   -3.4450 H   0  0  0  0  0  0  0  0  0  0  0  0
  1  2  1  0  0  0  0
  2  3  1  0  0  0  0
  2  4  1  0  0  0  0
  2  5  1  0  0  0  0
  5  6  2  0  0  0  0
  5  7  1  0  0  0  0
  7  8  1  0  0  0  0
  7  9  1  0  0  0  0
  9 10  1  0  0  0  0
  9 11  1  0  0  0  0
  9 24  1  0  0  0  0
 11 12  1  0  0  0  0
 11 13  1  0  0  0  0
 11 14  1  0  0  0  0
 14 15  1  0  0  0  0
 14 16  1  0  0  0  0
 14 20  1  0  0  0  0
 16 17  1  0  0  0  0
 16 18  1  0  0  0  0
 16 19  1  0  0  0  0
 20 21  1  0  0  0  0
 20 22  1  0  0  0  0
 20 23  1  0  0  0  0
 24 25  2  0  0  0  0
 24 26  1  0  0  0  0
 26 27  1  0  0  0  0
 26 28  1  0  0  0  0
 28 29  1  0  0  0  0
 28 30  1  0  0  0  0
 28 31  1  0  0  0  0
M  END
$$$$

  -OEChem-01062216083D

 31 30  0     1  0  0  0  0  0999 V2000
   -3.7154   -2.7517    0.8001 H   0  0  0  0  0  0  0  0  0  0  0  0
   -3.5569   -1.7655    0.3543 C   0  0  0  0  0  0  0  0  0  0  0  0
   -4.2070   -1.0456    0.8571 H   0  0  0  0  0  0  0  0  0  0  0  0
   -3.8226   -1.8122   -0.7045 H   0  0  0  0  0  0  0  0  0  0  0  0
   -2.1051   -1.3507    0.5048 C   0  0  0  0  0  0  0  0  0  0  0  0
   -1.3203   -2.1453    0.9869 O   0  0  0  0  0  0  0  0  0  0  0  0
   -1.7282   -0.0991    0.0470 N   0  0  0  0  0  0  0  0  0  0  0  0
   -2.4895    0.4552   -0.3309 H   0  0  0  0  0  0  0  0  0  0  0  0
   -0.4124    0.5727    0.1708 C   0  0  1  0  0  0  0  0  0  0  0  0
   -0.5919    1.6462    0.0887 H   0  0  0  0  0  0  0  0  0  0  0  0
    0.3185    0.3511    1.5213 C   0  0  0  0  0  0  0  0  0  0  0  0
    0.4900   -0.7142    1.6931 H   0  0  0  0  0  0  0  0  0  0  0  0
    1.3122    0.8069    1.4512 H   0  0  0  0  0  0  0  0  0  0  0  0
   -0.4038    0.9764    2.7345 C   0  0  0  0  0  0  0  0  0  0  0  0
   -1.4238    0.5814    2.7837 H   0  0  0  0  0  0  0  0  0  0  0  0
    0.3290    0.5646    4.0165 C   0  0  0  0  0  0  0  0  0  0  0  0
    1.3564    0.9424    4.0133 H   0  0  0  0  0  0  0  0  0  0  0  0
   -0.1856    0.9626    4.8963 H   0  0  0  0  0  0  0  0  0  0  0  0
    0.3602   -0.5262    4.1039 H   0  0  0  0  0  0  0  0  0  0  0  0
   -0.4697    2.5095    2.6638 C   0  0  0  0  0  0  0  0  0  0  0  0
   -1.1269    2.8367    1.8540 H   0  0  0  0  0  0  0  0  0  0  0  0
   -0.8684    2.9152    3.5989 H   0  0  0  0  0  0  0  0  0  0  0  0
    0.5272    2.9313    2.5012 H   0  0  0  0  0  0  0  0  0  0  0  0
    0.4906    0.2306   -1.0397 C   0  0  0  0  0  0  0  0  0  0  0  0
    1.5003   -0.4521   -0.9301 O   0  0  0  0  0  0  0  0  0  0  0  0
    0.2361    0.8290   -2.2624 N   0  0  0  0  0  0  0  0  0  0  0  0
   -0.6049    1.3894   -2.3466 H   0  0  0  0  0  0  0  0  0  0  0  0
    1.0567    0.6063   -3.4474 C   0  0  0  0  0  0  0  0  0  0  0  0
    1.0532   -0.4539   -3.7224 H   0  0  0  0  0  0  0  0  0  0  0  0
    0.6684    1.1838   -4.2917 H   0  0  0  0  0  0  0  0  0  0  0  0
    2.0899    0.9186   -3.2618 H   0  0  0  0  0  0  0  0  0  0  0  0
  1  2  1  0  0  0  0
  2  3  1  0  0  0  0
  2  4  1  0  0  0  0
  2  5  1  0  0  0  0
  5  6  2  0  0  0  0
  5  7  1  0  0  0  0
  7  8  1  0  0  0  0
  7  9  1  0  0  0  0
  9 10  1  0  0  0  0
  9 11  1  0  0  0  0
  9 24  1  0  0  0  0
 11 12  1  0  0  0  0
 11 13  1  0  0  0  0
 11 14  1  0  0  0  0
 14 15  1  0  0  0  0
 14 16  1  0  0  0  0
 14 20  1  0  0  0  0
 16 17  1  0  0  0  0
 16 18  1  0  0  0  0
 16 19  1  0  0  0  0
 20 21  1  0  0  0  0
 20 22  1  0  0  0  0
 20 23  1  0  0  0  0
 24 25  2  0  0  0  0
 24 26  1  0  0  0  0
 26 27  1  0  0  0  0
 26 28  1  0  0  0  0
 28 29  1  0  0  0  0
 28 30  1  0  0  0  0
 28 31  1  0  0  0  0
M  END
$$$$

  -OEChem-01062216083D

 31 30  0     1  0  0  0  0  0999 V2000
   -3.7193   -2.7878    0.6943 H   0  0  0  0  0  0  0  0  0  0  0  0
   -3.5561   -1.7958    0.2633 C   0  0  0  0  0  0  0  0  0  0  0  0
   -4.2731   -1.0997    0.7047 H   0  0  0  0  0  0  0  0  0  0  0  0
   -3.7241   -1.8505   -0.8149 H   0  0  0  0  0  0  0  0  0  0  0  0
   -2.1392   -1.3305    0.5444 C   0  0  0  0  0  0  0  0  0  0  0  0
   -1.4041   -2.0682    1.1733 O   0  0  0  0  0  0  0  0  0  0  0  0
   -1.7557   -0.0838    0.0764 N   0  0  0  0  0  0  0  0  0  0  0  0
   -2.4724    0.4018   -0.4529 H   0  0  0  0  0  0  0  0  0  0  0  0
   -0.4395    0.5894    0.1862 C   0  0  1  0  0  0  0  0  0  0  0  0
   -0.6239    1.6621    0.1086 H   0  0  0  0  0  0  0  0  0  0  0  0
    0.3212    0.3681    1.5184 C   0  0  0  0  0  0  0  0  0  0  0  0
    0.5038   -0.6966    1.6827 H   0  0  0  0  0  0  0  0  0  0  0  0
    1.3107    0.8288    1.4262 H   0  0  0  0  0  0  0  0  0  0  0  0
   -0.3783    0.9861    2.7484 C   0  0  0  0  0  0  0  0  0  0  0  0
   -1.3954    0.5864    2.8175 H   0  0  0  0  0  0  0  0  0  0  0  0
    0.3835    0.5750    4.0135 C   0  0  0  0  0  0  0  0  0  0  0  0
    1.4103    0.9536    3.9881 H   0  0  0  0  0  0  0  0  0  0  0  0
   -0.1123    0.9714    4.9049 H   0  0  0  0  0  0  0  0  0  0  0  0
    0.4172   -0.5159    4.0991 H   0  0  0  0  0  0  0  0  0  0  0  0
   -0.4516    2.5191    2.6829 C   0  0  0  0  0  0  0  0  0  0  0  0
   -1.1201    2.8463    1.8823 H   0  0  0  0  0  0  0  0  0  0  0  0
   -0.8407    2.9206    3.6239 H   0  0  0  0  0  0  0  0  0  0  0  0
    0.5416    2.9456    2.5094 H   0  0  0  0  0  0  0  0  0  0  0  0
    0.4570    0.2398   -1.0258 C   0  0  0  0  0  0  0  0  0  0  0  0
    1.2572   -0.6847   -0.9983 O   0  0  0  0  0  0  0  0  0  0  0  0
    0.4132    1.0380   -2.1569 N   0  0  0  0  0  0  0  0  0  0  0  0
   -0.2297    1.8228   -2.1588 H   0  0  0  0  0  0  0  0  0  0  0  0
    1.2660    0.8236   -3.3205 C   0  0  0  0  0  0  0  0  0  0  0  0
    1.0842   -0.1666   -3.7515 H   0  0  0  0  0  0  0  0  0  0  0  0
    1.0587    1.5770   -4.0863 H   0  0  0  0  0  0  0  0  0  0  0  0
    2.3222    0.8978   -3.0405 H   0  0  0  0  0  0  0  0  0  0  0  0
  1  2  1  0  0  0  0
  2  3  1  0  0  0  0
  2  4  1  0  0  0  0
  2  5  1  0  0  0  0
  5  6  2  0  0  0  0
  5  7  1  0  0  0  0
  7  8  1  0  0  0  0
  7  9  1  0  0  0  0
  9 10  1  0  0  0  0
  9 11  1  0  0  0  0
  9 24  1  0  0  0  0
 11 12  1  0  0  0  0
 11 13  1  0  0  0  0
 11 14  1  0  0  0  0
 14 15  1  0  0  0  0
 14 16  1  0  0  0  0
 14 20  1  0  0  0  0
 16 17  1  0  0  0  0
 16 18  1  0  0  0  0
 16 19  1  0  0  0  0
 20 21  1  0  0  0  0
 20 22  1  0  0  0  0
 20 23  1  0  0  0  0
 24 25  2  0  0  0  0
 24 26  1  0  0  0  0
 26 27  1  0  0  0  0
 26 28  1  0  0  0  0
 28 29  1  0  0  0  0
 28 30  1  0  0  0  0
 28 31  1  0  0  0  0
M  END
$$$$

  -OEChem-01062216083D

 31 30  0     1  0  0  0  0  0999 V2000
   -3.6699   -2.8317    0.5492 H   0  0  0  0  0  0  0  0  0  0  0  0
   -3.5064   -1.8397    0.1181 C   0  0  0  0  0  0  0  0  0  0  0  0
   -4.3214   -1.1822    0.4297 H   0  0  0  0  0  0  0  0  0  0  0  0
   -3.5113   -1.9278   -0.9709 H   0  0  0  0  0  0  0  0  0  0  0  0
   -2.1766   -1.2779    0.5869 C   0  0  0  0  0  0  0  0  0  0  0  0
   -1.5306   -1.9242    1.3914 O   0  0  0  0  0  0  0  0  0  0  0  0
   -1.7896   -0.0350    0.1103 N   0  0  0  0  0  0  0  0  0  0  0  0
   -2.4257    0.3520   -0.5794 H   0  0  0  0  0  0  0  0  0  0  0  0
   -0.4678    0.6279    0.2190 C   0  0  1  0  0  0  0  0  0  0  0  0
   -0.6492    1.7014    0.1457 H   0  0  0  0  0  0  0  0  0  0  0  0
    0.3214    0.3964    1.5308 C   0  0  0  0  0  0  0  0  0  0  0  0
    0.5063   -0.6707    1.6802 H   0  0  0  0  0  0  0  0  0  0  0  0
    1.3088    0.8575    1.4209 H   0  0  0  0  0  0  0  0  0  0  0  0
   -0.3504    1.0050    2.7806 C   0  0  0  0  0  0  0  0  0  0  0  0
   -1.3665    0.6059    2.8692 H   0  0  0  0  0  0  0  0  0  0  0  0
    0.4394    0.5837    4.0250 C   0  0  0  0  0  0  0  0  0  0  0  0
    1.4662    0.9602    3.9789 H   0  0  0  0  0  0  0  0  0  0  0  0
   -0.0349    0.9746    4.9304 H   0  0  0  0  0  0  0  0  0  0  0  0
    0.4719   -0.5079    4.1021 H   0  0  0  0  0  0  0  0  0  0  0  0
   -0.4232    2.5384    2.7275 C   0  0  0  0  0  0  0  0  0  0  0  0
   -1.1140    2.8702    1.9479 H   0  0  0  0  0  0  0  0  0  0  0  0
   -0.7854    2.9338    3.6818 H   0  0  0  0  0  0  0  0  0  0  0  0
    0.5652    2.9652    2.5289 H   0  0  0  0  0  0  0  0  0  0  0  0
    0.4206    0.2626   -0.9921 C   0  0  0  0  0  0  0  0  0  0  0  0
    0.9098   -0.8509   -1.1185 O   0  0  0  0  0  0  0  0  0  0  0  0
    0.6318    1.1957   -1.9929 N   0  0  0  0  0  0  0  0  0  0  0  0
    0.2497    2.1266   -1.8603 H   0  0  0  0  0  0  0  0  0  0  0  0
    1.4606    0.9360   -3.1646 C   0  0  0  0  0  0  0  0  0  0  0  0
    1.0767    0.0757   -3.7231 H   0  0  0  0  0  0  0  0  0  0  0  0
    1.4610    1.8053   -3.8290 H   0  0  0  0  0  0  0  0  0  0  0  0
    2.4931    0.7286   -2.8642 H   0  0  0  0  0  0  0  0  0  0  0  0
  1  2  1  0  0  0  0
  2  3  1  0  0  0  0
  2  4  1  0  0  0  0
  2  5  1  0  0  0  0
  5  6  2  0  0  0  0
  5  7  1  0  0  0  0
  7  8  1  0  0  0  0
  7  9  1  0  0  0  0
  9 10  1  0  0  0  0
  9 11  1  0  0  0  0
  9 24  1  0  0  0  0
 11 12  1  0  0  0  0
 11 13  1  0  0  0  0
 11 14  1  0  0  0  0
 14 15  1  0  0  0  0
 14 16  1  0  0  0  0
 14 20  1  0  0  0  0
 16 17  1  0  0  0  0
 16 18  1  0  0  0  0
 16 19  1  0  0  0  0
 20 21  1  0  0  0  0
 20 22  1  0  0  0  0
 20 23  1  0  0  0  0
 24 25  2  0  0  0  0
 24 26  1  0  0  0  0
 26 27  1  0  0  0  0
 26 28  1  0  0  0  0
 28 29  1  0  0  0  0
 28 30  1  0  0  0  0
 28 31  1  0  0  0  0
M  END
$$$$

  -OEChem-01062216083D

 31 30  0     1  0  0  0  0  0999 V2000
   -3.6369   -2.8437    0.5148 H   0  0  0  0  0  0  0  0  0  0  0  0
   -3.4714   -1.8581    0.0703 C   0  0  0  0  0  0  0  0  0  0  0  0
   -4.3194   -1.2144    0.3148 H   0  0  0  0  0  0  0  0  0  0  0  0
   -3.4061   -1.9712   -1.0145 H   0  0  0  0  0  0  0  0  0  0  0  0
   -2.1871   -1.2520    0.6053 C   0  0  0  0  0  0  0  0  0  0  0  0
   -1.5814   -1.8578    1.4716 O   0  0  0  0  0  0  0  0  0  0  0  0
   -1.8020   -0.0108    0.1229 N   0  0  0  0  0  0  0  0  0  0  0  0
   -2.3964    0.3280   -0.6268 H   0  0  0  0  0  0  0  0  0  0  0  0
   -0.4761    0.6439    0.2327 C   0  0  1  0  0  0  0  0  0  0  0  0
   -0.6560    1.7178    0.1576 H   0  0  0  0  0  0  0  0  0  0  0  0
    0.3207    0.4060    1.5376 C   0  0  0  0  0  0  0  0  0  0  0  0
    0.5014   -0.6627    1.6807 H   0  0  0  0  0  0  0  0  0  0  0  0
    1.3093    0.8632    1.4246 H   0  0  0  0  0  0  0  0  0  0  0  0
   -0.3418    1.0133    2.7931 C   0  0  0  0  0  0  0  0  0  0  0  0
   -1.3582    0.6161    2.8864 H   0  0  0  0  0  0  0  0  0  0  0  0
    0.4527    0.5876    4.0329 C   0  0  0  0  0  0  0  0  0  0  0  0
    1.4786    0.9662    3.9845 H   0  0  0  0  0  0  0  0  0  0  0  0
   -0.0190    0.9744    4.9415 H   0  0  0  0  0  0  0  0  0  0  0  0
    0.4873   -0.5042    4.1057 H   0  0  0  0  0  0  0  0  0  0  0  0
   -0.4143    2.5465    2.7438 C   0  0  0  0  0  0  0  0  0  0  0  0
   -1.1064    2.8808    1.9666 H   0  0  0  0  0  0  0  0  0  0  0  0
   -0.7748    2.9395    3.6997 H   0  0  0  0  0  0  0  0  0  0  0  0
    0.5736    2.9734    2.5447 H   0  0  0  0  0  0  0  0  0  0  0  0
    0.4146    0.2731   -0.9752 C   0  0  0  0  0  0  0  0  0  0  0  0
    0.6103   -0.8932   -1.2882 O   0  0  0  0  0  0  0  0  0  0  0  0
    0.8928    1.2699   -1.8085 N   0  0  0  0  0  0  0  0  0  0  0  0
    0.7406    2.2336   -1.5278 H   0  0  0  0  0  0  0  0  0  0  0  0
    1.7056    1.0022   -2.9896 C   0  0  0  0  0  0  0  0  0  0  0  0
    1.1653    0.3568   -3.6902 H   0  0  0  0  0  0  0  0  0  0  0  0
    1.9485    1.9381   -3.5017 H   0  0  0  0  0  0  0  0  0  0  0  0
    2.6414    0.5087   -2.7068 H   0  0  0  0  0  0  0  0  0  0  0  0
  1  2  1  0  0  0  0
  2  3  1  0  0  0  0
  2  4  1  0  0  0  0
  2  5  1  0  0  0  0
  5  6  2  0  0  0  0
  5  7  1  0  0  0  0
  7  8  1  0  0  0  0
  7  9  1  0  0  0  0
  9 10  1  0  0  0  0
  9 11  1  0  0  0  0
  9 24  1  0  0  0  0
 11 12  1  0  0  0  0
 11 13  1  0  0  0  0
 11 14  1  0  0  0  0
 14 15  1  0  0  0  0
 14 16  1  0  0  0  0
 14 20  1  0  0  0  0
 16 17  1  0  0  0  0
 16 18  1  0  0  0  0
 16 19  1  0  0  0  0
 20 21  1  0  0  0  0
 20 22  1  0  0  0  0
 20 23  1  0  0  0  0
 24 25  2  0  0  0  0
 24 26  1  0  0  0  0
 26 27  1  0  0  0  0
 26 28  1  0  0  0  0
 28 29  1  0  0  0  0
 28 30  1  0  0  0  0
 28 31  1  0  0  0  0
M  END
$$$$

  -OEChem-01062216083D

 31 30  0     1  0  0  0  0  0999 V2000
   -3.6247   -2.8529    0.5010 H   0  0  0  0  0  0  0  0  0  0  0  0
   -3.4590   -1.8691    0.0528 C   0  0  0  0  0  0  0  0  0  0  0  0
   -4.3205   -1.2334    0.2698 H   0  0  0  0  0  0  0  0  0  0  0  0
   -3.3641   -1.9900   -1.0291 H   0  0  0  0  0  0  0  0  0  0  0  0
   -2.1958   -1.2439    0.6151 C   0  0  0  0  0  0  0  0  0  0  0  0
   -1.6022   -1.8361    1.4996 O   0  0  0  0  0  0  0  0  0  0  0  0
   -1.8099   -0.0045    0.1298 N   0  0  0  0  0  0  0  0  0  0  0  0
   -2.3788    0.3074   -0.6511 H   0  0  0  0  0  0  0  0  0  0  0  0
   -0.4801    0.6423    0.2390 C   0  0  1  0  0  0  0  0  0  0  0  0
   -0.6578    1.7162    0.1586 H   0  0  0  0  0  0  0  0  0  0  0  0
    0.3175    0.4055    1.5437 C   0  0  0  0  0  0  0  0  0  0  0  0
    0.4930   -0.6638    1.6896 H   0  0  0  0  0  0  0  0  0  0  0  0
    1.3079    0.8579    1.4284 H   0  0  0  0  0  0  0  0  0  0  0  0
   -0.3390    1.0207    2.7986 C   0  0  0  0  0  0  0  0  0  0  0  0
   -1.3576    0.6300    2.8955 H   0  0  0  0  0  0  0  0  0  0  0  0
    0.4567    0.5947    4.0378 C   0  0  0  0  0  0  0  0  0  0  0  0
    1.4841    0.9691    3.9871 H   0  0  0  0  0  0  0  0  0  0  0  0
   -0.0120    0.9848    4.9466 H   0  0  0  0  0  0  0  0  0  0  0  0
    0.4873   -0.4972    4.1125 H   0  0  0  0  0  0  0  0  0  0  0  0
   -0.4018    2.5545    2.7445 C   0  0  0  0  0  0  0  0  0  0  0  0
   -1.0920    2.8905    1.9661 H   0  0  0  0  0  0  0  0  0  0  0  0
   -0.7597    2.9528    3.6993 H   0  0  0  0  0  0  0  0  0  0  0  0
    0.5887    2.9751    2.5441 H   0  0  0  0  0  0  0  0  0  0  0  0
    0.4140    0.2696   -0.9665 C   0  0  0  0  0  0  0  0  0  0  0  0
    0.3662   -0.8431   -1.4750 O   0  0  0  0  0  0  0  0  0  0  0  0
    1.1476    1.2548   -1.6048 N   0  0  0  0  0  0  0  0  0  0  0  0
    1.1833    2.1720   -1.1707 H   0  0  0  0  0  0  0  0  0  0  0  0
    1.9677    1.0034   -2.7844 C   0  0  0  0  0  0  0  0  0  0  0  0
    1.3520    0.6209   -3.6052 H   0  0  0  0  0  0  0  0  0  0  0  0
    2.4476    1.9290   -3.1164 H   0  0  0  0  0  0  0  0  0  0  0  0
    2.7488    0.2699   -2.5581 H   0  0  0  0  0  0  0  0  0  0  0  0
  1  2  1  0  0  0  0
  2  3  1  0  0  0  0
  2  4  1  0  0  0  0
  2  5  1  0  0  0  0
  5  6  2  0  0  0  0
  5  7  1  0  0  0  0
  7  8  1  0  0  0  0
  7  9  1  0  0  0  0
  9 10  1  0  0  0  0
  9 11  1  0  0  0  0
  9 24  1  0  0  0  0
 11 12  1  0  0  0  0
 11 13  1  0  0  0  0
 11 14  1  0  0  0  0
 14 15  1  0  0  0  0
 14 16  1  0  0  0  0
 14 20  1  0  0  0  0
 16 17  1  0  0  0  0
 16 18  1  0  0  0  0
 16 19  1  0  0  0  0
 20 21  1  0  0  0  0
 20 22  1  0  0  0  0
 20 23  1  0  0  0  0
 24 25  2  0  0  0  0
 24 26  1  0  0  0  0
 26 27  1  0  0  0  0
 26 28  1  0  0  0  0
 28 29  1  0  0  0  0
 28 30  1  0  0  0  0
 28 31  1  0  0  0  0
M  END
$$$$

  -OEChem-01062216083D

 31 30  0     1  0  0  0  0  0999 V2000
   -3.6252   -2.8565    0.5024 H   0  0  0  0  0  0  0  0  0  0  0  0
   -3.4633   -1.8677    0.0638 C   0  0  0  0  0  0  0  0  0  0  0  0
   -4.3212   -1.2335    0.2990 H   0  0  0  0  0  0  0  0  0  0  0  0
   -3.3816   -1.9752   -1.0207 H   0  0  0  0  0  0  0  0  0  0  0  0
   -2.1926   -1.2497    0.6180 C   0  0  0  0  0  0  0  0  0  0  0  0
   -1.5885   -1.8514    1.4893 O   0  0  0  0  0  0  0  0  0  0  0  0
   -1.8050   -0.0105    0.1340 N   0  0  0  0  0  0  0  0  0  0  0  0
   -2.3666    0.2948   -0.6550 H   0  0  0  0  0  0  0  0  0  0  0  0
   -0.4736    0.6344    0.2397 C   0  0  1  0  0  0  0  0  0  0  0  0
   -0.6493    1.7085    0.1549 H   0  0  0  0  0  0  0  0  0  0  0  0
    0.3198    0.3993    1.5482 C   0  0  0  0  0  0  0  0  0  0  0  0
    0.4938   -0.6691    1.6995 H   0  0  0  0  0  0  0  0  0  0  0  0
    1.3115    0.8499    1.4386 H   0  0  0  0  0  0  0  0  0  0  0  0
   -0.3407    1.0221    2.7970 C   0  0  0  0  0  0  0  0  0  0  0  0
   -1.3610    0.6346    2.8908 H   0  0  0  0  0  0  0  0  0  0  0  0
    0.4480    0.5990    4.0415 C   0  0  0  0  0  0  0  0  0  0  0  0
    1.4773    0.9681    3.9933 H   0  0  0  0  0  0  0  0  0  0  0  0
   -0.0231    0.9962    4.9459 H   0  0  0  0  0  0  0  0  0  0  0  0
    0.4727   -0.4924    4.1221 H   0  0  0  0  0  0  0  0  0  0  0  0
   -0.3989    2.5561    2.7375 C   0  0  0  0  0  0  0  0  0  0  0  0
   -1.0843    2.8920    1.9551 H   0  0  0  0  0  0  0  0  0  0  0  0
   -0.7605    2.9580    3.6892 H   0  0  0  0  0  0  0  0  0  0  0  0
    0.5933    2.9738    2.5408 H   0  0  0  0  0  0  0  0  0  0  0  0
    0.4216    0.2659   -0.9672 C   0  0  0  0  0  0  0  0  0  0  0  0
    0.1853   -0.7164   -1.6603 O   0  0  0  0  0  0  0  0  0  0  0  0
    1.3809    1.1629   -1.4044 N   0  0  0  0  0  0  0  0  0  0  0  0
    1.5655    1.9751   -0.8235 H   0  0  0  0  0  0  0  0  0  0  0  0
    2.2222    0.9278   -2.5719 C   0  0  0  0  0  0  0  0  0  0  0  0
    1.6076    0.8158   -3.4713 H   0  0  0  0  0  0  0  0  0  0  0  0
    2.9042    1.7701   -2.7231 H   0  0  0  0  0  0  0  0  0  0  0  0
    2.8183    0.0190   -2.4370 H   0  0  0  0  0  0  0  0  0  0  0  0
  1  2  1  0  0  0  0
  2  3  1  0  0  0  0
  2  4  1  0  0  0  0
  2  5  1  0  0  0  0
  5  6  2  0  0  0  0
  5  7  1  0  0  0  0
  7  8  1  0  0  0  0
  7  9  1  0  0  0  0
  9 10  1  0  0  0  0
  9 11  1  0  0  0  0
  9 24  1  0  0  0  0
 11 12  1  0  0  0  0
 11 13  1  0  0  0  0
 11 14  1  0  0  0  0
 14 15  1  0  0  0  0
 14 16  1  0  0  0  0
 14 20  1  0  0  0  0
 16 17  1  0  0  0  0
 16 18  1  0  0  0  0
 16 19  1  0  0  0  0
 20 21  1  0  0  0  0
 20 22  1  0  0  0  0
 20 23  1  0  0  0  0
 24 25  2  0  0  0  0
 24 26  1  0  0  0  0
 26 27  1  0  0  0  0
 26 28  1  0  0  0  0
 28 29  1  0  0  0  0
 28 30  1  0  0  0  0
 28 31  1  0  0  0  0
M  END
$$$$

  -OEChem-01062216083D

 31 30  0     1  0  0  0  0  0999 V2000
   -3.6111   -2.8606    0.4877 H   0  0  0  0  0  0  0  0  0  0  0  0
   -3.4589   -1.8611    0.0707 C   0  0  0  0  0  0  0  0  0  0  0  0
   -4.3128   -1.2338    0.3369 H   0  0  0  0  0  0  0  0  0  0  0  0
   -3.3973   -1.9417   -1.0175 H   0  0  0  0  0  0  0  0  0  0  0  0
   -2.1796   -1.2545    0.6164 C   0  0  0  0  0  0  0  0  0  0  0  0
   -1.5605   -1.8730    1.4650 O   0  0  0  0  0  0  0  0  0  0  0  0
   -1.7920   -0.0132    0.1397 N   0  0  0  0  0  0  0  0  0  0  0  0
   -2.3480    0.2905   -0.6545 H   0  0  0  0  0  0  0  0  0  0  0  0
   -0.4613    0.6332    0.2455 C   0  0  1  0  0  0  0  0  0  0  0  0
   -0.6344    1.7075    0.1591 H   0  0  0  0  0  0  0  0  0  0  0  0
    0.3225    0.3968    1.5620 C   0  0  0  0  0  0  0  0  0  0  0  0
    0.4961   -0.6709    1.7159 H   0  0  0  0  0  0  0  0  0  0  0  0
    1.3151    0.8470    1.4653 H   0  0  0  0  0  0  0  0  0  0  0  0
   -0.3483    1.0223    2.8039 C   0  0  0  0  0  0  0  0  0  0  0  0
   -1.3703    0.6374    2.8893 H   0  0  0  0  0  0  0  0  0  0  0  0
    0.4271    0.6005    4.0574 C   0  0  0  0  0  0  0  0  0  0  0  0
    1.4588    0.9636    4.0166 H   0  0  0  0  0  0  0  0  0  0  0  0
   -0.0494    1.0053    4.9558 H   0  0  0  0  0  0  0  0  0  0  0  0
    0.4451   -0.4909    4.1437 H   0  0  0  0  0  0  0  0  0  0  0  0
   -0.4020    2.5561    2.7383 C   0  0  0  0  0  0  0  0  0  0  0  0
   -1.0840    2.8907    1.9522 H   0  0  0  0  0  0  0  0  0  0  0  0
   -0.7650    2.9635    3.6871 H   0  0  0  0  0  0  0  0  0  0  0  0
    0.5920    2.9698    2.5424 H   0  0  0  0  0  0  0  0  0  0  0  0
    0.4285    0.2690   -0.9686 C   0  0  0  0  0  0  0  0  0  0  0  0
    0.0453   -0.5278   -1.8179 O   0  0  0  0  0  0  0  0  0  0  0  0
    1.5768    0.9981   -1.2260 N   0  0  0  0  0  0  0  0  0  0  0  0
    1.8835    1.6559   -0.5159 H   0  0  0  0  0  0  0  0  0  0  0  0
    2.4343    0.7617   -2.3815 C   0  0  0  0  0  0  0  0  0  0  0  0
    1.8744    0.9077   -3.3112 H   0  0  0  0  0  0  0  0  0  0  0  0
    3.2784    1.4579   -2.3746 H   0  0  0  0  0  0  0  0  0  0  0  0
    2.8277   -0.2602   -2.3639 H   0  0  0  0  0  0  0  0  0  0  0  0
  1  2  1  0  0  0  0
  2  3  1  0  0  0  0
  2  4  1  0  0  0  0
  2  5  1  0  0  0  0
  5  6  2  0  0  0  0
  5  7  1  0  0  0  0
  7  8  1  0  0  0  0
  7  9  1  0  0  0  0
  9 10  1  0  0  0  0
  9 11  1  0  0  0  0
  9 24  1  0  0  0  0
 11 12  1  0  0  0  0
 11 13  1  0  0  0  0
 11 14  1  0  0  0  0
 14 15  1  0  0  0  0
 14 16  1  0  0  0  0
 14 20  1  0  0  0  0
 16 17  1  0  0  0  0
 16 18  1  0  0  0  0
 16 19  1  0  0  0  0
 20 21  1  0  0  0  0
 20 22  1  0  0  0  0
 20 23  1  0  0  0  0
 24 25  2  0  0  0  0
 24 26  1  0  0  0  0
 26 27  1  0  0  0  0
 26 28  1  0  0  0  0
 28 29  1  0  0  0  0
 28 30  1  0  0  0  0
 28 31  1  0  0  0  0
M  END
$$$$

  -OEChem-01062216083D

 31 30  0     1  0  0  0  0  0999 V2000
   -3.7297   -2.7840    0.4768 H   0  0  0  0  0  0  0  0  0  0  0  0
   -3.5298   -1.7851    0.0786 C   0  0  0  0  0  0  0  0  0  0  0  0
   -4.3192   -1.1081    0.4134 H   0  0  0  0  0  0  0  0  0  0  0  0
   -3.5384   -1.8346   -1.0132 H   0  0  0  0  0  0  0  0  0  0  0  0
   -2.1809   -1.2864    0.5632 C   0  0  0  0  0  0  0  0  0  0  0  0
   -1.5319   -2.0037    1.3053 O   0  0  0  0  0  0  0  0  0  0  0  0
   -1.7532   -0.0445    0.1240 N   0  0  0  0  0  0  0  0  0  0  0  0
   -2.3243    0.3240   -0.6330 H   0  0  0  0  0  0  0  0  0  0  0  0
   -0.4189    0.5938    0.2411 C   0  0  1  0  0  0  0  0  0  0  0  0
   -0.6038    1.6537    0.4267 H   0  0  0  0  0  0  0  0  0  0  0  0
    0.5064    0.0953    1.3830 C   0  0  0  0  0  0  0  0  0  0  0  0
    0.6832   -0.9782    1.2708 H   0  0  0  0  0  0  0  0  0  0  0  0
    1.4844    0.5752    1.2877 H   0  0  0  0  0  0  0  0  0  0  0  0
   -0.0180    0.4090    2.8036 C   0  0  0  0  0  0  0  0  0  0  0  0
   -1.0250   -0.0028    2.9227 H   0  0  0  0  0  0  0  0  0  0  0  0
    0.8993   -0.2610    3.8331 C   0  0  0  0  0  0  0  0  0  0  0  0
    1.9199    0.1264    3.7550 H   0  0  0  0  0  0  0  0  0  0  0  0
    0.5337   -0.0777    4.8483 H   0  0  0  0  0  0  0  0  0  0  0  0
    0.9235   -1.3432    3.6708 H   0  0  0  0  0  0  0  0  0  0  0  0
   -0.0729    1.9170    3.0904 C   0  0  0  0  0  0  0  0  0  0  0  0
   -0.8350    2.4041    2.4762 H   0  0  0  0  0  0  0  0  0  0  0  0
   -0.3304    2.0940    4.1395 H   0  0  0  0  0  0  0  0  0  0  0  0
    0.8955    2.3853    2.8884 H   0  0  0  0  0  0  0  0  0  0  0  0
    0.3069    0.5573   -1.1284 C   0  0  0  0  0  0  0  0  0  0  0  0
   -0.2908    0.1965   -2.1370 O   0  0  0  0  0  0  0  0  0  0  0  0
    1.5748    1.0934   -1.2767 N   0  0  0  0  0  0  0  0  0  0  0  0
    2.0610    1.3876   -0.4351 H   0  0  0  0  0  0  0  0  0  0  0  0
    2.2861    1.1353   -2.5491 C   0  0  0  0  0  0  0  0  0  0  0  0
    1.7090    1.6932   -3.2941 H   0  0  0  0  0  0  0  0  0  0  0  0
    3.2544    1.6291   -2.4245 H   0  0  0  0  0  0  0  0  0  0  0  0
    2.4600    0.1212   -2.9242 H   0  0  0  0  0  0  0  0  0  0  0  0
  1  2  1  0  0  0  0
  2  3  1  0  0  0  0
  2  4  1  0  0  0  0
  2  5  1  0  0  0  0
  5  6  2  0  0  0  0
  5  7  1  0  0  0  0
  7  8  1  0  0  0  0
  7  9  1  0  0  0  0
  9 10  1  0  0  0  0
  9 11  1  0  0  0  0
  9 24  1  0  0  0  0
 11 12  1  0  0  0  0
 11 13  1  0  0  0  0
 11 14  1  0  0  0  0
 14 15  1  0  0  0  0
 14 16  1  0  0  0  0
 14 20  1  0  0  0  0
 16 17  1  0  0  0  0
 16 18  1  0  0  0  0
 16 19  1  0  0  0  0
 20 21  1  0  0  0  0
 20 22  1  0  0  0  0
 20 23  1  0  0  0  0
 24 25  2  0  0  0  0
 24 26  1  0  0  0  0
 26 27  1  0  0  0  0
 26 28  1  0  0  0  0
 28 29  1  0  0  0  0
 28 30  1  0  0  0  0
 28 31  1  0  0  0  0
M  END
$$$$

  -OEChem-01062216083D

 31 30  0     1  0  0  0  0  0999 V2000
   -3.7174   -2.7763    0.4680 H   0  0  0  0  0  0  0  0  0  0  0  0
   -3.5153   -1.7752    0.0769 C   0  0  0  0  0  0  0  0  0  0  0  0
   -4.2962   -1.0962    0.4276 H   0  0  0  0  0  0  0  0  0  0  0  0
   -3.5374   -1.8140   -1.0150 H   0  0  0  0  0  0  0  0  0  0  0  0
   -2.1571   -1.2909    0.5493 C   0  0  0  0  0  0  0  0  0  0  0  0
   -1.4976   -2.0247    1.2654 O   0  0  0  0  0  0  0  0  0  0  0  0
   -1.7265   -0.0459    0.1231 N   0  0  0  0  0  0  0  0  0  0  0  0
   -2.3056    0.3459   -0.6165 H   0  0  0  0  0  0  0  0  0  0  0  0
   -0.3954    0.5953    0.2531 C   0  0  1  0  0  0  0  0  0  0  0  0
   -0.5793    1.6555    0.4381 H   0  0  0  0  0  0  0  0  0  0  0  0
    0.5164    0.0951    1.4064 C   0  0  0  0  0  0  0  0  0  0  0  0
    0.7008   -0.9773    1.2950 H   0  0  0  0  0  0  0  0  0  0  0  0
    1.4920    0.5827    1.3301 H   0  0  0  0  0  0  0  0  0  0  0  0
   -0.0292    0.4077    2.8190 C   0  0  0  0  0  0  0  0  0  0  0  0
   -1.0369   -0.0072    2.9215 H   0  0  0  0  0  0  0  0  0  0  0  0
    0.8726   -0.2616    3.8623 C   0  0  0  0  0  0  0  0  0  0  0  0
    1.8935    0.1286    3.8000 H   0  0  0  0  0  0  0  0  0  0  0  0
    0.4904   -0.0788    4.8716 H   0  0  0  0  0  0  0  0  0  0  0  0
    0.9014   -1.3439    3.7005 H   0  0  0  0  0  0  0  0  0  0  0  0
   -0.0922    1.9152    3.1060 C   0  0  0  0  0  0  0  0  0  0  0  0
   -0.8462    2.4014    2.4813 H   0  0  0  0  0  0  0  0  0  0  0  0
   -0.3660    2.0898    4.1512 H   0  0  0  0  0  0  0  0  0  0  0  0
    0.8779    2.3860    2.9189 H   0  0  0  0  0  0  0  0  0  0  0  0
    0.3245    0.5613   -1.1203 C   0  0  0  0  0  0  0  0  0  0  0  0
   -0.3349    0.4428   -2.1483 O   0  0  0  0  0  0  0  0  0  0  0  0
    1.6824    0.8043   -1.2401 N   0  0  0  0  0  0  0  0  0  0  0  0
    2.2229    0.8734   -0.3834 H   0  0  0  0  0  0  0  0  0  0  0  0
    2.3876    0.8121   -2.5163 C   0  0  0  0  0  0  0  0  0  0  0  0
    1.9530    1.5576   -3.1906 H   0  0  0  0  0  0  0  0  0  0  0  0
    3.4426    1.0597   -2.3639 H   0  0  0  0  0  0  0  0  0  0  0  0
    2.3274   -0.1719   -2.9929 H   0  0  0  0  0  0  0  0  0  0  0  0
  1  2  1  0  0  0  0
  2  3  1  0  0  0  0
  2  4  1  0  0  0  0
  2  5  1  0  0  0  0
  5  6  2  0  0  0  0
  5  7  1  0  0  0  0
  7  8  1  0  0  0  0
  7  9  1  0  0  0  0
  9 10  1  0  0  0  0
  9 11  1  0  0  0  0
  9 24  1  0  0  0  0
 11 12  1  0  0  0  0
 11 13  1  0  0  0  0
 11 14  1  0  0  0  0
 14 15  1  0  0  0  0
 14 16  1  0  0  0  0
 14 20  1  0  0  0  0
 16 17  1  0  0  0  0
 16 18  1  0  0  0  0
 16 19  1  0  0  0  0
 20 21  1  0  0  0  0
 20 22  1  0  0  0  0
 20 23  1  0  0  0  0
 24 25  2  0  0  0  0
 24 26  1  0  0  0  0
 26 27  1  0  0  0  0
 26 28  1  0  0  0  0
 28 29  1  0  0  0  0
 28 30  1  0  0  0  0
 28 31  1  0  0  0  0
M  END
$$$$

  -OEChem-01062216083D

 31 30  0     1  0  0  0  0  0999 V2000
   -3.7111   -2.7695    0.4656 H   0  0  0  0  0  0  0  0  0  0  0  0
   -3.5069   -1.7675    0.0775 C   0  0  0  0  0  0  0  0  0  0  0  0
   -4.2759   -1.0843    0.4456 H   0  0  0  0  0  0  0  0  0  0  0  0
   -3.5480   -1.7987   -1.0141 H   0  0  0  0  0  0  0  0  0  0  0  0
   -2.1371   -1.2973    0.5309 C   0  0  0  0  0  0  0  0  0  0  0  0
   -1.4651   -2.0454    1.2202 O   0  0  0  0  0  0  0  0  0  0  0  0
   -1.7053   -0.0495    0.1153 N   0  0  0  0  0  0  0  0  0  0  0  0
   -2.2956    0.3675   -0.6017 H   0  0  0  0  0  0  0  0  0  0  0  0
   -0.3784    0.5947    0.2610 C   0  0  1  0  0  0  0  0  0  0  0  0
   -0.5652    1.6547    0.4449 H   0  0  0  0  0  0  0  0  0  0  0  0
    0.5234    0.0987    1.4232 C   0  0  0  0  0  0  0  0  0  0  0  0
    0.7169   -0.9722    1.3152 H   0  0  0  0  0  0  0  0  0  0  0  0
    1.4949    0.5969    1.3555 H   0  0  0  0  0  0  0  0  0  0  0  0
   -0.0377    0.4090    2.8297 C   0  0  0  0  0  0  0  0  0  0  0  0
   -1.0443   -0.0114    2.9208 H   0  0  0  0  0  0  0  0  0  0  0  0
    0.8569   -0.2567    3.8815 C   0  0  0  0  0  0  0  0  0  0  0  0
    1.8773    0.1357    3.8283 H   0  0  0  0  0  0  0  0  0  0  0  0
    0.4659   -0.0739    4.8872 H   0  0  0  0  0  0  0  0  0  0  0  0
    0.8901   -1.3389    3.7207 H   0  0  0  0  0  0  0  0  0  0  0  0
   -0.1103    1.9161    3.1179 C   0  0  0  0  0  0  0  0  0  0  0  0
   -0.8603    2.3996    2.4863 H   0  0  0  0  0  0  0  0  0  0  0  0
   -0.3946    2.0891    4.1608 H   0  0  0  0  0  0  0  0  0  0  0  0
    0.8595    2.3916    2.9407 H   0  0  0  0  0  0  0  0  0  0  0  0
    0.3415    0.5616   -1.1114 C   0  0  0  0  0  0  0  0  0  0  0  0
   -0.3237    0.6765   -2.1357 O   0  0  0  0  0  0  0  0  0  0  0  0
    1.7200    0.4997   -1.2257 N   0  0  0  0  0  0  0  0  0  0  0  0
    2.2499    0.3311   -0.3760 H   0  0  0  0  0  0  0  0  0  0  0  0
    2.4176    0.4609   -2.5055 C   0  0  0  0  0  0  0  0  0  0  0  0
    2.1718    1.3447   -3.1035 H   0  0  0  0  0  0  0  0  0  0  0  0
    3.4998    0.4446   -2.3454 H   0  0  0  0  0  0  0  0  0  0  0  0
    2.1360   -0.4355   -3.0678 H   0  0  0  0  0  0  0  0  0  0  0  0
  1  2  1  0  0  0  0
  2  3  1  0  0  0  0
  2  4  1  0  0  0  0
  2  5  1  0  0  0  0
  5  6  2  0  0  0  0
  5  7  1  0  0  0  0
  7  8  1  0  0  0  0
  7  9  1  0  0  0  0
  9 10  1  0  0  0  0
  9 11  1  0  0  0  0
  9 24  1  0  0  0  0
 11 12  1  0  0  0  0
 11 13  1  0  0  0  0
 11 14  1  0  0  0  0
 14 15  1  0  0  0  0
 14 16  1  0  0  0  0
 14 20  1  0  0  0  0
 16 17  1  0  0  0  0
 16 18  1  0  0  0  0
 16 19  1  0  0  0  0
 20 21  1  0  0  0  0
 20 22  1  0  0  0  0
 20 23  1  0  0  0  0
 24 25  2  0  0  0  0
 24 26  1  0  0  0  0
 26 27  1  0  0  0  0
 26 28  1  0  0  0  0
 28 29  1  0  0  0  0
 28 30  1  0  0  0  0
 28 31  1  0  0  0  0
M  END
$$$$

  -OEChem-01062216083D

 31 30  0     1  0  0  0  0  0999 V2000
   -3.7132   -2.7609    0.4744 H   0  0  0  0  0  0  0  0  0  0  0  0
   -3.5086   -1.7580    0.0890 C   0  0  0  0  0  0  0  0  0  0  0  0
   -4.2631   -1.0709    0.4797 H   0  0  0  0  0  0  0  0  0  0  0  0
   -3.5755   -1.7806   -1.0015 H   0  0  0  0  0  0  0  0  0  0  0  0
   -2.1242   -1.3039    0.5137 C   0  0  0  0  0  0  0  0  0  0  0  0
   -1.4360   -2.0679    1.1686 O   0  0  0  0  0  0  0  0  0  0  0  0
   -1.6906   -0.0554    0.1034 N   0  0  0  0  0  0  0  0  0  0  0  0
   -2.3017    0.3929   -0.5760 H   0  0  0  0  0  0  0  0  0  0  0  0
   -0.3669    0.5900    0.2614 C   0  0  1  0  0  0  0  0  0  0  0  0
   -0.5556    1.6502    0.4433 H   0  0  0  0  0  0  0  0  0  0  0  0
    0.5293    0.0992    1.4295 C   0  0  0  0  0  0  0  0  0  0  0  0
    0.7276   -0.9714    1.3269 H   0  0  0  0  0  0  0  0  0  0  0  0
    1.4992    0.6025    1.3611 H   0  0  0  0  0  0  0  0  0  0  0  0
   -0.0419    0.4093    2.8315 C   0  0  0  0  0  0  0  0  0  0  0  0
   -1.0469   -0.0162    2.9163 H   0  0  0  0  0  0  0  0  0  0  0  0
    0.8489   -0.2517    3.8894 C   0  0  0  0  0  0  0  0  0  0  0  0
    1.8673    0.1468    3.8427 H   0  0  0  0  0  0  0  0  0  0  0  0
    0.4501   -0.0711    4.8925 H   0  0  0  0  0  0  0  0  0  0  0  0
    0.8896   -1.3339    3.7294 H   0  0  0  0  0  0  0  0  0  0  0  0
   -0.1233    1.9163    3.1165 C   0  0  0  0  0  0  0  0  0  0  0  0
   -0.8745    2.3943    2.4820 H   0  0  0  0  0  0  0  0  0  0  0  0
   -0.4109    2.0894    4.1583 H   0  0  0  0  0  0  0  0  0  0  0  0
    0.8443    2.3967    2.9402 H   0  0  0  0  0  0  0  0  0  0  0  0
    0.3587    0.5563   -1.1050 C   0  0  0  0  0  0  0  0  0  0  0  0
   -0.2601    0.8912   -2.1091 O   0  0  0  0  0  0  0  0  0  0  0  0
    1.6889    0.1946   -1.2323 N   0  0  0  0  0  0  0  0  0  0  0  0
    2.1468   -0.1809   -0.4069 H   0  0  0  0  0  0  0  0  0  0  0  0
    2.3764    0.1100   -2.5149 C   0  0  0  0  0  0  0  0  0  0  0  0
    2.3429    1.0744   -3.0327 H   0  0  0  0  0  0  0  0  0  0  0  0
    3.4252   -0.1625   -2.3639 H   0  0  0  0  0  0  0  0  0  0  0  0
    1.9080   -0.6485   -3.1509 H   0  0  0  0  0  0  0  0  0  0  0  0
  1  2  1  0  0  0  0
  2  3  1  0  0  0  0
  2  4  1  0  0  0  0
  2  5  1  0  0  0  0
  5  6  2  0  0  0  0
  5  7  1  0  0  0  0
  7  8  1  0  0  0  0
  7  9  1  0  0  0  0
  9 10  1  0  0  0  0
  9 11  1  0  0  0  0
  9 24  1  0  0  0  0
 11 12  1  0  0  0  0
 11 13  1  0  0  0  0
 11 14  1  0  0  0  0
 14 15  1  0  0  0  0
 14 16  1  0  0  0  0
 14 20  1  0  0  0  0
 16 17  1  0  0  0  0
 16 18  1  0  0  0  0
 16 19  1  0  0  0  0
 20 21  1  0  0  0  0
 20 22  1  0  0  0  0
 20 23  1  0  0  0  0
 24 25  2  0  0  0  0
 24 26  1  0  0  0  0
 26 27  1  0  0  0  0
 26 28  1  0  0  0  0
 28 29  1  0  0  0  0
 28 30  1  0  0  0  0
 28 31  1  0  0  0  0
M  END
$$$$

  -OEChem-01062216083D

 31 30  0     1  0  0  0  0  0999 V2000
   -3.7276   -2.7421    0.5231 H   0  0  0  0  0  0  0  0  0  0  0  0
   -3.5213   -1.7430    0.1285 C   0  0  0  0  0  0  0  0  0  0  0  0
   -4.2452   -1.0424    0.5518 H   0  0  0  0  0  0  0  0  0  0  0  0
   -3.6361   -1.7637   -0.9580 H   0  0  0  0  0  0  0  0  0  0  0  0
   -2.1115   -1.3150    0.4922 C   0  0  0  0  0  0  0  0  0  0  0  0
   -1.4005   -2.0992    1.0966 O   0  0  0  0  0  0  0  0  0  0  0  0
   -1.6779   -0.0663    0.0827 N   0  0  0  0  0  0  0  0  0  0  0  0
   -2.3197    0.4192   -0.5399 H   0  0  0  0  0  0  0  0  0  0  0  0
   -0.3578    0.5821    0.2501 C   0  0  1  0  0  0  0  0  0  0  0  0
   -0.5507    1.6422    0.4294 H   0  0  0  0  0  0  0  0  0  0  0  0
    0.5334    0.0963    1.4232 C   0  0  0  0  0  0  0  0  0  0  0  0
    0.7345   -0.9739    1.3266 H   0  0  0  0  0  0  0  0  0  0  0  0
    1.5027    0.6012    1.3524 H   0  0  0  0  0  0  0  0  0  0  0  0
   -0.0464    0.4053    2.8214 C   0  0  0  0  0  0  0  0  0  0  0  0
   -1.0492   -0.0267    2.8997 H   0  0  0  0  0  0  0  0  0  0  0  0
    0.8415   -0.2510    3.8847 C   0  0  0  0  0  0  0  0  0  0  0  0
    1.8586    0.1518    3.8430 H   0  0  0  0  0  0  0  0  0  0  0  0
    0.4366   -0.0714    4.8855 H   0  0  0  0  0  0  0  0  0  0  0  0
    0.8879   -1.3332    3.7260 H   0  0  0  0  0  0  0  0  0  0  0  0
   -0.1390    1.9119    3.1053 C   0  0  0  0  0  0  0  0  0  0  0  0
   -0.8887    2.3853    2.4656 H   0  0  0  0  0  0  0  0  0  0  0  0
   -0.4349    2.0842    4.1449 H   0  0  0  0  0  0  0  0  0  0  0  0
    0.8269    2.3979    2.9352 H   0  0  0  0  0  0  0  0  0  0  0  0
    0.3805    0.5484   -1.1064 C   0  0  0  0  0  0  0  0  0  0  0  0
   -0.1421    1.0890   -2.0740 O   0  0  0  0  0  0  0  0  0  0  0  0
    1.5985   -0.0887   -1.2670 N   0  0  0  0  0  0  0  0  0  0  0  0
    1.9337   -0.6429   -0.4839 H   0  0  0  0  0  0  0  0  0  0  0  0
    2.2731   -0.2115   -2.5530 C   0  0  0  0  0  0  0  0  0  0  0  0
    2.4620    0.7781   -2.9823 H   0  0  0  0  0  0  0  0  0  0  0  0
    3.2333   -0.7213   -2.4287 H   0  0  0  0  0  0  0  0  0  0  0  0
    1.6606   -0.7892   -3.2530 H   0  0  0  0  0  0  0  0  0  0  0  0
  1  2  1  0  0  0  0
  2  3  1  0  0  0  0
  2  4  1  0  0  0  0
  2  5  1  0  0  0  0
  5  6  2  0  0  0  0
  5  7  1  0  0  0  0
  7  8  1  0  0  0  0
  7  9  1  0  0  0  0
  9 10  1  0  0  0  0
  9 11  1  0  0  0  0
  9 24  1  0  0  0  0
 11 12  1  0  0  0  0
 11 13  1  0  0  0  0
 11 14  1  0  0  0  0
 14 15  1  0  0  0  0
 14 16  1  0  0  0  0
 14 20  1  0  0  0  0
 16 17  1  0  0  0  0
 16 18  1  0  0  0  0
 16 19  1  0  0  0  0
 20 21  1  0  0  0  0
 20 22  1  0  0  0  0
 20 23  1  0  0  0  0
 24 25  2  0  0  0  0
 24 26  1  0  0  0  0
 26 27  1  0  0  0  0
 26 28  1  0  0  0  0
 28 29  1  0  0  0  0
 28 30  1  0  0  0  0
 28 31  1  0  0  0  0
M  END
$$$$

  -OEChem-01062216083D

 31 30  0     1  0  0  0  0  0999 V2000
   -3.7318   -2.7316    0.5552 H   0  0  0  0  0  0  0  0  0  0  0  0
   -3.5312   -1.7305    0.1630 C   0  0  0  0  0  0  0  0  0  0  0  0
   -4.2303   -1.0274    0.6219 H   0  0  0  0  0  0  0  0  0  0  0  0
   -3.6890   -1.7380   -0.9183 H   0  0  0  0  0  0  0  0  0  0  0  0
   -2.1038   -1.3212    0.4748 C   0  0  0  0  0  0  0  0  0  0  0  0
   -1.3712   -2.1233    1.0277 O   0  0  0  0  0  0  0  0  0  0  0  0
   -1.6714   -0.0734    0.0629 N   0  0  0  0  0  0  0  0  0  0  0  0
   -2.3422    0.4456   -0.4988 H   0  0  0  0  0  0  0  0  0  0  0  0
   -0.3532    0.5758    0.2384 C   0  0  1  0  0  0  0  0  0  0  0  0
   -0.5488    1.6356    0.4173 H   0  0  0  0  0  0  0  0  0  0  0  0
    0.5356    0.0930    1.4141 C   0  0  0  0  0  0  0  0  0  0  0  0
    0.7401   -0.9766    1.3224 H   0  0  0  0  0  0  0  0  0  0  0  0
    1.5045    0.5988    1.3403 H   0  0  0  0  0  0  0  0  0  0  0  0
   -0.0497    0.4010    2.8103 C   0  0  0  0  0  0  0  0  0  0  0  0
   -1.0514   -0.0345    2.8852 H   0  0  0  0  0  0  0  0  0  0  0  0
    0.8362   -0.2520    3.8775 C   0  0  0  0  0  0  0  0  0  0  0  0
    1.8508    0.1574    3.8426 H   0  0  0  0  0  0  0  0  0  0  0  0
    0.4245   -0.0769    4.8763 H   0  0  0  0  0  0  0  0  0  0  0  0
    0.8906   -1.3335    3.7168 H   0  0  0  0  0  0  0  0  0  0  0  0
   -0.1478    1.9077    3.0918 C   0  0  0  0  0  0  0  0  0  0  0  0
   -0.9027    2.3762    2.4547 H   0  0  0  0  0  0  0  0  0  0  0  0
   -0.4388    2.0809    4.1325 H   0  0  0  0  0  0  0  0  0  0  0  0
    0.8150    2.3978    2.9157 H   0  0  0  0  0  0  0  0  0  0  0  0
    0.3981    0.5390   -1.1082 C   0  0  0  0  0  0  0  0  0  0  0  0
    0.0214    1.2677   -2.0176 O   0  0  0  0  0  0  0  0  0  0  0  0
    1.4438   -0.3390   -1.3301 N   0  0  0  0  0  0  0  0  0  0  0  0
    1.6145   -1.0360   -0.6097 H   0  0  0  0  0  0  0  0  0  0  0  0
    2.0978   -0.4914   -2.6236 C   0  0  0  0  0  0  0  0  0  0  0  0
    2.5131    0.4651   -2.9583 H   0  0  0  0  0  0  0  0  0  0  0  0
    2.9159   -1.2144   -2.5503 H   0  0  0  0  0  0  0  0  0  0  0  0
    1.3848   -0.8481   -3.3742 H   0  0  0  0  0  0  0  0  0  0  0  0
  1  2  1  0  0  0  0
  2  3  1  0  0  0  0
  2  4  1  0  0  0  0
  2  5  1  0  0  0  0
  5  6  2  0  0  0  0
  5  7  1  0  0  0  0
  7  8  1  0  0  0  0
  7  9  1  0  0  0  0
  9 10  1  0  0  0  0
  9 11  1  0  0  0  0
  9 24  1  0  0  0  0
 11 12  1  0  0  0  0
 11 13  1  0  0  0  0
 11 14  1  0  0  0  0
 14 15  1  0  0  0  0
 14 16  1  0  0  0  0
 14 20  1  0  0  0  0
 16 17  1  0  0  0  0
 16 18  1  0  0  0  0
 16 19  1  0  0  0  0
 20 21  1  0  0  0  0
 20 22  1  0  0  0  0
 20 23  1  0  0  0  0
 24 25  2  0  0  0  0
 24 26  1  0  0  0  0
 26 27  1  0  0  0  0
 26 28  1  0  0  0  0
 28 29  1  0  0  0  0
 28 30  1  0  0  0  0
 28 31  1  0  0  0  0
M  END
$$$$

  -OEChem-01062216083D

 31 30  0     1  0  0  0  0  0999 V2000
   -3.7395   -2.7095    0.6327 H   0  0  0  0  0  0  0  0  0  0  0  0
   -3.5465   -1.7111    0.2299 C   0  0  0  0  0  0  0  0  0  0  0  0
   -4.2013   -0.9965    0.7345 H   0  0  0  0  0  0  0  0  0  0  0  0
   -3.7742   -1.7126   -0.8389 H   0  0  0  0  0  0  0  0  0  0  0  0
   -2.0946   -1.3288    0.4497 C   0  0  0  0  0  0  0  0  0  0  0  0
   -1.3318   -2.1553    0.9200 O   0  0  0  0  0  0  0  0  0  0  0  0
   -1.6681   -0.0814    0.0320 N   0  0  0  0  0  0  0  0  0  0  0  0
   -2.3732    0.4749   -0.4448 H   0  0  0  0  0  0  0  0  0  0  0  0
   -0.3526    0.5704    0.2166 C   0  0  1  0  0  0  0  0  0  0  0  0
   -0.5513    1.6303    0.3940 H   0  0  0  0  0  0  0  0  0  0  0  0
    0.5346    0.0890    1.3934 C   0  0  0  0  0  0  0  0  0  0  0  0
    0.7464   -0.9790    1.3015 H   0  0  0  0  0  0  0  0  0  0  0  0
    1.5014    0.5988    1.3207 H   0  0  0  0  0  0  0  0  0  0  0  0
   -0.0568    0.3912    2.7880 C   0  0  0  0  0  0  0  0  0  0  0  0
   -1.0563   -0.0502    2.8576 H   0  0  0  0  0  0  0  0  0  0  0  0
    0.8280   -0.2597    3.8576 C   0  0  0  0  0  0  0  0  0  0  0  0
    1.8400    0.1566    3.8290 H   0  0  0  0  0  0  0  0  0  0  0  0
    0.4100   -0.0907    4.8549 H   0  0  0  0  0  0  0  0  0  0  0  0
    0.8904   -1.3403    3.6940 H   0  0  0  0  0  0  0  0  0  0  0  0
   -0.1644    1.8966    3.0727 C   0  0  0  0  0  0  0  0  0  0  0  0
   -0.9195    2.3626    2.4338 H   0  0  0  0  0  0  0  0  0  0  0  0
   -0.4604    2.0654    4.1128 H   0  0  0  0  0  0  0  0  0  0  0  0
    0.7963    2.3924    2.9013 H   0  0  0  0  0  0  0  0  0  0  0  0
    0.4127    0.5280   -1.1195 C   0  0  0  0  0  0  0  0  0  0  0  0
    0.2414    1.4180   -1.9424 O   0  0  0  0  0  0  0  0  0  0  0  0
    1.2373   -0.5391   -1.4246 N   0  0  0  0  0  0  0  0  0  0  0  0
    1.2118   -1.3283   -0.7824 H   0  0  0  0  0  0  0  0  0  0  0  0
    1.8841   -0.7050   -2.7198 C   0  0  0  0  0  0  0  0  0  0  0  0
    2.5155    0.1605   -2.9467 H   0  0  0  0  0  0  0  0  0  0  0  0
    2.5150   -1.5991   -2.7146 H   0  0  0  0  0  0  0  0  0  0  0  0
    1.1354   -0.8118   -3.5117 H   0  0  0  0  0  0  0  0  0  0  0  0
  1  2  1  0  0  0  0
  2  3  1  0  0  0  0
  2  4  1  0  0  0  0
  2  5  1  0  0  0  0
  5  6  2  0  0  0  0
  5  7  1  0  0  0  0
  7  8  1  0  0  0  0
  7  9  1  0  0  0  0
  9 10  1  0  0  0  0
  9 11  1  0  0  0  0
  9 24  1  0  0  0  0
 11 12  1  0  0  0  0
 11 13  1  0  0  0  0
 11 14  1  0  0  0  0
 14 15  1  0  0  0  0
 14 16  1  0  0  0  0
 14 20  1  0  0  0  0
 16 17  1  0  0  0  0
 16 18  1  0  0  0  0
 16 19  1  0  0  0  0
 20 21  1  0  0  0  0
 20 22  1  0  0  0  0
 20 23  1  0  0  0  0
 24 25  2  0  0  0  0
 24 26  1  0  0  0  0
 26 27  1  0  0  0  0
 26 28  1  0  0  0  0
 28 29  1  0  0  0  0
 28 30  1  0  0  0  0
 28 31  1  0  0  0  0
M  END
$$$$

  -OEChem-01062216083D

 31 30  0     1  0  0  0  0  0999 V2000
   -3.7546   -2.6658    0.7617 H   0  0  0  0  0  0  0  0  0  0  0  0
   -3.5622   -1.6958    0.2945 C   0  0  0  0  0  0  0  0  0  0  0  0
   -4.1839   -0.9421    0.7837 H   0  0  0  0  0  0  0  0  0  0  0  0
   -3.8338   -1.7532   -0.7624 H   0  0  0  0  0  0  0  0  0  0  0  0
   -2.0964   -1.3297    0.4322 C   0  0  0  0  0  0  0  0  0  0  0  0
   -1.3093   -2.1759    0.8202 O   0  0  0  0  0  0  0  0  0  0  0  0
   -1.6780   -0.0830    0.0057 N   0  0  0  0  0  0  0  0  0  0  0  0
   -2.4094    0.4995   -0.3931 H   0  0  0  0  0  0  0  0  0  0  0  0
   -0.3638    0.5713    0.1948 C   0  0  1  0  0  0  0  0  0  0  0  0
   -0.5646    1.6309    0.3726 H   0  0  0  0  0  0  0  0  0  0  0  0
    0.5262    0.0868    1.3671 C   0  0  0  0  0  0  0  0  0  0  0  0
    0.7443   -0.9794    1.2680 H   0  0  0  0  0  0  0  0  0  0  0  0
    1.4907    0.6013    1.2948 H   0  0  0  0  0  0  0  0  0  0  0  0
   -0.0635    0.3783    2.7645 C   0  0  0  0  0  0  0  0  0  0  0  0
   -1.0612   -0.0666    2.8344 H   0  0  0  0  0  0  0  0  0  0  0  0
    0.8256   -0.2757    3.8286 C   0  0  0  0  0  0  0  0  0  0  0  0
    1.8369    0.1423    3.7994 H   0  0  0  0  0  0  0  0  0  0  0  0
    0.4101   -0.1119    4.8278 H   0  0  0  0  0  0  0  0  0  0  0  0
    0.8899   -1.3553    3.6594 H   0  0  0  0  0  0  0  0  0  0  0  0
   -0.1742    1.8823    3.0562 C   0  0  0  0  0  0  0  0  0  0  0  0
   -0.9324    2.3492    2.4219 H   0  0  0  0  0  0  0  0  0  0  0  0
   -0.4662    2.0465    4.0981 H   0  0  0  0  0  0  0  0  0  0  0  0
    0.7847    2.3812    2.8831 H   0  0  0  0  0  0  0  0  0  0  0  0
    0.4112    0.5222   -1.1332 C   0  0  0  0  0  0  0  0  0  0  0  0
    0.4840    1.5179   -1.8411 O   0  0  0  0  0  0  0  0  0  0  0  0
    0.9788   -0.6674   -1.5486 N   0  0  0  0  0  0  0  0  0  0  0  0
    0.7725   -1.4897   -0.9834 H   0  0  0  0  0  0  0  0  0  0  0  0
    1.6373   -0.8380   -2.8364 C   0  0  0  0  0  0  0  0  0  0  0  0
    2.4654   -0.1288   -2.9400 H   0  0  0  0  0  0  0  0  0  0  0  0
    2.0394   -1.8520   -2.9231 H   0  0  0  0  0  0  0  0  0  0  0  0
    0.9275   -0.6740   -3.6538 H   0  0  0  0  0  0  0  0  0  0  0  0
  1  2  1  0  0  0  0
  2  3  1  0  0  0  0
  2  4  1  0  0  0  0
  2  5  1  0  0  0  0
  5  6  2  0  0  0  0
  5  7  1  0  0  0  0
  7  8  1  0  0  0  0
  7  9  1  0  0  0  0
  9 10  1  0  0  0  0
  9 11  1  0  0  0  0
  9 24  1  0  0  0  0
 11 12  1  0  0  0  0
 11 13  1  0  0  0  0
 11 14  1  0  0  0  0
 14 15  1  0  0  0  0
 14 16  1  0  0  0  0
 14 20  1  0  0  0  0
 16 17  1  0  0  0  0
 16 18  1  0  0  0  0
 16 19  1  0  0  0  0
 20 21  1  0  0  0  0
 20 22  1  0  0  0  0
 20 23  1  0  0  0  0
 24 25  2  0  0  0  0
 24 26  1  0  0  0  0
 26 27  1  0  0  0  0
 26 28  1  0  0  0  0
 28 29  1  0  0  0  0
 28 30  1  0  0  0  0
 28 31  1  0  0  0  0
M  END
$$$$

  -OEChem-01062216083D

 31 30  0     1  0  0  0  0  0999 V2000
   -3.7458   -2.6681    0.8318 H   0  0  0  0  0  0  0  0  0  0  0  0
   -3.5856   -1.6699    0.4143 C   0  0  0  0  0  0  0  0  0  0  0  0
   -4.1329   -0.9445    1.0211 H   0  0  0  0  0  0  0  0  0  0  0  0
   -3.9737   -1.6485   -0.6069 H   0  0  0  0  0  0  0  0  0  0  0  0
   -2.1064   -1.3338    0.4145 C   0  0  0  0  0  0  0  0  0  0  0  0
   -1.2975   -2.2042    0.6868 O   0  0  0  0  0  0  0  0  0  0  0  0
   -1.7015   -0.0878   -0.0252 N   0  0  0  0  0  0  0  0  0  0  0  0
   -2.4587    0.5202   -0.3256 H   0  0  0  0  0  0  0  0  0  0  0  0
   -0.3869    0.5697    0.1598 C   0  0  1  0  0  0  0  0  0  0  0  0
   -0.5869    1.6294    0.3366 H   0  0  0  0  0  0  0  0  0  0  0  0
    0.5054    0.0804    1.3271 C   0  0  0  0  0  0  0  0  0  0  0  0
    0.7251   -0.9849    1.2200 H   0  0  0  0  0  0  0  0  0  0  0  0
    1.4693    0.5965    1.2550 H   0  0  0  0  0  0  0  0  0  0  0  0
   -0.0812    0.3650    2.7271 C   0  0  0  0  0  0  0  0  0  0  0  0
   -1.0780   -0.0816    2.7970 H   0  0  0  0  0  0  0  0  0  0  0  0
    0.8110   -0.2936    3.7851 C   0  0  0  0  0  0  0  0  0  0  0  0
    1.8211    0.1276    3.7560 H   0  0  0  0  0  0  0  0  0  0  0  0
    0.3971   -0.1365    4.7860 H   0  0  0  0  0  0  0  0  0  0  0  0
    0.8780   -1.3720    3.6093 H   0  0  0  0  0  0  0  0  0  0  0  0
   -0.1930    1.8670    3.0280 C   0  0  0  0  0  0  0  0  0  0  0  0
   -0.9448    2.3397    2.3904 H   0  0  0  0  0  0  0  0  0  0  0  0
   -0.4941    2.0242    4.0685 H   0  0  0  0  0  0  0  0  0  0  0  0
    0.7681    2.3657    2.8671 H   0  0  0  0  0  0  0  0  0  0  0  0
    0.3961    0.5169   -1.1626 C   0  0  0  0  0  0  0  0  0  0  0  0
    0.7347    1.5485   -1.7267 O   0  0  0  0  0  0  0  0  0  0  0  0
    0.6958   -0.7122   -1.7179 N   0  0  0  0  0  0  0  0  0  0  0  0
    0.3567   -1.5336   -1.2173 H   0  0  0  0  0  0  0  0  0  0  0  0
    1.4152   -0.8809   -2.9726 C   0  0  0  0  0  0  0  0  0  0  0  0
    2.3944   -0.3937   -2.9205 H   0  0  0  0  0  0  0  0  0  0  0  0
    1.5692   -1.9443   -3.1791 H   0  0  0  0  0  0  0  0  0  0  0  0
    0.8475   -0.4447   -3.8009 H   0  0  0  0  0  0  0  0  0  0  0  0
  1  2  1  0  0  0  0
  2  3  1  0  0  0  0
  2  4  1  0  0  0  0
  2  5  1  0  0  0  0
  5  6  2  0  0  0  0
  5  7  1  0  0  0  0
  7  8  1  0  0  0  0
  7  9  1  0  0  0  0
  9 10  1  0  0  0  0
  9 11  1  0  0  0  0
  9 24  1  0  0  0  0
 11 12  1  0  0  0  0
 11 13  1  0  0  0  0
 11 14  1  0  0  0  0
 14 15  1  0  0  0  0
 14 16  1  0  0  0  0
 14 20  1  0  0  0  0
 16 17  1  0  0  0  0
 16 18  1  0  0  0  0
 16 19  1  0  0  0  0
 20 21  1  0  0  0  0
 20 22  1  0  0  0  0
 20 23  1  0  0  0  0
 24 25  2  0  0  0  0
 24 26  1  0  0  0  0
 26 27  1  0  0  0  0
 26 28  1  0  0  0  0
 28 29  1  0  0  0  0
 28 30  1  0  0  0  0
 28 31  1  0  0  0  0
M  END
$$$$

  -OEChem-01062216083D

 31 30  0     1  0  0  0  0  0999 V2000
   -3.7581   -2.6646    0.9129 H   0  0  0  0  0  0  0  0  0  0  0  0
   -3.6139   -1.6639    0.4954 C   0  0  0  0  0  0  0  0  0  0  0  0
   -4.1276   -0.9412    1.1339 H   0  0  0  0  0  0  0  0  0  0  0  0
   -4.0521   -1.6337   -0.5052 H   0  0  0  0  0  0  0  0  0  0  0  0
   -2.1343   -1.3356    0.4255 C   0  0  0  0  0  0  0  0  0  0  0  0
   -1.3188   -2.2151    0.6409 O   0  0  0  0  0  0  0  0  0  0  0  0
   -1.7403   -0.0904   -0.0262 N   0  0  0  0  0  0  0  0  0  0  0  0
   -2.5095    0.5247   -0.2771 H   0  0  0  0  0  0  0  0  0  0  0  0
   -0.4231    0.5717    0.1375 C   0  0  1  0  0  0  0  0  0  0  0  0
   -0.6228    1.6311    0.3171 H   0  0  0  0  0  0  0  0  0  0  0  0
    0.4809    0.0764    1.2927 C   0  0  0  0  0  0  0  0  0  0  0  0
    0.6977   -0.9884    1.1779 H   0  0  0  0  0  0  0  0  0  0  0  0
    1.4453    0.5903    1.2125 H   0  0  0  0  0  0  0  0  0  0  0  0
   -0.0886    0.3563    2.7006 C   0  0  0  0  0  0  0  0  0  0  0  0
   -1.0857   -0.0877    2.7815 H   0  0  0  0  0  0  0  0  0  0  0  0
    0.8142   -0.3083    3.7462 C   0  0  0  0  0  0  0  0  0  0  0  0
    1.8269    0.1048    3.7028 H   0  0  0  0  0  0  0  0  0  0  0  0
    0.4157   -0.1490    4.7530 H   0  0  0  0  0  0  0  0  0  0  0  0
    0.8707   -1.3871    3.5692 H   0  0  0  0  0  0  0  0  0  0  0  0
   -0.1925    1.8580    3.0058 C   0  0  0  0  0  0  0  0  0  0  0  0
   -0.9478    2.3349    2.3755 H   0  0  0  0  0  0  0  0  0  0  0  0
   -0.4841    2.0138    4.0492 H   0  0  0  0  0  0  0  0  0  0  0  0
    0.7689    2.3538    2.8374 H   0  0  0  0  0  0  0  0  0  0  0  0
    0.3590    0.5253   -1.1869 C   0  0  0  0  0  0  0  0  0  0  0  0
    0.9342    1.5228   -1.6013 O   0  0  0  0  0  0  0  0  0  0  0  0
    0.4028   -0.6526   -1.9080 N   0  0  0  0  0  0  0  0  0  0  0  0
   -0.0184   -1.4680   -1.4639 H   0  0  0  0  0  0  0  0  0  0  0  0
    1.1893   -0.8263   -3.1212 C   0  0  0  0  0  0  0  0  0  0  0  0
    2.2509   -0.6522   -2.9168 H   0  0  0  0  0  0  0  0  0  0  0  0
    1.0717   -1.8447   -3.5040 H   0  0  0  0  0  0  0  0  0  0  0  0
    0.8592   -0.1254   -3.8949 H   0  0  0  0  0  0  0  0  0  0  0  0
  1  2  1  0  0  0  0
  2  3  1  0  0  0  0
  2  4  1  0  0  0  0
  2  5  1  0  0  0  0
  5  6  2  0  0  0  0
  5  7  1  0  0  0  0
  7  8  1  0  0  0  0
  7  9  1  0  0  0  0
  9 10  1  0  0  0  0
  9 11  1  0  0  0  0
  9 24  1  0  0  0  0
 11 12  1  0  0  0  0
 11 13  1  0  0  0  0
 11 14  1  0  0  0  0
 14 15  1  0  0  0  0
 14 16  1  0  0  0  0
 14 20  1  0  0  0  0
 16 17  1  0  0  0  0
 16 18  1  0  0  0  0
 16 19  1  0  0  0  0
 20 21  1  0  0  0  0
 20 22  1  0  0  0  0
 20 23  1  0  0  0  0
 24 25  2  0  0  0  0
 24 26  1  0  0  0  0
 26 27  1  0  0  0  0
 26 28  1  0  0  0  0
 28 29  1  0  0  0  0
 28 30  1  0  0  0  0
 28 31  1  0  0  0  0
M  END
$$$$

  -OEChem-01062216083D

 31 30  0     1  0  0  0  0  0999 V2000
   -3.7733   -2.6626    0.9562 H   0  0  0  0  0  0  0  0  0  0  0  0
   -3.6295   -1.6645    0.5325 C   0  0  0  0  0  0  0  0  0  0  0  0
   -4.1302   -0.9362    1.1750 H   0  0  0  0  0  0  0  0  0  0  0  0
   -4.0810   -1.6353   -0.4622 H   0  0  0  0  0  0  0  0  0  0  0  0
   -2.1493   -1.3445    0.4407 C   0  0  0  0  0  0  0  0  0  0  0  0
   -1.3363   -2.2284    0.6434 O   0  0  0  0  0  0  0  0  0  0  0  0
   -1.7591   -0.1000   -0.0166 N   0  0  0  0  0  0  0  0  0  0  0  0
   -2.5333    0.5165   -0.2480 H   0  0  0  0  0  0  0  0  0  0  0  0
   -0.4406    0.5665    0.1310 C   0  0  1  0  0  0  0  0  0  0  0  0
   -0.6422    1.6250    0.3114 H   0  0  0  0  0  0  0  0  0  0  0  0
    0.4683    0.0715    1.2830 C   0  0  0  0  0  0  0  0  0  0  0  0
    0.6821   -0.9941    1.1674 H   0  0  0  0  0  0  0  0  0  0  0  0
    1.4336    0.5830    1.1983 H   0  0  0  0  0  0  0  0  0  0  0  0
   -0.0922    0.3548    2.6940 C   0  0  0  0  0  0  0  0  0  0  0  0
   -1.0896   -0.0870    2.7821 H   0  0  0  0  0  0  0  0  0  0  0  0
    0.8166   -0.3108    3.7336 C   0  0  0  0  0  0  0  0  0  0  0  0
    1.8289    0.1028    3.6840 H   0  0  0  0  0  0  0  0  0  0  0  0
    0.4244   -0.1517    4.7428 H   0  0  0  0  0  0  0  0  0  0  0  0
    0.8722   -1.3894    3.5556 H   0  0  0  0  0  0  0  0  0  0  0  0
   -0.1899    1.8575    2.9979 C   0  0  0  0  0  0  0  0  0  0  0  0
   -0.9473    2.3361    2.3715 H   0  0  0  0  0  0  0  0  0  0  0  0
   -0.4746    2.0156    4.0428 H   0  0  0  0  0  0  0  0  0  0  0  0
    0.7720    2.3500    2.8233 H   0  0  0  0  0  0  0  0  0  0  0  0
    0.3437    0.5292   -1.1950 C   0  0  0  0  0  0  0  0  0  0  0  0
    1.1069    1.4418   -1.4819 O   0  0  0  0  0  0  0  0  0  0  0  0
    0.1587   -0.5176   -2.0783 N   0  0  0  0  0  0  0  0  0  0  0  0
   -0.3646   -1.3129   -1.7161 H   0  0  0  0  0  0  0  0  0  0  0  0
    0.9410   -0.6824   -3.2959 C   0  0  0  0  0  0  0  0  0  0  0  0
    2.0022   -0.8034   -3.0551 H   0  0  0  0  0  0  0  0  0  0  0  0
    0.6049   -1.5683   -3.8430 H   0  0  0  0  0  0  0  0  0  0  0  0
    0.8242    0.1898   -3.9476 H   0  0  0  0  0  0  0  0  0  0  0  0
  1  2  1  0  0  0  0
  2  3  1  0  0  0  0
  2  4  1  0  0  0  0
  2  5  1  0  0  0  0
  5  6  2  0  0  0  0
  5  7  1  0  0  0  0
  7  8  1  0  0  0  0
  7  9  1  0  0  0  0
  9 10  1  0  0  0  0
  9 11  1  0  0  0  0
  9 24  1  0  0  0  0
 11 12  1  0  0  0  0
 11 13  1  0  0  0  0
 11 14  1  0  0  0  0
 14 15  1  0  0  0  0
 14 16  1  0  0  0  0
 14 20  1  0  0  0  0
 16 17  1  0  0  0  0
 16 18  1  0  0  0  0
 16 19  1  0  0  0  0
 20 21  1  0  0  0  0
 20 22  1  0  0  0  0
 20 23  1  0  0  0  0
 24 25  2  0  0  0  0
 24 26  1  0  0  0  0
 26 27  1  0  0  0  0
 26 28  1  0  0  0  0
 28 29  1  0  0  0  0
 28 30  1  0  0  0  0
 28 31  1  0  0  0  0
M  END
$$$$

  -OEChem-01062216083D

 31 30  0     1  0  0  0  0  0999 V2000
   -3.7782   -2.6639    0.9887 H   0  0  0  0  0  0  0  0  0  0  0  0
   -3.6337   -1.6725    0.5497 C   0  0  0  0  0  0  0  0  0  0  0  0
   -4.1358   -0.9349    1.1804 H   0  0  0  0  0  0  0  0  0  0  0  0
   -4.0840   -1.6592   -0.4457 H   0  0  0  0  0  0  0  0  0  0  0  0
   -2.1531   -1.3539    0.4554 C   0  0  0  0  0  0  0  0  0  0  0  0
   -1.3442   -2.2367    0.6748 O   0  0  0  0  0  0  0  0  0  0  0  0
   -1.7654   -0.1087   -0.0054 N   0  0  0  0  0  0  0  0  0  0  0  0
   -2.5426    0.5077   -0.2266 H   0  0  0  0  0  0  0  0  0  0  0  0
   -0.4455    0.5617    0.1290 C   0  0  1  0  0  0  0  0  0  0  0  0
   -0.6480    1.6202    0.3090 H   0  0  0  0  0  0  0  0  0  0  0  0
    0.4629    0.0666    1.2828 C   0  0  0  0  0  0  0  0  0  0  0  0
    0.6742   -0.9993    1.1684 H   0  0  0  0  0  0  0  0  0  0  0  0
    1.4304    0.5739    1.1992 H   0  0  0  0  0  0  0  0  0  0  0  0
   -0.0940    0.3554    2.6942 C   0  0  0  0  0  0  0  0  0  0  0  0
   -1.0929   -0.0824    2.7853 H   0  0  0  0  0  0  0  0  0  0  0  0
    0.8151   -0.3115    3.7328 C   0  0  0  0  0  0  0  0  0  0  0  0
    1.8285    0.0993    3.6803 H   0  0  0  0  0  0  0  0  0  0  0  0
    0.4259   -0.1504    4.7429 H   0  0  0  0  0  0  0  0  0  0  0  0
    0.8674   -1.3905    3.5556 H   0  0  0  0  0  0  0  0  0  0  0  0
   -0.1855    1.8585    2.9966 C   0  0  0  0  0  0  0  0  0  0  0  0
   -0.9407    2.3394    2.3693 H   0  0  0  0  0  0  0  0  0  0  0  0
   -0.4703    2.0182    4.0414 H   0  0  0  0  0  0  0  0  0  0  0  0
    0.7788    2.3467    2.8222 H   0  0  0  0  0  0  0  0  0  0  0  0
    0.3398    0.5337   -1.2003 C   0  0  0  0  0  0  0  0  0  0  0  0
    1.2626    1.3169   -1.3823 O   0  0  0  0  0  0  0  0  0  0  0  0
   -0.0416   -0.3151   -2.2229 N   0  0  0  0  0  0  0  0  0  0  0  0
   -0.7006   -1.0449   -1.9632 H   0  0  0  0  0  0  0  0  0  0  0  0
    0.7113   -0.4569   -3.4626 C   0  0  0  0  0  0  0  0  0  0  0  0
    1.7218   -0.8255   -3.2570 H   0  0  0  0  0  0  0  0  0  0  0  0
    0.2110   -1.1663   -4.1286 H   0  0  0  0  0  0  0  0  0  0  0  0
    0.7855    0.5060   -3.9789 H   0  0  0  0  0  0  0  0  0  0  0  0
  1  2  1  0  0  0  0
  2  3  1  0  0  0  0
  2  4  1  0  0  0  0
  2  5  1  0  0  0  0
  5  6  2  0  0  0  0
  5  7  1  0  0  0  0
  7  8  1  0  0  0  0
  7  9  1  0  0  0  0
  9 10  1  0  0  0  0
  9 11  1  0  0  0  0
  9 24  1  0  0  0  0
 11 12  1  0  0  0  0
 11 13  1  0  0  0  0
 11 14  1  0  0  0  0
 14 15  1  0  0  0  0
 14 16  1  0  0  0  0
 14 20  1  0  0  0  0
 16 17  1  0  0  0  0
 16 18  1  0  0  0  0
 16 19  1  0  0  0  0
 20 21  1  0  0  0  0
 20 22  1  0  0  0  0
 20 23  1  0  0  0  0
 24 25  2  0  0  0  0
 24 26  1  0  0  0  0
 26 27  1  0  0  0  0
 26 28  1  0  0  0  0
 28 29  1  0  0  0  0
 28 30  1  0  0  0  0
 28 31  1  0  0  0  0
M  END
$$$$

  -OEChem-01062216083D

 31 30  0     1  0  0  0  0  0999 V2000
   -3.7700   -2.6798    0.9779 H   0  0  0  0  0  0  0  0  0  0  0  0
   -3.6234   -1.6858    0.5453 C   0  0  0  0  0  0  0  0  0  0  0  0
   -4.1279   -0.9520    1.1786 H   0  0  0  0  0  0  0  0  0  0  0  0
   -4.0696   -1.6669   -0.4519 H   0  0  0  0  0  0  0  0  0  0  0  0
   -2.1426   -1.3667    0.4588 C   0  0  0  0  0  0  0  0  0  0  0  0
   -1.3374   -2.2471    0.6983 O   0  0  0  0  0  0  0  0  0  0  0  0
   -1.7561   -0.1188    0.0017 N   0  0  0  0  0  0  0  0  0  0  0  0
   -2.5351    0.5002   -0.2047 H   0  0  0  0  0  0  0  0  0  0  0  0
   -0.4346    0.5515    0.1303 C   0  0  1  0  0  0  0  0  0  0  0  0
   -0.6371    1.6097    0.3100 H   0  0  0  0  0  0  0  0  0  0  0  0
    0.4679    0.0575    1.2914 C   0  0  0  0  0  0  0  0  0  0  0  0
    0.6771   -1.0093    1.1827 H   0  0  0  0  0  0  0  0  0  0  0  0
    1.4380    0.5600    1.2146 H   0  0  0  0  0  0  0  0  0  0  0  0
   -0.0956    0.3575    2.6980 C   0  0  0  0  0  0  0  0  0  0  0  0
   -1.0976   -0.0738    2.7862 H   0  0  0  0  0  0  0  0  0  0  0  0
    0.8038   -0.3072    3.7461 C   0  0  0  0  0  0  0  0  0  0  0  0
    1.8189    0.0997    3.6992 H   0  0  0  0  0  0  0  0  0  0  0  0
    0.4073   -0.1399    4.7522 H   0  0  0  0  0  0  0  0  0  0  0  0
    0.8535   -1.3872    3.5750 H   0  0  0  0  0  0  0  0  0  0  0  0
   -0.1787    1.8629    2.9909 C   0  0  0  0  0  0  0  0  0  0  0  0
   -0.9318    2.3436    2.3612 H   0  0  0  0  0  0  0  0  0  0  0  0
   -0.4615    2.0317    4.0346 H   0  0  0  0  0  0  0  0  0  0  0  0
    0.7882    2.3441    2.8122 H   0  0  0  0  0  0  0  0  0  0  0  0
    0.3458    0.5323   -1.2048 C   0  0  0  0  0  0  0  0  0  0  0  0
    1.3997    1.1458   -1.3125 O   0  0  0  0  0  0  0  0  0  0  0  0
   -0.1995   -0.0624   -2.3283 N   0  0  0  0  0  0  0  0  0  0  0  0
   -0.9871   -0.6813   -2.1579 H   0  0  0  0  0  0  0  0  0  0  0  0
    0.5092   -0.1619   -3.5981 C   0  0  0  0  0  0  0  0  0  0  0  0
    1.4256   -0.7496   -3.4803 H   0  0  0  0  0  0  0  0  0  0  0  0
   -0.1228   -0.6494   -4.3462 H   0  0  0  0  0  0  0  0  0  0  0  0
    0.7741    0.8340   -3.9687 H   0  0  0  0  0  0  0  0  0  0  0  0
  1  2  1  0  0  0  0
  2  3  1  0  0  0  0
  2  4  1  0  0  0  0
  2  5  1  0  0  0  0
  5  6  2  0  0  0  0
  5  7  1  0  0  0  0
  7  8  1  0  0  0  0
  7  9  1  0  0  0  0
  9 10  1  0  0  0  0
  9 11  1  0  0  0  0
  9 24  1  0  0  0  0
 11 12  1  0  0  0  0
 11 13  1  0  0  0  0
 11 14  1  0  0  0  0
 14 15  1  0  0  0  0
 14 16  1  0  0  0  0
 14 20  1  0  0  0  0
 16 17  1  0  0  0  0
 16 18  1  0  0  0  0
 16 19  1  0  0  0  0
 20 21  1  0  0  0  0
 20 22  1  0  0  0  0
 20 23  1  0  0  0  0
 24 25  2  0  0  0  0
 24 26  1  0  0  0  0
 26 27  1  0  0  0  0
 26 28  1  0  0  0  0
 28 29  1  0  0  0  0
 28 30  1  0  0  0  0
 28 31  1  0  0  0  0
M  END
$$$$

  -OEChem-01062216083D

 31 30  0     1  0  0  0  0  0999 V2000
   -3.7532   -2.6817    0.9773 H   0  0  0  0  0  0  0  0  0  0  0  0
   -3.6039   -1.6979    0.5227 C   0  0  0  0  0  0  0  0  0  0  0  0
   -4.1188   -0.9507    1.1314 H   0  0  0  0  0  0  0  0  0  0  0  0
   -4.0375   -1.7047   -0.4802 H   0  0  0  0  0  0  0  0  0  0  0  0
   -2.1227   -1.3764    0.4471 C   0  0  0  0  0  0  0  0  0  0  0  0
   -1.3200   -2.2553    0.6996 O   0  0  0  0  0  0  0  0  0  0  0  0
   -1.7378   -0.1238   -0.0002 N   0  0  0  0  0  0  0  0  0  0  0  0
   -2.5192    0.4986   -0.1855 H   0  0  0  0  0  0  0  0  0  0  0  0
   -0.4152    0.5445    0.1314 C   0  0  1  0  0  0  0  0  0  0  0  0
   -0.6167    1.6023    0.3115 H   0  0  0  0  0  0  0  0  0  0  0  0
    0.4790    0.0512    1.3016 C   0  0  0  0  0  0  0  0  0  0  0  0
    0.6873   -1.0163    1.1978 H   0  0  0  0  0  0  0  0  0  0  0  0
    1.4508    0.5518    1.2335 H   0  0  0  0  0  0  0  0  0  0  0  0
   -0.0942    0.3592    2.7034 C   0  0  0  0  0  0  0  0  0  0  0  0
   -1.0977   -0.0698    2.7849 H   0  0  0  0  0  0  0  0  0  0  0  0
    0.7940   -0.3032    3.7627 C   0  0  0  0  0  0  0  0  0  0  0  0
    1.8116    0.0980    3.7202 H   0  0  0  0  0  0  0  0  0  0  0  0
    0.3917   -0.1264    4.7649 H   0  0  0  0  0  0  0  0  0  0  0  0
    0.8393   -1.3846    3.5994 H   0  0  0  0  0  0  0  0  0  0  0  0
   -0.1779    1.8657    2.9916 C   0  0  0  0  0  0  0  0  0  0  0  0
   -0.9251    2.3461    2.3547 H   0  0  0  0  0  0  0  0  0  0  0  0
   -0.4695    2.0368    4.0326 H   0  0  0  0  0  0  0  0  0  0  0  0
    0.7911    2.3454    2.8206 H   0  0  0  0  0  0  0  0  0  0  0  0
    0.3554    0.5322   -1.2124 C   0  0  0  0  0  0  0  0  0  0  0  0
    1.5138    0.9234   -1.2775 O   0  0  0  0  0  0  0  0  0  0  0  0
   -0.3070    0.2342   -2.3904 N   0  0  0  0  0  0  0  0  0  0  0  0
   -1.2113   -0.2151   -2.2860 H   0  0  0  0  0  0  0  0  0  0  0  0
    0.3604    0.1719   -3.6850 C   0  0  0  0  0  0  0  0  0  0  0  0
    1.1379   -0.5992   -3.6776 H   0  0  0  0  0  0  0  0  0  0  0  0
   -0.3614   -0.0695   -4.4710 H   0  0  0  0  0  0  0  0  0  0  0  0
    0.8214    1.1355   -3.9260 H   0  0  0  0  0  0  0  0  0  0  0  0
  1  2  1  0  0  0  0
  2  3  1  0  0  0  0
  2  4  1  0  0  0  0
  2  5  1  0  0  0  0
  5  6  2  0  0  0  0
  5  7  1  0  0  0  0
  7  8  1  0  0  0  0
  7  9  1  0  0  0  0
  9 10  1  0  0  0  0
  9 11  1  0  0  0  0
  9 24  1  0  0  0  0
 11 12  1  0  0  0  0
 11 13  1  0  0  0  0
 11 14  1  0  0  0  0
 14 15  1  0  0  0  0
 14 16  1  0  0  0  0
 14 20  1  0  0  0  0
 16 17  1  0  0  0  0
 16 18  1  0  0  0  0
 16 19  1  0  0  0  0
 20 21  1  0  0  0  0
 20 22  1  0  0  0  0
 20 23  1  0  0  0  0
 24 25  2  0  0  0  0
 24 26  1  0  0  0  0
 26 27  1  0  0  0  0
 26 28  1  0  0  0  0
 28 29  1  0  0  0  0
 28 30  1  0  0  0  0
 28 31  1  0  0  0  0
M  END
$$$$

  -OEChem-01062216083D

 31 30  0     1  0  0  0  0  0999 V2000
   -3.7393   -2.6964    0.9493 H   0  0  0  0  0  0  0  0  0  0  0  0
   -3.5895   -1.7074    0.5061 C   0  0  0  0  0  0  0  0  0  0  0  0
   -4.1041   -0.9670    1.1231 H   0  0  0  0  0  0  0  0  0  0  0  0
   -4.0224   -1.7030   -0.4970 H   0  0  0  0  0  0  0  0  0  0  0  0
   -2.1080   -1.3856    0.4351 C   0  0  0  0  0  0  0  0  0  0  0  0
   -1.3076   -2.2618    0.7032 O   0  0  0  0  0  0  0  0  0  0  0  0
   -1.7237   -0.1302   -0.0065 N   0  0  0  0  0  0  0  0  0  0  0  0
   -2.5067    0.4925   -0.1813 H   0  0  0  0  0  0  0  0  0  0  0  0
   -0.4012    0.5364    0.1294 C   0  0  1  0  0  0  0  0  0  0  0  0
   -0.6021    1.5943    0.3094 H   0  0  0  0  0  0  0  0  0  0  0  0
    0.4854    0.0468    1.3081 C   0  0  0  0  0  0  0  0  0  0  0  0
    0.6945   -1.0212    1.2096 H   0  0  0  0  0  0  0  0  0  0  0  0
    1.4576    0.5472    1.2457 H   0  0  0  0  0  0  0  0  0  0  0  0
   -0.0956    0.3622    2.7050 C   0  0  0  0  0  0  0  0  0  0  0  0
   -1.0997   -0.0658    2.7827 H   0  0  0  0  0  0  0  0  0  0  0  0
    0.7863   -0.2976    3.7712 C   0  0  0  0  0  0  0  0  0  0  0  0
    1.8039    0.1045    3.7350 H   0  0  0  0  0  0  0  0  0  0  0  0
    0.3771   -0.1197    4.7705 H   0  0  0  0  0  0  0  0  0  0  0  0
    0.8340   -1.3793    3.6095 H   0  0  0  0  0  0  0  0  0  0  0  0
   -0.1793    1.8700    2.9859 C   0  0  0  0  0  0  0  0  0  0  0  0
   -0.9278    2.3467    2.3478 H   0  0  0  0  0  0  0  0  0  0  0  0
   -0.4691    2.0467    4.0265 H   0  0  0  0  0  0  0  0  0  0  0  0
    0.7892    2.3491    2.8108 H   0  0  0  0  0  0  0  0  0  0  0  0
    0.3638    0.5259   -1.2190 C   0  0  0  0  0  0  0  0  0  0  0  0
    1.5794    0.6629   -1.2677 O   0  0  0  0  0  0  0  0  0  0  0  0
   -0.3426    0.5430   -2.4095 N   0  0  0  0  0  0  0  0  0  0  0  0
   -1.3247    0.2965   -2.3490 H   0  0  0  0  0  0  0  0  0  0  0  0
    0.3020    0.5298   -3.7176 C   0  0  0  0  0  0  0  0  0  0  0  0
    0.8897   -0.3854   -3.8453 H   0  0  0  0  0  0  0  0  0  0  0  0
   -0.4506    0.5736   -4.5106 H   0  0  0  0  0  0  0  0  0  0  0  0
    0.9662    1.3937   -3.8274 H   0  0  0  0  0  0  0  0  0  0  0  0
  1  2  1  0  0  0  0
  2  3  1  0  0  0  0
  2  4  1  0  0  0  0
  2  5  1  0  0  0  0
  5  6  2  0  0  0  0
  5  7  1  0  0  0  0
  7  8  1  0  0  0  0
  7  9  1  0  0  0  0
  9 10  1  0  0  0  0
  9 11  1  0  0  0  0
  9 24  1  0  0  0  0
 11 12  1  0  0  0  0
 11 13  1  0  0  0  0
 11 14  1  0  0  0  0
 14 15  1  0  0  0  0
 14 16  1  0  0  0  0
 14 20  1  0  0  0  0
 16 17  1  0  0  0  0
 16 18  1  0  0  0  0
 16 19  1  0  0  0  0
 20 21  1  0  0  0  0
 20 22  1  0  0  0  0
 20 23  1  0  0  0  0
 24 25  2  0  0  0  0
 24 26  1  0  0  0  0
 26 27  1  0  0  0  0
 26 28  1  0  0  0  0
 28 29  1  0  0  0  0
 28 30  1  0  0  0  0
 28 31  1  0  0  0  0
M  END
$$$$

  -OEChem-01062216083D

 31 30  0     1  0  0  0  0  0999 V2000
   -3.7514   -2.7169    0.8598 H   0  0  0  0  0  0  0  0  0  0  0  0
   -3.5889   -1.7220    0.4351 C   0  0  0  0  0  0  0  0  0  0  0  0
   -4.1408   -0.9926    1.0328 H   0  0  0  0  0  0  0  0  0  0  0  0
   -3.9704   -1.7108   -0.5887 H   0  0  0  0  0  0  0  0  0  0  0  0
   -2.1090   -1.3867    0.4413 C   0  0  0  0  0  0  0  0  0  0  0  0
   -1.3200   -2.2476    0.7827 O   0  0  0  0  0  0  0  0  0  0  0  0
   -1.7174   -0.1322    0.0027 N   0  0  0  0  0  0  0  0  0  0  0  0
   -2.4967    0.4790   -0.2193 H   0  0  0  0  0  0  0  0  0  0  0  0
   -0.3953    0.5331    0.1391 C   0  0  1  0  0  0  0  0  0  0  0  0
   -0.5954    1.5912    0.3186 H   0  0  0  0  0  0  0  0  0  0  0  0
    0.4952    0.0501    1.3168 C   0  0  0  0  0  0  0  0  0  0  0  0
    0.7064   -1.0178    1.2206 H   0  0  0  0  0  0  0  0  0  0  0  0
    1.4654    0.5534    1.2471 H   0  0  0  0  0  0  0  0  0  0  0  0
   -0.0816    0.3686    2.7145 C   0  0  0  0  0  0  0  0  0  0  0  0
   -1.0843   -0.0624    2.7968 H   0  0  0  0  0  0  0  0  0  0  0  0
    0.8056   -0.2857    3.7799 C   0  0  0  0  0  0  0  0  0  0  0  0
    1.8231    0.1161    3.7367 H   0  0  0  0  0  0  0  0  0  0  0  0
    0.4011   -0.1026    4.7803 H   0  0  0  0  0  0  0  0  0  0  0  0
    0.8524   -1.3683    3.6236 H   0  0  0  0  0  0  0  0  0  0  0  0
   -0.1691    1.8772    2.9909 C   0  0  0  0  0  0  0  0  0  0  0  0
   -0.9190    2.3499    2.3515 H   0  0  0  0  0  0  0  0  0  0  0  0
   -0.4595    2.0561    4.0308 H   0  0  0  0  0  0  0  0  0  0  0  0
    0.7981    2.3584    2.8144 H   0  0  0  0  0  0  0  0  0  0  0  0
    0.3607    0.5174   -1.2146 C   0  0  0  0  0  0  0  0  0  0  0  0
    1.5732    0.3616   -1.2816 O   0  0  0  0  0  0  0  0  0  0  0  0
   -0.3175    0.8452   -2.3764 N   0  0  0  0  0  0  0  0  0  0  0  0
   -1.3292    0.8767   -2.3221 H   0  0  0  0  0  0  0  0  0  0  0  0
    0.3149    0.8701   -3.6903 C   0  0  0  0  0  0  0  0  0  0  0  0
    0.6895   -0.1245   -3.9537 H   0  0  0  0  0  0  0  0  0  0  0  0
   -0.4061    1.1829   -4.4515 H   0  0  0  0  0  0  0  0  0  0  0  0
    1.1523    1.5759   -3.6995 H   0  0  0  0  0  0  0  0  0  0  0  0
  1  2  1  0  0  0  0
  2  3  1  0  0  0  0
  2  4  1  0  0  0  0
  2  5  1  0  0  0  0
  5  6  2  0  0  0  0
  5  7  1  0  0  0  0
  7  8  1  0  0  0  0
  7  9  1  0  0  0  0
  9 10  1  0  0  0  0
  9 11  1  0  0  0  0
  9 24  1  0  0  0  0
 11 12  1  0  0  0  0
 11 13  1  0  0  0  0
 11 14  1  0  0  0  0
 14 15  1  0  0  0  0
 14 16  1  0  0  0  0
 14 20  1  0  0  0  0
 16 17  1  0  0  0  0
 16 18  1  0  0  0  0
 16 19  1  0  0  0  0
 20 21  1  0  0  0  0
 20 22  1  0  0  0  0
 20 23  1  0  0  0  0
 24 25  2  0  0  0  0
 24 26  1  0  0  0  0
 26 27  1  0  0  0  0
 26 28  1  0  0  0  0
 28 29  1  0  0  0  0
 28 30  1  0  0  0  0
 28 31  1  0  0  0  0
M  END
$$$$

  -OEChem-01062216083D

 31 30  0     1  0  0  0  0  0999 V2000
   -3.7866   -2.7340    0.7339 H   0  0  0  0  0  0  0  0  0  0  0  0
   -3.5975   -1.7481    0.2991 C   0  0  0  0  0  0  0  0  0  0  0  0
   -4.2448   -1.0187    0.7917 H   0  0  0  0  0  0  0  0  0  0  0  0
   -3.8393   -1.7828   -0.7659 H   0  0  0  0  0  0  0  0  0  0  0  0
   -2.1413   -1.3640    0.4876 C   0  0  0  0  0  0  0  0  0  0  0  0
   -1.3928   -2.1771    0.9965 O   0  0  0  0  0  0  0  0  0  0  0  0
   -1.7312   -0.1173    0.0417 N   0  0  0  0  0  0  0  0  0  0  0  0
   -2.4783    0.4410   -0.3571 H   0  0  0  0  0  0  0  0  0  0  0  0
   -0.4075    0.5462    0.1666 C   0  0  1  0  0  0  0  0  0  0  0  0
   -0.6012    1.6049    0.3486 H   0  0  0  0  0  0  0  0  0  0  0  0
    0.5025    0.0656    1.3287 C   0  0  0  0  0  0  0  0  0  0  0  0
    0.7105   -1.0030    1.2273 H   0  0  0  0  0  0  0  0  0  0  0  0
    1.4710    0.5689    1.2372 H   0  0  0  0  0  0  0  0  0  0  0  0
   -0.0500    0.3800    2.7371 C   0  0  0  0  0  0  0  0  0  0  0  0
   -1.0507   -0.0521    2.8370 H   0  0  0  0  0  0  0  0  0  0  0  0
    0.8583   -0.2737    3.7847 C   0  0  0  0  0  0  0  0  0  0  0  0
    1.8731    0.1326    3.7263 H   0  0  0  0  0  0  0  0  0  0  0  0
    0.4693   -0.0973    4.7922 H   0  0  0  0  0  0  0  0  0  0  0  0
    0.9068   -1.3553    3.6227 H   0  0  0  0  0  0  0  0  0  0  0  0
   -0.1333    1.8882    3.0166 C   0  0  0  0  0  0  0  0  0  0  0  0
   -0.8933    2.3613    2.3894 H   0  0  0  0  0  0  0  0  0  0  0  0
   -0.4073    2.0660    4.0613 H   0  0  0  0  0  0  0  0  0  0  0  0
    0.8310    2.3701    2.8256 H   0  0  0  0  0  0  0  0  0  0  0  0
    0.3320    0.5098   -1.1947 C   0  0  0  0  0  0  0  0  0  0  0  0
    1.4544    0.0378   -1.3193 O   0  0  0  0  0  0  0  0  0  0  0  0
   -0.2458    1.1159   -2.2981 N   0  0  0  0  0  0  0  0  0  0  0  0
   -1.1700    1.5168   -2.1861 H   0  0  0  0  0  0  0  0  0  0  0  0
    0.3879    1.1604   -3.6110 C   0  0  0  0  0  0  0  0  0  0  0  0
    0.5663    0.1463   -3.9843 H   0  0  0  0  0  0  0  0  0  0  0  0
   -0.2555    1.6833   -4.3250 H   0  0  0  0  0  0  0  0  0  0  0  0
    1.3451    1.6896   -3.5568 H   0  0  0  0  0  0  0  0  0  0  0  0
  1  2  1  0  0  0  0
  2  3  1  0  0  0  0
  2  4  1  0  0  0  0
  2  5  1  0  0  0  0
  5  6  2  0  0  0  0
  5  7  1  0  0  0  0
  7  8  1  0  0  0  0
  7  9  1  0  0  0  0
  9 10  1  0  0  0  0
  9 11  1  0  0  0  0
  9 24  1  0  0  0  0
 11 12  1  0  0  0  0
 11 13  1  0  0  0  0
 11 14  1  0  0  0  0
 14 15  1  0  0  0  0
 14 16  1  0  0  0  0
 14 20  1  0  0  0  0
 16 17  1  0  0  0  0
 16 18  1  0  0  0  0
 16 19  1  0  0  0  0
 20 21  1  0  0  0  0
 20 22  1  0  0  0  0
 20 23  1  0  0  0  0
 24 25  2  0  0  0  0
 24 26  1  0  0  0  0
 26 27  1  0  0  0  0
 26 28  1  0  0  0  0
 28 29  1  0  0  0  0
 28 30  1  0  0  0  0
 28 31  1  0  0  0  0
M  END
$$$$

  -OEChem-01062216083D

 31 30  0     1  0  0  0  0  0999 V2000
   -3.7943   -2.7647    0.6313 H   0  0  0  0  0  0  0  0  0  0  0  0
   -3.6008   -1.7713    0.2159 C   0  0  0  0  0  0  0  0  0  0  0  0
   -4.3077   -1.0640    0.6560 H   0  0  0  0  0  0  0  0  0  0  0  0
   -3.7546   -1.8084   -0.8652 H   0  0  0  0  0  0  0  0  0  0  0  0
   -2.1771   -1.3436    0.5234 C   0  0  0  0  0  0  0  0  0  0  0  0
   -1.4698   -2.1104    1.1503 O   0  0  0  0  0  0  0  0  0  0  0  0
   -1.7576   -0.1026    0.0697 N   0  0  0  0  0  0  0  0  0  0  0  0
   -2.4590    0.3950   -0.4688 H   0  0  0  0  0  0  0  0  0  0  0  0
   -0.4293    0.5516    0.1832 C   0  0  1  0  0  0  0  0  0  0  0  0
   -0.6169    1.6109    0.3676 H   0  0  0  0  0  0  0  0  0  0  0  0
    0.4993    0.0736    1.3298 C   0  0  0  0  0  0  0  0  0  0  0  0
    0.6948   -0.9980    1.2289 H   0  0  0  0  0  0  0  0  0  0  0  0
    1.4695    0.5687    1.2146 H   0  0  0  0  0  0  0  0  0  0  0  0
   -0.0276    0.3915    2.7474 C   0  0  0  0  0  0  0  0  0  0  0  0
   -1.0275   -0.0371    2.8669 H   0  0  0  0  0  0  0  0  0  0  0  0
    0.8981   -0.2604    3.7808 C   0  0  0  0  0  0  0  0  0  0  0  0
    1.9133    0.1411    3.6994 H   0  0  0  0  0  0  0  0  0  0  0  0
    0.5303   -0.0764    4.7950 H   0  0  0  0  0  0  0  0  0  0  0  0
    0.9383   -1.3432    3.6246 H   0  0  0  0  0  0  0  0  0  0  0  0
   -0.1032    1.9003    3.0246 C   0  0  0  0  0  0  0  0  0  0  0  0
   -0.8732    2.3734    2.4098 H   0  0  0  0  0  0  0  0  0  0  0  0
   -0.3594    2.0802    4.0734 H   0  0  0  0  0  0  0  0  0  0  0  0
    0.8585    2.3798    2.8163 H   0  0  0  0  0  0  0  0  0  0  0  0
    0.2976    0.5025   -1.1822 C   0  0  0  0  0  0  0  0  0  0  0  0
    1.2520   -0.2346   -1.3894 O   0  0  0  0  0  0  0  0  0  0  0  0
   -0.1082    1.3542   -2.1963 N   0  0  0  0  0  0  0  0  0  0  0  0
   -0.8605    2.0043   -1.9952 H   0  0  0  0  0  0  0  0  0  0  0  0
    0.5575    1.4265   -3.4923 C   0  0  0  0  0  0  0  0  0  0  0  0
    0.5260    0.4535   -3.9939 H   0  0  0  0  0  0  0  0  0  0  0  0
    0.0610    2.1613   -4.1331 H   0  0  0  0  0  0  0  0  0  0  0  0
    1.6038    1.7254   -3.3696 H   0  0  0  0  0  0  0  0  0  0  0  0
  1  2  1  0  0  0  0
  2  3  1  0  0  0  0
  2  4  1  0  0  0  0
  2  5  1  0  0  0  0
  5  6  2  0  0  0  0
  5  7  1  0  0  0  0
  7  8  1  0  0  0  0
  7  9  1  0  0  0  0
  9 10  1  0  0  0  0
  9 11  1  0  0  0  0
  9 24  1  0  0  0  0
 11 12  1  0  0  0  0
 11 13  1  0  0  0  0
 11 14  1  0  0  0  0
 14 15  1  0  0  0  0
 14 16  1  0  0  0  0
 14 20  1  0  0  0  0
 16 17  1  0  0  0  0
 16 18  1  0  0  0  0
 16 19  1  0  0  0  0
 20 21  1  0  0  0  0
 20 22  1  0  0  0  0
 20 23  1  0  0  0  0
 24 25  2  0  0  0  0
 24 26  1  0  0  0  0
 26 27  1  0  0  0  0
 26 28  1  0  0  0  0
 28 29  1  0  0  0  0
 28 30  1  0  0  0  0
 28 31  1  0  0  0  0
M  END
$$$$

  -OEChem-01062216083D

 31 30  0     1  0  0  0  0  0999 V2000
   -3.7853   -2.7779    0.5796 H   0  0  0  0  0  0  0  0  0  0  0  0
   -3.5933   -1.7830    0.1673 C   0  0  0  0  0  0  0  0  0  0  0  0
   -4.3362   -1.0886    0.5664 H   0  0  0  0  0  0  0  0  0  0  0  0
   -3.6922   -1.8302   -0.9198 H   0  0  0  0  0  0  0  0  0  0  0  0
   -2.1964   -1.3219    0.5412 C   0  0  0  0  0  0  0  0  0  0  0  0
   -1.5148   -2.0577    1.2313 O   0  0  0  0  0  0  0  0  0  0  0  0
   -1.7780   -0.0813    0.0846 N   0  0  0  0  0  0  0  0  0  0  0  0
   -2.4495    0.3772   -0.5228 H   0  0  0  0  0  0  0  0  0  0  0  0
   -0.4488    0.5693    0.1951 C   0  0  1  0  0  0  0  0  0  0  0  0
   -0.6372    1.6271    0.3869 H   0  0  0  0  0  0  0  0  0  0  0  0
    0.4936    0.0886    1.3268 C   0  0  0  0  0  0  0  0  0  0  0  0
    0.6839   -0.9833    1.2181 H   0  0  0  0  0  0  0  0  0  0  0  0
    1.4632    0.5820    1.2000 H   0  0  0  0  0  0  0  0  0  0  0  0
   -0.0158    0.3976    2.7531 C   0  0  0  0  0  0  0  0  0  0  0  0
   -1.0137   -0.0319    2.8848 H   0  0  0  0  0  0  0  0  0  0  0  0
    0.9254   -0.2580    3.7700 C   0  0  0  0  0  0  0  0  0  0  0  0
    1.9386    0.1454    3.6767 H   0  0  0  0  0  0  0  0  0  0  0  0
    0.5717   -0.0800    4.7902 H   0  0  0  0  0  0  0  0  0  0  0  0
    0.9645   -1.3399    3.6074 H   0  0  0  0  0  0  0  0  0  0  0  0
   -0.0902    1.9048    3.0387 C   0  0  0  0  0  0  0  0  0  0  0  0
   -0.8702    2.3789    2.4376 H   0  0  0  0  0  0  0  0  0  0  0  0
   -0.3316    2.0789    4.0919 H   0  0  0  0  0  0  0  0  0  0  0  0
    0.8672    2.3872    2.8187 H   0  0  0  0  0  0  0  0  0  0  0  0
    0.2775    0.5200   -1.1684 C   0  0  0  0  0  0  0  0  0  0  0  0
    1.0034   -0.4133   -1.4815 O   0  0  0  0  0  0  0  0  0  0  0  0
    0.1050    1.5565   -2.0702 N   0  0  0  0  0  0  0  0  0  0  0  0
   -0.4601    2.3478   -1.7793 H   0  0  0  0  0  0  0  0  0  0  0  0
    0.7924    1.6172   -3.3551 C   0  0  0  0  0  0  0  0  0  0  0  0
    0.5403    0.7442   -3.9665 H   0  0  0  0  0  0  0  0  0  0  0  0
    0.4960    2.5180   -3.9011 H   0  0  0  0  0  0  0  0  0  0  0  0
    1.8773    1.6427   -3.2077 H   0  0  0  0  0  0  0  0  0  0  0  0
  1  2  1  0  0  0  0
  2  3  1  0  0  0  0
  2  4  1  0  0  0  0
  2  5  1  0  0  0  0
  5  6  2  0  0  0  0
  5  7  1  0  0  0  0
  7  8  1  0  0  0  0
  7  9  1  0  0  0  0
  9 10  1  0  0  0  0
  9 11  1  0  0  0  0
  9 24  1  0  0  0  0
 11 12  1  0  0  0  0
 11 13  1  0  0  0  0
 11 14  1  0  0  0  0
 14 15  1  0  0  0  0
 14 16  1  0  0  0  0
 14 20  1  0  0  0  0
 16 17  1  0  0  0  0
 16 18  1  0  0  0  0
 16 19  1  0  0  0  0
 20 21  1  0  0  0  0
 20 22  1  0  0  0  0
 20 23  1  0  0  0  0
 24 25  2  0  0  0  0
 24 26  1  0  0  0  0
 26 27  1  0  0  0  0
 26 28  1  0  0  0  0
 28 29  1  0  0  0  0
 28 30  1  0  0  0  0
 28 31  1  0  0  0  0
M  END
$$$$

  -OEChem-01062216083D

 31 30  0     1  0  0  0  0  0999 V2000
   -3.7726   -2.7864    0.5433 H   0  0  0  0  0  0  0  0  0  0  0  0
   -3.5816   -1.7916    0.1307 C   0  0  0  0  0  0  0  0  0  0  0  0
   -4.3484   -1.1057    0.4981 H   0  0  0  0  0  0  0  0  0  0  0  0
   -3.6411   -1.8477   -0.9589 H   0  0  0  0  0  0  0  0  0  0  0  0
   -2.2064   -1.3055    0.5502 C   0  0  0  0  0  0  0  0  0  0  0  0
   -1.5432   -2.0194    1.2809 O   0  0  0  0  0  0  0  0  0  0  0  0
   -1.7910   -0.0642    0.0934 N   0  0  0  0  0  0  0  0  0  0  0  0
   -2.4377    0.3633   -0.5621 H   0  0  0  0  0  0  0  0  0  0  0  0
   -0.4618    0.5847    0.2057 C   0  0  1  0  0  0  0  0  0  0  0  0
   -0.6560    1.6402    0.4027 H   0  0  0  0  0  0  0  0  0  0  0  0
    0.4893    0.1020    1.3277 C   0  0  0  0  0  0  0  0  0  0  0  0
    0.6780   -0.9698    1.2111 H   0  0  0  0  0  0  0  0  0  0  0  0
    1.4574    0.5968    1.1956 H   0  0  0  0  0  0  0  0  0  0  0  0
   -0.0093    0.4018    2.7602 C   0  0  0  0  0  0  0  0  0  0  0  0
   -1.0060   -0.0278    2.8999 H   0  0  0  0  0  0  0  0  0  0  0  0
    0.9427   -0.2569    3.7648 C   0  0  0  0  0  0  0  0  0  0  0  0
    1.9548    0.1474    3.6628 H   0  0  0  0  0  0  0  0  0  0  0  0
    0.5990   -0.0825    4.7891 H   0  0  0  0  0  0  0  0  0  0  0  0
    0.9810   -1.3381    3.5976 H   0  0  0  0  0  0  0  0  0  0  0  0
   -0.0819    1.9078    3.0530 C   0  0  0  0  0  0  0  0  0  0  0  0
   -0.8656    2.3845    2.4585 H   0  0  0  0  0  0  0  0  0  0  0  0
   -0.3169    2.0777    4.1084 H   0  0  0  0  0  0  0  0  0  0  0  0
    0.8741    2.3916    2.8296 H   0  0  0  0  0  0  0  0  0  0  0  0
    0.2702    0.5394   -1.1537 C   0  0  0  0  0  0  0  0  0  0  0  0
    0.7228   -0.5056   -1.5993 O   0  0  0  0  0  0  0  0  0  0  0  0
    0.3671    1.6871   -1.9221 N   0  0  0  0  0  0  0  0  0  0  0  0
    0.0207    2.5538   -1.5229 H   0  0  0  0  0  0  0  0  0  0  0  0
    1.0612    1.7321   -3.2040 C   0  0  0  0  0  0  0  0  0  0  0  0
    0.6109    1.0262   -3.9098 H   0  0  0  0  0  0  0  0  0  0  0  0
    0.9981    2.7363   -3.6338 H   0  0  0  0  0  0  0  0  0  0  0  0
    2.1181    1.4760   -3.0753 H   0  0  0  0  0  0  0  0  0  0  0  0
  1  2  1  0  0  0  0
  2  3  1  0  0  0  0
  2  4  1  0  0  0  0
  2  5  1  0  0  0  0
  5  6  2  0  0  0  0
  5  7  1  0  0  0  0
  7  8  1  0  0  0  0
  7  9  1  0  0  0  0
  9 10  1  0  0  0  0
  9 11  1  0  0  0  0
  9 24  1  0  0  0  0
 11 12  1  0  0  0  0
 11 13  1  0  0  0  0
 11 14  1  0  0  0  0
 14 15  1  0  0  0  0
 14 16  1  0  0  0  0
 14 20  1  0  0  0  0
 16 17  1  0  0  0  0
 16 18  1  0  0  0  0
 16 19  1  0  0  0  0
 20 21  1  0  0  0  0
 20 22  1  0  0  0  0
 20 23  1  0  0  0  0
 24 25  2  0  0  0  0
 24 26  1  0  0  0  0
 26 27  1  0  0  0  0
 26 28  1  0  0  0  0
 28 29  1  0  0  0  0
 28 30  1  0  0  0  0
 28 31  1  0  0  0  0
M  END
$$$$

  -OEChem-01062216083D

 31 30  0     1  0  0  0  0  0999 V2000
   -3.7581   -2.7955    0.5101 H   0  0  0  0  0  0  0  0  0  0  0  0
   -3.5666   -1.8022    0.0939 C   0  0  0  0  0  0  0  0  0  0  0  0
   -4.3583   -1.1248    0.4222 H   0  0  0  0  0  0  0  0  0  0  0  0
   -3.5814   -1.8714   -0.9967 H   0  0  0  0  0  0  0  0  0  0  0  0
   -2.2164   -1.2896    0.5610 C   0  0  0  0  0  0  0  0  0  0  0  0
   -1.5702   -1.9863    1.3238 O   0  0  0  0  0  0  0  0  0  0  0  0
   -1.8000   -0.0488    0.1040 N   0  0  0  0  0  0  0  0  0  0  0  0
   -2.4204    0.3514   -0.5931 H   0  0  0  0  0  0  0  0  0  0  0  0
   -0.4668    0.5915    0.2167 C   0  0  1  0  0  0  0  0  0  0  0  0
   -0.6619    1.6470    0.4138 H   0  0  0  0  0  0  0  0  0  0  0  0
    0.4870    0.1067    1.3338 C   0  0  0  0  0  0  0  0  0  0  0  0
    0.6693   -0.9661    1.2154 H   0  0  0  0  0  0  0  0  0  0  0  0
    1.4565    0.5974    1.1980 H   0  0  0  0  0  0  0  0  0  0  0  0
   -0.0038    0.4085    2.7686 C   0  0  0  0  0  0  0  0  0  0  0  0
   -1.0017   -0.0159    2.9140 H   0  0  0  0  0  0  0  0  0  0  0  0
    0.9509   -0.2529    3.7687 C   0  0  0  0  0  0  0  0  0  0  0  0
    1.9641    0.1472    3.6609 H   0  0  0  0  0  0  0  0  0  0  0  0
    0.6137   -0.0764    4.7948 H   0  0  0  0  0  0  0  0  0  0  0  0
    0.9835   -1.3344    3.6023 H   0  0  0  0  0  0  0  0  0  0  0  0
   -0.0685    1.9147    3.0614 C   0  0  0  0  0  0  0  0  0  0  0  0
   -0.8543    2.3940    2.4718 H   0  0  0  0  0  0  0  0  0  0  0  0
   -0.2963    2.0855    4.1183 H   0  0  0  0  0  0  0  0  0  0  0  0
    0.8881    2.3948    2.8320 H   0  0  0  0  0  0  0  0  0  0  0  0
    0.2715    0.5489   -1.1392 C   0  0  0  0  0  0  0  0  0  0  0  0
    0.4280   -0.5052   -1.7402 O   0  0  0  0  0  0  0  0  0  0  0  0
    0.6541    1.7281   -1.7552 N   0  0  0  0  0  0  0  0  0  0  0  0
    0.5409    2.5919   -1.2334 H   0  0  0  0  0  0  0  0  0  0  0  0
    1.3396    1.7698   -3.0420 C   0  0  0  0  0  0  0  0  0  0  0  0
    0.7288    1.2963   -3.8179 H   0  0  0  0  0  0  0  0  0  0  0  0
    1.5286    2.8063   -3.3374 H   0  0  0  0  0  0  0  0  0  0  0  0
    2.2995    1.2460   -2.9814 H   0  0  0  0  0  0  0  0  0  0  0  0
  1  2  1  0  0  0  0
  2  3  1  0  0  0  0
  2  4  1  0  0  0  0
  2  5  1  0  0  0  0
  5  6  2  0  0  0  0
  5  7  1  0  0  0  0
  7  8  1  0  0  0  0
  7  9  1  0  0  0  0
  9 10  1  0  0  0  0
  9 11  1  0  0  0  0
  9 24  1  0  0  0  0
 11 12  1  0  0  0  0
 11 13  1  0  0  0  0
 11 14  1  0  0  0  0
 14 15  1  0  0  0  0
 14 16  1  0  0  0  0
 14 20  1  0  0  0  0
 16 17  1  0  0  0  0
 16 18  1  0  0  0  0
 16 19  1  0  0  0  0
 20 21  1  0  0  0  0
 20 22  1  0  0  0  0
 20 23  1  0  0  0  0
 24 25  2  0  0  0  0
 24 26  1  0  0  0  0
 26 27  1  0  0  0  0
 26 28  1  0  0  0  0
 28 29  1  0  0  0  0
 28 30  1  0  0  0  0
 28 31  1  0  0  0  0
M  END
$$$$

  -OEChem-01062216083D

 31 30  0     1  0  0  0  0  0999 V2000
   -3.7510   -2.8005    0.4963 H   0  0  0  0  0  0  0  0  0  0  0  0
   -3.5600   -1.8061    0.0827 C   0  0  0  0  0  0  0  0  0  0  0  0
   -4.3594   -1.1330    0.4010 H   0  0  0  0  0  0  0  0  0  0  0  0
   -3.5603   -1.8753   -1.0078 H   0  0  0  0  0  0  0  0  0  0  0  0
   -2.2197   -1.2847    0.5672 C   0  0  0  0  0  0  0  0  0  0  0  0
   -1.5817   -1.9729    1.3451 O   0  0  0  0  0  0  0  0  0  0  0  0
   -1.8020   -0.0451    0.1090 N   0  0  0  0  0  0  0  0  0  0  0  0
   -2.3968    0.3271   -0.6252 H   0  0  0  0  0  0  0  0  0  0  0  0
   -0.4660    0.5899    0.2201 C   0  0  1  0  0  0  0  0  0  0  0  0
   -0.6611    1.6467    0.4123 H   0  0  0  0  0  0  0  0  0  0  0  0
    0.4867    0.1051    1.3380 C   0  0  0  0  0  0  0  0  0  0  0  0
    0.6652   -0.9683    1.2222 H   0  0  0  0  0  0  0  0  0  0  0  0
    1.4580    0.5924    1.2025 H   0  0  0  0  0  0  0  0  0  0  0  0
   -0.0018    0.4128    2.7726 C   0  0  0  0  0  0  0  0  0  0  0  0
   -1.0013   -0.0067    2.9209 H   0  0  0  0  0  0  0  0  0  0  0  0
    0.9519   -0.2496    3.7732 C   0  0  0  0  0  0  0  0  0  0  0  0
    1.9670    0.1441    3.6611 H   0  0  0  0  0  0  0  0  0  0  0  0
    0.6175   -0.0667    4.7991 H   0  0  0  0  0  0  0  0  0  0  0  0
    0.9781   -1.3323    3.6119 H   0  0  0  0  0  0  0  0  0  0  0  0
   -0.0599    1.9205    3.0614 C   0  0  0  0  0  0  0  0  0  0  0  0
   -0.8410    2.4025    2.4677 H   0  0  0  0  0  0  0  0  0  0  0  0
   -0.2909    2.0952    4.1170 H   0  0  0  0  0  0  0  0  0  0  0  0
    0.8999    2.3951    2.8345 H   0  0  0  0  0  0  0  0  0  0  0  0
    0.2764    0.5483   -1.1343 C   0  0  0  0  0  0  0  0  0  0  0  0
    0.1687   -0.4128   -1.8850 O   0  0  0  0  0  0  0  0  0  0  0  0
    0.9331    1.6771   -1.5927 N   0  0  0  0  0  0  0  0  0  0  0  0
    1.0268    2.4598   -0.9523 H   0  0  0  0  0  0  0  0  0  0  0  0
    1.6262    1.7324   -2.8748 C   0  0  0  0  0  0  0  0  0  0  0  0
    0.9325    1.5243   -3.6963 H   0  0  0  0  0  0  0  0  0  0  0  0
    2.0551    2.7269   -3.0304 H   0  0  0  0  0  0  0  0  0  0  0  0
    2.4370    0.9968   -2.9036 H   0  0  0  0  0  0  0  0  0  0  0  0
  1  2  1  0  0  0  0
  2  3  1  0  0  0  0
  2  4  1  0  0  0  0
  2  5  1  0  0  0  0
  5  6  2  0  0  0  0
  5  7  1  0  0  0  0
  7  8  1  0  0  0  0
  7  9  1  0  0  0  0
  9 10  1  0  0  0  0
  9 11  1  0  0  0  0
  9 24  1  0  0  0  0
 11 12  1  0  0  0  0
 11 13  1  0  0  0  0
 11 14  1  0  0  0  0
 14 15  1  0  0  0  0
 14 16  1  0  0  0  0
 14 20  1  0  0  0  0
 16 17  1  0  0  0  0
 16 18  1  0  0  0  0
 16 19  1  0  0  0  0
 20 21  1  0  0  0  0
 20 22  1  0  0  0  0
 20 23  1  0  0  0  0
 24 25  2  0  0  0  0
 24 26  1  0  0  0  0
 26 27  1  0  0  0  0
 26 28  1  0  0  0  0
 28 29  1  0  0  0  0
 28 30  1  0  0  0  0
 28 31  1  0  0  0  0
M  END
$$$$

  -OEChem-01062216083D

 31 30  0     1  0  0  0  0  0999 V2000
   -3.7498   -2.7972    0.4989 H   0  0  0  0  0  0  0  0  0  0  0  0
   -3.5566   -1.8027    0.0866 C   0  0  0  0  0  0  0  0  0  0  0  0
   -4.3542   -1.1282    0.4071 H   0  0  0  0  0  0  0  0  0  0  0  0
   -3.5588   -1.8693   -1.0042 H   0  0  0  0  0  0  0  0  0  0  0  0
   -2.2142   -1.2852    0.5699 C   0  0  0  0  0  0  0  0  0  0  0  0
   -1.5730   -1.9788    1.3407 O   0  0  0  0  0  0  0  0  0  0  0  0
   -1.7936   -0.0467    0.1128 N   0  0  0  0  0  0  0  0  0  0  0  0
   -2.3764    0.3153   -0.6367 H   0  0  0  0  0  0  0  0  0  0  0  0
   -0.4565    0.5871    0.2210 C   0  0  1  0  0  0  0  0  0  0  0  0
   -0.6486    1.6455    0.4079 H   0  0  0  0  0  0  0  0  0  0  0  0
    0.4911    0.0999    1.3444 C   0  0  0  0  0  0  0  0  0  0  0  0
    0.6669   -0.9744    1.2321 H   0  0  0  0  0  0  0  0  0  0  0  0
    1.4652    0.5824    1.2143 H   0  0  0  0  0  0  0  0  0  0  0  0
   -0.0025    0.4135    2.7762 C   0  0  0  0  0  0  0  0  0  0  0  0
   -1.0045   -0.0019    2.9199 H   0  0  0  0  0  0  0  0  0  0  0  0
    0.9427   -0.2500    3.7846 C   0  0  0  0  0  0  0  0  0  0  0  0
    1.9607    0.1377    3.6773 H   0  0  0  0  0  0  0  0  0  0  0  0
    0.6040   -0.0618    4.8083 H   0  0  0  0  0  0  0  0  0  0  0  0
    0.9635   -1.3333    3.6271 H   0  0  0  0  0  0  0  0  0  0  0  0
   -0.0573    1.9217    3.0613 C   0  0  0  0  0  0  0  0  0  0  0  0
   -0.8319    2.4051    2.4603 H   0  0  0  0  0  0  0  0  0  0  0  0
   -0.2965    2.0990    4.1145 H   0  0  0  0  0  0  0  0  0  0  0  0
    0.9058    2.3926    2.8414 H   0  0  0  0  0  0  0  0  0  0  0  0
    0.2857    0.5469   -1.1349 C   0  0  0  0  0  0  0  0  0  0  0  0
   -0.0331   -0.2514   -2.0078 O   0  0  0  0  0  0  0  0  0  0  0  0
    1.1904    1.5456   -1.4515 N   0  0  0  0  0  0  0  0  0  0  0  0
    1.4463    2.1981   -0.7166 H   0  0  0  0  0  0  0  0  0  0  0  0
    1.8946    1.6131   -2.7267 C   0  0  0  0  0  0  0  0  0  0  0  0
    1.1828    1.6781   -3.5563 H   0  0  0  0  0  0  0  0  0  0  0  0
    2.5391    2.4968   -2.7570 H   0  0  0  0  0  0  0  0  0  0  0  0
    2.5187    0.7243   -2.8664 H   0  0  0  0  0  0  0  0  0  0  0  0
  1  2  1  0  0  0  0
  2  3  1  0  0  0  0
  2  4  1  0  0  0  0
  2  5  1  0  0  0  0
  5  6  2  0  0  0  0
  5  7  1  0  0  0  0
  7  8  1  0  0  0  0
  7  9  1  0  0  0  0
  9 10  1  0  0  0  0
  9 11  1  0  0  0  0
  9 24  1  0  0  0  0
 11 12  1  0  0  0  0
 11 13  1  0  0  0  0
 11 14  1  0  0  0  0
 14 15  1  0  0  0  0
 14 16  1  0  0  0  0
 14 20  1  0  0  0  0
 16 17  1  0  0  0  0
 16 18  1  0  0  0  0
 16 19  1  0  0  0  0
 20 21  1  0  0  0  0
 20 22  1  0  0  0  0
 20 23  1  0  0  0  0
 24 25  2  0  0  0  0
 24 26  1  0  0  0  0
 26 27  1  0  0  0  0
 26 28  1  0  0  0  0
 28 29  1  0  0  0  0
 28 30  1  0  0  0  0
 28 31  1  0  0  0  0
M  END
$$$$

  -OEChem-01062216083D

 31 30  0     1  0  0  0  0  0999 V2000
   -3.7363   -2.7967    0.4735 H   0  0  0  0  0  0  0  0  0  0  0  0
   -3.5422   -1.7980    0.0719 C   0  0  0  0  0  0  0  0  0  0  0  0
   -4.3457   -1.1286    0.3884 H   0  0  0  0  0  0  0  0  0  0  0  0
   -3.5312   -1.8553   -1.0195 H   0  0  0  0  0  0  0  0  0  0  0  0
   -2.2072   -1.2800    0.5745 C   0  0  0  0  0  0  0  0  0  0  0  0
   -1.5687   -1.9794    1.3423 O   0  0  0  0  0  0  0  0  0  0  0  0
   -1.7820   -0.0411    0.1238 N   0  0  0  0  0  0  0  0  0  0  0  0
   -2.3524    0.3151   -0.6390 H   0  0  0  0  0  0  0  0  0  0  0  0
   -0.4439    0.5906    0.2323 C   0  0  1  0  0  0  0  0  0  0  0  0
   -0.6294    1.6503    0.4182 H   0  0  0  0  0  0  0  0  0  0  0  0
    0.4962    0.0972    1.3618 C   0  0  0  0  0  0  0  0  0  0  0  0
    0.6665   -0.9777    1.2504 H   0  0  0  0  0  0  0  0  0  0  0  0
    1.4744    0.5729    1.2435 H   0  0  0  0  0  0  0  0  0  0  0  0
   -0.0052    0.4136    2.7900 C   0  0  0  0  0  0  0  0  0  0  0  0
   -1.0097    0.0018    2.9272 H   0  0  0  0  0  0  0  0  0  0  0  0
    0.9298   -0.2540    3.8050 C   0  0  0  0  0  0  0  0  0  0  0  0
    1.9489    0.1329    3.7069 H   0  0  0  0  0  0  0  0  0  0  0  0
    0.5829   -0.0669    4.8260 H   0  0  0  0  0  0  0  0  0  0  0  0
    0.9508   -1.3370    3.6460 H   0  0  0  0  0  0  0  0  0  0  0  0
   -0.0565    1.9223    3.0724 C   0  0  0  0  0  0  0  0  0  0  0  0
   -0.8308    2.4058    2.4709 H   0  0  0  0  0  0  0  0  0  0  0  0
   -0.2944    2.1024    4.1254 H   0  0  0  0  0  0  0  0  0  0  0  0
    0.9072    2.3910    2.8504 H   0  0  0  0  0  0  0  0  0  0  0  0
    0.2894    0.5510   -1.1307 C   0  0  0  0  0  0  0  0  0  0  0  0
   -0.1963   -0.0387   -2.0897 O   0  0  0  0  0  0  0  0  0  0  0  0
    1.4043    1.3439   -1.3419 N   0  0  0  0  0  0  0  0  0  0  0  0
    1.7964    1.8253   -0.5382 H   0  0  0  0  0  0  0  0  0  0  0  0
    2.1150    1.4060   -2.6138 C   0  0  0  0  0  0  0  0  0  0  0  0
    1.4441    1.7361   -3.4139 H   0  0  0  0  0  0  0  0  0  0  0  0
    2.9461    2.1145   -2.5481 H   0  0  0  0  0  0  0  0  0  0  0  0
    2.5178    0.4219   -2.8750 H   0  0  0  0  0  0  0  0  0  0  0  0
  1  2  1  0  0  0  0
  2  3  1  0  0  0  0
  2  4  1  0  0  0  0
  2  5  1  0  0  0  0
  5  6  2  0  0  0  0
  5  7  1  0  0  0  0
  7  8  1  0  0  0  0
  7  9  1  0  0  0  0
  9 10  1  0  0  0  0
  9 11  1  0  0  0  0
  9 24  1  0  0  0  0
 11 12  1  0  0  0  0
 11 13  1  0  0  0  0
 11 14  1  0  0  0  0
 14 15  1  0  0  0  0
 14 16  1  0  0  0  0
 14 20  1  0  0  0  0
 16 17  1  0  0  0  0
 16 18  1  0  0  0  0
 16 19  1  0  0  0  0
 20 21  1  0  0  0  0
 20 22  1  0  0  0  0
 20 23  1  0  0  0  0
 24 25  2  0  0  0  0
 24 26  1  0  0  0  0
 26 27  1  0  0  0  0
 26 28  1  0  0  0  0
 28 29  1  0  0  0  0
 28 30  1  0  0  0  0
 28 31  1  0  0  0  0
M  END
$$$$

  -OEChem-01062216083D

 31 30  0     1  0  0  0  0  0999 V2000
   -3.8644   -2.7081    0.5180 H   0  0  0  0  0  0  0  0  0  0  0  0
   -3.6263   -1.7160    0.1243 C   0  0  0  0  0  0  0  0  0  0  0  0
   -4.3265   -0.9927    0.5487 H   0  0  0  0  0  0  0  0  0  0  0  0
   -3.7419   -1.7317   -0.9623 H   0  0  0  0  0  0  0  0  0  0  0  0
   -2.2024   -1.3352    0.4863 C   0  0  0  0  0  0  0  0  0  0  0  0
   -1.5108   -2.1634    1.0536 O   0  0  0  0  0  0  0  0  0  0  0  0
   -1.7399   -0.0948    0.0809 N   0  0  0  0  0  0  0  0  0  0  0  0
   -2.3578    0.3704   -0.5811 H   0  0  0  0  0  0  0  0  0  0  0  0
   -0.3968    0.5251    0.1957 C   0  0  1  0  0  0  0  0  0  0  0  0
   -0.5692    1.5060    0.6430 H   0  0  0  0  0  0  0  0  0  0  0  0
    0.6574   -0.1697    1.0995 C   0  0  0  0  0  0  0  0  0  0  0  0
    0.7976   -1.1971    0.7481 H   0  0  0  0  0  0  0  0  0  0  0  0
    1.6224    0.3317    0.9837 H   0  0  0  0  0  0  0  0  0  0  0  0
    0.3186   -0.1754    2.6117 C   0  0  0  0  0  0  0  0  0  0  0  0
   -0.6655   -0.6172    2.7841 H   0  0  0  0  0  0  0  0  0  0  0  0
    1.3630   -1.0196    3.3513 C   0  0  0  0  0  0  0  0  0  0  0  0
    2.3658   -0.6009    3.2212 H   0  0  0  0  0  0  0  0  0  0  0  0
    1.1369   -1.0562    4.4215 H   0  0  0  0  0  0  0  0  0  0  0  0
    1.3607   -2.0451    2.9681 H   0  0  0  0  0  0  0  0  0  0  0  0
    0.3134    1.2404    3.2080 C   0  0  0  0  0  0  0  0  0  0  0  0
   -0.5200    1.8275    2.8132 H   0  0  0  0  0  0  0  0  0  0  0  0
    0.1987    1.1924    4.2955 H   0  0  0  0  0  0  0  0  0  0  0  0
    1.2493    1.7606    2.9817 H   0  0  0  0  0  0  0  0  0  0  0  0
    0.1590    0.8563   -1.2122 C   0  0  0  0  0  0  0  0  0  0  0  0
   -0.5576    0.7410   -2.2011 O   0  0  0  0  0  0  0  0  0  0  0  0
    1.4030    1.4432   -1.3694 N   0  0  0  0  0  0  0  0  0  0  0  0
    1.9886    1.5295   -0.5443 H   0  0  0  0  0  0  0  0  0  0  0  0
    1.9547    1.8233   -2.6647 C   0  0  0  0  0  0  0  0  0  0  0  0
    1.2892    2.5282   -3.1742 H   0  0  0  0  0  0  0  0  0  0  0  0
    2.9292    2.3038   -2.5342 H   0  0  0  0  0  0  0  0  0  0  0  0
    2.0854    0.9403   -3.2990 H   0  0  0  0  0  0  0  0  0  0  0  0
  1  2  1  0  0  0  0
  2  3  1  0  0  0  0
  2  4  1  0  0  0  0
  2  5  1  0  0  0  0
  5  6  2  0  0  0  0
  5  7  1  0  0  0  0
  7  8  1  0  0  0  0
  7  9  1  0  0  0  0
  9 10  1  0  0  0  0
  9 11  1  0  0  0  0
  9 24  1  0  0  0  0
 11 12  1  0  0  0  0
 11 13  1  0  0  0  0
 11 14  1  0  0  0  0
 14 15  1  0  0  0  0
 14 16  1  0  0  0  0
 14 20  1  0  0  0  0
 16 17  1  0  0  0  0
 16 18  1  0  0  0  0
 16 19  1  0  0  0  0
 20 21  1  0  0  0  0
 20 22  1  0  0  0  0
 20 23  1  0  0  0  0
 24 25  2  0  0  0  0
 24 26  1  0  0  0  0
 26 27  1  0  0  0  0
 26 28  1  0  0  0  0
 28 29  1  0  0  0  0
 28 30  1  0  0  0  0
 28 31  1  0  0  0  0
M  END
$$$$

  -OEChem-01062216083D

 31 30  0     1  0  0  0  0  0999 V2000
   -3.8513   -2.6969    0.5122 H   0  0  0  0  0  0  0  0  0  0  0  0
   -3.6092   -1.7040    0.1226 C   0  0  0  0  0  0  0  0  0  0  0  0
   -4.2984   -0.9778    0.5601 H   0  0  0  0  0  0  0  0  0  0  0  0
   -3.7377   -1.7110   -0.9626 H   0  0  0  0  0  0  0  0  0  0  0  0
   -2.1785   -1.3368    0.4710 C   0  0  0  0  0  0  0  0  0  0  0  0
   -1.4832   -2.1755    1.0182 O   0  0  0  0  0  0  0  0  0  0  0  0
   -1.7128   -0.0942    0.0768 N   0  0  0  0  0  0  0  0  0  0  0  0
   -2.3363    0.3915   -0.5656 H   0  0  0  0  0  0  0  0  0  0  0  0
   -0.3730    0.5281    0.2068 C   0  0  1  0  0  0  0  0  0  0  0  0
   -0.5462    1.5089    0.6538 H   0  0  0  0  0  0  0  0  0  0  0  0
    0.6685   -0.1716    1.1222 C   0  0  0  0  0  0  0  0  0  0  0  0
    0.8183   -1.1964    0.7676 H   0  0  0  0  0  0  0  0  0  0  0  0
    1.6322    0.3360    1.0287 H   0  0  0  0  0  0  0  0  0  0  0  0
    0.3075   -0.1820    2.6289 C   0  0  0  0  0  0  0  0  0  0  0  0
   -0.6794   -0.6248    2.7834 H   0  0  0  0  0  0  0  0  0  0  0  0
    1.3402   -1.0301    3.3802 C   0  0  0  0  0  0  0  0  0  0  0  0
    2.3456   -0.6130    3.2650 H   0  0  0  0  0  0  0  0  0  0  0  0
    1.0994   -1.0692    4.4471 H   0  0  0  0  0  0  0  0  0  0  0  0
    1.3410   -2.0544    2.9942 H   0  0  0  0  0  0  0  0  0  0  0  0
    0.2942    1.2313    3.2316 C   0  0  0  0  0  0  0  0  0  0  0  0
   -0.5311    1.8221    2.8251 H   0  0  0  0  0  0  0  0  0  0  0  0
    0.1605    1.1791    4.3168 H   0  0  0  0  0  0  0  0  0  0  0  0
    1.2349    1.7509    3.0242 H   0  0  0  0  0  0  0  0  0  0  0  0
    0.1779    0.8600   -1.2040 C   0  0  0  0  0  0  0  0  0  0  0  0
   -0.6002    0.9746   -2.1457 O   0  0  0  0  0  0  0  0  0  0  0  0
    1.5123    1.1609   -1.4178 N   0  0  0  0  0  0  0  0  0  0  0  0
    2.1511    1.0351   -0.6388 H   0  0  0  0  0  0  0  0  0  0  0  0
    2.0599    1.5019   -2.7257 C   0  0  0  0  0  0  0  0  0  0  0  0
    1.5491    2.3776   -3.1399 H   0  0  0  0  0  0  0  0  0  0  0  0
    3.1257    1.7344   -2.6401 H   0  0  0  0  0  0  0  0  0  0  0  0
    1.9422    0.6638   -3.4206 H   0  0  0  0  0  0  0  0  0  0  0  0
  1  2  1  0  0  0  0
  2  3  1  0  0  0  0
  2  4  1  0  0  0  0
  2  5  1  0  0  0  0
  5  6  2  0  0  0  0
  5  7  1  0  0  0  0
  7  8  1  0  0  0  0
  7  9  1  0  0  0  0
  9 10  1  0  0  0  0
  9 11  1  0  0  0  0
  9 24  1  0  0  0  0
 11 12  1  0  0  0  0
 11 13  1  0  0  0  0
 11 14  1  0  0  0  0
 14 15  1  0  0  0  0
 14 16  1  0  0  0  0
 14 20  1  0  0  0  0
 16 17  1  0  0  0  0
 16 18  1  0  0  0  0
 16 19  1  0  0  0  0
 20 21  1  0  0  0  0
 20 22  1  0  0  0  0
 20 23  1  0  0  0  0
 24 25  2  0  0  0  0
 24 26  1  0  0  0  0
 26 27  1  0  0  0  0
 26 28  1  0  0  0  0
 28 29  1  0  0  0  0
 28 30  1  0  0  0  0
 28 31  1  0  0  0  0
M  END
$$$$

  -OEChem-01062216083D

 31 30  0     1  0  0  0  0  0999 V2000
   -3.8457   -2.6822    0.5257 H   0  0  0  0  0  0  0  0  0  0  0  0
   -3.6015   -1.6916    0.1315 C   0  0  0  0  0  0  0  0  0  0  0  0
   -4.2750   -0.9589    0.5828 H   0  0  0  0  0  0  0  0  0  0  0  0
   -3.7511   -1.6967   -0.9510 H   0  0  0  0  0  0  0  0  0  0  0  0
   -2.1605   -1.3392    0.4519 C   0  0  0  0  0  0  0  0  0  0  0  0
   -1.4570   -2.1891    0.9707 O   0  0  0  0  0  0  0  0  0  0  0  0
   -1.6920   -0.0955    0.0660 N   0  0  0  0  0  0  0  0  0  0  0  0
   -2.3291    0.4189   -0.5396 H   0  0  0  0  0  0  0  0  0  0  0  0
   -0.3548    0.5271    0.2122 C   0  0  1  0  0  0  0  0  0  0  0  0
   -0.5300    1.5082    0.6580 H   0  0  0  0  0  0  0  0  0  0  0  0
    0.6797   -0.1722    1.1353 C   0  0  0  0  0  0  0  0  0  0  0  0
    0.8410   -1.1951    0.7801 H   0  0  0  0  0  0  0  0  0  0  0  0
    1.6398    0.3458    1.0551 H   0  0  0  0  0  0  0  0  0  0  0  0
    0.3008   -0.1863    2.6372 C   0  0  0  0  0  0  0  0  0  0  0  0
   -0.6855   -0.6359    2.7762 H   0  0  0  0  0  0  0  0  0  0  0  0
    1.3262   -1.0324    3.4007 C   0  0  0  0  0  0  0  0  0  0  0  0
    2.3310   -0.6100    3.3000 H   0  0  0  0  0  0  0  0  0  0  0  0
    1.0712   -1.0748    4.4642 H   0  0  0  0  0  0  0  0  0  0  0  0
    1.3370   -2.0561    3.0127 H   0  0  0  0  0  0  0  0  0  0  0  0
    0.2712    1.2248    3.2431 C   0  0  0  0  0  0  0  0  0  0  0  0
   -0.5537    1.8106    2.8291 H   0  0  0  0  0  0  0  0  0  0  0  0
    0.1260    1.1686    4.3265 H   0  0  0  0  0  0  0  0  0  0  0  0
    1.2105    1.7512    3.0468 H   0  0  0  0  0  0  0  0  0  0  0  0
    0.1978    0.8571   -1.1972 C   0  0  0  0  0  0  0  0  0  0  0  0
   -0.5851    1.1957   -2.0789 O   0  0  0  0  0  0  0  0  0  0  0  0
    1.5530    0.8624   -1.4814 N   0  0  0  0  0  0  0  0  0  0  0  0
    2.1805    0.5113   -0.7644 H   0  0  0  0  0  0  0  0  0  0  0  0
    2.0954    1.1595   -2.8018 C   0  0  0  0  0  0  0  0  0  0  0  0
    1.7719    2.1509   -3.1360 H   0  0  0  0  0  0  0  0  0  0  0  0
    3.1892    1.1471   -2.7725 H   0  0  0  0  0  0  0  0  0  0  0  0
    1.7589    0.4143   -3.5301 H   0  0  0  0  0  0  0  0  0  0  0  0
  1  2  1  0  0  0  0
  2  3  1  0  0  0  0
  2  4  1  0  0  0  0
  2  5  1  0  0  0  0
  5  6  2  0  0  0  0
  5  7  1  0  0  0  0
  7  8  1  0  0  0  0
  7  9  1  0  0  0  0
  9 10  1  0  0  0  0
  9 11  1  0  0  0  0
  9 24  1  0  0  0  0
 11 12  1  0  0  0  0
 11 13  1  0  0  0  0
 11 14  1  0  0  0  0
 14 15  1  0  0  0  0
 14 16  1  0  0  0  0
 14 20  1  0  0  0  0
 16 17  1  0  0  0  0
 16 18  1  0  0  0  0
 16 19  1  0  0  0  0
 20 21  1  0  0  0  0
 20 22  1  0  0  0  0
 20 23  1  0  0  0  0
 24 25  2  0  0  0  0
 24 26  1  0  0  0  0
 26 27  1  0  0  0  0
 26 28  1  0  0  0  0
 28 29  1  0  0  0  0
 28 30  1  0  0  0  0
 28 31  1  0  0  0  0
M  END
$$$$

  -OEChem-01062216083D

 31 30  0     1  0  0  0  0  0999 V2000
   -3.8369   -2.6762    0.5444 H   0  0  0  0  0  0  0  0  0  0  0  0
   -3.5974   -1.6854    0.1480 C   0  0  0  0  0  0  0  0  0  0  0  0
   -4.2568   -0.9514    0.6172 H   0  0  0  0  0  0  0  0  0  0  0  0
   -3.7720   -1.6861   -0.9307 H   0  0  0  0  0  0  0  0  0  0  0  0
   -2.1480   -1.3409    0.4372 C   0  0  0  0  0  0  0  0  0  0  0  0
   -1.4349   -2.1977    0.9309 O   0  0  0  0  0  0  0  0  0  0  0  0
   -1.6806   -0.0965    0.0517 N   0  0  0  0  0  0  0  0  0  0  0  0
   -2.3360    0.4432   -0.5106 H   0  0  0  0  0  0  0  0  0  0  0  0
   -0.3464    0.5282    0.2099 C   0  0  1  0  0  0  0  0  0  0  0  0
   -0.5257    1.5097    0.6540 H   0  0  0  0  0  0  0  0  0  0  0  0
    0.6832   -0.1693    1.1386 C   0  0  0  0  0  0  0  0  0  0  0  0
    0.8520   -1.1912    0.7843 H   0  0  0  0  0  0  0  0  0  0  0  0
    1.6404    0.3561    1.0615 H   0  0  0  0  0  0  0  0  0  0  0  0
    0.2937   -0.1877    2.6372 C   0  0  0  0  0  0  0  0  0  0  0  0
   -0.6927   -0.6401    2.7671 H   0  0  0  0  0  0  0  0  0  0  0  0
    1.3167   -1.0325    3.4050 C   0  0  0  0  0  0  0  0  0  0  0  0
    2.3217   -0.6092    3.3099 H   0  0  0  0  0  0  0  0  0  0  0  0
    1.0560   -1.0762    4.4671 H   0  0  0  0  0  0  0  0  0  0  0  0
    1.3304   -2.0559    3.0163 H   0  0  0  0  0  0  0  0  0  0  0  0
    0.2583    1.2217    3.2471 C   0  0  0  0  0  0  0  0  0  0  0  0
   -0.5623    1.8094    2.8272 H   0  0  0  0  0  0  0  0  0  0  0  0
    0.1027    1.1623    4.3289 H   0  0  0  0  0  0  0  0  0  0  0  0
    1.1999    1.7480    3.0616 H   0  0  0  0  0  0  0  0  0  0  0  0
    0.2151    0.8533   -1.1944 C   0  0  0  0  0  0  0  0  0  0  0  0
   -0.5211    1.3916   -2.0138 O   0  0  0  0  0  0  0  0  0  0  0  0
    1.5217    0.5719   -1.5549 N   0  0  0  0  0  0  0  0  0  0  0  0
    2.0787    0.0356   -0.8962 H   0  0  0  0  0  0  0  0  0  0  0  0
    2.0556    0.8159   -2.8893 C   0  0  0  0  0  0  0  0  0  0  0  0
    1.9563    1.8736   -3.1554 H   0  0  0  0  0  0  0  0  0  0  0  0
    3.1166    0.5506   -2.9260 H   0  0  0  0  0  0  0  0  0  0  0  0
    1.5210    0.2138   -3.6314 H   0  0  0  0  0  0  0  0  0  0  0  0
  1  2  1  0  0  0  0
  2  3  1  0  0  0  0
  2  4  1  0  0  0  0
  2  5  1  0  0  0  0
  5  6  2  0  0  0  0
  5  7  1  0  0  0  0
  7  8  1  0  0  0  0
  7  9  1  0  0  0  0
  9 10  1  0  0  0  0
  9 11  1  0  0  0  0
  9 24  1  0  0  0  0
 11 12  1  0  0  0  0
 11 13  1  0  0  0  0
 11 14  1  0  0  0  0
 14 15  1  0  0  0  0
 14 16  1  0  0  0  0
 14 20  1  0  0  0  0
 16 17  1  0  0  0  0
 16 18  1  0  0  0  0
 16 19  1  0  0  0  0
 20 21  1  0  0  0  0
 20 22  1  0  0  0  0
 20 23  1  0  0  0  0
 24 25  2  0  0  0  0
 24 26  1  0  0  0  0
 26 27  1  0  0  0  0
 26 28  1  0  0  0  0
 28 29  1  0  0  0  0
 28 30  1  0  0  0  0
 28 31  1  0  0  0  0
M  END
$$$$

  -OEChem-01062216083D

 31 30  0     1  0  0  0  0  0999 V2000
   -3.8386   -2.6700    0.5483 H   0  0  0  0  0  0  0  0  0  0  0  0
   -3.6003   -1.6759    0.1595 C   0  0  0  0  0  0  0  0  0  0  0  0
   -4.2471   -0.9438    0.6488 H   0  0  0  0  0  0  0  0  0  0  0  0
   -3.7942   -1.6628   -0.9159 H   0  0  0  0  0  0  0  0  0  0  0  0
   -2.1441   -1.3426    0.4267 C   0  0  0  0  0  0  0  0  0  0  0  0
   -1.4245   -2.2070    0.8972 O   0  0  0  0  0  0  0  0  0  0  0  0
   -1.6750   -0.0997    0.0397 N   0  0  0  0  0  0  0  0  0  0  0  0
   -2.3480    0.4645   -0.4752 H   0  0  0  0  0  0  0  0  0  0  0  0
   -0.3424    0.5237    0.2065 C   0  0  1  0  0  0  0  0  0  0  0  0
   -0.5236    1.5062    0.6481 H   0  0  0  0  0  0  0  0  0  0  0  0
    0.6872   -0.1689    1.1379 C   0  0  0  0  0  0  0  0  0  0  0  0
    0.8577   -1.1917    0.7882 H   0  0  0  0  0  0  0  0  0  0  0  0
    1.6433    0.3582    1.0545 H   0  0  0  0  0  0  0  0  0  0  0  0
    0.2951   -0.1888    2.6352 C   0  0  0  0  0  0  0  0  0  0  0  0
   -0.6885   -0.6489    2.7616 H   0  0  0  0  0  0  0  0  0  0  0  0
    1.3199   -1.0285    3.4063 C   0  0  0  0  0  0  0  0  0  0  0  0
    2.3216   -0.5960    3.3178 H   0  0  0  0  0  0  0  0  0  0  0  0
    1.0539   -1.0769    4.4668 H   0  0  0  0  0  0  0  0  0  0  0  0
    1.3450   -2.0505    3.0150 H   0  0  0  0  0  0  0  0  0  0  0  0
    0.2474    1.2213    3.2427 C   0  0  0  0  0  0  0  0  0  0  0  0
   -0.5807    1.7993    2.8236 H   0  0  0  0  0  0  0  0  0  0  0  0
    0.0966    1.1631    4.3253 H   0  0  0  0  0  0  0  0  0  0  0  0
    1.1825    1.7575    3.0524 H   0  0  0  0  0  0  0  0  0  0  0  0
    0.2300    0.8425   -1.1919 C   0  0  0  0  0  0  0  0  0  0  0  0
   -0.4133    1.5692   -1.9398 O   0  0  0  0  0  0  0  0  0  0  0  0
    1.4192    0.2963   -1.6418 N   0  0  0  0  0  0  0  0  0  0  0  0
    1.8604   -0.4004   -1.0483 H   0  0  0  0  0  0  0  0  0  0  0  0
    1.9340    0.4996   -2.9902 C   0  0  0  0  0  0  0  0  0  0  0  0
    2.0705    1.5674   -3.1914 H   0  0  0  0  0  0  0  0  0  0  0  0
    2.9017    0.0016   -3.1044 H   0  0  0  0  0  0  0  0  0  0  0  0
    1.2412    0.0867   -3.7310 H   0  0  0  0  0  0  0  0  0  0  0  0
  1  2  1  0  0  0  0
  2  3  1  0  0  0  0
  2  4  1  0  0  0  0
  2  5  1  0  0  0  0
  5  6  2  0  0  0  0
  5  7  1  0  0  0  0
  7  8  1  0  0  0  0
  7  9  1  0  0  0  0
  9 10  1  0  0  0  0
  9 11  1  0  0  0  0
  9 24  1  0  0  0  0
 11 12  1  0  0  0  0
 11 13  1  0  0  0  0
 11 14  1  0  0  0  0
 14 15  1  0  0  0  0
 14 16  1  0  0  0  0
 14 20  1  0  0  0  0
 16 17  1  0  0  0  0
 16 18  1  0  0  0  0
 16 19  1  0  0  0  0
 20 21  1  0  0  0  0
 20 22  1  0  0  0  0
 20 23  1  0  0  0  0
 24 25  2  0  0  0  0
 24 26  1  0  0  0  0
 26 27  1  0  0  0  0
 26 28  1  0  0  0  0
 28 29  1  0  0  0  0
 28 30  1  0  0  0  0
 28 31  1  0  0  0  0
M  END
$$$$

  -OEChem-01062216083D

 31 30  0     1  0  0  0  0  0999 V2000
   -3.8378   -2.6594    0.5995 H   0  0  0  0  0  0  0  0  0  0  0  0
   -3.6069   -1.6665    0.2031 C   0  0  0  0  0  0  0  0  0  0  0  0
   -4.2268   -0.9301    0.7199 H   0  0  0  0  0  0  0  0  0  0  0  0
   -3.8445   -1.6488   -0.8633 H   0  0  0  0  0  0  0  0  0  0  0  0
   -2.1383   -1.3465    0.4121 C   0  0  0  0  0  0  0  0  0  0  0  0
   -1.4053   -2.2199    0.8438 O   0  0  0  0  0  0  0  0  0  0  0  0
   -1.6726   -0.1047    0.0179 N   0  0  0  0  0  0  0  0  0  0  0  0
   -2.3653    0.4808   -0.4436 H   0  0  0  0  0  0  0  0  0  0  0  0
   -0.3422    0.5209    0.1929 C   0  0  1  0  0  0  0  0  0  0  0  0
   -0.5277    1.5037    0.6330 H   0  0  0  0  0  0  0  0  0  0  0  0
    0.6877   -0.1682    1.1252 C   0  0  0  0  0  0  0  0  0  0  0  0
    0.8656   -1.1900    0.7768 H   0  0  0  0  0  0  0  0  0  0  0  0
    1.6413    0.3640    1.0408 H   0  0  0  0  0  0  0  0  0  0  0  0
    0.2903   -0.1925    2.6206 C   0  0  0  0  0  0  0  0  0  0  0  0
   -0.6911   -0.6594    2.7410 H   0  0  0  0  0  0  0  0  0  0  0  0
    1.3164   -1.0284    3.3940 C   0  0  0  0  0  0  0  0  0  0  0  0
    2.3158   -0.5897    3.3112 H   0  0  0  0  0  0  0  0  0  0  0  0
    1.0456   -1.0811    4.4531 H   0  0  0  0  0  0  0  0  0  0  0  0
    1.3496   -2.0492    3.0001 H   0  0  0  0  0  0  0  0  0  0  0  0
    0.2319    1.2161    3.2301 C   0  0  0  0  0  0  0  0  0  0  0  0
   -0.5986    1.7895    2.8097 H   0  0  0  0  0  0  0  0  0  0  0  0
    0.0782    1.1551    4.3119 H   0  0  0  0  0  0  0  0  0  0  0  0
    1.1643    1.7581    3.0429 H   0  0  0  0  0  0  0  0  0  0  0  0
    0.2456    0.8310   -1.1981 C   0  0  0  0  0  0  0  0  0  0  0  0
   -0.2488    1.7322   -1.8636 O   0  0  0  0  0  0  0  0  0  0  0  0
    1.2584    0.0620   -1.7424 N   0  0  0  0  0  0  0  0  0  0  0  0
    1.5387   -0.7641   -1.2203 H   0  0  0  0  0  0  0  0  0  0  0  0
    1.7555    0.2393   -3.1008 C   0  0  0  0  0  0  0  0  0  0  0  0
    2.1259    1.2599   -3.2432 H   0  0  0  0  0  0  0  0  0  0  0  0
    2.5782   -0.4551   -3.2957 H   0  0  0  0  0  0  0  0  0  0  0  0
    0.9593    0.0481   -3.8278 H   0  0  0  0  0  0  0  0  0  0  0  0
  1  2  1  0  0  0  0
  2  3  1  0  0  0  0
  2  4  1  0  0  0  0
  2  5  1  0  0  0  0
  5  6  2  0  0  0  0
  5  7  1  0  0  0  0
  7  8  1  0  0  0  0
  7  9  1  0  0  0  0
  9 10  1  0  0  0  0
  9 11  1  0  0  0  0
  9 24  1  0  0  0  0
 11 12  1  0  0  0  0
 11 13  1  0  0  0  0
 11 14  1  0  0  0  0
 14 15  1  0  0  0  0
 14 16  1  0  0  0  0
 14 20  1  0  0  0  0
 16 17  1  0  0  0  0
 16 18  1  0  0  0  0
 16 19  1  0  0  0  0
 20 21  1  0  0  0  0
 20 22  1  0  0  0  0
 20 23  1  0  0  0  0
 24 25  2  0  0  0  0
 24 26  1  0  0  0  0
 26 27  1  0  0  0  0
 26 28  1  0  0  0  0
 28 29  1  0  0  0  0
 28 30  1  0  0  0  0
 28 31  1  0  0  0  0
M  END
$$$$

  -OEChem-01062216083D

 31 30  0     1  0  0  0  0  0999 V2000
   -3.8459   -2.6234    0.7355 H   0  0  0  0  0  0  0  0  0  0  0  0
   -3.6179   -1.6596    0.2715 C   0  0  0  0  0  0  0  0  0  0  0  0
   -4.2056   -0.8843    0.7689 H   0  0  0  0  0  0  0  0  0  0  0  0
   -3.8988   -1.7005   -0.7836 H   0  0  0  0  0  0  0  0  0  0  0  0
   -2.1376   -1.3532    0.4010 C   0  0  0  0  0  0  0  0  0  0  0  0
   -1.3865   -2.2378    0.7744 O   0  0  0  0  0  0  0  0  0  0  0  0
   -1.6811   -0.1122   -0.0058 N   0  0  0  0  0  0  0  0  0  0  0  0
   -2.3980    0.4932   -0.3985 H   0  0  0  0  0  0  0  0  0  0  0  0
   -0.3529    0.5181    0.1718 C   0  0  1  0  0  0  0  0  0  0  0  0
   -0.5417    1.5009    0.6109 H   0  0  0  0  0  0  0  0  0  0  0  0
    0.6799   -0.1691    1.1015 C   0  0  0  0  0  0  0  0  0  0  0  0
    0.8649   -1.1888    0.7506 H   0  0  0  0  0  0  0  0  0  0  0  0
    1.6308    0.3678    1.0158 H   0  0  0  0  0  0  0  0  0  0  0  0
    0.2823   -0.1997    2.5967 C   0  0  0  0  0  0  0  0  0  0  0  0
   -0.6965   -0.6724    2.7140 H   0  0  0  0  0  0  0  0  0  0  0  0
    1.3113   -1.0331    3.3692 C   0  0  0  0  0  0  0  0  0  0  0  0
    2.3091   -0.5897    3.2902 H   0  0  0  0  0  0  0  0  0  0  0  0
    1.0387   -1.0910    4.4276 H   0  0  0  0  0  0  0  0  0  0  0  0
    1.3497   -2.0523    2.9716 H   0  0  0  0  0  0  0  0  0  0  0  0
    0.2166    1.2072    3.2096 C   0  0  0  0  0  0  0  0  0  0  0  0
   -0.6183    1.7765    2.7922 H   0  0  0  0  0  0  0  0  0  0  0  0
    0.0662    1.1434    4.2918 H   0  0  0  0  0  0  0  0  0  0  0  0
    1.1453    1.7550    3.0211 H   0  0  0  0  0  0  0  0  0  0  0  0
    0.2500    0.8193   -1.2127 C   0  0  0  0  0  0  0  0  0  0  0  0
   -0.0356    1.8656   -1.7802 O   0  0  0  0  0  0  0  0  0  0  0  0
    1.0369   -0.1165   -1.8582 N   0  0  0  0  0  0  0  0  0  0  0  0
    1.1312   -1.0240   -1.4087 H   0  0  0  0  0  0  0  0  0  0  0  0
    1.5395    0.0570   -3.2148 C   0  0  0  0  0  0  0  0  0  0  0  0
    2.1428    0.9682   -3.2859 H   0  0  0  0  0  0  0  0  0  0  0  0
    2.1668   -0.7940   -3.4969 H   0  0  0  0  0  0  0  0  0  0  0  0
    0.7089    0.1273   -3.9248 H   0  0  0  0  0  0  0  0  0  0  0  0
  1  2  1  0  0  0  0
  2  3  1  0  0  0  0
  2  4  1  0  0  0  0
  2  5  1  0  0  0  0
  5  6  2  0  0  0  0
  5  7  1  0  0  0  0
  7  8  1  0  0  0  0
  7  9  1  0  0  0  0
  9 10  1  0  0  0  0
  9 11  1  0  0  0  0
  9 24  1  0  0  0  0
 11 12  1  0  0  0  0
 11 13  1  0  0  0  0
 11 14  1  0  0  0  0
 14 15  1  0  0  0  0
 14 16  1  0  0  0  0
 14 20  1  0  0  0  0
 16 17  1  0  0  0  0
 16 18  1  0  0  0  0
 16 19  1  0  0  0  0
 20 21  1  0  0  0  0
 20 22  1  0  0  0  0
 20 23  1  0  0  0  0
 24 25  2  0  0  0  0
 24 26  1  0  0  0  0
 26 27  1  0  0  0  0
 26 28  1  0  0  0  0
 28 29  1  0  0  0  0
 28 30  1  0  0  0  0
 28 31  1  0  0  0  0
M  END
$$$$

  -OEChem-01062216083D

 31 30  0     1  0  0  0  0  0999 V2000
   -3.8452   -2.6164    0.7782 H   0  0  0  0  0  0  0  0  0  0  0  0
   -3.6261   -1.6543    0.3064 C   0  0  0  0  0  0  0  0  0  0  0  0
   -4.2015   -0.8769    0.8147 H   0  0  0  0  0  0  0  0  0  0  0  0
   -3.9312   -1.6977   -0.7419 H   0  0  0  0  0  0  0  0  0  0  0  0
   -2.1424   -1.3510    0.4008 C   0  0  0  0  0  0  0  0  0  0  0  0
   -1.3811   -2.2414    0.7377 O   0  0  0  0  0  0  0  0  0  0  0  0
   -1.6912   -0.1120   -0.0173 N   0  0  0  0  0  0  0  0  0  0  0  0
   -2.4207    0.5026   -0.3699 H   0  0  0  0  0  0  0  0  0  0  0  0
   -0.3645    0.5228    0.1621 C   0  0  1  0  0  0  0  0  0  0  0  0
   -0.5546    1.5062    0.5996 H   0  0  0  0  0  0  0  0  0  0  0  0
    0.6739   -0.1630    1.0847 C   0  0  0  0  0  0  0  0  0  0  0  0
    0.8663   -1.1784    0.7261 H   0  0  0  0  0  0  0  0  0  0  0  0
    1.6209    0.3810    0.9995 H   0  0  0  0  0  0  0  0  0  0  0  0
    0.2805   -0.2042    2.5805 C   0  0  0  0  0  0  0  0  0  0  0  0
   -0.6952   -0.6836    2.6981 H   0  0  0  0  0  0  0  0  0  0  0  0
    1.3163   -1.0358    3.3453 C   0  0  0  0  0  0  0  0  0  0  0  0
    2.3112   -0.5865    3.2642 H   0  0  0  0  0  0  0  0  0  0  0  0
    1.0481   -1.0990    4.4045 H   0  0  0  0  0  0  0  0  0  0  0  0
    1.3590   -2.0530    2.9430 H   0  0  0  0  0  0  0  0  0  0  0  0
    0.2086    1.1993    3.2005 C   0  0  0  0  0  0  0  0  0  0  0  0
   -0.6289    1.7673    2.7864 H   0  0  0  0  0  0  0  0  0  0  0  0
    0.0596    1.1298    4.2826 H   0  0  0  0  0  0  0  0  0  0  0  0
    1.1348    1.7519    3.0138 H   0  0  0  0  0  0  0  0  0  0  0  0
    0.2447    0.8111   -1.2211 C   0  0  0  0  0  0  0  0  0  0  0  0
    0.2017    1.9421   -1.6864 O   0  0  0  0  0  0  0  0  0  0  0  0
    0.7649   -0.2246   -1.9741 N   0  0  0  0  0  0  0  0  0  0  0  0
    0.6792   -1.1612   -1.5853 H   0  0  0  0  0  0  0  0  0  0  0  0
    1.2610   -0.0608   -3.3341 C   0  0  0  0  0  0  0  0  0  0  0  0
    2.0682    0.6787   -3.3611 H   0  0  0  0  0  0  0  0  0  0  0  0
    1.6519   -1.0109   -3.7106 H   0  0  0  0  0  0  0  0  0  0  0  0
    0.4559    0.2710   -3.9979 H   0  0  0  0  0  0  0  0  0  0  0  0
  1  2  1  0  0  0  0
  2  3  1  0  0  0  0
  2  4  1  0  0  0  0
  2  5  1  0  0  0  0
  5  6  2  0  0  0  0
  5  7  1  0  0  0  0
  7  8  1  0  0  0  0
  7  9  1  0  0  0  0
  9 10  1  0  0  0  0
  9 11  1  0  0  0  0
  9 24  1  0  0  0  0
 11 12  1  0  0  0  0
 11 13  1  0  0  0  0
 11 14  1  0  0  0  0
 14 15  1  0  0  0  0
 14 16  1  0  0  0  0
 14 20  1  0  0  0  0
 16 17  1  0  0  0  0
 16 18  1  0  0  0  0
 16 19  1  0  0  0  0
 20 21  1  0  0  0  0
 20 22  1  0  0  0  0
 20 23  1  0  0  0  0
 24 25  2  0  0  0  0
 24 26  1  0  0  0  0
 26 27  1  0  0  0  0
 26 28  1  0  0  0  0
 28 29  1  0  0  0  0
 28 30  1  0  0  0  0
 28 31  1  0  0  0  0
M  END
$$$$

  -OEChem-01062216083D

 31 30  0     1  0  0  0  0  0999 V2000
   -3.8412   -2.6434    0.8033 H   0  0  0  0  0  0  0  0  0  0  0  0
   -3.6479   -1.6501    0.3883 C   0  0  0  0  0  0  0  0  0  0  0  0
   -4.1817   -0.9099    0.9893 H   0  0  0  0  0  0  0  0  0  0  0  0
   -4.0238   -1.6175   -0.6372 H   0  0  0  0  0  0  0  0  0  0  0  0
   -2.1594   -1.3563    0.4055 C   0  0  0  0  0  0  0  0  0  0  0  0
   -1.3853   -2.2526    0.6930 O   0  0  0  0  0  0  0  0  0  0  0  0
   -1.7215   -0.1186   -0.0291 N   0  0  0  0  0  0  0  0  0  0  0  0
   -2.4676    0.5013   -0.3337 H   0  0  0  0  0  0  0  0  0  0  0  0
   -0.3975    0.5273    0.1413 C   0  0  1  0  0  0  0  0  0  0  0  0
   -0.5901    1.5110    0.5773 H   0  0  0  0  0  0  0  0  0  0  0  0
    0.6521   -0.1558    1.0521 C   0  0  0  0  0  0  0  0  0  0  0  0
    0.8510   -1.1670    0.6845 H   0  0  0  0  0  0  0  0  0  0  0  0
    1.5938    0.3969    0.9622 H   0  0  0  0  0  0  0  0  0  0  0  0
    0.2722   -0.2082    2.5510 C   0  0  0  0  0  0  0  0  0  0  0  0
   -0.6986   -0.6958    2.6740 H   0  0  0  0  0  0  0  0  0  0  0  0
    1.3209   -1.0369    3.3012 C   0  0  0  0  0  0  0  0  0  0  0  0
    2.3112   -0.5787    3.2148 H   0  0  0  0  0  0  0  0  0  0  0  0
    1.0623   -1.1107    4.3620 H   0  0  0  0  0  0  0  0  0  0  0  0
    1.3684   -2.0507    2.8906 H   0  0  0  0  0  0  0  0  0  0  0  0
    0.1957    1.1905    3.1806 C   0  0  0  0  0  0  0  0  0  0  0  0
   -0.6439    1.7584    2.7710 H   0  0  0  0  0  0  0  0  0  0  0  0
    0.0485    1.1120    4.2623 H   0  0  0  0  0  0  0  0  0  0  0  0
    1.1195    1.7482    2.9972 H   0  0  0  0  0  0  0  0  0  0  0  0
    0.2142    0.8067   -1.2422 C   0  0  0  0  0  0  0  0  0  0  0  0
    0.4479    1.9546   -1.5949 O   0  0  0  0  0  0  0  0  0  0  0  0
    0.4554   -0.2450   -2.1058 N   0  0  0  0  0  0  0  0  0  0  0  0
    0.2233   -1.1773   -1.7694 H   0  0  0  0  0  0  0  0  0  0  0  0
    1.0132   -0.0837   -3.4417 C   0  0  0  0  0  0  0  0  0  0  0  0
    1.9883    0.4121   -3.3920 H   0  0  0  0  0  0  0  0  0  0  0  0
    1.1466   -1.0609   -3.9158 H   0  0  0  0  0  0  0  0  0  0  0  0
    0.3433    0.5162   -4.0663 H   0  0  0  0  0  0  0  0  0  0  0  0
  1  2  1  0  0  0  0
  2  3  1  0  0  0  0
  2  4  1  0  0  0  0
  2  5  1  0  0  0  0
  5  6  2  0  0  0  0
  5  7  1  0  0  0  0
  7  8  1  0  0  0  0
  7  9  1  0  0  0  0
  9 10  1  0  0  0  0
  9 11  1  0  0  0  0
  9 24  1  0  0  0  0
 11 12  1  0  0  0  0
 11 13  1  0  0  0  0
 11 14  1  0  0  0  0
 14 15  1  0  0  0  0
 14 16  1  0  0  0  0
 14 20  1  0  0  0  0
 16 17  1  0  0  0  0
 16 18  1  0  0  0  0
 16 19  1  0  0  0  0
 20 21  1  0  0  0  0
 20 22  1  0  0  0  0
 20 23  1  0  0  0  0
 24 25  2  0  0  0  0
 24 26  1  0  0  0  0
 26 27  1  0  0  0  0
 26 28  1  0  0  0  0
 28 29  1  0  0  0  0
 28 30  1  0  0  0  0
 28 31  1  0  0  0  0
M  END
$$$$

  -OEChem-01062216083D

 31 30  0     1  0  0  0  0  0999 V2000
   -3.8511   -2.6453    0.8777 H   0  0  0  0  0  0  0  0  0  0  0  0
   -3.6682   -1.6565    0.4470 C   0  0  0  0  0  0  0  0  0  0  0  0
   -4.1855   -0.9099    1.0545 H   0  0  0  0  0  0  0  0  0  0  0  0
   -4.0713   -1.6343   -0.5684 H   0  0  0  0  0  0  0  0  0  0  0  0
   -2.1795   -1.3642    0.4207 C   0  0  0  0  0  0  0  0  0  0  0  0
   -1.3989   -2.2628    0.6802 O   0  0  0  0  0  0  0  0  0  0  0  0
   -1.7530   -0.1255   -0.0235 N   0  0  0  0  0  0  0  0  0  0  0  0
   -2.5100    0.4958   -0.2963 H   0  0  0  0  0  0  0  0  0  0  0  0
   -0.4287    0.5282    0.1306 C   0  0  1  0  0  0  0  0  0  0  0  0
   -0.6215    1.5110    0.5684 H   0  0  0  0  0  0  0  0  0  0  0  0
    0.6316   -0.1540    1.0285 C   0  0  0  0  0  0  0  0  0  0  0  0
    0.8294   -1.1631    0.6549 H   0  0  0  0  0  0  0  0  0  0  0  0
    1.5715    0.4007    0.9311 H   0  0  0  0  0  0  0  0  0  0  0  0
    0.2680   -0.2104    2.5310 C   0  0  0  0  0  0  0  0  0  0  0  0
   -0.7000   -0.7009    2.6637 H   0  0  0  0  0  0  0  0  0  0  0  0
    1.3274   -1.0383    3.2666 C   0  0  0  0  0  0  0  0  0  0  0  0
    2.3157   -0.5776    3.1696 H   0  0  0  0  0  0  0  0  0  0  0  0
    1.0821   -1.1159    4.3303 H   0  0  0  0  0  0  0  0  0  0  0  0
    1.3725   -2.0506    2.8526 H   0  0  0  0  0  0  0  0  0  0  0  0
    0.1939    1.1864    3.1643 C   0  0  0  0  0  0  0  0  0  0  0  0
   -0.6504    1.7535    2.7631 H   0  0  0  0  0  0  0  0  0  0  0  0
    0.0552    1.1052    4.2470 H   0  0  0  0  0  0  0  0  0  0  0  0
    1.1155    1.7458    2.9740 H   0  0  0  0  0  0  0  0  0  0  0  0
    0.1818    0.8131   -1.2534 C   0  0  0  0  0  0  0  0  0  0  0  0
    0.6823    1.9029   -1.4947 O   0  0  0  0  0  0  0  0  0  0  0  0
    0.1462   -0.1614   -2.2326 N   0  0  0  0  0  0  0  0  0  0  0  0
   -0.2226   -1.0691   -1.9569 H   0  0  0  0  0  0  0  0  0  0  0  0
    0.7525   -0.0054   -3.5482 C   0  0  0  0  0  0  0  0  0  0  0  0
    1.8250    0.1954   -3.4549 H   0  0  0  0  0  0  0  0  0  0  0  0
    0.6216   -0.9198   -4.1346 H   0  0  0  0  0  0  0  0  0  0  0  0
    0.2844    0.8231   -4.0900 H   0  0  0  0  0  0  0  0  0  0  0  0
  1  2  1  0  0  0  0
  2  3  1  0  0  0  0
  2  4  1  0  0  0  0
  2  5  1  0  0  0  0
  5  6  2  0  0  0  0
  5  7  1  0  0  0  0
  7  8  1  0  0  0  0
  7  9  1  0  0  0  0
  9 10  1  0  0  0  0
  9 11  1  0  0  0  0
  9 24  1  0  0  0  0
 11 12  1  0  0  0  0
 11 13  1  0  0  0  0
 11 14  1  0  0  0  0
 14 15  1  0  0  0  0
 14 16  1  0  0  0  0
 14 20  1  0  0  0  0
 16 17  1  0  0  0  0
 16 18  1  0  0  0  0
 16 19  1  0  0  0  0
 20 21  1  0  0  0  0
 20 22  1  0  0  0  0
 20 23  1  0  0  0  0
 24 25  2  0  0  0  0
 24 26  1  0  0  0  0
 26 27  1  0  0  0  0
 26 28  1  0  0  0  0
 28 29  1  0  0  0  0
 28 30  1  0  0  0  0
 28 31  1  0  0  0  0
M  END
$$$$

  -OEChem-01062216083D

 31 30  0     1  0  0  0  0  0999 V2000
   -3.8515   -2.6562    0.9175 H   0  0  0  0  0  0  0  0  0  0  0  0
   -3.6764   -1.6671    0.4844 C   0  0  0  0  0  0  0  0  0  0  0  0
   -4.1841   -0.9214    1.1011 H   0  0  0  0  0  0  0  0  0  0  0  0
   -4.0966   -1.6448   -0.5239 H   0  0  0  0  0  0  0  0  0  0  0  0
   -2.1886   -1.3740    0.4335 C   0  0  0  0  0  0  0  0  0  0  0  0
   -1.4052   -2.2731    0.6800 O   0  0  0  0  0  0  0  0  0  0  0  0
   -1.7713   -0.1337   -0.0159 N   0  0  0  0  0  0  0  0  0  0  0  0
   -2.5361    0.4882   -0.2643 H   0  0  0  0  0  0  0  0  0  0  0  0
   -0.4475    0.5277    0.1245 C   0  0  1  0  0  0  0  0  0  0  0  0
   -0.6410    1.5103    0.5623 H   0  0  0  0  0  0  0  0  0  0  0  0
    0.6182   -0.1550    1.0174 C   0  0  0  0  0  0  0  0  0  0  0  0
    0.8138   -1.1636    0.6416 H   0  0  0  0  0  0  0  0  0  0  0  0
    1.5584    0.3987    0.9155 H   0  0  0  0  0  0  0  0  0  0  0  0
    0.2645   -0.2113    2.5225 C   0  0  0  0  0  0  0  0  0  0  0  0
   -0.7029   -0.7013    2.6617 H   0  0  0  0  0  0  0  0  0  0  0  0
    1.3277   -1.0395    3.2534 C   0  0  0  0  0  0  0  0  0  0  0  0
    2.3162   -0.5813    3.1476 H   0  0  0  0  0  0  0  0  0  0  0  0
    1.0901   -1.1127    4.3192 H   0  0  0  0  0  0  0  0  0  0  0  0
    1.3676   -2.0534    2.8428 H   0  0  0  0  0  0  0  0  0  0  0  0
    0.1952    1.1864    3.1543 C   0  0  0  0  0  0  0  0  0  0  0  0
   -0.6498    1.7540    2.7558 H   0  0  0  0  0  0  0  0  0  0  0  0
    0.0613    1.1068    4.2376 H   0  0  0  0  0  0  0  0  0  0  0  0
    1.1167    1.7442    2.9593 H   0  0  0  0  0  0  0  0  0  0  0  0
    0.1632    0.8220   -1.2599 C   0  0  0  0  0  0  0  0  0  0  0  0
    0.8764    1.8030   -1.4200 O   0  0  0  0  0  0  0  0  0  0  0  0
   -0.1235    0.0019   -2.3352 N   0  0  0  0  0  0  0  0  0  0  0  0
   -0.6184   -0.8605   -2.1208 H   0  0  0  0  0  0  0  0  0  0  0  0
    0.4853    0.1630   -3.6493 C   0  0  0  0  0  0  0  0  0  0  0  0
    1.5738    0.0641   -3.5823 H   0  0  0  0  0  0  0  0  0  0  0  0
    0.1092   -0.6011   -4.3361 H   0  0  0  0  0  0  0  0  0  0  0  0
    0.2461    1.1477   -4.0642 H   0  0  0  0  0  0  0  0  0  0  0  0
  1  2  1  0  0  0  0
  2  3  1  0  0  0  0
  2  4  1  0  0  0  0
  2  5  1  0  0  0  0
  5  6  2  0  0  0  0
  5  7  1  0  0  0  0
  7  8  1  0  0  0  0
  7  9  1  0  0  0  0
  9 10  1  0  0  0  0
  9 11  1  0  0  0  0
  9 24  1  0  0  0  0
 11 12  1  0  0  0  0
 11 13  1  0  0  0  0
 11 14  1  0  0  0  0
 14 15  1  0  0  0  0
 14 16  1  0  0  0  0
 14 20  1  0  0  0  0
 16 17  1  0  0  0  0
 16 18  1  0  0  0  0
 16 19  1  0  0  0  0
 20 21  1  0  0  0  0
 20 22  1  0  0  0  0
 20 23  1  0  0  0  0
 24 25  2  0  0  0  0
 24 26  1  0  0  0  0
 26 27  1  0  0  0  0
 26 28  1  0  0  0  0
 28 29  1  0  0  0  0
 28 30  1  0  0  0  0
 28 31  1  0  0  0  0
M  END
$$$$

  -OEChem-01062216083D

 31 30  0     1  0  0  0  0  0999 V2000
   -3.8482   -2.6605    0.9407 H   0  0  0  0  0  0  0  0  0  0  0  0
   -3.6734   -1.6771    0.4948 C   0  0  0  0  0  0  0  0  0  0  0  0
   -4.1804   -0.9232    1.1020 H   0  0  0  0  0  0  0  0  0  0  0  0
   -4.0944   -1.6681   -0.5134 H   0  0  0  0  0  0  0  0  0  0  0  0
   -2.1853   -1.3855    0.4394 C   0  0  0  0  0  0  0  0  0  0  0  0
   -1.4035   -2.2847    0.6896 O   0  0  0  0  0  0  0  0  0  0  0  0
   -1.7720   -0.1432   -0.0099 N   0  0  0  0  0  0  0  0  0  0  0  0
   -2.5409    0.4804   -0.2404 H   0  0  0  0  0  0  0  0  0  0  0  0
   -0.4473    0.5212    0.1217 C   0  0  1  0  0  0  0  0  0  0  0  0
   -0.6404    1.5033    0.5597 H   0  0  0  0  0  0  0  0  0  0  0  0
    0.6163   -0.1625    1.0187 C   0  0  0  0  0  0  0  0  0  0  0  0
    0.8088   -1.1730    0.6461 H   0  0  0  0  0  0  0  0  0  0  0  0
    1.5596    0.3854    0.9179 H   0  0  0  0  0  0  0  0  0  0  0  0
    0.2619   -0.2106    2.5241 C   0  0  0  0  0  0  0  0  0  0  0  0
   -0.7070   -0.6968    2.6649 H   0  0  0  0  0  0  0  0  0  0  0  0
    1.3218   -1.0399    3.2581 C   0  0  0  0  0  0  0  0  0  0  0  0
    2.3120   -0.5854    3.1510 H   0  0  0  0  0  0  0  0  0  0  0  0
    1.0843   -1.1091    4.3241 H   0  0  0  0  0  0  0  0  0  0  0  0
    1.3585   -2.0552    2.8505 H   0  0  0  0  0  0  0  0  0  0  0  0
    0.1987    1.1896    3.1513 C   0  0  0  0  0  0  0  0  0  0  0  0
   -0.6442    1.7596    2.7517 H   0  0  0  0  0  0  0  0  0  0  0  0
    0.0657    1.1141    4.2351 H   0  0  0  0  0  0  0  0  0  0  0  0
    1.1222    1.7433    2.9539 H   0  0  0  0  0  0  0  0  0  0  0  0
    0.1613    0.8249   -1.2647 C   0  0  0  0  0  0  0  0  0  0  0  0
    1.0480    1.6609   -1.3756 O   0  0  0  0  0  0  0  0  0  0  0  0
   -0.3454    0.2223   -2.4019 N   0  0  0  0  0  0  0  0  0  0  0  0
   -0.9772   -0.5586   -2.2461 H   0  0  0  0  0  0  0  0  0  0  0  0
    0.2271    0.4133   -3.7288 C   0  0  0  0  0  0  0  0  0  0  0  0
    1.2670    0.0711   -3.7499 H   0  0  0  0  0  0  0  0  0  0  0  0
   -0.3409   -0.1555   -4.4712 H   0  0  0  0  0  0  0  0  0  0  0  0
    0.1987    1.4713   -4.0100 H   0  0  0  0  0  0  0  0  0  0  0  0
  1  2  1  0  0  0  0
  2  3  1  0  0  0  0
  2  4  1  0  0  0  0
  2  5  1  0  0  0  0
  5  6  2  0  0  0  0
  5  7  1  0  0  0  0
  7  8  1  0  0  0  0
  7  9  1  0  0  0  0
  9 10  1  0  0  0  0
  9 11  1  0  0  0  0
  9 24  1  0  0  0  0
 11 12  1  0  0  0  0
 11 13  1  0  0  0  0
 11 14  1  0  0  0  0
 14 15  1  0  0  0  0
 14 16  1  0  0  0  0
 14 20  1  0  0  0  0
 16 17  1  0  0  0  0
 16 18  1  0  0  0  0
 16 19  1  0  0  0  0
 20 21  1  0  0  0  0
 20 22  1  0  0  0  0
 20 23  1  0  0  0  0
 24 25  2  0  0  0  0
 24 26  1  0  0  0  0
 26 27  1  0  0  0  0
 26 28  1  0  0  0  0
 28 29  1  0  0  0  0
 28 30  1  0  0  0  0
 28 31  1  0  0  0  0
M  END
$$$$

  -OEChem-01062216083D

 31 30  0     1  0  0  0  0  0999 V2000
   -3.8343   -2.6674    0.9474 H   0  0  0  0  0  0  0  0  0  0  0  0
   -3.6603   -1.6866    0.4957 C   0  0  0  0  0  0  0  0  0  0  0  0
   -4.1650   -0.9294    1.1007 H   0  0  0  0  0  0  0  0  0  0  0  0
   -4.0835   -1.6830   -0.5116 H   0  0  0  0  0  0  0  0  0  0  0  0
   -2.1724   -1.3963    0.4345 C   0  0  0  0  0  0  0  0  0  0  0  0
   -1.3922   -2.2958    0.6873 O   0  0  0  0  0  0  0  0  0  0  0  0
   -1.7628   -0.1505   -0.0108 N   0  0  0  0  0  0  0  0  0  0  0  0
   -2.5359    0.4765   -0.2162 H   0  0  0  0  0  0  0  0  0  0  0  0
   -0.4375    0.5153    0.1170 C   0  0  1  0  0  0  0  0  0  0  0  0
   -0.6307    1.4967    0.5557 H   0  0  0  0  0  0  0  0  0  0  0  0
    0.6204   -0.1710    1.0217 C   0  0  0  0  0  0  0  0  0  0  0  0
    0.8116   -1.1831    0.6531 H   0  0  0  0  0  0  0  0  0  0  0  0
    1.5678    0.3706    0.9278 H   0  0  0  0  0  0  0  0  0  0  0  0
    0.2582   -0.2105    2.5257 C   0  0  0  0  0  0  0  0  0  0  0  0
   -0.7140   -0.6910    2.6645 H   0  0  0  0  0  0  0  0  0  0  0  0
    1.3102   -1.0420    3.2683 C   0  0  0  0  0  0  0  0  0  0  0  0
    2.3031   -0.5927    3.1649 H   0  0  0  0  0  0  0  0  0  0  0  0
    1.0659   -1.1056    4.3331 H   0  0  0  0  0  0  0  0  0  0  0  0
    1.3440   -2.0590    2.8650 H   0  0  0  0  0  0  0  0  0  0  0  0
    0.1999    1.1931    3.1462 C   0  0  0  0  0  0  0  0  0  0  0  0
   -0.6402    1.7645    2.7428 H   0  0  0  0  0  0  0  0  0  0  0  0
    0.0656    1.1238    4.2303 H   0  0  0  0  0  0  0  0  0  0  0  0
    1.1259    1.7421    2.9468 H   0  0  0  0  0  0  0  0  0  0  0  0
    0.1660    0.8286   -1.2726 C   0  0  0  0  0  0  0  0  0  0  0  0
    1.1928    1.4876   -1.3684 O   0  0  0  0  0  0  0  0  0  0  0  0
   -0.5172    0.4900   -2.4272 N   0  0  0  0  0  0  0  0  0  0  0  0
   -1.2764   -0.1747   -2.3117 H   0  0  0  0  0  0  0  0  0  0  0  0
    0.0147    0.7218   -3.7645 C   0  0  0  0  0  0  0  0  0  0  0  0
    0.9526    0.1742   -3.9040 H   0  0  0  0  0  0  0  0  0  0  0  0
   -0.7010    0.3837   -4.5200 H   0  0  0  0  0  0  0  0  0  0  0  0
    0.2035    1.7888   -3.9222 H   0  0  0  0  0  0  0  0  0  0  0  0
  1  2  1  0  0  0  0
  2  3  1  0  0  0  0
  2  4  1  0  0  0  0
  2  5  1  0  0  0  0
  5  6  2  0  0  0  0
  5  7  1  0  0  0  0
  7  8  1  0  0  0  0
  7  9  1  0  0  0  0
  9 10  1  0  0  0  0
  9 11  1  0  0  0  0
  9 24  1  0  0  0  0
 11 12  1  0  0  0  0
 11 13  1  0  0  0  0
 11 14  1  0  0  0  0
 14 15  1  0  0  0  0
 14 16  1  0  0  0  0
 14 20  1  0  0  0  0
 16 17  1  0  0  0  0
 16 18  1  0  0  0  0
 16 19  1  0  0  0  0
 20 21  1  0  0  0  0
 20 22  1  0  0  0  0
 20 23  1  0  0  0  0
 24 25  2  0  0  0  0
 24 26  1  0  0  0  0
 26 27  1  0  0  0  0
 26 28  1  0  0  0  0
 28 29  1  0  0  0  0
 28 30  1  0  0  0  0
 28 31  1  0  0  0  0
M  END
$$$$

  -OEChem-01062216083D

 31 30  0     1  0  0  0  0  0999 V2000
   -3.8093   -2.6808    0.9361 H   0  0  0  0  0  0  0  0  0  0  0  0
   -3.6407   -1.6927    0.4984 C   0  0  0  0  0  0  0  0  0  0  0  0
   -4.1337   -0.9452    1.1244 H   0  0  0  0  0  0  0  0  0  0  0  0
   -4.0810   -1.6712   -0.5012 H   0  0  0  0  0  0  0  0  0  0  0  0
   -2.1532   -1.4045    0.4173 C   0  0  0  0  0  0  0  0  0  0  0  0
   -1.3726   -2.3058    0.6619 O   0  0  0  0  0  0  0  0  0  0  0  0
   -1.7480   -0.1546   -0.0223 N   0  0  0  0  0  0  0  0  0  0  0  0
   -2.5249    0.4773   -0.1938 H   0  0  0  0  0  0  0  0  0  0  0  0
   -0.4221    0.5109    0.1083 C   0  0  1  0  0  0  0  0  0  0  0  0
   -0.6155    1.4925    0.5461 H   0  0  0  0  0  0  0  0  0  0  0  0
    0.6275   -0.1776    1.0242 C   0  0  0  0  0  0  0  0  0  0  0  0
    0.8211   -1.1903    0.6594 H   0  0  0  0  0  0  0  0  0  0  0  0
    1.5774    0.3609    0.9408 H   0  0  0  0  0  0  0  0  0  0  0  0
    0.2526   -0.2096    2.5255 C   0  0  0  0  0  0  0  0  0  0  0  0
   -0.7222   -0.6869    2.6570 H   0  0  0  0  0  0  0  0  0  0  0  0
    1.2952   -1.0429    3.2797 C   0  0  0  0  0  0  0  0  0  0  0  0
    2.2908   -0.5982    3.1824 H   0  0  0  0  0  0  0  0  0  0  0  0
    1.0424   -1.1024    4.3430 H   0  0  0  0  0  0  0  0  0  0  0  0
    1.3283   -2.0614    2.8800 H   0  0  0  0  0  0  0  0  0  0  0  0
    0.1920    1.1956    3.1423 C   0  0  0  0  0  0  0  0  0  0  0  0
   -0.6431    1.7681    2.7303 H   0  0  0  0  0  0  0  0  0  0  0  0
    0.0465    1.1285    4.2251 H   0  0  0  0  0  0  0  0  0  0  0  0
    1.1212    1.7417    2.9511 H   0  0  0  0  0  0  0  0  0  0  0  0
    0.1753    0.8305   -1.2859 C   0  0  0  0  0  0  0  0  0  0  0  0
    1.3120    1.2701   -1.3992 O   0  0  0  0  0  0  0  0  0  0  0  0
   -0.6256    0.7863   -2.4144 N   0  0  0  0  0  0  0  0  0  0  0  0
   -1.4998    0.2803   -2.3168 H   0  0  0  0  0  0  0  0  0  0  0  0
   -0.1262    1.0644   -3.7562 C   0  0  0  0  0  0  0  0  0  0  0  0
    0.6556    0.3485   -4.0305 H   0  0  0  0  0  0  0  0  0  0  0  0
   -0.9386    0.9883   -4.4851 H   0  0  0  0  0  0  0  0  0  0  0  0
    0.2884    2.0766   -3.8093 H   0  0  0  0  0  0  0  0  0  0  0  0
  1  2  1  0  0  0  0
  2  3  1  0  0  0  0
  2  4  1  0  0  0  0
  2  5  1  0  0  0  0
  5  6  2  0  0  0  0
  5  7  1  0  0  0  0
  7  8  1  0  0  0  0
  7  9  1  0  0  0  0
  9 10  1  0  0  0  0
  9 11  1  0  0  0  0
  9 24  1  0  0  0  0
 11 12  1  0  0  0  0
 11 13  1  0  0  0  0
 11 14  1  0  0  0  0
 14 15  1  0  0  0  0
 14 16  1  0  0  0  0
 14 20  1  0  0  0  0
 16 17  1  0  0  0  0
 16 18  1  0  0  0  0
 16 19  1  0  0  0  0
 20 21  1  0  0  0  0
 20 22  1  0  0  0  0
 20 23  1  0  0  0  0
 24 25  2  0  0  0  0
 24 26  1  0  0  0  0
 26 27  1  0  0  0  0
 26 28  1  0  0  0  0
 28 29  1  0  0  0  0
 28 30  1  0  0  0  0
 28 31  1  0  0  0  0
M  END
$$$$

  -OEChem-01062216083D

 31 30  0     1  0  0  0  0  0999 V2000
   -3.8016   -2.6877    0.9119 H   0  0  0  0  0  0  0  0  0  0  0  0
   -3.6298   -1.7032    0.4668 C   0  0  0  0  0  0  0  0  0  0  0  0
   -4.1348   -0.9515    1.0781 H   0  0  0  0  0  0  0  0  0  0  0  0
   -4.0553   -1.6937   -0.5395 H   0  0  0  0  0  0  0  0  0  0  0  0
   -2.1419   -1.4102    0.4040 C   0  0  0  0  0  0  0  0  0  0  0  0
   -1.3638   -2.3083    0.6675 O   0  0  0  0  0  0  0  0  0  0  0  0
   -1.7362   -0.1569   -0.0271 N   0  0  0  0  0  0  0  0  0  0  0  0
   -2.5144    0.4753   -0.1865 H   0  0  0  0  0  0  0  0  0  0  0  0
   -0.4083    0.5042    0.1051 C   0  0  1  0  0  0  0  0  0  0  0  0
   -0.6000    1.4847    0.5452 H   0  0  0  0  0  0  0  0  0  0  0  0
    0.6361   -0.1837    1.0282 C   0  0  0  0  0  0  0  0  0  0  0  0
    0.8302   -1.1981    0.6676 H   0  0  0  0  0  0  0  0  0  0  0  0
    1.5871    0.3538    0.9495 H   0  0  0  0  0  0  0  0  0  0  0  0
    0.2540   -0.2064    2.5278 C   0  0  0  0  0  0  0  0  0  0  0  0
   -0.7231   -0.6797    2.6558 H   0  0  0  0  0  0  0  0  0  0  0  0
    1.2897   -1.0393    3.2912 C   0  0  0  0  0  0  0  0  0  0  0  0
    2.2870   -0.5975    3.1984 H   0  0  0  0  0  0  0  0  0  0  0  0
    1.0296   -1.0938    4.3527 H   0  0  0  0  0  0  0  0  0  0  0  0
    1.3225   -2.0594    2.8956 H   0  0  0  0  0  0  0  0  0  0  0  0
    0.1963    1.2017    3.1384 C   0  0  0  0  0  0  0  0  0  0  0  0
   -0.6381    1.7740    2.7250 H   0  0  0  0  0  0  0  0  0  0  0  0
    0.0518    1.1397    4.2215 H   0  0  0  0  0  0  0  0  0  0  0  0
    1.1265    1.7452    2.9442 H   0  0  0  0  0  0  0  0  0  0  0  0
    0.1803    0.8315   -1.2924 C   0  0  0  0  0  0  0  0  0  0  0  0
    1.3806    1.0027   -1.4608 O   0  0  0  0  0  0  0  0  0  0  0  0
   -0.6680    1.1010   -2.3534 N   0  0  0  0  0  0  0  0  0  0  0  0
   -1.6361    0.8235   -2.2374 H   0  0  0  0  0  0  0  0  0  0  0  0
   -0.1892    1.4150   -3.6950 C   0  0  0  0  0  0  0  0  0  0  0  0
    0.3901    0.5786   -4.1002 H   0  0  0  0  0  0  0  0  0  0  0  0
   -1.0341    1.6086   -4.3629 H   0  0  0  0  0  0  0  0  0  0  0  0
    0.4454    2.3075   -3.6775 H   0  0  0  0  0  0  0  0  0  0  0  0
  1  2  1  0  0  0  0
  2  3  1  0  0  0  0
  2  4  1  0  0  0  0
  2  5  1  0  0  0  0
  5  6  2  0  0  0  0
  5  7  1  0  0  0  0
  7  8  1  0  0  0  0
  7  9  1  0  0  0  0
  9 10  1  0  0  0  0
  9 11  1  0  0  0  0
  9 24  1  0  0  0  0
 11 12  1  0  0  0  0
 11 13  1  0  0  0  0
 11 14  1  0  0  0  0
 14 15  1  0  0  0  0
 14 16  1  0  0  0  0
 14 20  1  0  0  0  0
 16 17  1  0  0  0  0
 16 18  1  0  0  0  0
 16 19  1  0  0  0  0
 20 21  1  0  0  0  0
 20 22  1  0  0  0  0
 20 23  1  0  0  0  0
 24 25  2  0  0  0  0
 24 26  1  0  0  0  0
 26 27  1  0  0  0  0
 26 28  1  0  0  0  0
 28 29  1  0  0  0  0
 28 30  1  0  0  0  0
 28 31  1  0  0  0  0
M  END
$$$$

  -OEChem-01062216083D

 31 30  0     1  0  0  0  0  0999 V2000
   -3.8247   -2.7054    0.8172 H   0  0  0  0  0  0  0  0  0  0  0  0
   -3.6369   -1.7166    0.3885 C   0  0  0  0  0  0  0  0  0  0  0  0
   -4.1851   -0.9732    0.9720 H   0  0  0  0  0  0  0  0  0  0  0  0
   -4.0018   -1.7061   -0.6413 H   0  0  0  0  0  0  0  0  0  0  0  0
   -2.1507   -1.4091    0.4151 C   0  0  0  0  0  0  0  0  0  0  0  0
   -1.3851   -2.2930    0.7530 O   0  0  0  0  0  0  0  0  0  0  0  0
   -1.7336   -0.1584   -0.0136 N   0  0  0  0  0  0  0  0  0  0  0  0
   -2.5042    0.4572   -0.2505 H   0  0  0  0  0  0  0  0  0  0  0  0
   -0.4029    0.4961    0.1139 C   0  0  1  0  0  0  0  0  0  0  0  0
   -0.5896    1.4779    0.5534 H   0  0  0  0  0  0  0  0  0  0  0  0
    0.6438   -0.1859    1.0376 C   0  0  0  0  0  0  0  0  0  0  0  0
    0.8316   -1.2039    0.6835 H   0  0  0  0  0  0  0  0  0  0  0  0
    1.5949    0.3494    0.9465 H   0  0  0  0  0  0  0  0  0  0  0  0
    0.2695   -0.1982    2.5394 C   0  0  0  0  0  0  0  0  0  0  0  0
   -0.7079   -0.6683    2.6769 H   0  0  0  0  0  0  0  0  0  0  0  0
    1.3086   -1.0270    3.3028 C   0  0  0  0  0  0  0  0  0  0  0  0
    2.3060   -0.5881    3.1994 H   0  0  0  0  0  0  0  0  0  0  0  0
    1.0560   -1.0720    4.3667 H   0  0  0  0  0  0  0  0  0  0  0  0
    1.3362   -2.0506    2.9157 H   0  0  0  0  0  0  0  0  0  0  0  0
    0.2176    1.2140    3.1410 C   0  0  0  0  0  0  0  0  0  0  0  0
   -0.6191    1.7842    2.7295 H   0  0  0  0  0  0  0  0  0  0  0  0
    0.0803    1.1590    4.2254 H   0  0  0  0  0  0  0  0  0  0  0  0
    1.1472    1.7550    2.9370 H   0  0  0  0  0  0  0  0  0  0  0  0
    0.1742    0.8186   -1.2894 C   0  0  0  0  0  0  0  0  0  0  0  0
    1.3611    0.6784   -1.5540 O   0  0  0  0  0  0  0  0  0  0  0  0
   -0.6402    1.3893   -2.2539 N   0  0  0  0  0  0  0  0  0  0  0  0
   -1.6301    1.4571   -2.0495 H   0  0  0  0  0  0  0  0  0  0  0  0
   -0.1730    1.7414   -3.5900 C   0  0  0  0  0  0  0  0  0  0  0  0
    0.1793    0.8500   -4.1198 H   0  0  0  0  0  0  0  0  0  0  0  0
   -0.9855    2.1905   -4.1691 H   0  0  0  0  0  0  0  0  0  0  0  0
    0.6481    2.4638   -3.5311 H   0  0  0  0  0  0  0  0  0  0  0  0
  1  2  1  0  0  0  0
  2  3  1  0  0  0  0
  2  4  1  0  0  0  0
  2  5  1  0  0  0  0
  5  6  2  0  0  0  0
  5  7  1  0  0  0  0
  7  8  1  0  0  0  0
  7  9  1  0  0  0  0
  9 10  1  0  0  0  0
  9 11  1  0  0  0  0
  9 24  1  0  0  0  0
 11 12  1  0  0  0  0
 11 13  1  0  0  0  0
 11 14  1  0  0  0  0
 14 15  1  0  0  0  0
 14 16  1  0  0  0  0
 14 20  1  0  0  0  0
 16 17  1  0  0  0  0
 16 18  1  0  0  0  0
 16 19  1  0  0  0  0
 20 21  1  0  0  0  0
 20 22  1  0  0  0  0
 20 23  1  0  0  0  0
 24 25  2  0  0  0  0
 24 26  1  0  0  0  0
 26 27  1  0  0  0  0
 26 28  1  0  0  0  0
 28 29  1  0  0  0  0
 28 30  1  0  0  0  0
 28 31  1  0  0  0  0
M  END
$$$$

  -OEChem-01062216083D

 31 30  0     1  0  0  0  0  0999 V2000
   -3.8653   -2.7141    0.7126 H   0  0  0  0  0  0  0  0  0  0  0  0
   -3.6544   -1.7294    0.2858 C   0  0  0  0  0  0  0  0  0  0  0  0
   -4.2666   -0.9863    0.8022 H   0  0  0  0  0  0  0  0  0  0  0  0
   -3.9217   -1.7422   -0.7736 H   0  0  0  0  0  0  0  0  0  0  0  0
   -2.1825   -1.3945    0.4454 C   0  0  0  0  0  0  0  0  0  0  0  0
   -1.4434   -2.2518    0.8934 O   0  0  0  0  0  0  0  0  0  0  0  0
   -1.7468   -0.1510    0.0141 N   0  0  0  0  0  0  0  0  0  0  0  0
   -2.4833    0.4189   -0.3879 H   0  0  0  0  0  0  0  0  0  0  0  0
   -0.4114    0.4923    0.1316 C   0  0  1  0  0  0  0  0  0  0  0  0
   -0.5888    1.4758    0.5706 H   0  0  0  0  0  0  0  0  0  0  0  0
    0.6442   -0.1833    1.0475 C   0  0  0  0  0  0  0  0  0  0  0  0
    0.8161   -1.2071    0.7004 H   0  0  0  0  0  0  0  0  0  0  0  0
    1.5962    0.3454    0.9301 H   0  0  0  0  0  0  0  0  0  0  0  0
    0.2932   -0.1864    2.5558 C   0  0  0  0  0  0  0  0  0  0  0  0
   -0.6838   -0.6497    2.7147 H   0  0  0  0  0  0  0  0  0  0  0  0
    1.3433   -1.0121    3.3079 C   0  0  0  0  0  0  0  0  0  0  0  0
    2.3397   -0.5751    3.1869 H   0  0  0  0  0  0  0  0  0  0  0  0
    1.1068   -1.0514    4.3757 H   0  0  0  0  0  0  0  0  0  0  0  0
    1.3639   -2.0378    2.9260 H   0  0  0  0  0  0  0  0  0  0  0  0
    0.2571    1.2301    3.1483 C   0  0  0  0  0  0  0  0  0  0  0  0
   -0.5843    1.8007    2.7467 H   0  0  0  0  0  0  0  0  0  0  0  0
    0.1378    1.1830    4.2352 H   0  0  0  0  0  0  0  0  0  0  0  0
    1.1851    1.7662    2.9252 H   0  0  0  0  0  0  0  0  0  0  0  0
    0.1501    0.8009   -1.2783 C   0  0  0  0  0  0  0  0  0  0  0  0
    1.2238    0.3597   -1.6657 O   0  0  0  0  0  0  0  0  0  0  0  0
   -0.5550    1.6426   -2.1233 N   0  0  0  0  0  0  0  0  0  0  0  0
   -1.4102    2.0582   -1.7715 H   0  0  0  0  0  0  0  0  0  0  0  0
   -0.0801    2.0262   -3.4480 C   0  0  0  0  0  0  0  0  0  0  0  0
    0.0581    1.1403   -4.0769 H   0  0  0  0  0  0  0  0  0  0  0  0
   -0.8060    2.6846   -3.9346 H   0  0  0  0  0  0  0  0  0  0  0  0
    0.8746    2.5577   -3.3739 H   0  0  0  0  0  0  0  0  0  0  0  0
  1  2  1  0  0  0  0
  2  3  1  0  0  0  0
  2  4  1  0  0  0  0
  2  5  1  0  0  0  0
  5  6  2  0  0  0  0
  5  7  1  0  0  0  0
  7  8  1  0  0  0  0
  7  9  1  0  0  0  0
  9 10  1  0  0  0  0
  9 11  1  0  0  0  0
  9 24  1  0  0  0  0
 11 12  1  0  0  0  0
 11 13  1  0  0  0  0
 11 14  1  0  0  0  0
 14 15  1  0  0  0  0
 14 16  1  0  0  0  0
 14 20  1  0  0  0  0
 16 17  1  0  0  0  0
 16 18  1  0  0  0  0
 16 19  1  0  0  0  0
 20 21  1  0  0  0  0
 20 22  1  0  0  0  0
 20 23  1  0  0  0  0
 24 25  2  0  0  0  0
 24 26  1  0  0  0  0
 26 27  1  0  0  0  0
 26 28  1  0  0  0  0
 28 29  1  0  0  0  0
 28 30  1  0  0  0  0
 28 31  1  0  0  0  0
M  END
$$$$

  -OEChem-01062216083D

 31 30  0     1  0  0  0  0  0999 V2000
   -3.8799   -2.7184    0.6600 H   0  0  0  0  0  0  0  0  0  0  0  0
   -3.6626   -1.7325    0.2389 C   0  0  0  0  0  0  0  0  0  0  0  0
   -4.3046   -0.9948    0.7258 H   0  0  0  0  0  0  0  0  0  0  0  0
   -3.8838   -1.7516   -0.8309 H   0  0  0  0  0  0  0  0  0  0  0  0
   -2.2029   -1.3797    0.4594 C   0  0  0  0  0  0  0  0  0  0  0  0
   -1.4782   -2.2214    0.9580 O   0  0  0  0  0  0  0  0  0  0  0  0
   -1.7618   -0.1385    0.0273 N   0  0  0  0  0  0  0  0  0  0  0  0
   -2.4768    0.4066   -0.4435 H   0  0  0  0  0  0  0  0  0  0  0  0
   -0.4255    0.4993    0.1420 C   0  0  1  0  0  0  0  0  0  0  0  0
   -0.6004    1.4809    0.5860 H   0  0  0  0  0  0  0  0  0  0  0  0
    0.6392   -0.1731    1.0474 C   0  0  0  0  0  0  0  0  0  0  0  0
    0.8038   -1.1982    0.6998 H   0  0  0  0  0  0  0  0  0  0  0  0
    1.5900    0.3541    0.9147 H   0  0  0  0  0  0  0  0  0  0  0  0
    0.3052   -0.1798    2.5598 C   0  0  0  0  0  0  0  0  0  0  0  0
   -0.6687   -0.6443    2.7317 H   0  0  0  0  0  0  0  0  0  0  0  0
    1.3665   -1.0036    3.2981 C   0  0  0  0  0  0  0  0  0  0  0  0
    2.3605   -0.5646    3.1649 H   0  0  0  0  0  0  0  0  0  0  0  0
    1.1438   -1.0435    4.3688 H   0  0  0  0  0  0  0  0  0  0  0  0
    1.3847   -2.0292    2.9156 H   0  0  0  0  0  0  0  0  0  0  0  0
    0.2733    1.2365    3.1526 C   0  0  0  0  0  0  0  0  0  0  0  0
   -0.5722    1.8058    2.7580 H   0  0  0  0  0  0  0  0  0  0  0  0
    0.1631    1.1894    4.2405 H   0  0  0  0  0  0  0  0  0  0  0  0
    1.1988    1.7734    2.9214 H   0  0  0  0  0  0  0  0  0  0  0  0
    0.1319    0.8041   -1.2676 C   0  0  0  0  0  0  0  0  0  0  0  0
    1.0360    0.1472   -1.7654 O   0  0  0  0  0  0  0  0  0  0  0  0
   -0.3859    1.8685   -1.9867 N   0  0  0  0  0  0  0  0  0  0  0  0
   -1.0851    2.4486   -1.5351 H   0  0  0  0  0  0  0  0  0  0  0  0
    0.1137    2.2630   -3.2990 C   0  0  0  0  0  0  0  0  0  0  0  0
    0.0132    1.4378   -4.0121 H   0  0  0  0  0  0  0  0  0  0  0  0
   -0.4542    3.1176   -3.6792 H   0  0  0  0  0  0  0  0  0  0  0  0
    1.1692    2.5484   -3.2373 H   0  0  0  0  0  0  0  0  0  0  0  0
  1  2  1  0  0  0  0
  2  3  1  0  0  0  0
  2  4  1  0  0  0  0
  2  5  1  0  0  0  0
  5  6  2  0  0  0  0
  5  7  1  0  0  0  0
  7  8  1  0  0  0  0
  7  9  1  0  0  0  0
  9 10  1  0  0  0  0
  9 11  1  0  0  0  0
  9 24  1  0  0  0  0
 11 12  1  0  0  0  0
 11 13  1  0  0  0  0
 11 14  1  0  0  0  0
 14 15  1  0  0  0  0
 14 16  1  0  0  0  0
 14 20  1  0  0  0  0
 16 17  1  0  0  0  0
 16 18  1  0  0  0  0
 16 19  1  0  0  0  0
 20 21  1  0  0  0  0
 20 22  1  0  0  0  0
 20 23  1  0  0  0  0
 24 25  2  0  0  0  0
 24 26  1  0  0  0  0
 26 27  1  0  0  0  0
 26 28  1  0  0  0  0
 28 29  1  0  0  0  0
 28 30  1  0  0  0  0
 28 31  1  0  0  0  0
M  END
$$$$

  -OEChem-01062216083D

 31 30  0     1  0  0  0  0  0999 V2000
   -3.8854   -2.7202    0.6318 H   0  0  0  0  0  0  0  0  0  0  0  0
   -3.6655   -1.7340    0.2125 C   0  0  0  0  0  0  0  0  0  0  0  0
   -4.3253   -0.9996    0.6804 H   0  0  0  0  0  0  0  0  0  0  0  0
   -3.8597   -1.7589   -0.8626 H   0  0  0  0  0  0  0  0  0  0  0  0
   -2.2147   -1.3682    0.4668 C   0  0  0  0  0  0  0  0  0  0  0  0
   -1.4973   -2.1999    0.9924 O   0  0  0  0  0  0  0  0  0  0  0  0
   -1.7740   -0.1265    0.0363 N   0  0  0  0  0  0  0  0  0  0  0  0
   -2.4768    0.4023   -0.4708 H   0  0  0  0  0  0  0  0  0  0  0  0
   -0.4388    0.5115    0.1513 C   0  0  1  0  0  0  0  0  0  0  0  0
   -0.6180    1.4885    0.6031 H   0  0  0  0  0  0  0  0  0  0  0  0
    0.6342   -0.1591    1.0457 C   0  0  0  0  0  0  0  0  0  0  0  0
    0.7962   -1.1830    0.6926 H   0  0  0  0  0  0  0  0  0  0  0  0
    1.5827    0.3703    0.9055 H   0  0  0  0  0  0  0  0  0  0  0  0
    0.3121   -0.1759    2.5609 C   0  0  0  0  0  0  0  0  0  0  0  0
   -0.6589   -0.6432    2.7404 H   0  0  0  0  0  0  0  0  0  0  0  0
    1.3835   -0.9984    3.2856 C   0  0  0  0  0  0  0  0  0  0  0  0
    2.3745   -0.5548    3.1462 H   0  0  0  0  0  0  0  0  0  0  0  0
    1.1700   -1.0454    4.3579 H   0  0  0  0  0  0  0  0  0  0  0  0
    1.4022   -2.0217    2.8973 H   0  0  0  0  0  0  0  0  0  0  0  0
    0.2813    1.2377    3.1613 C   0  0  0  0  0  0  0  0  0  0  0  0
   -0.5681    1.8075    2.7757 H   0  0  0  0  0  0  0  0  0  0  0  0
    0.1785    1.1846    4.2498 H   0  0  0  0  0  0  0  0  0  0  0  0
    1.2041    1.7780    2.9271 H   0  0  0  0  0  0  0  0  0  0  0  0
    0.1237    0.8209   -1.2536 C   0  0  0  0  0  0  0  0  0  0  0  0
    0.8036    0.0094   -1.8662 O   0  0  0  0  0  0  0  0  0  0  0  0
   -0.1477    2.0426   -1.8459 N   0  0  0  0  0  0  0  0  0  0  0  0
   -0.6724    2.7240   -1.3068 H   0  0  0  0  0  0  0  0  0  0  0  0
    0.3724    2.4296   -3.1525 C   0  0  0  0  0  0  0  0  0  0  0  0
    0.0391    1.7254   -3.9222 H   0  0  0  0  0  0  0  0  0  0  0  0
    0.0152    3.4284   -3.4213 H   0  0  0  0  0  0  0  0  0  0  0  0
    1.4674    2.4452   -3.1397 H   0  0  0  0  0  0  0  0  0  0  0  0
  1  2  1  0  0  0  0
  2  3  1  0  0  0  0
  2  4  1  0  0  0  0
  2  5  1  0  0  0  0
  5  6  2  0  0  0  0
  5  7  1  0  0  0  0
  7  8  1  0  0  0  0
  7  9  1  0  0  0  0
  9 10  1  0  0  0  0
  9 11  1  0  0  0  0
  9 24  1  0  0  0  0
 11 12  1  0  0  0  0
 11 13  1  0  0  0  0
 11 14  1  0  0  0  0
 14 15  1  0  0  0  0
 14 16  1  0  0  0  0
 14 20  1  0  0  0  0
 16 17  1  0  0  0  0
 16 18  1  0  0  0  0
 16 19  1  0  0  0  0
 20 21  1  0  0  0  0
 20 22  1  0  0  0  0
 20 23  1  0  0  0  0
 24 25  2  0  0  0  0
 24 26  1  0  0  0  0
 26 27  1  0  0  0  0
 26 28  1  0  0  0  0
 28 29  1  0  0  0  0
 28 30  1  0  0  0  0
 28 31  1  0  0  0  0
M  END
$$$$

  -OEChem-01062216083D

 31 30  0     1  0  0  0  0  0999 V2000
   -3.8889   -2.7235    0.5981 H   0  0  0  0  0  0  0  0  0  0  0  0
   -3.6673   -1.7359    0.1835 C   0  0  0  0  0  0  0  0  0  0  0  0
   -4.3445   -1.0066    0.6341 H   0  0  0  0  0  0  0  0  0  0  0  0
   -3.8347   -1.7633   -0.8959 H   0  0  0  0  0  0  0  0  0  0  0  0
   -2.2264   -1.3575    0.4738 C   0  0  0  0  0  0  0  0  0  0  0  0
   -1.5178   -2.1784    1.0283 O   0  0  0  0  0  0  0  0  0  0  0  0
   -1.7846   -0.1155    0.0460 N   0  0  0  0  0  0  0  0  0  0  0  0
   -2.4704    0.3941   -0.5026 H   0  0  0  0  0  0  0  0  0  0  0  0
   -0.4485    0.5193    0.1613 C   0  0  1  0  0  0  0  0  0  0  0  0
   -0.6335    1.4930    0.6179 H   0  0  0  0  0  0  0  0  0  0  0  0
    0.6315   -0.1490    1.0470 C   0  0  0  0  0  0  0  0  0  0  0  0
    0.7909   -1.1720    0.6902 H   0  0  0  0  0  0  0  0  0  0  0  0
    1.5782    0.3816    0.9010 H   0  0  0  0  0  0  0  0  0  0  0  0
    0.3207   -0.1713    2.5646 C   0  0  0  0  0  0  0  0  0  0  0  0
   -0.6474   -0.6412    2.7516 H   0  0  0  0  0  0  0  0  0  0  0  0
    1.4005   -0.9919    3.2790 C   0  0  0  0  0  0  0  0  0  0  0  0
    2.3884   -0.5433    3.1343 H   0  0  0  0  0  0  0  0  0  0  0  0
    1.1944   -1.0433    4.3525 H   0  0  0  0  0  0  0  0  0  0  0  0
    1.4212   -2.0138    2.8870 H   0  0  0  0  0  0  0  0  0  0  0  0
    0.2898    1.2406    3.1680 C   0  0  0  0  0  0  0  0  0  0  0  0
   -0.5676    1.8063    2.7940 H   0  0  0  0  0  0  0  0  0  0  0  0
    0.2008    1.1846    4.2575 H   0  0  0  0  0  0  0  0  0  0  0  0
    1.2065    1.7864    2.9235 H   0  0  0  0  0  0  0  0  0  0  0  0
    0.1202    0.8347   -1.2388 C   0  0  0  0  0  0  0  0  0  0  0  0
    0.5169   -0.0561   -1.9767 O   0  0  0  0  0  0  0  0  0  0  0  0
    0.1323    2.1391   -1.7022 N   0  0  0  0  0  0  0  0  0  0  0  0
   -0.1716    2.8700   -1.0666 H   0  0  0  0  0  0  0  0  0  0  0  0
    0.6658    2.5177   -3.0056 C   0  0  0  0  0  0  0  0  0  0  0  0
    0.1297    1.9972   -3.8062 H   0  0  0  0  0  0  0  0  0  0  0  0
    0.5554    3.5952   -3.1610 H   0  0  0  0  0  0  0  0  0  0  0  0
    1.7292    2.2649   -3.0721 H   0  0  0  0  0  0  0  0  0  0  0  0
  1  2  1  0  0  0  0
  2  3  1  0  0  0  0
  2  4  1  0  0  0  0
  2  5  1  0  0  0  0
  5  6  2  0  0  0  0
  5  7  1  0  0  0  0
  7  8  1  0  0  0  0
  7  9  1  0  0  0  0
  9 10  1  0  0  0  0
  9 11  1  0  0  0  0
  9 24  1  0  0  0  0
 11 12  1  0  0  0  0
 11 13  1  0  0  0  0
 11 14  1  0  0  0  0
 14 15  1  0  0  0  0
 14 16  1  0  0  0  0
 14 20  1  0  0  0  0
 16 17  1  0  0  0  0
 16 18  1  0  0  0  0
 16 19  1  0  0  0  0
 20 21  1  0  0  0  0
 20 22  1  0  0  0  0
 20 23  1  0  0  0  0
 24 25  2  0  0  0  0
 24 26  1  0  0  0  0
 26 27  1  0  0  0  0
 26 28  1  0  0  0  0
 28 29  1  0  0  0  0
 28 30  1  0  0  0  0
 28 31  1  0  0  0  0
M  END
$$$$

  -OEChem-01062216083D

 31 30  0     1  0  0  0  0  0999 V2000
   -3.8908   -2.7270    0.5694 H   0  0  0  0  0  0  0  0  0  0  0  0
   -3.6657   -1.7387    0.1583 C   0  0  0  0  0  0  0  0  0  0  0  0
   -4.3577   -1.0127    0.5915 H   0  0  0  0  0  0  0  0  0  0  0  0
   -3.8078   -1.7683   -0.9248 H   0  0  0  0  0  0  0  0  0  0  0  0
   -2.2343   -1.3498    0.4807 C   0  0  0  0  0  0  0  0  0  0  0  0
   -1.5344   -2.1623    1.0588 O   0  0  0  0  0  0  0  0  0  0  0  0
   -1.7895   -0.1087    0.0547 N   0  0  0  0  0  0  0  0  0  0  0  0
   -2.4540    0.3788   -0.5388 H   0  0  0  0  0  0  0  0  0  0  0  0
   -0.4501    0.5190    0.1671 C   0  0  1  0  0  0  0  0  0  0  0  0
   -0.6380    1.4923    0.6236 H   0  0  0  0  0  0  0  0  0  0  0  0
    0.6313   -0.1486    1.0502 C   0  0  0  0  0  0  0  0  0  0  0  0
    0.7852   -1.1731    0.6951 H   0  0  0  0  0  0  0  0  0  0  0  0
    1.5792    0.3789    0.8996 H   0  0  0  0  0  0  0  0  0  0  0  0
    0.3270   -0.1661    2.5695 C   0  0  0  0  0  0  0  0  0  0  0  0
   -0.6416   -0.6321    2.7631 H   0  0  0  0  0  0  0  0  0  0  0  0
    1.4078   -0.9870    3.2823 C   0  0  0  0  0  0  0  0  0  0  0  0
    2.3966   -0.5429    3.1310 H   0  0  0  0  0  0  0  0  0  0  0  0
    1.2069   -1.0327    4.3570 H   0  0  0  0  0  0  0  0  0  0  0  0
    1.4226   -2.0110    2.8952 H   0  0  0  0  0  0  0  0  0  0  0  0
    0.3032    1.2481    3.1689 C   0  0  0  0  0  0  0  0  0  0  0  0
   -0.5538    1.8153    2.7965 H   0  0  0  0  0  0  0  0  0  0  0  0
    0.2178    1.1956    4.2588 H   0  0  0  0  0  0  0  0  0  0  0  0
    1.2207    1.7903    2.9198 H   0  0  0  0  0  0  0  0  0  0  0  0
    0.1246    0.8401   -1.2291 C   0  0  0  0  0  0  0  0  0  0  0  0
    0.2137   -0.0261   -2.0882 O   0  0  0  0  0  0  0  0  0  0  0  0
    0.4357    2.1462   -1.5654 N   0  0  0  0  0  0  0  0  0  0  0  0
    0.3718    2.8497   -0.8360 H   0  0  0  0  0  0  0  0  0  0  0  0
    0.9696    2.5306   -2.8670 C   0  0  0  0  0  0  0  0  0  0  0  0
    0.2770    2.2457   -3.6661 H   0  0  0  0  0  0  0  0  0  0  0  0
    1.1177    3.6139   -2.9098 H   0  0  0  0  0  0  0  0  0  0  0  0
    1.9333    2.0418   -3.0451 H   0  0  0  0  0  0  0  0  0  0  0  0
  1  2  1  0  0  0  0
  2  3  1  0  0  0  0
  2  4  1  0  0  0  0
  2  5  1  0  0  0  0
  5  6  2  0  0  0  0
  5  7  1  0  0  0  0
  7  8  1  0  0  0  0
  7  9  1  0  0  0  0
  9 10  1  0  0  0  0
  9 11  1  0  0  0  0
  9 24  1  0  0  0  0
 11 12  1  0  0  0  0
 11 13  1  0  0  0  0
 11 14  1  0  0  0  0
 14 15  1  0  0  0  0
 14 16  1  0  0  0  0
 14 20  1  0  0  0  0
 16 17  1  0  0  0  0
 16 18  1  0  0  0  0
 16 19  1  0  0  0  0
 20 21  1  0  0  0  0
 20 22  1  0  0  0  0
 20 23  1  0  0  0  0
 24 25  2  0  0  0  0
 24 26  1  0  0  0  0
 26 27  1  0  0  0  0
 26 28  1  0  0  0  0
 28 29  1  0  0  0  0
 28 30  1  0  0  0  0
 28 31  1  0  0  0  0
M  END
$$$$

  -OEChem-01062216083D

 31 30  0     1  0  0  0  0  0999 V2000
   -3.8885   -2.7340    0.5381 H   0  0  0  0  0  0  0  0  0  0  0  0
   -3.6622   -1.7429    0.1344 C   0  0  0  0  0  0  0  0  0  0  0  0
   -4.3705   -1.0235    0.5520 H   0  0  0  0  0  0  0  0  0  0  0  0
   -3.7780   -1.7721   -0.9518 H   0  0  0  0  0  0  0  0  0  0  0  0
   -2.2424   -1.3420    0.4913 C   0  0  0  0  0  0  0  0  0  0  0  0
   -1.5510   -2.1473    1.0899 O   0  0  0  0  0  0  0  0  0  0  0  0
   -1.7930   -0.1026    0.0659 N   0  0  0  0  0  0  0  0  0  0  0  0
   -2.4326    0.3599   -0.5739 H   0  0  0  0  0  0  0  0  0  0  0  0
   -0.4486    0.5160    0.1725 C   0  0  1  0  0  0  0  0  0  0  0  0
   -0.6339    1.4916    0.6254 H   0  0  0  0  0  0  0  0  0  0  0  0
    0.6315   -0.1536    1.0563 C   0  0  0  0  0  0  0  0  0  0  0  0
    0.7761   -1.1814    0.7073 H   0  0  0  0  0  0  0  0  0  0  0  0
    1.5835    0.3648    0.9011 H   0  0  0  0  0  0  0  0  0  0  0  0
    0.3317   -0.1608    2.5764 C   0  0  0  0  0  0  0  0  0  0  0  0
   -0.6405   -0.6163    2.7774 H   0  0  0  0  0  0  0  0  0  0  0  0
    1.4098   -0.9847    3.2898 C   0  0  0  0  0  0  0  0  0  0  0  0
    2.4018   -0.5516    3.1271 H   0  0  0  0  0  0  0  0  0  0  0  0
    1.2160   -1.0176    4.3664 H   0  0  0  0  0  0  0  0  0  0  0  0
    1.4120   -2.0125    2.9130 H   0  0  0  0  0  0  0  0  0  0  0  0
    0.3224    1.2572    3.1667 C   0  0  0  0  0  0  0  0  0  0  0  0
   -0.5299    1.8306    2.7926 H   0  0  0  0  0  0  0  0  0  0  0  0
    0.2383    1.2129    4.2572 H   0  0  0  0  0  0  0  0  0  0  0  0
    1.2448    1.7885    2.9122 H   0  0  0  0  0  0  0  0  0  0  0  0
    0.1274    0.8404   -1.2230 C   0  0  0  0  0  0  0  0  0  0  0  0
   -0.0719    0.0979   -2.1756 O   0  0  0  0  0  0  0  0  0  0  0  0
    0.7321    2.0645   -1.4499 N   0  0  0  0  0  0  0  0  0  0  0  0
    0.8955    2.6652   -0.6474 H   0  0  0  0  0  0  0  0  0  0  0  0
    1.2684    2.4631   -2.7461 C   0  0  0  0  0  0  0  0  0  0  0  0
    0.4816    2.4509   -3.5078 H   0  0  0  0  0  0  0  0  0  0  0  0
    1.6781    3.4762   -2.6909 H   0  0  0  0  0  0  0  0  0  0  0  0
    2.0686    1.7821   -3.0545 H   0  0  0  0  0  0  0  0  0  0  0  0
  1  2  1  0  0  0  0
  2  3  1  0  0  0  0
  2  4  1  0  0  0  0
  2  5  1  0  0  0  0
  5  6  2  0  0  0  0
  5  7  1  0  0  0  0
  7  8  1  0  0  0  0
  7  9  1  0  0  0  0
  9 10  1  0  0  0  0
  9 11  1  0  0  0  0
  9 24  1  0  0  0  0
 11 12  1  0  0  0  0
 11 13  1  0  0  0  0
 11 14  1  0  0  0  0
 14 15  1  0  0  0  0
 14 16  1  0  0  0  0
 14 20  1  0  0  0  0
 16 17  1  0  0  0  0
 16 18  1  0  0  0  0
 16 19  1  0  0  0  0
 20 21  1  0  0  0  0
 20 22  1  0  0  0  0
 20 23  1  0  0  0  0
 24 25  2  0  0  0  0
 24 26  1  0  0  0  0
 26 27  1  0  0  0  0
 26 28  1  0  0  0  0
 28 29  1  0  0  0  0
 28 30  1  0  0  0  0
 28 31  1  0  0  0  0
M  END
$$$$

  -OEChem-01062216083D

 31 30  0     1  0  0  0  0  0999 V2000
   -3.8849   -2.7270    0.5407 H   0  0  0  0  0  0  0  0  0  0  0  0
   -3.6550   -1.7377    0.1348 C   0  0  0  0  0  0  0  0  0  0  0  0
   -4.3620   -1.0152    0.5496 H   0  0  0  0  0  0  0  0  0  0  0  0
   -3.7688   -1.7684   -0.9517 H   0  0  0  0  0  0  0  0  0  0  0  0
   -2.2350   -1.3401    0.4937 C   0  0  0  0  0  0  0  0  0  0  0  0
   -1.5434   -2.1496    1.0868 O   0  0  0  0  0  0  0  0  0  0  0  0
   -1.7825   -0.1016    0.0705 N   0  0  0  0  0  0  0  0  0  0  0  0
   -2.4094    0.3508   -0.5896 H   0  0  0  0  0  0  0  0  0  0  0  0
   -0.4375    0.5158    0.1745 C   0  0  1  0  0  0  0  0  0  0  0  0
   -0.6193    1.4940    0.6234 H   0  0  0  0  0  0  0  0  0  0  0  0
    0.6372   -0.1596    1.0625 C   0  0  0  0  0  0  0  0  0  0  0  0
    0.7780   -1.1885    0.7155 H   0  0  0  0  0  0  0  0  0  0  0  0
    1.5935    0.3520    0.9126 H   0  0  0  0  0  0  0  0  0  0  0  0
    0.3304   -0.1621    2.5814 C   0  0  0  0  0  0  0  0  0  0  0  0
   -0.6455   -0.6113    2.7780 H   0  0  0  0  0  0  0  0  0  0  0  0
    1.3999   -0.9911    3.3021 C   0  0  0  0  0  0  0  0  0  0  0  0
    2.3956   -0.5656    3.1421 H   0  0  0  0  0  0  0  0  0  0  0  0
    1.2017   -1.0189    4.3780 H   0  0  0  0  0  0  0  0  0  0  0  0
    1.3960   -2.0202    2.9285 H   0  0  0  0  0  0  0  0  0  0  0  0
    0.3271    1.2565    3.1701 C   0  0  0  0  0  0  0  0  0  0  0  0
   -0.5170    1.8366    2.7878 H   0  0  0  0  0  0  0  0  0  0  0  0
    0.2331    1.2134    4.2598 H   0  0  0  0  0  0  0  0  0  0  0  0
    1.2558    1.7804    2.9238 H   0  0  0  0  0  0  0  0  0  0  0  0
    0.1361    0.8423   -1.2229 C   0  0  0  0  0  0  0  0  0  0  0  0
   -0.2914    0.2847   -2.2264 O   0  0  0  0  0  0  0  0  0  0  0  0
    1.0031    1.9101   -1.3777 N   0  0  0  0  0  0  0  0  0  0  0  0
    1.3468    2.3624   -0.5359 H   0  0  0  0  0  0  0  0  0  0  0  0
    1.5472    2.3194   -2.6671 C   0  0  0  0  0  0  0  0  0  0  0  0
    0.7397    2.5692   -3.3635 H   0  0  0  0  0  0  0  0  0  0  0  0
    2.1827    3.2021   -2.5465 H   0  0  0  0  0  0  0  0  0  0  0  0
    2.1499    1.5142   -3.1002 H   0  0  0  0  0  0  0  0  0  0  0  0
  1  2  1  0  0  0  0
  2  3  1  0  0  0  0
  2  4  1  0  0  0  0
  2  5  1  0  0  0  0
  5  6  2  0  0  0  0
  5  7  1  0  0  0  0
  7  8  1  0  0  0  0
  7  9  1  0  0  0  0
  9 10  1  0  0  0  0
  9 11  1  0  0  0  0
  9 24  1  0  0  0  0
 11 12  1  0  0  0  0
 11 13  1  0  0  0  0
 11 14  1  0  0  0  0
 14 15  1  0  0  0  0
 14 16  1  0  0  0  0
 14 20  1  0  0  0  0
 16 17  1  0  0  0  0
 16 18  1  0  0  0  0
 16 19  1  0  0  0  0
 20 21  1  0  0  0  0
 20 22  1  0  0  0  0
 20 23  1  0  0  0  0
 24 25  2  0  0  0  0
 24 26  1  0  0  0  0
 26 27  1  0  0  0  0
 26 28  1  0  0  0  0
 28 29  1  0  0  0  0
 28 30  1  0  0  0  0
 28 31  1  0  0  0  0
M  END
$$$$

  -OEChem-01062216083D

 31 30  0     1  0  0  0  0  0999 V2000
   -3.8748   -2.7226    0.5160 H   0  0  0  0  0  0  0  0  0  0  0  0
   -3.6415   -1.7298    0.1211 C   0  0  0  0  0  0  0  0  0  0  0  0
   -4.3521   -1.0110    0.5357 H   0  0  0  0  0  0  0  0  0  0  0  0
   -3.7460   -1.7508   -0.9665 H   0  0  0  0  0  0  0  0  0  0  0  0
   -2.2249   -1.3346    0.4961 C   0  0  0  0  0  0  0  0  0  0  0  0
   -1.5372   -2.1488    1.0876 O   0  0  0  0  0  0  0  0  0  0  0  0
   -1.7666   -0.0961    0.0795 N   0  0  0  0  0  0  0  0  0  0  0  0
   -2.3810    0.3523   -0.5963 H   0  0  0  0  0  0  0  0  0  0  0  0
   -0.4213    0.5201    0.1858 C   0  0  1  0  0  0  0  0  0  0  0  0
   -0.5968    1.5004    0.6330 H   0  0  0  0  0  0  0  0  0  0  0  0
    0.6445   -0.1644    1.0803 C   0  0  0  0  0  0  0  0  0  0  0  0
    0.7808   -1.1935    0.7323 H   0  0  0  0  0  0  0  0  0  0  0  0
    1.6057    0.3396    0.9428 H   0  0  0  0  0  0  0  0  0  0  0  0
    0.3275   -0.1666    2.5973 C   0  0  0  0  0  0  0  0  0  0  0  0
   -0.6524   -0.6103    2.7874 H   0  0  0  0  0  0  0  0  0  0  0  0
    1.3870   -1.0037    3.3233 C   0  0  0  0  0  0  0  0  0  0  0  0
    2.3863   -0.5838    3.1713 H   0  0  0  0  0  0  0  0  0  0  0  0
    1.1812   -1.0333    4.3979 H   0  0  0  0  0  0  0  0  0  0  0  0
    1.3797   -2.0318    2.9473 H   0  0  0  0  0  0  0  0  0  0  0  0
    0.3289    1.2518    3.1877 C   0  0  0  0  0  0  0  0  0  0  0  0
   -0.5098    1.8368    2.8011 H   0  0  0  0  0  0  0  0  0  0  0  0
    0.2284    1.2089    4.2768 H   0  0  0  0  0  0  0  0  0  0  0  0
    1.2617    1.7711    2.9472 H   0  0  0  0  0  0  0  0  0  0  0  0
    0.1431    0.8475   -1.2173 C   0  0  0  0  0  0  0  0  0  0  0  0
   -0.4590    0.5066   -2.2294 O   0  0  0  0  0  0  0  0  0  0  0  0
    1.2292    1.6950   -1.3514 N   0  0  0  0  0  0  0  0  0  0  0  0
    1.7142    1.9743   -0.5039 H   0  0  0  0  0  0  0  0  0  0  0  0
    1.7776    2.0993   -2.6408 C   0  0  0  0  0  0  0  0  0  0  0  0
    1.0142    2.6041   -3.2423 H   0  0  0  0  0  0  0  0  0  0  0  0
    2.6137    2.7902   -2.4959 H   0  0  0  0  0  0  0  0  0  0  0  0
    2.1410    1.2262   -3.1929 H   0  0  0  0  0  0  0  0  0  0  0  0
  1  2  1  0  0  0  0
  2  3  1  0  0  0  0
  2  4  1  0  0  0  0
  2  5  1  0  0  0  0
  5  6  2  0  0  0  0
  5  7  1  0  0  0  0
  7  8  1  0  0  0  0
  7  9  1  0  0  0  0
  9 10  1  0  0  0  0
  9 11  1  0  0  0  0
  9 24  1  0  0  0  0
 11 12  1  0  0  0  0
 11 13  1  0  0  0  0
 11 14  1  0  0  0  0
 14 15  1  0  0  0  0
 14 16  1  0  0  0  0
 14 20  1  0  0  0  0
 16 17  1  0  0  0  0
 16 18  1  0  0  0  0
 16 19  1  0  0  0  0
 20 21  1  0  0  0  0
 20 22  1  0  0  0  0
 20 23  1  0  0  0  0
 24 25  2  0  0  0  0
 24 26  1  0  0  0  0
 26 27  1  0  0  0  0
 26 28  1  0  0  0  0
 28 29  1  0  0  0  0
 28 30  1  0  0  0  0
 28 31  1  0  0  0  0
M  END
$$$$

  -OEChem-01062216083D

 31 30  0     1  0  0  0  0  0999 V2000
   -3.9783   -2.6257    0.5780 H   0  0  0  0  0  0  0  0  0  0  0  0
   -3.7146   -1.6373    0.1914 C   0  0  0  0  0  0  0  0  0  0  0  0
   -4.3053   -0.8852    0.7195 H   0  0  0  0  0  0  0  0  0  0  0  0
   -3.9563   -1.5997   -0.8737 H   0  0  0  0  0  0  0  0  0  0  0  0
   -2.2345   -1.3716    0.3952 C   0  0  0  0  0  0  0  0  0  0  0  0
   -1.5281   -2.2940    0.7623 O   0  0  0  0  0  0  0  0  0  0  0  0
   -1.7384   -0.1370    0.0169 N   0  0  0  0  0  0  0  0  0  0  0  0
   -2.3976    0.4219   -0.5226 H   0  0  0  0  0  0  0  0  0  0  0  0
   -0.3872    0.4653    0.1248 C   0  0  1  0  0  0  0  0  0  0  0  0
   -0.5197    1.3094    0.8044 H   0  0  0  0  0  0  0  0  0  0  0  0
    0.7699   -0.3634    0.7486 C   0  0  0  0  0  0  0  0  0  0  0  0
    0.8538   -1.2972    0.1826 H   0  0  0  0  0  0  0  0  0  0  0  0
    1.7141    0.1718    0.6170 H   0  0  0  0  0  0  0  0  0  0  0  0
    0.6336   -0.6988    2.2580 C   0  0  0  0  0  0  0  0  0  0  0  0
   -0.3139   -1.1894    2.4803 H   0  0  0  0  0  0  0  0  0  0  0  0
    1.7755   -1.6402    2.6594 C   0  0  0  0  0  0  0  0  0  0  0  0
    2.7482   -1.1726    2.4774 H   0  0  0  0  0  0  0  0  0  0  0  0
    1.7053   -1.8958    3.7213 H   0  0  0  0  0  0  0  0  0  0  0  0
    1.7216   -2.5688    2.0821 H   0  0  0  0  0  0  0  0  0  0  0  0
    0.7152    0.5663    3.1259 C   0  0  0  0  0  0  0  0  0  0  0  0
   -0.1589    1.2039    2.9697 H   0  0  0  0  0  0  0  0  0  0  0  0
    0.7439    0.2969    4.1865 H   0  0  0  0  0  0  0  0  0  0  0  0
    1.6167    1.1410    2.8915 H   0  0  0  0  0  0  0  0  0  0  0  0
   -0.0024    1.1529   -1.2093 C   0  0  0  0  0  0  0  0  0  0  0  0
   -0.8354    1.2698   -2.1022 O   0  0  0  0  0  0  0  0  0  0  0  0
    1.2167    1.7906   -1.3634 N   0  0  0  0  0  0  0  0  0  0  0  0
    1.8958    1.6936   -0.6147 H   0  0  0  0  0  0  0  0  0  0  0  0
    1.6038    2.5023   -2.5760 C   0  0  0  0  0  0  0  0  0  0  0  0
    0.8968    3.3110   -2.7894 H   0  0  0  0  0  0  0  0  0  0  0  0
    2.6000    2.9389   -2.4564 H   0  0  0  0  0  0  0  0  0  0  0  0
    1.6256    1.8181   -3.4308 H   0  0  0  0  0  0  0  0  0  0  0  0
  1  2  1  0  0  0  0
  2  3  1  0  0  0  0
  2  4  1  0  0  0  0
  2  5  1  0  0  0  0
  5  6  2  0  0  0  0
  5  7  1  0  0  0  0
  7  8  1  0  0  0  0
  7  9  1  0  0  0  0
  9 10  1  0  0  0  0
  9 11  1  0  0  0  0
  9 24  1  0  0  0  0
 11 12  1  0  0  0  0
 11 13  1  0  0  0  0
 11 14  1  0  0  0  0
 14 15  1  0  0  0  0
 14 16  1  0  0  0  0
 14 20  1  0  0  0  0
 16 17  1  0  0  0  0
 16 18  1  0  0  0  0
 16 19  1  0  0  0  0
 20 21  1  0  0  0  0
 20 22  1  0  0  0  0
 20 23  1  0  0  0  0
 24 25  2  0  0  0  0
 24 26  1  0  0  0  0
 26 27  1  0  0  0  0
 26 28  1  0  0  0  0
 28 29  1  0  0  0  0
 28 30  1  0  0  0  0
 28 31  1  0  0  0  0
M  END
$$$$

  -OEChem-01062216083D

 31 30  0     1  0  0  0  0  0999 V2000
   -3.9557   -2.6275    0.5482 H   0  0  0  0  0  0  0  0  0  0  0  0
   -3.6962   -1.6245    0.1976 C   0  0  0  0  0  0  0  0  0  0  0  0
   -4.2693   -0.8928    0.7719 H   0  0  0  0  0  0  0  0  0  0  0  0
   -3.9643   -1.5401   -0.8585 H   0  0  0  0  0  0  0  0  0  0  0  0
   -2.2102   -1.3735    0.3754 C   0  0  0  0  0  0  0  0  0  0  0  0
   -1.5016   -2.3059    0.7126 O   0  0  0  0  0  0  0  0  0  0  0  0
   -1.7112   -0.1372    0.0080 N   0  0  0  0  0  0  0  0  0  0  0  0
   -2.3804    0.4485   -0.4894 H   0  0  0  0  0  0  0  0  0  0  0  0
   -0.3621    0.4650    0.1319 C   0  0  1  0  0  0  0  0  0  0  0  0
   -0.4963    1.3090    0.8111 H   0  0  0  0  0  0  0  0  0  0  0  0
    0.7853   -0.3702    0.7664 C   0  0  0  0  0  0  0  0  0  0  0  0
    0.8801   -1.3006    0.1964 H   0  0  0  0  0  0  0  0  0  0  0  0
    1.7310    0.1676    0.6585 H   0  0  0  0  0  0  0  0  0  0  0  0
    0.6244   -0.7093    2.2724 C   0  0  0  0  0  0  0  0  0  0  0  0
   -0.3271   -1.2011    2.4744 H   0  0  0  0  0  0  0  0  0  0  0  0
    1.7562   -1.6556    2.6899 C   0  0  0  0  0  0  0  0  0  0  0  0
    2.7336   -1.1898    2.5289 H   0  0  0  0  0  0  0  0  0  0  0  0
    1.6652   -1.9166    3.7488 H   0  0  0  0  0  0  0  0  0  0  0  0
    1.7101   -2.5811    2.1068 H   0  0  0  0  0  0  0  0  0  0  0  0
    0.6902    0.5514    3.1477 C   0  0  0  0  0  0  0  0  0  0  0  0
   -0.1830    1.1879    2.9815 H   0  0  0  0  0  0  0  0  0  0  0  0
    0.7031    0.2766    4.2072 H   0  0  0  0  0  0  0  0  0  0  0  0
    1.5937    1.1293    2.9297 H   0  0  0  0  0  0  0  0  0  0  0  0
    0.0187    1.1543   -1.2034 C   0  0  0  0  0  0  0  0  0  0  0  0
   -0.8664    1.4751   -1.9904 O   0  0  0  0  0  0  0  0  0  0  0  0
    1.3190    1.5326   -1.4913 N   0  0  0  0  0  0  0  0  0  0  0  0
    2.0455    1.2476   -0.8418 H   0  0  0  0  0  0  0  0  0  0  0  0
    1.7052    2.2060   -2.7258 C   0  0  0  0  0  0  0  0  0  0  0  0
    1.1866    3.1661   -2.8183 H   0  0  0  0  0  0  0  0  0  0  0  0
    2.7830    2.3946   -2.7325 H   0  0  0  0  0  0  0  0  0  0  0  0
    1.4568    1.5860   -3.5936 H   0  0  0  0  0  0  0  0  0  0  0  0
  1  2  1  0  0  0  0
  2  3  1  0  0  0  0
  2  4  1  0  0  0  0
  2  5  1  0  0  0  0
  5  6  2  0  0  0  0
  5  7  1  0  0  0  0
  7  8  1  0  0  0  0
  7  9  1  0  0  0  0
  9 10  1  0  0  0  0
  9 11  1  0  0  0  0
  9 24  1  0  0  0  0
 11 12  1  0  0  0  0
 11 13  1  0  0  0  0
 11 14  1  0  0  0  0
 14 15  1  0  0  0  0
 14 16  1  0  0  0  0
 14 20  1  0  0  0  0
 16 17  1  0  0  0  0
 16 18  1  0  0  0  0
 16 19  1  0  0  0  0
 20 21  1  0  0  0  0
 20 22  1  0  0  0  0
 20 23  1  0  0  0  0
 24 25  2  0  0  0  0
 24 26  1  0  0  0  0
 26 27  1  0  0  0  0
 26 28  1  0  0  0  0
 28 29  1  0  0  0  0
 28 30  1  0  0  0  0
 28 31  1  0  0  0  0
M  END
$$$$

  -OEChem-01062216083D

 31 30  0     1  0  0  0  0  0999 V2000
   -3.9459   -2.6108    0.5658 H   0  0  0  0  0  0  0  0  0  0  0  0
   -3.6843   -1.6136    0.2007 C   0  0  0  0  0  0  0  0  0  0  0  0
   -4.2470   -0.8719    0.7724 H   0  0  0  0  0  0  0  0  0  0  0  0
   -3.9627   -1.5396   -0.8534 H   0  0  0  0  0  0  0  0  0  0  0  0
   -2.1948   -1.3706    0.3596 C   0  0  0  0  0  0  0  0  0  0  0  0
   -1.4834   -2.3096    0.6722 O   0  0  0  0  0  0  0  0  0  0  0  0
   -1.6936   -0.1334   -0.0014 N   0  0  0  0  0  0  0  0  0  0  0  0
   -2.3716    0.4749   -0.4581 H   0  0  0  0  0  0  0  0  0  0  0  0
   -0.3453    0.4655    0.1384 C   0  0  1  0  0  0  0  0  0  0  0  0
   -0.4812    1.3103    0.8166 H   0  0  0  0  0  0  0  0  0  0  0  0
    0.7951   -0.3725    0.7803 C   0  0  0  0  0  0  0  0  0  0  0  0
    0.8998   -1.2998    0.2073 H   0  0  0  0  0  0  0  0  0  0  0  0
    1.7388    0.1725    0.6876 H   0  0  0  0  0  0  0  0  0  0  0  0
    0.6171   -0.7168    2.2830 C   0  0  0  0  0  0  0  0  0  0  0  0
   -0.3376   -1.2093    2.4709 H   0  0  0  0  0  0  0  0  0  0  0  0
    1.7438   -1.6653    2.7089 C   0  0  0  0  0  0  0  0  0  0  0  0
    2.7229   -1.2008    2.5551 H   0  0  0  0  0  0  0  0  0  0  0  0
    1.6448   -1.9266    3.7671 H   0  0  0  0  0  0  0  0  0  0  0  0
    1.7006   -2.5900    2.1247 H   0  0  0  0  0  0  0  0  0  0  0  0
    0.6745    0.5396    3.1649 C   0  0  0  0  0  0  0  0  0  0  0  0
   -0.1954    1.1788    2.9913 H   0  0  0  0  0  0  0  0  0  0  0  0
    0.6744    0.2601    4.2233 H   0  0  0  0  0  0  0  0  0  0  0  0
    1.5817    1.1166    2.9602 H   0  0  0  0  0  0  0  0  0  0  0  0
    0.0370    1.1519   -1.1961 C   0  0  0  0  0  0  0  0  0  0  0  0
   -0.8458    1.6717   -1.8710 O   0  0  0  0  0  0  0  0  0  0  0  0
    1.3481    1.2619   -1.6265 N   0  0  0  0  0  0  0  0  0  0  0  0
    2.0581    0.7726   -1.0902 H   0  0  0  0  0  0  0  0  0  0  0  0
    1.7283    1.8904   -2.8859 C   0  0  0  0  0  0  0  0  0  0  0  0
    1.3942    2.9330   -2.9105 H   0  0  0  0  0  0  0  0  0  0  0  0
    2.8160    1.8746   -3.0028 H   0  0  0  0  0  0  0  0  0  0  0  0
    1.2809    1.3566   -3.7309 H   0  0  0  0  0  0  0  0  0  0  0  0
  1  2  1  0  0  0  0
  2  3  1  0  0  0  0
  2  4  1  0  0  0  0
  2  5  1  0  0  0  0
  5  6  2  0  0  0  0
  5  7  1  0  0  0  0
  7  8  1  0  0  0  0
  7  9  1  0  0  0  0
  9 10  1  0  0  0  0
  9 11  1  0  0  0  0
  9 24  1  0  0  0  0
 11 12  1  0  0  0  0
 11 13  1  0  0  0  0
 11 14  1  0  0  0  0
 14 15  1  0  0  0  0
 14 16  1  0  0  0  0
 14 20  1  0  0  0  0
 16 17  1  0  0  0  0
 16 18  1  0  0  0  0
 16 19  1  0  0  0  0
 20 21  1  0  0  0  0
 20 22  1  0  0  0  0
 20 23  1  0  0  0  0
 24 25  2  0  0  0  0
 24 26  1  0  0  0  0
 26 27  1  0  0  0  0
 26 28  1  0  0  0  0
 28 29  1  0  0  0  0
 28 30  1  0  0  0  0
 28 31  1  0  0  0  0
M  END
$$$$

  -OEChem-01062216083D

 31 30  0     1  0  0  0  0  0999 V2000
   -3.9361   -2.6007    0.5916 H   0  0  0  0  0  0  0  0  0  0  0  0
   -3.6783   -1.6039    0.2227 C   0  0  0  0  0  0  0  0  0  0  0  0
   -4.2209   -0.8606    0.8117 H   0  0  0  0  0  0  0  0  0  0  0  0
   -3.9851   -1.5246   -0.8231 H   0  0  0  0  0  0  0  0  0  0  0  0
   -2.1836   -1.3704    0.3422 C   0  0  0  0  0  0  0  0  0  0  0  0
   -1.4662   -2.3148    0.6235 O   0  0  0  0  0  0  0  0  0  0  0  0
   -1.6838   -0.1325   -0.0175 N   0  0  0  0  0  0  0  0  0  0  0  0
   -2.3753    0.4985   -0.4191 H   0  0  0  0  0  0  0  0  0  0  0  0
   -0.3371    0.4646    0.1364 C   0  0  1  0  0  0  0  0  0  0  0  0
   -0.4773    1.3092    0.8143 H   0  0  0  0  0  0  0  0  0  0  0  0
    0.8012   -0.3713    0.7831 C   0  0  0  0  0  0  0  0  0  0  0  0
    0.9145   -1.2969    0.2091 H   0  0  0  0  0  0  0  0  0  0  0  0
    1.7419    0.1813    0.6955 H   0  0  0  0  0  0  0  0  0  0  0  0
    0.6123   -0.7208    2.2827 C   0  0  0  0  0  0  0  0  0  0  0  0
   -0.3418   -1.2199    2.4573 H   0  0  0  0  0  0  0  0  0  0  0  0
    1.7386   -1.6667    2.7154 C   0  0  0  0  0  0  0  0  0  0  0  0
    2.7172   -1.1967    2.5750 H   0  0  0  0  0  0  0  0  0  0  0  0
    1.6290   -1.9338    3.7711 H   0  0  0  0  0  0  0  0  0  0  0  0
    1.7064   -2.5885    2.1260 H   0  0  0  0  0  0  0  0  0  0  0  0
    0.6540    0.5326    3.1698 C   0  0  0  0  0  0  0  0  0  0  0  0
   -0.2176    1.1676    2.9902 H   0  0  0  0  0  0  0  0  0  0  0  0
    0.6453    0.2491    4.2269 H   0  0  0  0  0  0  0  0  0  0  0  0
    1.5599    1.1154    2.9757 H   0  0  0  0  0  0  0  0  0  0  0  0
    0.0560    1.1464   -1.1942 C   0  0  0  0  0  0  0  0  0  0  0  0
   -0.7729    1.8467   -1.7650 O   0  0  0  0  0  0  0  0  0  0  0  0
    1.3089    0.9964   -1.7626 N   0  0  0  0  0  0  0  0  0  0  0  0
    1.9404    0.3322   -1.3248 H   0  0  0  0  0  0  0  0  0  0  0  0
    1.6791    1.5748   -3.0485 C   0  0  0  0  0  0  0  0  0  0  0  0
    1.5619    2.6635   -3.0275 H   0  0  0  0  0  0  0  0  0  0  0  0
    2.7239    1.3456   -3.2793 H   0  0  0  0  0  0  0  0  0  0  0  0
    1.0497    1.1676   -3.8468 H   0  0  0  0  0  0  0  0  0  0  0  0
  1  2  1  0  0  0  0
  2  3  1  0  0  0  0
  2  4  1  0  0  0  0
  2  5  1  0  0  0  0
  5  6  2  0  0  0  0
  5  7  1  0  0  0  0
  7  8  1  0  0  0  0
  7  9  1  0  0  0  0
  9 10  1  0  0  0  0
  9 11  1  0  0  0  0
  9 24  1  0  0  0  0
 11 12  1  0  0  0  0
 11 13  1  0  0  0  0
 11 14  1  0  0  0  0
 14 15  1  0  0  0  0
 14 16  1  0  0  0  0
 14 20  1  0  0  0  0
 16 17  1  0  0  0  0
 16 18  1  0  0  0  0
 16 19  1  0  0  0  0
 20 21  1  0  0  0  0
 20 22  1  0  0  0  0
 20 23  1  0  0  0  0
 24 25  2  0  0  0  0
 24 26  1  0  0  0  0
 26 27  1  0  0  0  0
 26 28  1  0  0  0  0
 28 29  1  0  0  0  0
 28 30  1  0  0  0  0
 28 31  1  0  0  0  0
M  END
$$$$

  -OEChem-01062216083D

 31 30  0     1  0  0  0  0  0999 V2000
   -3.9259   -2.5971    0.6217 H   0  0  0  0  0  0  0  0  0  0  0  0
   -3.6754   -1.5993    0.2506 C   0  0  0  0  0  0  0  0  0  0  0  0
   -4.2006   -0.8579    0.8574 H   0  0  0  0  0  0  0  0  0  0  0  0
   -4.0094   -1.5147   -0.7864 H   0  0  0  0  0  0  0  0  0  0  0  0
   -2.1774   -1.3695    0.3315 C   0  0  0  0  0  0  0  0  0  0  0  0
   -1.4535   -2.3170    0.5853 O   0  0  0  0  0  0  0  0  0  0  0  0
   -1.6817   -0.1316   -0.0339 N   0  0  0  0  0  0  0  0  0  0  0  0
   -2.3856    0.5133   -0.3882 H   0  0  0  0  0  0  0  0  0  0  0  0
   -0.3366    0.4654    0.1301 C   0  0  1  0  0  0  0  0  0  0  0  0
   -0.4817    1.3107    0.8067 H   0  0  0  0  0  0  0  0  0  0  0  0
    0.8010   -0.3675    0.7795 C   0  0  0  0  0  0  0  0  0  0  0  0
    0.9198   -1.2925    0.2059 H   0  0  0  0  0  0  0  0  0  0  0  0
    1.7387    0.1910    0.6915 H   0  0  0  0  0  0  0  0  0  0  0  0
    0.6076   -0.7223    2.2766 C   0  0  0  0  0  0  0  0  0  0  0  0
   -0.3448   -1.2272    2.4437 H   0  0  0  0  0  0  0  0  0  0  0  0
    1.7360   -1.6654    2.7115 C   0  0  0  0  0  0  0  0  0  0  0  0
    2.7134   -1.1903    2.5800 H   0  0  0  0  0  0  0  0  0  0  0  0
    1.6211   -1.9389    3.7650 H   0  0  0  0  0  0  0  0  0  0  0  0
    1.7121   -2.5846    2.1173 H   0  0  0  0  0  0  0  0  0  0  0  0
    0.6386    0.5290    3.1674 C   0  0  0  0  0  0  0  0  0  0  0  0
   -0.2364    1.1589    2.9858 H   0  0  0  0  0  0  0  0  0  0  0  0
    0.6278    0.2428    4.2238 H   0  0  0  0  0  0  0  0  0  0  0  0
    1.5413    1.1184    2.9786 H   0  0  0  0  0  0  0  0  0  0  0  0
    0.0724    1.1387   -1.1972 C   0  0  0  0  0  0  0  0  0  0  0  0
   -0.6548    2.0058   -1.6671 O   0  0  0  0  0  0  0  0  0  0  0  0
    1.2008    0.7511   -1.8980 N   0  0  0  0  0  0  0  0  0  0  0  0
    1.7092   -0.0549   -1.5454 H   0  0  0  0  0  0  0  0  0  0  0  0
    1.5534    1.2877   -3.2067 C   0  0  0  0  0  0  0  0  0  0  0  0
    1.6676    2.3757   -3.1570 H   0  0  0  0  0  0  0  0  0  0  0  0
    2.4996    0.8580   -3.5490 H   0  0  0  0  0  0  0  0  0  0  0  0
    0.7771    1.0474   -3.9405 H   0  0  0  0  0  0  0  0  0  0  0  0
  1  2  1  0  0  0  0
  2  3  1  0  0  0  0
  2  4  1  0  0  0  0
  2  5  1  0  0  0  0
  5  6  2  0  0  0  0
  5  7  1  0  0  0  0
  7  8  1  0  0  0  0
  7  9  1  0  0  0  0
  9 10  1  0  0  0  0
  9 11  1  0  0  0  0
  9 24  1  0  0  0  0
 11 12  1  0  0  0  0
 11 13  1  0  0  0  0
 11 14  1  0  0  0  0
 14 15  1  0  0  0  0
 14 16  1  0  0  0  0
 14 20  1  0  0  0  0
 16 17  1  0  0  0  0
 16 18  1  0  0  0  0
 16 19  1  0  0  0  0
 20 21  1  0  0  0  0
 20 22  1  0  0  0  0
 20 23  1  0  0  0  0
 24 25  2  0  0  0  0
 24 26  1  0  0  0  0
 26 27  1  0  0  0  0
 26 28  1  0  0  0  0
 28 29  1  0  0  0  0
 28 30  1  0  0  0  0
 28 31  1  0  0  0  0
M  END
$$$$

  -OEChem-01062216083D

 31 30  0     1  0  0  0  0  0999 V2000
   -3.9078   -2.5969    0.6688 H   0  0  0  0  0  0  0  0  0  0  0  0
   -3.6706   -1.5963    0.2963 C   0  0  0  0  0  0  0  0  0  0  0  0
   -4.1711   -0.8596    0.9292 H   0  0  0  0  0  0  0  0  0  0  0  0
   -4.0444   -1.5031   -0.7262 H   0  0  0  0  0  0  0  0  0  0  0  0
   -2.1704   -1.3698    0.3218 C   0  0  0  0  0  0  0  0  0  0  0  0
   -1.4385   -2.3207    0.5367 O   0  0  0  0  0  0  0  0  0  0  0  0
   -1.6827   -0.1321   -0.0544 N   0  0  0  0  0  0  0  0  0  0  0  0
   -2.4002    0.5246   -0.3543 H   0  0  0  0  0  0  0  0  0  0  0  0
   -0.3397    0.4669    0.1176 C   0  0  1  0  0  0  0  0  0  0  0  0
   -0.4885    1.3132    0.7927 H   0  0  0  0  0  0  0  0  0  0  0  0
    0.7980   -0.3635    0.7685 C   0  0  0  0  0  0  0  0  0  0  0  0
    0.9228   -1.2873    0.1946 H   0  0  0  0  0  0  0  0  0  0  0  0
    1.7336    0.1992    0.6790 H   0  0  0  0  0  0  0  0  0  0  0  0
    0.5998   -0.7233    2.2637 C   0  0  0  0  0  0  0  0  0  0  0  0
   -0.3509   -1.2342    2.4235 H   0  0  0  0  0  0  0  0  0  0  0  0
    1.7293   -1.6632    2.7008 C   0  0  0  0  0  0  0  0  0  0  0  0
    2.7049   -1.1820    2.5791 H   0  0  0  0  0  0  0  0  0  0  0  0
    1.6082   -1.9437    3.7518 H   0  0  0  0  0  0  0  0  0  0  0  0
    1.7141   -2.5787    2.1007 H   0  0  0  0  0  0  0  0  0  0  0  0
    0.6201    0.5254    3.1580 C   0  0  0  0  0  0  0  0  0  0  0  0
   -0.2591    1.1494    2.9764 H   0  0  0  0  0  0  0  0  0  0  0  0
    0.6098    0.2364    4.2137 H   0  0  0  0  0  0  0  0  0  0  0  0
    1.5191    1.1217    2.9719 H   0  0  0  0  0  0  0  0  0  0  0  0
    0.0858    1.1288   -1.2076 C   0  0  0  0  0  0  0  0  0  0  0  0
   -0.4881    2.1462   -1.5756 O   0  0  0  0  0  0  0  0  0  0  0  0
    1.0287    0.5427   -2.0327 N   0  0  0  0  0  0  0  0  0  0  0  0
    1.3705   -0.3748   -1.7597 H   0  0  0  0  0  0  0  0  0  0  0  0
    1.3621    1.0528   -3.3565 C   0  0  0  0  0  0  0  0  0  0  0  0
    1.7105    2.0890   -3.2920 H   0  0  0  0  0  0  0  0  0  0  0  0
    2.1580    0.4499   -3.8041 H   0  0  0  0  0  0  0  0  0  0  0  0
    0.4868    1.0150   -4.0133 H   0  0  0  0  0  0  0  0  0  0  0  0
  1  2  1  0  0  0  0
  2  3  1  0  0  0  0
  2  4  1  0  0  0  0
  2  5  1  0  0  0  0
  5  6  2  0  0  0  0
  5  7  1  0  0  0  0
  7  8  1  0  0  0  0
  7  9  1  0  0  0  0
  9 10  1  0  0  0  0
  9 11  1  0  0  0  0
  9 24  1  0  0  0  0
 11 12  1  0  0  0  0
 11 13  1  0  0  0  0
 11 14  1  0  0  0  0
 14 15  1  0  0  0  0
 14 16  1  0  0  0  0
 14 20  1  0  0  0  0
 16 17  1  0  0  0  0
 16 18  1  0  0  0  0
 16 19  1  0  0  0  0
 20 21  1  0  0  0  0
 20 22  1  0  0  0  0
 20 23  1  0  0  0  0
 24 25  2  0  0  0  0
 24 26  1  0  0  0  0
 26 27  1  0  0  0  0
 26 28  1  0  0  0  0
 28 29  1  0  0  0  0
 28 30  1  0  0  0  0
 28 31  1  0  0  0  0
M  END
$$$$

  -OEChem-01062216083D

 31 30  0     1  0  0  0  0  0999 V2000
   -3.8941   -2.6100    0.6993 H   0  0  0  0  0  0  0  0  0  0  0  0
   -3.6707   -1.5961    0.3550 C   0  0  0  0  0  0  0  0  0  0  0  0
   -4.1357   -0.8831    1.0400 H   0  0  0  0  0  0  0  0  0  0  0  0
   -4.0941   -1.4618   -0.6434 H   0  0  0  0  0  0  0  0  0  0  0  0
   -2.1700   -1.3748    0.3161 C   0  0  0  0  0  0  0  0  0  0  0  0
   -1.4306   -2.3279    0.4915 O   0  0  0  0  0  0  0  0  0  0  0  0
   -1.6921   -0.1381   -0.0753 N   0  0  0  0  0  0  0  0  0  0  0  0
   -2.4223    0.5258   -0.3225 H   0  0  0  0  0  0  0  0  0  0  0  0
   -0.3511    0.4655    0.1011 C   0  0  1  0  0  0  0  0  0  0  0  0
   -0.5041    1.3132    0.7734 H   0  0  0  0  0  0  0  0  0  0  0  0
    0.7903   -0.3590    0.7513 C   0  0  0  0  0  0  0  0  0  0  0  0
    0.9233   -1.2808    0.1760 H   0  0  0  0  0  0  0  0  0  0  0  0
    1.7220    0.2102    0.6624 H   0  0  0  0  0  0  0  0  0  0  0  0
    0.5915   -0.7229    2.2453 C   0  0  0  0  0  0  0  0  0  0  0  0
   -0.3558   -1.2415    2.4009 H   0  0  0  0  0  0  0  0  0  0  0  0
    1.7262   -1.6566    2.6821 C   0  0  0  0  0  0  0  0  0  0  0  0
    2.6985   -1.1683    2.5621 H   0  0  0  0  0  0  0  0  0  0  0  0
    1.6061   -1.9395    3.7325 H   0  0  0  0  0  0  0  0  0  0  0  0
    1.7181   -2.5709    2.0802 H   0  0  0  0  0  0  0  0  0  0  0  0
    0.5999    0.5226    3.1436 C   0  0  0  0  0  0  0  0  0  0  0  0
   -0.2787    1.1456    2.9557 H   0  0  0  0  0  0  0  0  0  0  0  0
    0.5801    0.2294    4.1981 H   0  0  0  0  0  0  0  0  0  0  0  0
    1.4994    1.1209    2.9678 H   0  0  0  0  0  0  0  0  0  0  0  0
    0.0900    1.1135   -1.2242 C   0  0  0  0  0  0  0  0  0  0  0  0
   -0.2728    2.2519   -1.4900 O   0  0  0  0  0  0  0  0  0  0  0  0
    0.7967    0.3838   -2.1623 N   0  0  0  0  0  0  0  0  0  0  0  0
    0.9525   -0.5995   -1.9553 H   0  0  0  0  0  0  0  0  0  0  0  0
    1.1232    0.8866   -3.4906 C   0  0  0  0  0  0  0  0  0  0  0  0
    1.6993    1.8151   -3.4189 H   0  0  0  0  0  0  0  0  0  0  0  0
    1.7227    0.1511   -4.0355 H   0  0  0  0  0  0  0  0  0  0  0  0
    0.2092    1.0817   -4.0610 H   0  0  0  0  0  0  0  0  0  0  0  0
  1  2  1  0  0  0  0
  2  3  1  0  0  0  0
  2  4  1  0  0  0  0
  2  5  1  0  0  0  0
  5  6  2  0  0  0  0
  5  7  1  0  0  0  0
  7  8  1  0  0  0  0
  7  9  1  0  0  0  0
  9 10  1  0  0  0  0
  9 11  1  0  0  0  0
  9 24  1  0  0  0  0
 11 12  1  0  0  0  0
 11 13  1  0  0  0  0
 11 14  1  0  0  0  0
 14 15  1  0  0  0  0
 14 16  1  0  0  0  0
 14 20  1  0  0  0  0
 16 17  1  0  0  0  0
 16 18  1  0  0  0  0
 16 19  1  0  0  0  0
 20 21  1  0  0  0  0
 20 22  1  0  0  0  0
 20 23  1  0  0  0  0
 24 25  2  0  0  0  0
 24 26  1  0  0  0  0
 26 27  1  0  0  0  0
 26 28  1  0  0  0  0
 28 29  1  0  0  0  0
 28 30  1  0  0  0  0
 28 31  1  0  0  0  0
M  END
$$$$

  -OEChem-01062216083D

 31 30  0     1  0  0  0  0  0999 V2000
   -3.8802   -2.6158    0.7820 H   0  0  0  0  0  0  0  0  0  0  0  0
   -3.6733   -1.6026    0.4256 C   0  0  0  0  0  0  0  0  0  0  0  0
   -4.1077   -0.8889    1.1299 H   0  0  0  0  0  0  0  0  0  0  0  0
   -4.1410   -1.4711   -0.5532 H   0  0  0  0  0  0  0  0  0  0  0  0
   -2.1761   -1.3810    0.3199 C   0  0  0  0  0  0  0  0  0  0  0  0
   -1.4288   -2.3347    0.4530 O   0  0  0  0  0  0  0  0  0  0  0  0
   -1.7128   -0.1446   -0.0891 N   0  0  0  0  0  0  0  0  0  0  0  0
   -2.4548    0.5192   -0.2976 H   0  0  0  0  0  0  0  0  0  0  0  0
   -0.3749    0.4682    0.0862 C   0  0  1  0  0  0  0  0  0  0  0  0
   -0.5315    1.3173    0.7564 H   0  0  0  0  0  0  0  0  0  0  0  0
    0.7732   -0.3511    0.7286 C   0  0  0  0  0  0  0  0  0  0  0  0
    0.9126   -1.2680    0.1472 H   0  0  0  0  0  0  0  0  0  0  0  0
    1.7005    0.2253    0.6394 H   0  0  0  0  0  0  0  0  0  0  0  0
    0.5815   -0.7238    2.2209 C   0  0  0  0  0  0  0  0  0  0  0  0
   -0.3613   -1.2508    2.3768 H   0  0  0  0  0  0  0  0  0  0  0  0
    1.7240   -1.6518    2.6497 C   0  0  0  0  0  0  0  0  0  0  0  0
    2.6925   -1.1553    2.5318 H   0  0  0  0  0  0  0  0  0  0  0  0
    1.6073   -1.9426    3.6983 H   0  0  0  0  0  0  0  0  0  0  0  0
    1.7222   -2.5622    2.0418 H   0  0  0  0  0  0  0  0  0  0  0  0
    0.5831    0.5188    3.1228 C   0  0  0  0  0  0  0  0  0  0  0  0
   -0.3018    1.1346    2.9406 H   0  0  0  0  0  0  0  0  0  0  0  0
    0.5706    0.2228    4.1764 H   0  0  0  0  0  0  0  0  0  0  0  0
    1.4763    1.1257    2.9442 H   0  0  0  0  0  0  0  0  0  0  0  0
    0.0744    1.1032   -1.2410 C   0  0  0  0  0  0  0  0  0  0  0  0
   -0.0233    2.3114   -1.4080 O   0  0  0  0  0  0  0  0  0  0  0  0
    0.5078    0.2978   -2.2770 N   0  0  0  0  0  0  0  0  0  0  0  0
    0.4739   -0.7071   -2.1219 H   0  0  0  0  0  0  0  0  0  0  0  0
    0.8619    0.8025   -3.5972 C   0  0  0  0  0  0  0  0  0  0  0  0
    1.6581    1.5505   -3.5208 H   0  0  0  0  0  0  0  0  0  0  0  0
    1.2177   -0.0158   -4.2306 H   0  0  0  0  0  0  0  0  0  0  0  0
   -0.0085    1.2610   -4.0779 H   0  0  0  0  0  0  0  0  0  0  0  0
  1  2  1  0  0  0  0
  2  3  1  0  0  0  0
  2  4  1  0  0  0  0
  2  5  1  0  0  0  0
  5  6  2  0  0  0  0
  5  7  1  0  0  0  0
  7  8  1  0  0  0  0
  7  9  1  0  0  0  0
  9 10  1  0  0  0  0
  9 11  1  0  0  0  0
  9 24  1  0  0  0  0
 11 12  1  0  0  0  0
 11 13  1  0  0  0  0
 11 14  1  0  0  0  0
 14 15  1  0  0  0  0
 14 16  1  0  0  0  0
 14 20  1  0  0  0  0
 16 17  1  0  0  0  0
 16 18  1  0  0  0  0
 16 19  1  0  0  0  0
 20 21  1  0  0  0  0
 20 22  1  0  0  0  0
 20 23  1  0  0  0  0
 24 25  2  0  0  0  0
 24 26  1  0  0  0  0
 26 27  1  0  0  0  0
 26 28  1  0  0  0  0
 28 29  1  0  0  0  0
 28 30  1  0  0  0  0
 28 31  1  0  0  0  0
M  END
$$$$

  -OEChem-01062216083D

 31 30  0     1  0  0  0  0  0999 V2000
   -3.8758   -2.6270    0.8627 H   0  0  0  0  0  0  0  0  0  0  0  0
   -3.6837   -1.6167    0.4905 C   0  0  0  0  0  0  0  0  0  0  0  0
   -4.0966   -0.8979    1.2023 H   0  0  0  0  0  0  0  0  0  0  0  0
   -4.1846   -1.4952   -0.4728 H   0  0  0  0  0  0  0  0  0  0  0  0
   -2.1914   -1.3921    0.3330 C   0  0  0  0  0  0  0  0  0  0  0  0
   -1.4381   -2.3451    0.4304 O   0  0  0  0  0  0  0  0  0  0  0  0
   -1.7431   -0.1548   -0.0900 N   0  0  0  0  0  0  0  0  0  0  0  0
   -2.4955    0.5063   -0.2653 H   0  0  0  0  0  0  0  0  0  0  0  0
   -0.4077    0.4701    0.0754 C   0  0  1  0  0  0  0  0  0  0  0  0
   -0.5656    1.3197    0.7447 H   0  0  0  0  0  0  0  0  0  0  0  0
    0.7510   -0.3431    0.7053 C   0  0  0  0  0  0  0  0  0  0  0  0
    0.8932   -1.2557    0.1174 H   0  0  0  0  0  0  0  0  0  0  0  0
    1.6732    0.2409    0.6110 H   0  0  0  0  0  0  0  0  0  0  0  0
    0.5748   -0.7229    2.1978 C   0  0  0  0  0  0  0  0  0  0  0  0
   -0.3625   -1.2577    2.3587 H   0  0  0  0  0  0  0  0  0  0  0  0
    1.7270   -1.6443    2.6147 C   0  0  0  0  0  0  0  0  0  0  0  0
    2.6915   -1.1430    2.4860 H   0  0  0  0  0  0  0  0  0  0  0  0
    1.6236   -1.9350    3.6647 H   0  0  0  0  0  0  0  0  0  0  0  0
    1.7233   -2.5549    2.0071 H   0  0  0  0  0  0  0  0  0  0  0  0
    0.5743    0.5169    3.1040 C   0  0  0  0  0  0  0  0  0  0  0  0
   -0.3158    1.1273    2.9296 H   0  0  0  0  0  0  0  0  0  0  0  0
    0.5715    0.2172    4.1566 H   0  0  0  0  0  0  0  0  0  0  0  0
    1.4622    1.1304    2.9212 H   0  0  0  0  0  0  0  0  0  0  0  0
    0.0404    1.1000   -1.2545 C   0  0  0  0  0  0  0  0  0  0  0  0
    0.2314    2.3057   -1.3348 O   0  0  0  0  0  0  0  0  0  0  0  0
    0.1809    0.3032   -2.3744 N   0  0  0  0  0  0  0  0  0  0  0  0
   -0.0099   -0.6895   -2.2589 H   0  0  0  0  0  0  0  0  0  0  0  0
    0.5895    0.8072   -3.6788 C   0  0  0  0  0  0  0  0  0  0  0  0
    1.5675    1.2957   -3.6121 H   0  0  0  0  0  0  0  0  0  0  0  0
    0.6634   -0.0162   -4.3956 H   0  0  0  0  0  0  0  0  0  0  0  0
   -0.1413    1.5305   -4.0553 H   0  0  0  0  0  0  0  0  0  0  0  0
  1  2  1  0  0  0  0
  2  3  1  0  0  0  0
  2  4  1  0  0  0  0
  2  5  1  0  0  0  0
  5  6  2  0  0  0  0
  5  7  1  0  0  0  0
  7  8  1  0  0  0  0
  7  9  1  0  0  0  0
  9 10  1  0  0  0  0
  9 11  1  0  0  0  0
  9 24  1  0  0  0  0
 11 12  1  0  0  0  0
 11 13  1  0  0  0  0
 11 14  1  0  0  0  0
 14 15  1  0  0  0  0
 14 16  1  0  0  0  0
 14 20  1  0  0  0  0
 16 17  1  0  0  0  0
 16 18  1  0  0  0  0
 16 19  1  0  0  0  0
 20 21  1  0  0  0  0
 20 22  1  0  0  0  0
 20 23  1  0  0  0  0
 24 25  2  0  0  0  0
 24 26  1  0  0  0  0
 26 27  1  0  0  0  0
 26 28  1  0  0  0  0
 28 29  1  0  0  0  0
 28 30  1  0  0  0  0
 28 31  1  0  0  0  0
M  END
$$$$

  -OEChem-01062216083D

 31 30  0     1  0  0  0  0  0999 V2000
   -3.8735   -2.6626    0.8630 H   0  0  0  0  0  0  0  0  0  0  0  0
   -3.6914   -1.6384    0.5249 C   0  0  0  0  0  0  0  0  0  0  0  0
   -4.0938   -0.9475    1.2698 H   0  0  0  0  0  0  0  0  0  0  0  0
   -4.2093   -1.4840   -0.4249 H   0  0  0  0  0  0  0  0  0  0  0  0
   -2.2027   -1.4037    0.3496 C   0  0  0  0  0  0  0  0  0  0  0  0
   -1.4436   -2.3530    0.4326 O   0  0  0  0  0  0  0  0  0  0  0  0
   -1.7688   -0.1633   -0.0797 N   0  0  0  0  0  0  0  0  0  0  0  0
   -2.5294    0.4930   -0.2361 H   0  0  0  0  0  0  0  0  0  0  0  0
   -0.4354    0.4725    0.0730 C   0  0  1  0  0  0  0  0  0  0  0  0
   -0.5939    1.3213    0.7431 H   0  0  0  0  0  0  0  0  0  0  0  0
    0.7325   -0.3355    0.6914 C   0  0  0  0  0  0  0  0  0  0  0  0
    0.8744   -1.2455    0.0997 H   0  0  0  0  0  0  0  0  0  0  0  0
    1.6512    0.2530    0.5902 H   0  0  0  0  0  0  0  0  0  0  0  0
    0.5713   -0.7178    2.1848 C   0  0  0  0  0  0  0  0  0  0  0  0
   -0.3627   -1.2560    2.3540 H   0  0  0  0  0  0  0  0  0  0  0  0
    1.7314   -1.6341    2.5900 C   0  0  0  0  0  0  0  0  0  0  0  0
    2.6927   -1.1301    2.4479 H   0  0  0  0  0  0  0  0  0  0  0  0
    1.6415   -1.9224    3.6420 H   0  0  0  0  0  0  0  0  0  0  0  0
    1.7230   -2.5458    1.9844 H   0  0  0  0  0  0  0  0  0  0  0  0
    0.5759    0.5210    3.0924 C   0  0  0  0  0  0  0  0  0  0  0  0
   -0.3149    1.1319    2.9239 H   0  0  0  0  0  0  0  0  0  0  0  0
    0.5788    0.2201    4.1448 H   0  0  0  0  0  0  0  0  0  0  0  0
    1.4629    1.1348    2.9054 H   0  0  0  0  0  0  0  0  0  0  0  0
    0.0053    1.1073   -1.2580 C   0  0  0  0  0  0  0  0  0  0  0  0
    0.4756    2.2364   -1.2789 O   0  0  0  0  0  0  0  0  0  0  0  0
   -0.1477    0.4024   -2.4367 N   0  0  0  0  0  0  0  0  0  0  0  0
   -0.4892   -0.5525   -2.3546 H   0  0  0  0  0  0  0  0  0  0  0  0
    0.2995    0.8931   -3.7335 C   0  0  0  0  0  0  0  0  0  0  0  0
    1.3839    1.0451   -3.7321 H   0  0  0  0  0  0  0  0  0  0  0  0
    0.0518    0.1705   -4.5169 H   0  0  0  0  0  0  0  0  0  0  0  0
   -0.1897    1.8431   -3.9729 H   0  0  0  0  0  0  0  0  0  0  0  0
  1  2  1  0  0  0  0
  2  3  1  0  0  0  0
  2  4  1  0  0  0  0
  2  5  1  0  0  0  0
  5  6  2  0  0  0  0
  5  7  1  0  0  0  0
  7  8  1  0  0  0  0
  7  9  1  0  0  0  0
  9 10  1  0  0  0  0
  9 11  1  0  0  0  0
  9 24  1  0  0  0  0
 11 12  1  0  0  0  0
 11 13  1  0  0  0  0
 11 14  1  0  0  0  0
 14 15  1  0  0  0  0
 14 16  1  0  0  0  0
 14 20  1  0  0  0  0
 16 17  1  0  0  0  0
 16 18  1  0  0  0  0
 16 19  1  0  0  0  0
 20 21  1  0  0  0  0
 20 22  1  0  0  0  0
 20 23  1  0  0  0  0
 24 25  2  0  0  0  0
 24 26  1  0  0  0  0
 26 27  1  0  0  0  0
 26 28  1  0  0  0  0
 28 29  1  0  0  0  0
 28 30  1  0  0  0  0
 28 31  1  0  0  0  0
M  END
$$$$

  -OEChem-01062216083D

 31 30  0     1  0  0  0  0  0999 V2000
   -3.8664   -2.6714    0.9144 H   0  0  0  0  0  0  0  0  0  0  0  0
   -3.6921   -1.6515    0.5595 C   0  0  0  0  0  0  0  0  0  0  0  0
   -4.0842   -0.9514    1.3012 H   0  0  0  0  0  0  0  0  0  0  0  0
   -4.2257   -1.5110   -0.3835 H   0  0  0  0  0  0  0  0  0  0  0  0
   -2.2069   -1.4157    0.3573 C   0  0  0  0  0  0  0  0  0  0  0  0
   -1.4455   -2.3640    0.4269 O   0  0  0  0  0  0  0  0  0  0  0  0
   -1.7828   -0.1725   -0.0749 N   0  0  0  0  0  0  0  0  0  0  0  0
   -2.5488    0.4819   -0.2109 H   0  0  0  0  0  0  0  0  0  0  0  0
   -0.4506    0.4714    0.0688 C   0  0  1  0  0  0  0  0  0  0  0  0
   -0.6088    1.3193    0.7399 H   0  0  0  0  0  0  0  0  0  0  0  0
    0.7212   -0.3357    0.6832 C   0  0  0  0  0  0  0  0  0  0  0  0
    0.8628   -1.2448    0.0898 H   0  0  0  0  0  0  0  0  0  0  0  0
    1.6394    0.2534    0.5807 H   0  0  0  0  0  0  0  0  0  0  0  0
    0.5671   -0.7177    2.1774 C   0  0  0  0  0  0  0  0  0  0  0  0
   -0.3642   -1.2594    2.3498 H   0  0  0  0  0  0  0  0  0  0  0  0
    1.7309   -1.6322    2.5765 C   0  0  0  0  0  0  0  0  0  0  0  0
    2.6898   -1.1229    2.4374 H   0  0  0  0  0  0  0  0  0  0  0  0
    1.6425   -1.9277    3.6265 H   0  0  0  0  0  0  0  0  0  0  0  0
    1.7265   -2.5403    1.9652 H   0  0  0  0  0  0  0  0  0  0  0  0
    0.5696    0.5209    3.0851 C   0  0  0  0  0  0  0  0  0  0  0  0
   -0.3315    1.1200    2.9295 H   0  0  0  0  0  0  0  0  0  0  0  0
    0.5922    0.2204    4.1372 H   0  0  0  0  0  0  0  0  0  0  0  0
    1.4456    1.1459    2.8848 H   0  0  0  0  0  0  0  0  0  0  0  0
   -0.0102    1.1145   -1.2607 C   0  0  0  0  0  0  0  0  0  0  0  0
    0.6825    2.1228   -1.2570 O   0  0  0  0  0  0  0  0  0  0  0  0
   -0.4265    0.5753   -2.4636 N   0  0  0  0  0  0  0  0  0  0  0  0
   -0.9035   -0.3215   -2.4128 H   0  0  0  0  0  0  0  0  0  0  0  0
    0.0160    1.0718   -3.7601 C   0  0  0  0  0  0  0  0  0  0  0  0
    1.1000    0.9567   -3.8637 H   0  0  0  0  0  0  0  0  0  0  0  0
   -0.4713    0.5139   -4.5655 H   0  0  0  0  0  0  0  0  0  0  0  0
   -0.2385    2.1311   -3.8722 H   0  0  0  0  0  0  0  0  0  0  0  0
  1  2  1  0  0  0  0
  2  3  1  0  0  0  0
  2  4  1  0  0  0  0
  2  5  1  0  0  0  0
  5  6  2  0  0  0  0
  5  7  1  0  0  0  0
  7  8  1  0  0  0  0
  7  9  1  0  0  0  0
  9 10  1  0  0  0  0
  9 11  1  0  0  0  0
  9 24  1  0  0  0  0
 11 12  1  0  0  0  0
 11 13  1  0  0  0  0
 11 14  1  0  0  0  0
 14 15  1  0  0  0  0
 14 16  1  0  0  0  0
 14 20  1  0  0  0  0
 16 17  1  0  0  0  0
 16 18  1  0  0  0  0
 16 19  1  0  0  0  0
 20 21  1  0  0  0  0
 20 22  1  0  0  0  0
 20 23  1  0  0  0  0
 24 25  2  0  0  0  0
 24 26  1  0  0  0  0
 26 27  1  0  0  0  0
 26 28  1  0  0  0  0
 28 29  1  0  0  0  0
 28 30  1  0  0  0  0
 28 31  1  0  0  0  0
M  END
$$$$

  -OEChem-01062216083D

 31 30  0     1  0  0  0  0  0999 V2000
   -3.8457   -2.6817    0.9569 H   0  0  0  0  0  0  0  0  0  0  0  0
   -3.6802   -1.6649    0.5893 C   0  0  0  0  0  0  0  0  0  0  0  0
   -4.0589   -0.9591    1.3327 H   0  0  0  0  0  0  0  0  0  0  0  0
   -4.2330   -1.5338   -0.3440 H   0  0  0  0  0  0  0  0  0  0  0  0
   -2.1997   -1.4282    0.3556 C   0  0  0  0  0  0  0  0  0  0  0  0
   -1.4371   -2.3761    0.4112 O   0  0  0  0  0  0  0  0  0  0  0  0
   -1.7859   -0.1810   -0.0770 N   0  0  0  0  0  0  0  0  0  0  0  0
   -2.5574    0.4729   -0.1810 H   0  0  0  0  0  0  0  0  0  0  0  0
   -0.4551    0.4707    0.0612 C   0  0  1  0  0  0  0  0  0  0  0  0
   -0.6147    1.3181    0.7320 H   0  0  0  0  0  0  0  0  0  0  0  0
    0.7156   -0.3391    0.6777 C   0  0  0  0  0  0  0  0  0  0  0  0
    0.8563   -1.2484    0.0848 H   0  0  0  0  0  0  0  0  0  0  0  0
    1.6368    0.2453    0.5775 H   0  0  0  0  0  0  0  0  0  0  0  0
    0.5595   -0.7185    2.1725 C   0  0  0  0  0  0  0  0  0  0  0  0
   -0.3727   -1.2587    2.3446 H   0  0  0  0  0  0  0  0  0  0  0  0
    1.7208   -1.6352    2.5737 C   0  0  0  0  0  0  0  0  0  0  0  0
    2.6811   -1.1278    2.4361 H   0  0  0  0  0  0  0  0  0  0  0  0
    1.6305   -1.9310    3.6234 H   0  0  0  0  0  0  0  0  0  0  0  0
    1.7158   -2.5431    1.9622 H   0  0  0  0  0  0  0  0  0  0  0  0
    0.5628    0.5210    3.0786 C   0  0  0  0  0  0  0  0  0  0  0  0
   -0.3327    1.1265    2.9151 H   0  0  0  0  0  0  0  0  0  0  0  0
    0.5742    0.2213    4.1313 H   0  0  0  0  0  0  0  0  0  0  0  0
    1.4450    1.1397    2.8850 H   0  0  0  0  0  0  0  0  0  0  0  0
   -0.0149    1.1236   -1.2672 C   0  0  0  0  0  0  0  0  0  0  0  0
    0.8527    1.9863   -1.2711 O   0  0  0  0  0  0  0  0  0  0  0  0
   -0.6534    0.8022   -2.4512 N   0  0  0  0  0  0  0  0  0  0  0  0
   -1.2583   -0.0142   -2.4212 H   0  0  0  0  0  0  0  0  0  0  0  0
   -0.2385    1.3248   -3.7472 C   0  0  0  0  0  0  0  0  0  0  0  0
    0.7789    0.9964   -3.9838 H   0  0  0  0  0  0  0  0  0  0  0  0
   -0.9114    0.9671   -4.5323 H   0  0  0  0  0  0  0  0  0  0  0  0
   -0.2639    2.4197   -3.7458 H   0  0  0  0  0  0  0  0  0  0  0  0
  1  2  1  0  0  0  0
  2  3  1  0  0  0  0
  2  4  1  0  0  0  0
  2  5  1  0  0  0  0
  5  6  2  0  0  0  0
  5  7  1  0  0  0  0
  7  8  1  0  0  0  0
  7  9  1  0  0  0  0
  9 10  1  0  0  0  0
  9 11  1  0  0  0  0
  9 24  1  0  0  0  0
 11 12  1  0  0  0  0
 11 13  1  0  0  0  0
 11 14  1  0  0  0  0
 14 15  1  0  0  0  0
 14 16  1  0  0  0  0
 14 20  1  0  0  0  0
 16 17  1  0  0  0  0
 16 18  1  0  0  0  0
 16 19  1  0  0  0  0
 20 21  1  0  0  0  0
 20 22  1  0  0  0  0
 20 23  1  0  0  0  0
 24 25  2  0  0  0  0
 24 26  1  0  0  0  0
 26 27  1  0  0  0  0
 26 28  1  0  0  0  0
 28 29  1  0  0  0  0
 28 30  1  0  0  0  0
 28 31  1  0  0  0  0
M  END
$$$$

  -OEChem-01062216083D

 31 30  0     1  0  0  0  0  0999 V2000
   -3.8320   -2.6965    0.9358 H   0  0  0  0  0  0  0  0  0  0  0  0
   -3.6677   -1.6765    0.5765 C   0  0  0  0  0  0  0  0  0  0  0  0
   -4.0498   -0.9772    1.3241 H   0  0  0  0  0  0  0  0  0  0  0  0
   -4.2176   -1.5400   -0.3578 H   0  0  0  0  0  0  0  0  0  0  0  0
   -2.1870   -1.4355    0.3489 C   0  0  0  0  0  0  0  0  0  0  0  0
   -1.4242   -2.3827    0.4105 O   0  0  0  0  0  0  0  0  0  0  0  0
   -1.7766   -0.1849   -0.0788 N   0  0  0  0  0  0  0  0  0  0  0  0
   -2.5494    0.4698   -0.1629 H   0  0  0  0  0  0  0  0  0  0  0  0
   -0.4443    0.4670    0.0546 C   0  0  1  0  0  0  0  0  0  0  0  0
   -0.6019    1.3140    0.7262 H   0  0  0  0  0  0  0  0  0  0  0  0
    0.7208   -0.3489    0.6788 C   0  0  0  0  0  0  0  0  0  0  0  0
    0.8587   -1.2614    0.0902 H   0  0  0  0  0  0  0  0  0  0  0  0
    1.6479    0.2264    0.5828 H   0  0  0  0  0  0  0  0  0  0  0  0
    0.5561   -0.7179    2.1758 C   0  0  0  0  0  0  0  0  0  0  0  0
   -0.3818   -1.2479    2.3490 H   0  0  0  0  0  0  0  0  0  0  0  0
    1.7079   -1.6415    2.5884 C   0  0  0  0  0  0  0  0  0  0  0  0
    2.6733   -1.1439    2.4516 H   0  0  0  0  0  0  0  0  0  0  0  0
    1.6097   -1.9286    3.6399 H   0  0  0  0  0  0  0  0  0  0  0  0
    1.6971   -2.5539    1.9837 H   0  0  0  0  0  0  0  0  0  0  0  0
    0.5710    0.5277    3.0738 C   0  0  0  0  0  0  0  0  0  0  0  0
   -0.3218    1.1371    2.9104 H   0  0  0  0  0  0  0  0  0  0  0  0
    0.5862    0.2354    4.1285 H   0  0  0  0  0  0  0  0  0  0  0  0
    1.4560    1.1397    2.8718 H   0  0  0  0  0  0  0  0  0  0  0  0
   -0.0113    1.1297   -1.2746 C   0  0  0  0  0  0  0  0  0  0  0  0
    0.9985    1.8191   -1.3260 O   0  0  0  0  0  0  0  0  0  0  0  0
   -0.8299    1.0648   -2.3886 N   0  0  0  0  0  0  0  0  0  0  0  0
   -1.5644    0.3639   -2.3554 H   0  0  0  0  0  0  0  0  0  0  0  0
   -0.4587    1.6277   -3.6814 C   0  0  0  0  0  0  0  0  0  0  0  0
    0.4469    1.1450   -4.0636 H   0  0  0  0  0  0  0  0  0  0  0  0
   -1.2652    1.4766   -4.4051 H   0  0  0  0  0  0  0  0  0  0  0  0
   -0.2736    2.7034   -3.5927 H   0  0  0  0  0  0  0  0  0  0  0  0
  1  2  1  0  0  0  0
  2  3  1  0  0  0  0
  2  4  1  0  0  0  0
  2  5  1  0  0  0  0
  5  6  2  0  0  0  0
  5  7  1  0  0  0  0
  7  8  1  0  0  0  0
  7  9  1  0  0  0  0
  9 10  1  0  0  0  0
  9 11  1  0  0  0  0
  9 24  1  0  0  0  0
 11 12  1  0  0  0  0
 11 13  1  0  0  0  0
 11 14  1  0  0  0  0
 14 15  1  0  0  0  0
 14 16  1  0  0  0  0
 14 20  1  0  0  0  0
 16 17  1  0  0  0  0
 16 18  1  0  0  0  0
 16 19  1  0  0  0  0
 20 21  1  0  0  0  0
 20 22  1  0  0  0  0
 20 23  1  0  0  0  0
 24 25  2  0  0  0  0
 24 26  1  0  0  0  0
 26 27  1  0  0  0  0
 26 28  1  0  0  0  0
 28 29  1  0  0  0  0
 28 30  1  0  0  0  0
 28 31  1  0  0  0  0
M  END
$$$$

  -OEChem-01062216083D

 31 30  0     1  0  0  0  0  0999 V2000
   -3.8125   -2.6955    0.9527 H   0  0  0  0  0  0  0  0  0  0  0  0
   -3.6523   -1.6820    0.5733 C   0  0  0  0  0  0  0  0  0  0  0  0
   -4.0321   -0.9697    1.3099 H   0  0  0  0  0  0  0  0  0  0  0  0
   -4.2076   -1.5643   -0.3603 H   0  0  0  0  0  0  0  0  0  0  0  0
   -2.1734   -1.4425    0.3325 C   0  0  0  0  0  0  0  0  0  0  0  0
   -1.4115   -2.3904    0.3938 O   0  0  0  0  0  0  0  0  0  0  0  0
   -1.7660   -0.1887   -0.0910 N   0  0  0  0  0  0  0  0  0  0  0  0
   -2.5406    0.4661   -0.1480 H   0  0  0  0  0  0  0  0  0  0  0  0
   -0.4329    0.4630    0.0426 C   0  0  1  0  0  0  0  0  0  0  0  0
   -0.5904    1.3105    0.7129 H   0  0  0  0  0  0  0  0  0  0  0  0
    0.7262   -0.3568    0.6773 C   0  0  0  0  0  0  0  0  0  0  0  0
    0.8644   -1.2714    0.0920 H   0  0  0  0  0  0  0  0  0  0  0  0
    1.6573    0.2125    0.5885 H   0  0  0  0  0  0  0  0  0  0  0  0
    0.5519   -0.7177    2.1754 C   0  0  0  0  0  0  0  0  0  0  0  0
   -0.3891   -1.2436    2.3451 H   0  0  0  0  0  0  0  0  0  0  0  0
    1.6975   -1.6451    2.5970 C   0  0  0  0  0  0  0  0  0  0  0  0
    2.6656   -1.1521    2.4634 H   0  0  0  0  0  0  0  0  0  0  0  0
    1.5930   -1.9290    3.6488 H   0  0  0  0  0  0  0  0  0  0  0  0
    1.6861   -2.5592    1.9950 H   0  0  0  0  0  0  0  0  0  0  0  0
    0.5656    0.5307    3.0701 C   0  0  0  0  0  0  0  0  0  0  0  0
   -0.3216    1.1454    2.8963 H   0  0  0  0  0  0  0  0  0  0  0  0
    0.5682    0.2412    4.1258 H   0  0  0  0  0  0  0  0  0  0  0  0
    1.4566    1.1364    2.8754 H   0  0  0  0  0  0  0  0  0  0  0  0
   -0.0051    1.1326   -1.2884 C   0  0  0  0  0  0  0  0  0  0  0  0
    1.1083    1.6238   -1.4187 O   0  0  0  0  0  0  0  0  0  0  0  0
   -0.9344    1.3445   -2.2928 N   0  0  0  0  0  0  0  0  0  0  0  0
   -1.7799    0.7862   -2.2364 H   0  0  0  0  0  0  0  0  0  0  0  0
   -0.5941    1.9610   -3.5700 C   0  0  0  0  0  0  0  0  0  0  0  0
    0.1491    1.3572   -4.1010 H   0  0  0  0  0  0  0  0  0  0  0  0
   -1.4858    2.0467   -4.1980 H   0  0  0  0  0  0  0  0  0  0  0  0
   -0.1858    2.9653   -3.4146 H   0  0  0  0  0  0  0  0  0  0  0  0
  1  2  1  0  0  0  0
  2  3  1  0  0  0  0
  2  4  1  0  0  0  0
  2  5  1  0  0  0  0
  5  6  2  0  0  0  0
  5  7  1  0  0  0  0
  7  8  1  0  0  0  0
  7  9  1  0  0  0  0
  9 10  1  0  0  0  0
  9 11  1  0  0  0  0
  9 24  1  0  0  0  0
 11 12  1  0  0  0  0
 11 13  1  0  0  0  0
 11 14  1  0  0  0  0
 14 15  1  0  0  0  0
 14 16  1  0  0  0  0
 14 20  1  0  0  0  0
 16 17  1  0  0  0  0
 16 18  1  0  0  0  0
 16 19  1  0  0  0  0
 20 21  1  0  0  0  0
 20 22  1  0  0  0  0
 20 23  1  0  0  0  0
 24 25  2  0  0  0  0
 24 26  1  0  0  0  0
 26 27  1  0  0  0  0
 26 28  1  0  0  0  0
 28 29  1  0  0  0  0
 28 30  1  0  0  0  0
 28 31  1  0  0  0  0
M  END
$$$$

  -OEChem-01062216083D

 31 30  0     1  0  0  0  0  0999 V2000
   -3.8130   -2.7079    0.8835 H   0  0  0  0  0  0  0  0  0  0  0  0
   -3.6448   -1.6842    0.5366 C   0  0  0  0  0  0  0  0  0  0  0  0
   -4.0296   -0.9925    1.2898 H   0  0  0  0  0  0  0  0  0  0  0  0
   -4.1894   -1.5367   -0.3990 H   0  0  0  0  0  0  0  0  0  0  0  0
   -2.1627   -1.4428    0.3184 C   0  0  0  0  0  0  0  0  0  0  0  0
   -1.4011   -2.3896    0.3963 O   0  0  0  0  0  0  0  0  0  0  0  0
   -1.7542   -0.1863   -0.0965 N   0  0  0  0  0  0  0  0  0  0  0  0
   -2.5304    0.4654   -0.1501 H   0  0  0  0  0  0  0  0  0  0  0  0
   -0.4204    0.4626    0.0385 C   0  0  1  0  0  0  0  0  0  0  0  0
   -0.5766    1.3086    0.7111 H   0  0  0  0  0  0  0  0  0  0  0  0
    0.7350   -0.3590    0.6798 C   0  0  0  0  0  0  0  0  0  0  0  0
    0.8752   -1.2750    0.0969 H   0  0  0  0  0  0  0  0  0  0  0  0
    1.6672    0.2092    0.5957 H   0  0  0  0  0  0  0  0  0  0  0  0
    0.5542   -0.7144    2.1786 C   0  0  0  0  0  0  0  0  0  0  0  0
   -0.3893   -1.2365    2.3458 H   0  0  0  0  0  0  0  0  0  0  0  0
    1.6955   -1.6440    2.6076 C   0  0  0  0  0  0  0  0  0  0  0  0
    2.6661   -1.1560    2.4729 H   0  0  0  0  0  0  0  0  0  0  0  0
    1.5880   -1.9220    3.6607 H   0  0  0  0  0  0  0  0  0  0  0  0
    1.6814   -2.5612    2.0100 H   0  0  0  0  0  0  0  0  0  0  0  0
    0.5689    0.5362    3.0699 C   0  0  0  0  0  0  0  0  0  0  0  0
   -0.3148    1.1540    2.8911 H   0  0  0  0  0  0  0  0  0  0  0  0
    0.5655    0.2487    4.1260 H   0  0  0  0  0  0  0  0  0  0  0  0
    1.4631    1.1376    2.8778 H   0  0  0  0  0  0  0  0  0  0  0  0
   -0.0028    1.1393   -1.2939 C   0  0  0  0  0  0  0  0  0  0  0  0
    1.1692    1.3800   -1.5521 O   0  0  0  0  0  0  0  0  0  0  0  0
   -0.9698    1.6353   -2.1531 N   0  0  0  0  0  0  0  0  0  0  0  0
   -1.9146    1.2970   -2.0113 H   0  0  0  0  0  0  0  0  0  0  0  0
   -0.6478    2.2781   -3.4224 C   0  0  0  0  0  0  0  0  0  0  0  0
   -0.1174    1.5822   -4.0808 H   0  0  0  0  0  0  0  0  0  0  0  0
   -1.5635    2.6027   -3.9254 H   0  0  0  0  0  0  0  0  0  0  0  0
   -0.0163    3.1575   -3.2575 H   0  0  0  0  0  0  0  0  0  0  0  0
  1  2  1  0  0  0  0
  2  3  1  0  0  0  0
  2  4  1  0  0  0  0
  2  5  1  0  0  0  0
  5  6  2  0  0  0  0
  5  7  1  0  0  0  0
  7  8  1  0  0  0  0
  7  9  1  0  0  0  0
  9 10  1  0  0  0  0
  9 11  1  0  0  0  0
  9 24  1  0  0  0  0
 11 12  1  0  0  0  0
 11 13  1  0  0  0  0
 11 14  1  0  0  0  0
 14 15  1  0  0  0  0
 14 16  1  0  0  0  0
 14 20  1  0  0  0  0
 16 17  1  0  0  0  0
 16 18  1  0  0  0  0
 16 19  1  0  0  0  0
 20 21  1  0  0  0  0
 20 22  1  0  0  0  0
 20 23  1  0  0  0  0
 24 25  2  0  0  0  0
 24 26  1  0  0  0  0
 26 27  1  0  0  0  0
 26 28  1  0  0  0  0
 28 29  1  0  0  0  0
 28 30  1  0  0  0  0
 28 31  1  0  0  0  0
M  END
$$$$

  -OEChem-01062216083D

 31 30  0     1  0  0  0  0  0999 V2000
   -3.8636   -2.7108    0.7925 H   0  0  0  0  0  0  0  0  0  0  0  0
   -3.6752   -1.6915    0.4426 C   0  0  0  0  0  0  0  0  0  0  0  0
   -4.1193   -0.9903    1.1531 H   0  0  0  0  0  0  0  0  0  0  0  0
   -4.1485   -1.5627   -0.5339 H   0  0  0  0  0  0  0  0  0  0  0  0
   -2.1819   -1.4444    0.3318 C   0  0  0  0  0  0  0  0  0  0  0  0
   -1.4257   -2.3840    0.4976 O   0  0  0  0  0  0  0  0  0  0  0  0
   -1.7539   -0.1932   -0.0799 N   0  0  0  0  0  0  0  0  0  0  0  0
   -2.5237    0.4462   -0.2416 H   0  0  0  0  0  0  0  0  0  0  0  0
   -0.4140    0.4434    0.0423 C   0  0  1  0  0  0  0  0  0  0  0  0
   -0.5620    1.2913    0.7138 H   0  0  0  0  0  0  0  0  0  0  0  0
    0.7439   -0.3704    0.6867 C   0  0  0  0  0  0  0  0  0  0  0  0
    0.8736   -1.2962    0.1168 H   0  0  0  0  0  0  0  0  0  0  0  0
    1.6760    0.1954    0.5815 H   0  0  0  0  0  0  0  0  0  0  0  0
    0.5760   -0.7048    2.1921 C   0  0  0  0  0  0  0  0  0  0  0  0
   -0.3667   -1.2219    2.3763 H   0  0  0  0  0  0  0  0  0  0  0  0
    1.7202   -1.6297    2.6228 C   0  0  0  0  0  0  0  0  0  0  0  0
    2.6896   -1.1440    2.4723 H   0  0  0  0  0  0  0  0  0  0  0  0
    1.6232   -1.8929    3.6806 H   0  0  0  0  0  0  0  0  0  0  0  0
    1.6998   -2.5549    2.0380 H   0  0  0  0  0  0  0  0  0  0  0  0
    0.6005    0.5570    3.0670 C   0  0  0  0  0  0  0  0  0  0  0  0
   -0.2869    1.1708    2.8920 H   0  0  0  0  0  0  0  0  0  0  0  0
    0.6111    0.2828    4.1266 H   0  0  0  0  0  0  0  0  0  0  0  0
    1.4912    1.1574    2.8561 H   0  0  0  0  0  0  0  0  0  0  0  0
   -0.0084    1.1182   -1.2941 C   0  0  0  0  0  0  0  0  0  0  0  0
    1.1299    1.0481   -1.7384 O   0  0  0  0  0  0  0  0  0  0  0  0
   -0.9264    1.8922   -1.9859 N   0  0  0  0  0  0  0  0  0  0  0  0
   -1.8676    1.9528   -1.6168 H   0  0  0  0  0  0  0  0  0  0  0  0
   -0.6180    2.5739   -3.2380 C   0  0  0  0  0  0  0  0  0  0  0  0
   -0.3172    1.8508   -4.0036 H   0  0  0  0  0  0  0  0  0  0  0  0
   -1.4967    3.1158   -3.6007 H   0  0  0  0  0  0  0  0  0  0  0  0
    0.1952    3.2930   -3.0932 H   0  0  0  0  0  0  0  0  0  0  0  0
  1  2  1  0  0  0  0
  2  3  1  0  0  0  0
  2  4  1  0  0  0  0
  2  5  1  0  0  0  0
  5  6  2  0  0  0  0
  5  7  1  0  0  0  0
  7  8  1  0  0  0  0
  7  9  1  0  0  0  0
  9 10  1  0  0  0  0
  9 11  1  0  0  0  0
  9 24  1  0  0  0  0
 11 12  1  0  0  0  0
 11 13  1  0  0  0  0
 11 14  1  0  0  0  0
 14 15  1  0  0  0  0
 14 16  1  0  0  0  0
 14 20  1  0  0  0  0
 16 17  1  0  0  0  0
 16 18  1  0  0  0  0
 16 19  1  0  0  0  0
 20 21  1  0  0  0  0
 20 22  1  0  0  0  0
 20 23  1  0  0  0  0
 24 25  2  0  0  0  0
 24 26  1  0  0  0  0
 26 27  1  0  0  0  0
 26 28  1  0  0  0  0
 28 29  1  0  0  0  0
 28 30  1  0  0  0  0
 28 31  1  0  0  0  0
M  END
$$$$

  -OEChem-01062216083D

 31 30  0     1  0  0  0  0  0999 V2000
   -3.9349   -2.6740    0.7635 H   0  0  0  0  0  0  0  0  0  0  0  0
   -3.7160   -1.6906    0.3374 C   0  0  0  0  0  0  0  0  0  0  0  0
   -4.2384   -0.9316    0.9244 H   0  0  0  0  0  0  0  0  0  0  0  0
   -4.0819   -1.6643   -0.6918 H   0  0  0  0  0  0  0  0  0  0  0  0
   -2.2209   -1.4308    0.3613 C   0  0  0  0  0  0  0  0  0  0  0  0
   -1.4802   -2.3581    0.6313 O   0  0  0  0  0  0  0  0  0  0  0  0
   -1.7675   -0.1885   -0.0511 N   0  0  0  0  0  0  0  0  0  0  0  0
   -2.5113    0.4227   -0.3708 H   0  0  0  0  0  0  0  0  0  0  0  0
   -0.4222    0.4352    0.0578 C   0  0  1  0  0  0  0  0  0  0  0  0
   -0.5596    1.2852    0.7286 H   0  0  0  0  0  0  0  0  0  0  0  0
    0.7428   -0.3702    0.6945 C   0  0  0  0  0  0  0  0  0  0  0  0
    0.8576   -1.3036    0.1334 H   0  0  0  0  0  0  0  0  0  0  0  0
    1.6720    0.1939    0.5610 H   0  0  0  0  0  0  0  0  0  0  0  0
    0.6015   -0.6940    2.2052 C   0  0  0  0  0  0  0  0  0  0  0  0
   -0.3384   -1.2049    2.4170 H   0  0  0  0  0  0  0  0  0  0  0  0
    1.7547   -1.6142    2.6224 C   0  0  0  0  0  0  0  0  0  0  0  0
    2.7209   -1.1301    2.4481 H   0  0  0  0  0  0  0  0  0  0  0  0
    1.6775   -1.8669    3.6843 H   0  0  0  0  0  0  0  0  0  0  0  0
    1.7235   -2.5454    2.0477 H   0  0  0  0  0  0  0  0  0  0  0  0
    0.6503    0.5774    3.0660 C   0  0  0  0  0  0  0  0  0  0  0  0
   -0.2371    1.1945    2.9028 H   0  0  0  0  0  0  0  0  0  0  0  0
    0.6819    0.3150    4.1282 H   0  0  0  0  0  0  0  0  0  0  0  0
    1.5396    1.1703    2.8299 H   0  0  0  0  0  0  0  0  0  0  0  0
   -0.0317    1.0986   -1.2844 C   0  0  0  0  0  0  0  0  0  0  0  0
    0.9755    0.7772   -1.9003 O   0  0  0  0  0  0  0  0  0  0  0  0
   -0.8252    2.1104   -1.8005 N   0  0  0  0  0  0  0  0  0  0  0  0
   -1.6015    2.4358   -1.2349 H   0  0  0  0  0  0  0  0  0  0  0  0
   -0.5033    2.8274   -3.0294 C   0  0  0  0  0  0  0  0  0  0  0  0
   -0.4442    2.1321   -3.8734 H   0  0  0  0  0  0  0  0  0  0  0  0
   -1.2758    3.5705   -3.2489 H   0  0  0  0  0  0  0  0  0  0  0  0
    0.4569    3.3447   -2.9312 H   0  0  0  0  0  0  0  0  0  0  0  0
  1  2  1  0  0  0  0
  2  3  1  0  0  0  0
  2  4  1  0  0  0  0
  2  5  1  0  0  0  0
  5  6  2  0  0  0  0
  5  7  1  0  0  0  0
  7  8  1  0  0  0  0
  7  9  1  0  0  0  0
  9 10  1  0  0  0  0
  9 11  1  0  0  0  0
  9 24  1  0  0  0  0
 11 12  1  0  0  0  0
 11 13  1  0  0  0  0
 11 14  1  0  0  0  0
 14 15  1  0  0  0  0
 14 16  1  0  0  0  0
 14 20  1  0  0  0  0
 16 17  1  0  0  0  0
 16 18  1  0  0  0  0
 16 19  1  0  0  0  0
 20 21  1  0  0  0  0
 20 22  1  0  0  0  0
 20 23  1  0  0  0  0
 24 25  2  0  0  0  0
 24 26  1  0  0  0  0
 26 27  1  0  0  0  0
 26 28  1  0  0  0  0
 28 29  1  0  0  0  0
 28 30  1  0  0  0  0
 28 31  1  0  0  0  0
M  END
$$$$

  -OEChem-01062216083D

 31 30  0     1  0  0  0  0  0999 V2000
   -3.9610   -2.6587    0.7349 H   0  0  0  0  0  0  0  0  0  0  0  0
   -3.7322   -1.6796    0.3042 C   0  0  0  0  0  0  0  0  0  0  0  0
   -4.2733   -0.9153    0.8669 H   0  0  0  0  0  0  0  0  0  0  0  0
   -4.0681   -1.6658   -0.7355 H   0  0  0  0  0  0  0  0  0  0  0  0
   -2.2389   -1.4162    0.3689 C   0  0  0  0  0  0  0  0  0  0  0  0
   -1.5050   -2.3388    0.6716 O   0  0  0  0  0  0  0  0  0  0  0  0
   -1.7779   -0.1764   -0.0409 N   0  0  0  0  0  0  0  0  0  0  0  0
   -2.5111    0.4258   -0.4019 H   0  0  0  0  0  0  0  0  0  0  0  0
   -0.4332    0.4451    0.0699 C   0  0  1  0  0  0  0  0  0  0  0  0
   -0.5709    1.2901    0.7466 H   0  0  0  0  0  0  0  0  0  0  0  0
    0.7407   -0.3546    0.6952 C   0  0  0  0  0  0  0  0  0  0  0  0
    0.8528   -1.2865    0.1303 H   0  0  0  0  0  0  0  0  0  0  0  0
    1.6656    0.2143    0.5508 H   0  0  0  0  0  0  0  0  0  0  0  0
    0.6141   -0.6891    2.2052 C   0  0  0  0  0  0  0  0  0  0  0  0
   -0.3198   -1.2075    2.4229 H   0  0  0  0  0  0  0  0  0  0  0  0
    1.7775   -1.6026    2.6077 C   0  0  0  0  0  0  0  0  0  0  0  0
    2.7385   -1.1103    2.4275 H   0  0  0  0  0  0  0  0  0  0  0  0
    1.7119   -1.8610    3.6691 H   0  0  0  0  0  0  0  0  0  0  0  0
    1.7478   -2.5310    2.0285 H   0  0  0  0  0  0  0  0  0  0  0  0
    0.6592    0.5772    3.0731 C   0  0  0  0  0  0  0  0  0  0  0  0
   -0.2324    1.1899    2.9164 H   0  0  0  0  0  0  0  0  0  0  0  0
    0.6951    0.3084    4.1336 H   0  0  0  0  0  0  0  0  0  0  0  0
    1.5445    1.1764    2.8382 H   0  0  0  0  0  0  0  0  0  0  0  0
   -0.0439    1.1055   -1.2713 C   0  0  0  0  0  0  0  0  0  0  0  0
    0.7857    0.6078   -2.0198 O   0  0  0  0  0  0  0  0  0  0  0  0
   -0.6346    2.3037   -1.6366 N   0  0  0  0  0  0  0  0  0  0  0  0
   -1.2601    2.7448   -0.9702 H   0  0  0  0  0  0  0  0  0  0  0  0
   -0.2875    3.0227   -2.8570 C   0  0  0  0  0  0  0  0  0  0  0  0
   -0.4786    2.3993   -3.7370 H   0  0  0  0  0  0  0  0  0  0  0  0
   -0.8874    3.9337   -2.9434 H   0  0  0  0  0  0  0  0  0  0  0  0
    0.7709    3.3040   -2.8478 H   0  0  0  0  0  0  0  0  0  0  0  0
  1  2  1  0  0  0  0
  2  3  1  0  0  0  0
  2  4  1  0  0  0  0
  2  5  1  0  0  0  0
  5  6  2  0  0  0  0
  5  7  1  0  0  0  0
  7  8  1  0  0  0  0
  7  9  1  0  0  0  0
  9 10  1  0  0  0  0
  9 11  1  0  0  0  0
  9 24  1  0  0  0  0
 11 12  1  0  0  0  0
 11 13  1  0  0  0  0
 11 14  1  0  0  0  0
 14 15  1  0  0  0  0
 14 16  1  0  0  0  0
 14 20  1  0  0  0  0
 16 17  1  0  0  0  0
 16 18  1  0  0  0  0
 16 19  1  0  0  0  0
 20 21  1  0  0  0  0
 20 22  1  0  0  0  0
 20 23  1  0  0  0  0
 24 25  2  0  0  0  0
 24 26  1  0  0  0  0
 26 27  1  0  0  0  0
 26 28  1  0  0  0  0
 28 29  1  0  0  0  0
 28 30  1  0  0  0  0
 28 31  1  0  0  0  0
M  END
$$$$

  -OEChem-01062216083D

 31 30  0     1  0  0  0  0  0999 V2000
   -3.9776   -2.6556    0.7072 H   0  0  0  0  0  0  0  0  0  0  0  0
   -3.7438   -1.6762    0.2801 C   0  0  0  0  0  0  0  0  0  0  0  0
   -4.3008   -0.9136    0.8294 H   0  0  0  0  0  0  0  0  0  0  0  0
   -4.0568   -1.6657   -0.7668 H   0  0  0  0  0  0  0  0  0  0  0  0
   -2.2534   -1.4053    0.3772 C   0  0  0  0  0  0  0  0  0  0  0  0
   -1.5234   -2.3222    0.7052 O   0  0  0  0  0  0  0  0  0  0  0  0
   -1.7901   -0.1655   -0.0295 N   0  0  0  0  0  0  0  0  0  0  0  0
   -2.5157    0.4280   -0.4195 H   0  0  0  0  0  0  0  0  0  0  0  0
   -0.4466    0.4562    0.0829 C   0  0  1  0  0  0  0  0  0  0  0  0
   -0.5886    1.2948    0.7666 H   0  0  0  0  0  0  0  0  0  0  0  0
    0.7351   -0.3384    0.6973 C   0  0  0  0  0  0  0  0  0  0  0  0
    0.8470   -1.2668    0.1265 H   0  0  0  0  0  0  0  0  0  0  0  0
    1.6555    0.2362    0.5475 H   0  0  0  0  0  0  0  0  0  0  0  0
    0.6229   -0.6848    2.2057 C   0  0  0  0  0  0  0  0  0  0  0  0
   -0.3053   -1.2099    2.4296 H   0  0  0  0  0  0  0  0  0  0  0  0
    1.7965   -1.5925    2.5924 C   0  0  0  0  0  0  0  0  0  0  0  0
    2.7527   -1.0915    2.4103 H   0  0  0  0  0  0  0  0  0  0  0  0
    1.7400   -1.8609    3.6519 H   0  0  0  0  0  0  0  0  0  0  0  0
    1.7697   -2.5161    2.0055 H   0  0  0  0  0  0  0  0  0  0  0  0
    0.6680    0.5768    3.0803 C   0  0  0  0  0  0  0  0  0  0  0  0
   -0.2304    1.1830    2.9374 H   0  0  0  0  0  0  0  0  0  0  0  0
    0.7184    0.3023    4.1388 H   0  0  0  0  0  0  0  0  0  0  0  0
    1.5457    1.1846    2.8387 H   0  0  0  0  0  0  0  0  0  0  0  0
   -0.0514    1.1202   -1.2536 C   0  0  0  0  0  0  0  0  0  0  0  0
    0.5435    0.4986   -2.1226 O   0  0  0  0  0  0  0  0  0  0  0  0
   -0.3810    2.4443   -1.4884 N   0  0  0  0  0  0  0  0  0  0  0  0
   -0.8283    2.9610   -0.7378 H   0  0  0  0  0  0  0  0  0  0  0  0
   -0.0076    3.1542   -2.7063 C   0  0  0  0  0  0  0  0  0  0  0  0
   -0.4350    2.6599   -3.5851 H   0  0  0  0  0  0  0  0  0  0  0  0
   -0.3795    4.1826   -2.6741 H   0  0  0  0  0  0  0  0  0  0  0  0
    1.0818    3.1829   -2.8139 H   0  0  0  0  0  0  0  0  0  0  0  0
  1  2  1  0  0  0  0
  2  3  1  0  0  0  0
  2  4  1  0  0  0  0
  2  5  1  0  0  0  0
  5  6  2  0  0  0  0
  5  7  1  0  0  0  0
  7  8  1  0  0  0  0
  7  9  1  0  0  0  0
  9 10  1  0  0  0  0
  9 11  1  0  0  0  0
  9 24  1  0  0  0  0
 11 12  1  0  0  0  0
 11 13  1  0  0  0  0
 11 14  1  0  0  0  0
 14 15  1  0  0  0  0
 14 16  1  0  0  0  0
 14 20  1  0  0  0  0
 16 17  1  0  0  0  0
 16 18  1  0  0  0  0
 16 19  1  0  0  0  0
 20 21  1  0  0  0  0
 20 22  1  0  0  0  0
 20 23  1  0  0  0  0
 24 25  2  0  0  0  0
 24 26  1  0  0  0  0
 26 27  1  0  0  0  0
 26 28  1  0  0  0  0
 28 29  1  0  0  0  0
 28 30  1  0  0  0  0
 28 31  1  0  0  0  0
M  END
$$$$

  -OEChem-01062216083D

 31 30  0     1  0  0  0  0  0999 V2000
   -3.9871   -2.6560    0.6701 H   0  0  0  0  0  0  0  0  0  0  0  0
   -3.7484   -1.6733    0.2533 C   0  0  0  0  0  0  0  0  0  0  0  0
   -4.3208   -0.9158    0.7937 H   0  0  0  0  0  0  0  0  0  0  0  0
   -4.0378   -1.6587   -0.8003 H   0  0  0  0  0  0  0  0  0  0  0  0
   -2.2620   -1.3958    0.3844 C   0  0  0  0  0  0  0  0  0  0  0  0
   -1.5365   -2.3074    0.7373 O   0  0  0  0  0  0  0  0  0  0  0  0
   -1.7953   -0.1562   -0.0182 N   0  0  0  0  0  0  0  0  0  0  0  0
   -2.5090    0.4247   -0.4477 H   0  0  0  0  0  0  0  0  0  0  0  0
   -0.4513    0.4628    0.0938 C   0  0  1  0  0  0  0  0  0  0  0  0
   -0.5986    1.2968    0.7819 H   0  0  0  0  0  0  0  0  0  0  0  0
    0.7336   -0.3293    0.7015 C   0  0  0  0  0  0  0  0  0  0  0  0
    0.8422   -1.2565    0.1283 H   0  0  0  0  0  0  0  0  0  0  0  0
    1.6526    0.2464    0.5484 H   0  0  0  0  0  0  0  0  0  0  0  0
    0.6300   -0.6801    2.2094 C   0  0  0  0  0  0  0  0  0  0  0  0
   -0.2952   -1.2079    2.4390 H   0  0  0  0  0  0  0  0  0  0  0  0
    1.8085   -1.5853    2.5859 C   0  0  0  0  0  0  0  0  0  0  0  0
    2.7616   -1.0821    2.3952 H   0  0  0  0  0  0  0  0  0  0  0  0
    1.7617   -1.8541    3.6457 H   0  0  0  0  0  0  0  0  0  0  0  0
    1.7786   -2.5090    1.9991 H   0  0  0  0  0  0  0  0  0  0  0  0
    0.6769    0.5803    3.0860 C   0  0  0  0  0  0  0  0  0  0  0  0
   -0.2240    1.1842    2.9491 H   0  0  0  0  0  0  0  0  0  0  0  0
    0.7338    0.3045    4.1437 H   0  0  0  0  0  0  0  0  0  0  0  0
    1.5517    1.1909    2.8406 H   0  0  0  0  0  0  0  0  0  0  0  0
   -0.0481    1.1331   -1.2365 C   0  0  0  0  0  0  0  0  0  0  0  0
    0.2478    0.4620   -2.2148 O   0  0  0  0  0  0  0  0  0  0  0  0
   -0.0809    2.5118   -1.3578 N   0  0  0  0  0  0  0  0  0  0  0  0
   -0.2885    3.0552   -0.5256 H   0  0  0  0  0  0  0  0  0  0  0  0
    0.2967    3.2134   -2.5793 C   0  0  0  0  0  0  0  0  0  0  0  0
   -0.3390    2.9001   -3.4143 H   0  0  0  0  0  0  0  0  0  0  0  0
    0.1828    4.2935   -2.4464 H   0  0  0  0  0  0  0  0  0  0  0  0
    1.3409    3.0037   -2.8338 H   0  0  0  0  0  0  0  0  0  0  0  0
  1  2  1  0  0  0  0
  2  3  1  0  0  0  0
  2  4  1  0  0  0  0
  2  5  1  0  0  0  0
  5  6  2  0  0  0  0
  5  7  1  0  0  0  0
  7  8  1  0  0  0  0
  7  9  1  0  0  0  0
  9 10  1  0  0  0  0
  9 11  1  0  0  0  0
  9 24  1  0  0  0  0
 11 12  1  0  0  0  0
 11 13  1  0  0  0  0
 11 14  1  0  0  0  0
 14 15  1  0  0  0  0
 14 16  1  0  0  0  0
 14 20  1  0  0  0  0
 16 17  1  0  0  0  0
 16 18  1  0  0  0  0
 16 19  1  0  0  0  0
 20 21  1  0  0  0  0
 20 22  1  0  0  0  0
 20 23  1  0  0  0  0
 24 25  2  0  0  0  0
 24 26  1  0  0  0  0
 26 27  1  0  0  0  0
 26 28  1  0  0  0  0
 28 29  1  0  0  0  0
 28 30  1  0  0  0  0
 28 31  1  0  0  0  0
M  END
$$$$

  -OEChem-01062216083D

 31 30  0     1  0  0  0  0  0999 V2000
   -4.0010   -2.6475    0.6466 H   0  0  0  0  0  0  0  0  0  0  0  0
   -3.7539   -1.6687    0.2256 C   0  0  0  0  0  0  0  0  0  0  0  0
   -4.3412   -0.9069    0.7433 H   0  0  0  0  0  0  0  0  0  0  0  0
   -4.0174   -1.6658   -0.8349 H   0  0  0  0  0  0  0  0  0  0  0  0
   -2.2718   -1.3862    0.3913 C   0  0  0  0  0  0  0  0  0  0  0  0
   -1.5540   -2.2923    0.7732 O   0  0  0  0  0  0  0  0  0  0  0  0
   -1.7973   -0.1491   -0.0085 N   0  0  0  0  0  0  0  0  0  0  0  0
   -2.4914    0.4145   -0.4907 H   0  0  0  0  0  0  0  0  0  0  0  0
   -0.4492    0.4611    0.0989 C   0  0  1  0  0  0  0  0  0  0  0  0
   -0.5987    1.2945    0.7872 H   0  0  0  0  0  0  0  0  0  0  0  0
    0.7363   -0.3307    0.7048 C   0  0  0  0  0  0  0  0  0  0  0  0
    0.8385   -1.2607    0.1351 H   0  0  0  0  0  0  0  0  0  0  0  0
    1.6566    0.2411    0.5450 H   0  0  0  0  0  0  0  0  0  0  0  0
    0.6393   -0.6757    2.2147 C   0  0  0  0  0  0  0  0  0  0  0  0
   -0.2862   -1.1996    2.4514 H   0  0  0  0  0  0  0  0  0  0  0  0
    1.8176   -1.5815    2.5906 C   0  0  0  0  0  0  0  0  0  0  0  0
    2.7712   -1.0803    2.3963 H   0  0  0  0  0  0  0  0  0  0  0  0
    1.7730   -1.8470    3.6514 H   0  0  0  0  0  0  0  0  0  0  0  0
    1.7843   -2.5067    2.0066 H   0  0  0  0  0  0  0  0  0  0  0  0
    0.6935    0.5878    3.0861 C   0  0  0  0  0  0  0  0  0  0  0  0
   -0.2077    1.1923    2.9531 H   0  0  0  0  0  0  0  0  0  0  0  0
    0.7567    0.3152    4.1443 H   0  0  0  0  0  0  0  0  0  0  0  0
    1.5676    1.1962    2.8328 H   0  0  0  0  0  0  0  0  0  0  0  0
   -0.0399    1.1362   -1.2270 C   0  0  0  0  0  0  0  0  0  0  0  0
   -0.0681    0.5164   -2.2811 O   0  0  0  0  0  0  0  0  0  0  0  0
    0.2405    2.4914   -1.2580 N   0  0  0  0  0  0  0  0  0  0  0  0
    0.2782    2.9863   -0.3721 H   0  0  0  0  0  0  0  0  0  0  0  0
    0.6112    3.2021   -2.4762 C   0  0  0  0  0  0  0  0  0  0  0  0
   -0.1800    3.1143   -3.2282 H   0  0  0  0  0  0  0  0  0  0  0  0
    0.7665    4.2638   -2.2621 H   0  0  0  0  0  0  0  0  0  0  0  0
    1.5383    2.7927   -2.8912 H   0  0  0  0  0  0  0  0  0  0  0  0
  1  2  1  0  0  0  0
  2  3  1  0  0  0  0
  2  4  1  0  0  0  0
  2  5  1  0  0  0  0
  5  6  2  0  0  0  0
  5  7  1  0  0  0  0
  7  8  1  0  0  0  0
  7  9  1  0  0  0  0
  9 10  1  0  0  0  0
  9 11  1  0  0  0  0
  9 24  1  0  0  0  0
 11 12  1  0  0  0  0
 11 13  1  0  0  0  0
 11 14  1  0  0  0  0
 14 15  1  0  0  0  0
 14 16  1  0  0  0  0
 14 20  1  0  0  0  0
 16 17  1  0  0  0  0
 16 18  1  0  0  0  0
 16 19  1  0  0  0  0
 20 21  1  0  0  0  0
 20 22  1  0  0  0  0
 20 23  1  0  0  0  0
 24 25  2  0  0  0  0
 24 26  1  0  0  0  0
 26 27  1  0  0  0  0
 26 28  1  0  0  0  0
 28 29  1  0  0  0  0
 28 30  1  0  0  0  0
 28 31  1  0  0  0  0
M  END
$$$$

  -OEChem-01062216083D

 31 30  0     1  0  0  0  0  0999 V2000
   -4.0079   -2.6500    0.6096 H   0  0  0  0  0  0  0  0  0  0  0  0
   -3.7545   -1.6678    0.2004 C   0  0  0  0  0  0  0  0  0  0  0  0
   -4.3592   -0.9109    0.7056 H   0  0  0  0  0  0  0  0  0  0  0  0
   -3.9890   -1.6604   -0.8670 H   0  0  0  0  0  0  0  0  0  0  0  0
   -2.2788   -1.3789    0.4064 C   0  0  0  0  0  0  0  0  0  0  0  0
   -1.5681   -2.2810    0.8111 O   0  0  0  0  0  0  0  0  0  0  0  0
   -1.7977   -0.1449    0.0060 N   0  0  0  0  0  0  0  0  0  0  0  0
   -2.4718    0.3993   -0.5256 H   0  0  0  0  0  0  0  0  0  0  0  0
   -0.4456    0.4574    0.1029 C   0  0  1  0  0  0  0  0  0  0  0  0
   -0.5917    1.2947    0.7874 H   0  0  0  0  0  0  0  0  0  0  0  0
    0.7380   -0.3376    0.7092 C   0  0  0  0  0  0  0  0  0  0  0  0
    0.8303   -1.2728    0.1461 H   0  0  0  0  0  0  0  0  0  0  0  0
    1.6622    0.2255    0.5415 H   0  0  0  0  0  0  0  0  0  0  0  0
    0.6466   -0.6713    2.2221 C   0  0  0  0  0  0  0  0  0  0  0  0
   -0.2814   -1.1858    2.4691 H   0  0  0  0  0  0  0  0  0  0  0  0
    1.8209   -1.5821    2.5987 C   0  0  0  0  0  0  0  0  0  0  0  0
    2.7771   -1.0918    2.3902 H   0  0  0  0  0  0  0  0  0  0  0  0
    1.7835   -1.8348    3.6629 H   0  0  0  0  0  0  0  0  0  0  0  0
    1.7748   -2.5139    2.0261 H   0  0  0  0  0  0  0  0  0  0  0  0
    0.7162    0.5990    3.0829 C   0  0  0  0  0  0  0  0  0  0  0  0
   -0.1774    1.2137    2.9453 H   0  0  0  0  0  0  0  0  0  0  0  0
    0.7760    0.3348    4.1435 H   0  0  0  0  0  0  0  0  0  0  0  0
    1.5975    1.1947    2.8247 H   0  0  0  0  0  0  0  0  0  0  0  0
   -0.0368    1.1351   -1.2224 C   0  0  0  0  0  0  0  0  0  0  0  0
   -0.3628    0.6549   -2.3000 O   0  0  0  0  0  0  0  0  0  0  0  0
    0.5472    2.3897   -1.2031 N   0  0  0  0  0  0  0  0  0  0  0  0
    0.8136    2.7712   -0.3003 H   0  0  0  0  0  0  0  0  0  0  0  0
    0.9193    3.1175   -2.4107 C   0  0  0  0  0  0  0  0  0  0  0  0
    0.0420    3.2855   -3.0443 H   0  0  0  0  0  0  0  0  0  0  0  0
    1.3463    4.0903   -2.1492 H   0  0  0  0  0  0  0  0  0  0  0  0
    1.6642    2.5541   -2.9827 H   0  0  0  0  0  0  0  0  0  0  0  0
  1  2  1  0  0  0  0
  2  3  1  0  0  0  0
  2  4  1  0  0  0  0
  2  5  1  0  0  0  0
  5  6  2  0  0  0  0
  5  7  1  0  0  0  0
  7  8  1  0  0  0  0
  7  9  1  0  0  0  0
  9 10  1  0  0  0  0
  9 11  1  0  0  0  0
  9 24  1  0  0  0  0
 11 12  1  0  0  0  0
 11 13  1  0  0  0  0
 11 14  1  0  0  0  0
 14 15  1  0  0  0  0
 14 16  1  0  0  0  0
 14 20  1  0  0  0  0
 16 17  1  0  0  0  0
 16 18  1  0  0  0  0
 16 19  1  0  0  0  0
 20 21  1  0  0  0  0
 20 22  1  0  0  0  0
 20 23  1  0  0  0  0
 24 25  2  0  0  0  0
 24 26  1  0  0  0  0
 26 27  1  0  0  0  0
 26 28  1  0  0  0  0
 28 29  1  0  0  0  0
 28 30  1  0  0  0  0
 28 31  1  0  0  0  0
M  END
$$$$

  -OEChem-01062216083D

 31 30  0     1  0  0  0  0  0999 V2000
   -4.0058   -2.6415    0.6115 H   0  0  0  0  0  0  0  0  0  0  0  0
   -3.7485   -1.6616    0.1992 C   0  0  0  0  0  0  0  0  0  0  0  0
   -4.3526   -0.9014    0.6998 H   0  0  0  0  0  0  0  0  0  0  0  0
   -3.9798   -1.6575   -0.8688 H   0  0  0  0  0  0  0  0  0  0  0  0
   -2.2728   -1.3753    0.4092 C   0  0  0  0  0  0  0  0  0  0  0  0
   -1.5638   -2.2804    0.8111 O   0  0  0  0  0  0  0  0  0  0  0  0
   -1.7868   -0.1423    0.0116 N   0  0  0  0  0  0  0  0  0  0  0  0
   -2.4499    0.3958   -0.5412 H   0  0  0  0  0  0  0  0  0  0  0  0
   -0.4332    0.4577    0.1049 C   0  0  1  0  0  0  0  0  0  0  0  0
   -0.5740    1.2995    0.7853 H   0  0  0  0  0  0  0  0  0  0  0  0
    0.7449   -0.3455    0.7139 C   0  0  0  0  0  0  0  0  0  0  0  0
    0.8295   -1.2832    0.1540 H   0  0  0  0  0  0  0  0  0  0  0  0
    1.6754    0.2072    0.5485 H   0  0  0  0  0  0  0  0  0  0  0  0
    0.6469   -0.6744    2.2273 C   0  0  0  0  0  0  0  0  0  0  0  0
   -0.2859   -1.1810    2.4732 H   0  0  0  0  0  0  0  0  0  0  0  0
    1.8131   -1.5933    2.6091 C   0  0  0  0  0  0  0  0  0  0  0  0
    2.7735   -1.1106    2.4026 H   0  0  0  0  0  0  0  0  0  0  0  0
    1.7704   -1.8434    3.6737 H   0  0  0  0  0  0  0  0  0  0  0  0
    1.7616   -2.5258    2.0381 H   0  0  0  0  0  0  0  0  0  0  0  0
    0.7230    0.5970    3.0860 C   0  0  0  0  0  0  0  0  0  0  0  0
   -0.1674    1.2159    2.9463 H   0  0  0  0  0  0  0  0  0  0  0  0
    0.7805    0.3341    4.1471 H   0  0  0  0  0  0  0  0  0  0  0  0
    1.6076    1.1877    2.8281 H   0  0  0  0  0  0  0  0  0  0  0  0
   -0.0282    1.1384   -1.2217 C   0  0  0  0  0  0  0  0  0  0  0  0
   -0.5874    0.8482   -2.2723 O   0  0  0  0  0  0  0  0  0  0  0  0
    0.8247    2.2284   -1.2042 N   0  0  0  0  0  0  0  0  0  0  0  0
    1.2773    2.4569   -0.3241 H   0  0  0  0  0  0  0  0  0  0  0  0
    1.2040    2.9680   -2.4023 C   0  0  0  0  0  0  0  0  0  0  0  0
    0.3170    3.3718   -2.9020 H   0  0  0  0  0  0  0  0  0  0  0  0
    1.8604    3.8030   -2.1392 H   0  0  0  0  0  0  0  0  0  0  0  0
    1.7363    2.3151   -3.1020 H   0  0  0  0  0  0  0  0  0  0  0  0
  1  2  1  0  0  0  0
  2  3  1  0  0  0  0
  2  4  1  0  0  0  0
  2  5  1  0  0  0  0
  5  6  2  0  0  0  0
  5  7  1  0  0  0  0
  7  8  1  0  0  0  0
  7  9  1  0  0  0  0
  9 10  1  0  0  0  0
  9 11  1  0  0  0  0
  9 24  1  0  0  0  0
 11 12  1  0  0  0  0
 11 13  1  0  0  0  0
 11 14  1  0  0  0  0
 14 15  1  0  0  0  0
 14 16  1  0  0  0  0
 14 20  1  0  0  0  0
 16 17  1  0  0  0  0
 16 18  1  0  0  0  0
 16 19  1  0  0  0  0
 20 21  1  0  0  0  0
 20 22  1  0  0  0  0
 20 23  1  0  0  0  0
 24 25  2  0  0  0  0
 24 26  1  0  0  0  0
 26 27  1  0  0  0  0
 26 28  1  0  0  0  0
 28 29  1  0  0  0  0
 28 30  1  0  0  0  0
 28 31  1  0  0  0  0
M  END
$$$$

  -OEChem-01062216083D

 31 30  0     1  0  0  0  0  0999 V2000
   -3.9953   -2.6356    0.5835 H   0  0  0  0  0  0  0  0  0  0  0  0
   -3.7335   -1.6490    0.1907 C   0  0  0  0  0  0  0  0  0  0  0  0
   -4.3346   -0.8957    0.7054 H   0  0  0  0  0  0  0  0  0  0  0  0
   -3.9635   -1.6226   -0.8774 H   0  0  0  0  0  0  0  0  0  0  0  0
   -2.2572   -1.3723    0.4079 C   0  0  0  0  0  0  0  0  0  0  0  0
   -1.5522   -2.2843    0.8015 O   0  0  0  0  0  0  0  0  0  0  0  0
   -1.7650   -0.1400    0.0174 N   0  0  0  0  0  0  0  0  0  0  0  0
   -2.4204    0.3999   -0.5442 H   0  0  0  0  0  0  0  0  0  0  0  0
   -0.4128    0.4610    0.1149 C   0  0  1  0  0  0  0  0  0  0  0  0
   -0.5483    1.3056    0.7932 H   0  0  0  0  0  0  0  0  0  0  0  0
    0.7559   -0.3541    0.7303 C   0  0  0  0  0  0  0  0  0  0  0  0
    0.8381   -1.2905    0.1684 H   0  0  0  0  0  0  0  0  0  0  0  0
    1.6935    0.1882    0.5775 H   0  0  0  0  0  0  0  0  0  0  0  0
    0.6433   -0.6850    2.2424 C   0  0  0  0  0  0  0  0  0  0  0  0
   -0.2959   -1.1833    2.4810 H   0  0  0  0  0  0  0  0  0  0  0  0
    1.7990   -1.6147    2.6309 C   0  0  0  0  0  0  0  0  0  0  0  0
    2.7650   -1.1392    2.4338 H   0  0  0  0  0  0  0  0  0  0  0  0
    1.7456   -1.8680    3.6943 H   0  0  0  0  0  0  0  0  0  0  0  0
    1.7446   -2.5452    2.0568 H   0  0  0  0  0  0  0  0  0  0  0  0
    0.7254    0.5850    3.1026 C   0  0  0  0  0  0  0  0  0  0  0  0
   -0.1583    1.2120    2.9571 H   0  0  0  0  0  0  0  0  0  0  0  0
    0.7738    0.3214    4.1638 H   0  0  0  0  0  0  0  0  0  0  0  0
    1.6167    1.1679    2.8504 H   0  0  0  0  0  0  0  0  0  0  0  0
   -0.0182    1.1427   -1.2163 C   0  0  0  0  0  0  0  0  0  0  0  0
   -0.7430    1.0532   -2.2012 O   0  0  0  0  0  0  0  0  0  0  0  0
    1.0497    2.0221   -1.2619 N   0  0  0  0  0  0  0  0  0  0  0  0
    1.6295    2.1014   -0.4318 H   0  0  0  0  0  0  0  0  0  0  0  0
    1.4333    2.7576   -2.4611 C   0  0  0  0  0  0  0  0  0  0  0  0
    0.6071    3.3881   -2.8061 H   0  0  0  0  0  0  0  0  0  0  0  0
    2.2930    3.4011   -2.2510 H   0  0  0  0  0  0  0  0  0  0  0  0
    1.7069    2.0645   -3.2635 H   0  0  0  0  0  0  0  0  0  0  0  0
  1  2  1  0  0  0  0
  2  3  1  0  0  0  0
  2  4  1  0  0  0  0
  2  5  1  0  0  0  0
  5  6  2  0  0  0  0
  5  7  1  0  0  0  0
  7  8  1  0  0  0  0
  7  9  1  0  0  0  0
  9 10  1  0  0  0  0
  9 11  1  0  0  0  0
  9 24  1  0  0  0  0
 11 12  1  0  0  0  0
 11 13  1  0  0  0  0
 11 14  1  0  0  0  0
 14 15  1  0  0  0  0
 14 16  1  0  0  0  0
 14 20  1  0  0  0  0
 16 17  1  0  0  0  0
 16 18  1  0  0  0  0
 16 19  1  0  0  0  0
 20 21  1  0  0  0  0
 20 22  1  0  0  0  0
 20 23  1  0  0  0  0
 24 25  2  0  0  0  0
 24 26  1  0  0  0  0
 26 27  1  0  0  0  0
 26 28  1  0  0  0  0
 28 29  1  0  0  0  0
 28 30  1  0  0  0  0
 28 31  1  0  0  0  0
M  END
$$$$

  -OEChem-01062216083D

 31 30  0     1  0  0  0  0  0999 V2000
   -2.6680   -2.2565   -0.5858 H   0  0  0  0  0  0  0  0  0  0  0  0
   -2.2533   -2.0719    0.4082 C   0  0  0  0  0  0  0  0  0  0  0  0
   -2.7545   -2.7249    1.1277 H   0  0  0  0  0  0  0  0  0  0  0  0
   -1.1940   -2.3221    0.3922 H   0  0  0  0  0  0  0  0  0  0  0  0
   -2.4830   -0.6154    0.7863 C   0  0  0  0  0  0  0  0  0  0  0  0
   -3.5319   -0.3090    1.3232 O   0  0  0  0  0  0  0  0  0  0  0  0
   -1.8529    0.4145    0.1358 N   0  0  0  0  0  0  0  0  0  0  0  0
   -2.4752    1.2183    0.0681 H   0  0  0  0  0  0  0  0  0  0  0  0
   -0.4171    0.7545   -0.0115 C   0  0  1  0  0  0  0  0  0  0  0  0
   -0.3030    1.5739    0.7052 H   0  0  0  0  0  0  0  0  0  0  0  0
    0.7188   -0.2108    0.4466 C   0  0  0  0  0  0  0  0  0  0  0  0
    0.5821   -1.1513   -0.0934 H   0  0  0  0  0  0  0  0  0  0  0  0
    1.6754    0.1953    0.1075 H   0  0  0  0  0  0  0  0  0  0  0  0
    0.9113   -0.5213    1.9633 C   0  0  0  0  0  0  0  0  0  0  0  0
    1.3173    0.3975    2.4002 H   0  0  0  0  0  0  0  0  0  0  0  0
    1.9885   -1.6056    2.1004 C   0  0  0  0  0  0  0  0  0  0  0  0
    2.8995   -1.3139    1.5683 H   0  0  0  0  0  0  0  0  0  0  0  0
    2.2459   -1.7602    3.1531 H   0  0  0  0  0  0  0  0  0  0  0  0
    1.6330   -2.5551    1.6873 H   0  0  0  0  0  0  0  0  0  0  0  0
   -0.2770   -0.8901    2.8541 C   0  0  0  0  0  0  0  0  0  0  0  0
   -1.0254   -0.0939    2.8515 H   0  0  0  0  0  0  0  0  0  0  0  0
   -0.7279   -1.8360    2.5513 H   0  0  0  0  0  0  0  0  0  0  0  0
    0.0602   -1.0075    3.8889 H   0  0  0  0  0  0  0  0  0  0  0  0
   -0.1420    1.4766   -1.3588 C   0  0  0  0  0  0  0  0  0  0  0  0
   -1.0644    1.7662   -2.1097 O   0  0  0  0  0  0  0  0  0  0  0  0
    1.1322    1.8897   -1.7122 N   0  0  0  0  0  0  0  0  0  0  0  0
    1.8894    1.6947   -1.0653 H   0  0  0  0  0  0  0  0  0  0  0  0
    1.4287    2.6228   -2.9380 C   0  0  0  0  0  0  0  0  0  0  0  0
    0.9244    3.5949   -2.9344 H   0  0  0  0  0  0  0  0  0  0  0  0
    2.5062    2.7918   -3.0267 H   0  0  0  0  0  0  0  0  0  0  0  0
    1.0957    2.0562   -3.8142 H   0  0  0  0  0  0  0  0  0  0  0  0
  1  2  1  0  0  0  0
  2  3  1  0  0  0  0
  2  4  1  0  0  0  0
  2  5  1  0  0  0  0
  5  6  2  0  0  0  0
  5  7  1  0  0  0  0
  7  8  1  0  0  0  0
  7  9  1  0  0  0  0
  9 10  1  0  0  0  0
  9 11  1  0  0  0  0
  9 24  1  0  0  0  0
 11 12  1  0  0  0  0
 11 13  1  0  0  0  0
 11 14  1  0  0  0  0
 14 15  1  0  0  0  0
 14 16  1  0  0  0  0
 14 20  1  0  0  0  0
 16 17  1  0  0  0  0
 16 18  1  0  0  0  0
 16 19  1  0  0  0  0
 20 21  1  0  0  0  0
 20 22  1  0  0  0  0
 20 23  1  0  0  0  0
 24 25  2  0  0  0  0
 24 26  1  0  0  0  0
 26 27  1  0  0  0  0
 26 28  1  0  0  0  0
 28 29  1  0  0  0  0
 28 30  1  0  0  0  0
 28 31  1  0  0  0  0
M  END
$$$$

  -OEChem-01062216083D

 31 30  0     1  0  0  0  0  0999 V2000
   -2.6252   -2.2402   -0.6130 H   0  0  0  0  0  0  0  0  0  0  0  0
   -2.2311   -2.0614    0.3905 C   0  0  0  0  0  0  0  0  0  0  0  0
   -2.7523   -2.7136    1.0964 H   0  0  0  0  0  0  0  0  0  0  0  0
   -1.1735   -2.3189    0.3974 H   0  0  0  0  0  0  0  0  0  0  0  0
   -2.4595   -0.6046    0.7689 C   0  0  0  0  0  0  0  0  0  0  0  0
   -3.5108   -0.2961    1.2995 O   0  0  0  0  0  0  0  0  0  0  0  0
   -1.8191    0.4246    0.1270 N   0  0  0  0  0  0  0  0  0  0  0  0
   -2.4303    1.2384    0.0688 H   0  0  0  0  0  0  0  0  0  0  0  0
   -0.3804    0.7524   -0.0131 C   0  0  1  0  0  0  0  0  0  0  0  0
   -0.2603    1.5722    0.7022 H   0  0  0  0  0  0  0  0  0  0  0  0
    0.7463   -0.2194    0.4562 C   0  0  0  0  0  0  0  0  0  0  0  0
    0.6135   -1.1602   -0.0841 H   0  0  0  0  0  0  0  0  0  0  0  0
    1.7076    0.1867    0.1320 H   0  0  0  0  0  0  0  0  0  0  0  0
    0.9256   -0.5236    1.9759 C   0  0  0  0  0  0  0  0  0  0  0  0
    1.3343    0.3946    2.4120 H   0  0  0  0  0  0  0  0  0  0  0  0
    1.9938   -1.6148    2.1277 C   0  0  0  0  0  0  0  0  0  0  0  0
    2.9128   -1.3312    1.6054 H   0  0  0  0  0  0  0  0  0  0  0  0
    2.2382   -1.7690    3.1836 H   0  0  0  0  0  0  0  0  0  0  0  0
    1.6364   -2.5629    1.7133 H   0  0  0  0  0  0  0  0  0  0  0  0
   -0.2726   -0.8804    2.8584 C   0  0  0  0  0  0  0  0  0  0  0  0
   -1.0166   -0.0802    2.8441 H   0  0  0  0  0  0  0  0  0  0  0  0
   -0.7264   -1.8256    2.5576 H   0  0  0  0  0  0  0  0  0  0  0  0
    0.0549   -0.9928    3.8968 H   0  0  0  0  0  0  0  0  0  0  0  0
   -0.1137    1.4800   -1.3599 C   0  0  0  0  0  0  0  0  0  0  0  0
   -1.0378    2.0164   -1.9584 O   0  0  0  0  0  0  0  0  0  0  0  0
    1.1617    1.6262   -1.8806 N   0  0  0  0  0  0  0  0  0  0  0  0
    1.9307    1.1941   -1.3792 H   0  0  0  0  0  0  0  0  0  0  0  0
    1.4463    2.3347   -3.1235 C   0  0  0  0  0  0  0  0  0  0  0  0
    1.1320    3.3812   -3.0495 H   0  0  0  0  0  0  0  0  0  0  0  0
    2.5196    2.3107   -3.3351 H   0  0  0  0  0  0  0  0  0  0  0  0
    0.9183    1.8667   -3.9611 H   0  0  0  0  0  0  0  0  0  0  0  0
  1  2  1  0  0  0  0
  2  3  1  0  0  0  0
  2  4  1  0  0  0  0
  2  5  1  0  0  0  0
  5  6  2  0  0  0  0
  5  7  1  0  0  0  0
  7  8  1  0  0  0  0
  7  9  1  0  0  0  0
  9 10  1  0  0  0  0
  9 11  1  0  0  0  0
  9 24  1  0  0  0  0
 11 12  1  0  0  0  0
 11 13  1  0  0  0  0
 11 14  1  0  0  0  0
 14 15  1  0  0  0  0
 14 16  1  0  0  0  0
 14 20  1  0  0  0  0
 16 17  1  0  0  0  0
 16 18  1  0  0  0  0
 16 19  1  0  0  0  0
 20 21  1  0  0  0  0
 20 22  1  0  0  0  0
 20 23  1  0  0  0  0
 24 25  2  0  0  0  0
 24 26  1  0  0  0  0
 26 27  1  0  0  0  0
 26 28  1  0  0  0  0
 28 29  1  0  0  0  0
 28 30  1  0  0  0  0
 28 31  1  0  0  0  0
M  END
$$$$

  -OEChem-01062216083D

 31 30  0     1  0  0  0  0  0999 V2000
   -2.6418   -2.2475   -0.6000 H   0  0  0  0  0  0  0  0  0  0  0  0
   -2.2222   -2.0470    0.3889 C   0  0  0  0  0  0  0  0  0  0  0  0
   -2.7194   -2.6891    1.1209 H   0  0  0  0  0  0  0  0  0  0  0  0
   -1.1630   -2.2970    0.3718 H   0  0  0  0  0  0  0  0  0  0  0  0
   -2.4507   -0.5854    0.7471 C   0  0  0  0  0  0  0  0  0  0  0  0
   -3.5085   -0.2689    1.2595 O   0  0  0  0  0  0  0  0  0  0  0  0
   -1.7961    0.4369    0.1080 N   0  0  0  0  0  0  0  0  0  0  0  0
   -2.3942    1.2615    0.0608 H   0  0  0  0  0  0  0  0  0  0  0  0
   -0.3536    0.7495   -0.0199 C   0  0  1  0  0  0  0  0  0  0  0  0
   -0.2320    1.5708    0.6935 H   0  0  0  0  0  0  0  0  0  0  0  0
    0.7689   -0.2215    0.4584 C   0  0  0  0  0  0  0  0  0  0  0  0
    0.6444   -1.1638   -0.0815 H   0  0  0  0  0  0  0  0  0  0  0  0
    1.7308    0.1925    0.1423 H   0  0  0  0  0  0  0  0  0  0  0  0
    0.9381   -0.5196    1.9798 C   0  0  0  0  0  0  0  0  0  0  0  0
    1.3432    0.3999    2.4167 H   0  0  0  0  0  0  0  0  0  0  0  0
    2.0043   -1.6113    2.1408 C   0  0  0  0  0  0  0  0  0  0  0  0
    2.9269   -1.3287    1.6238 H   0  0  0  0  0  0  0  0  0  0  0  0
    2.2415   -1.7634    3.1986 H   0  0  0  0  0  0  0  0  0  0  0  0
    1.6492   -2.5600    1.7257 H   0  0  0  0  0  0  0  0  0  0  0  0
   -0.2679   -0.8759    2.8517 C   0  0  0  0  0  0  0  0  0  0  0  0
   -1.0118   -0.0758    2.8301 H   0  0  0  0  0  0  0  0  0  0  0  0
   -0.7190   -1.8213    2.5476 H   0  0  0  0  0  0  0  0  0  0  0  0
    0.0508   -0.9876    3.8929 H   0  0  0  0  0  0  0  0  0  0  0  0
   -0.0812    1.4701   -1.3669 C   0  0  0  0  0  0  0  0  0  0  0  0
   -0.9307    2.2200   -1.8311 O   0  0  0  0  0  0  0  0  0  0  0  0
    1.1226    1.3531   -2.0420 N   0  0  0  0  0  0  0  0  0  0  0  0
    1.8119    0.7079   -1.6700 H   0  0  0  0  0  0  0  0  0  0  0  0
    1.4020    2.0255   -3.3059 C   0  0  0  0  0  0  0  0  0  0  0  0
    1.3410    3.1122   -3.1844 H   0  0  0  0  0  0  0  0  0  0  0  0
    2.4083    1.7734   -3.6537 H   0  0  0  0  0  0  0  0  0  0  0  0
    0.6834    1.7158   -4.0723 H   0  0  0  0  0  0  0  0  0  0  0  0
  1  2  1  0  0  0  0
  2  3  1  0  0  0  0
  2  4  1  0  0  0  0
  2  5  1  0  0  0  0
  5  6  2  0  0  0  0
  5  7  1  0  0  0  0
  7  8  1  0  0  0  0
  7  9  1  0  0  0  0
  9 10  1  0  0  0  0
  9 11  1  0  0  0  0
  9 24  1  0  0  0  0
 11 12  1  0  0  0  0
 11 13  1  0  0  0  0
 11 14  1  0  0  0  0
 14 15  1  0  0  0  0
 14 16  1  0  0  0  0
 14 20  1  0  0  0  0
 16 17  1  0  0  0  0
 16 18  1  0  0  0  0
 16 19  1  0  0  0  0
 20 21  1  0  0  0  0
 20 22  1  0  0  0  0
 20 23  1  0  0  0  0
 24 25  2  0  0  0  0
 24 26  1  0  0  0  0
 26 27  1  0  0  0  0
 26 28  1  0  0  0  0
 28 29  1  0  0  0  0
 28 30  1  0  0  0  0
 28 31  1  0  0  0  0
M  END
$$$$

  -OEChem-01062216083D

 31 30  0     1  0  0  0  0  0999 V2000
   -2.6742   -2.2171   -0.5931 H   0  0  0  0  0  0  0  0  0  0  0  0
   -2.2339   -2.0152    0.3864 C   0  0  0  0  0  0  0  0  0  0  0  0
   -2.7220   -2.6490    1.1316 H   0  0  0  0  0  0  0  0  0  0  0  0
   -1.1773   -2.2740    0.3503 H   0  0  0  0  0  0  0  0  0  0  0  0
   -2.4430   -0.5497    0.7404 C   0  0  0  0  0  0  0  0  0  0  0  0
   -3.4960   -0.2180    1.2526 O   0  0  0  0  0  0  0  0  0  0  0  0
   -1.7773    0.4618    0.0955 N   0  0  0  0  0  0  0  0  0  0  0  0
   -2.3589    1.2993    0.0699 H   0  0  0  0  0  0  0  0  0  0  0  0
   -0.3308    0.7533   -0.0260 C   0  0  1  0  0  0  0  0  0  0  0  0
   -0.2009    1.5758    0.6851 H   0  0  0  0  0  0  0  0  0  0  0  0
    0.7845   -0.2237    0.4519 C   0  0  0  0  0  0  0  0  0  0  0  0
    0.6538   -1.1659   -0.0867 H   0  0  0  0  0  0  0  0  0  0  0  0
    1.7461    0.1894    0.1305 H   0  0  0  0  0  0  0  0  0  0  0  0
    0.9533   -0.5249    1.9723 C   0  0  0  0  0  0  0  0  0  0  0  0
    1.3624    0.3918    2.4112 H   0  0  0  0  0  0  0  0  0  0  0  0
    2.0133   -1.6230    2.1299 C   0  0  0  0  0  0  0  0  0  0  0  0
    2.9368   -1.3437    1.6128 H   0  0  0  0  0  0  0  0  0  0  0  0
    2.2508   -1.7786    3.1871 H   0  0  0  0  0  0  0  0  0  0  0  0
    1.6529   -2.5688    1.7129 H   0  0  0  0  0  0  0  0  0  0  0  0
   -0.2552   -0.8786    2.8412 C   0  0  0  0  0  0  0  0  0  0  0  0
   -0.9946   -0.0744    2.8233 H   0  0  0  0  0  0  0  0  0  0  0  0
   -0.7109   -1.8197    2.5307 H   0  0  0  0  0  0  0  0  0  0  0  0
    0.0614   -0.9979    3.8821 H   0  0  0  0  0  0  0  0  0  0  0  0
   -0.0468    1.4583   -1.3749 C   0  0  0  0  0  0  0  0  0  0  0  0
   -0.7656    2.3833   -1.7297 O   0  0  0  0  0  0  0  0  0  0  0  0
    1.0127    1.0930   -2.1886 N   0  0  0  0  0  0  0  0  0  0  0  0
    1.5633    0.2869   -1.9107 H   0  0  0  0  0  0  0  0  0  0  0  0
    1.2862    1.7199   -3.4765 C   0  0  0  0  0  0  0  0  0  0  0  0
    1.4730    2.7914   -3.3494 H   0  0  0  0  0  0  0  0  0  0  0  0
    2.1702    1.2685   -3.9371 H   0  0  0  0  0  0  0  0  0  0  0  0
    0.4369    1.5883   -4.1552 H   0  0  0  0  0  0  0  0  0  0  0  0
  1  2  1  0  0  0  0
  2  3  1  0  0  0  0
  2  4  1  0  0  0  0
  2  5  1  0  0  0  0
  5  6  2  0  0  0  0
  5  7  1  0  0  0  0
  7  8  1  0  0  0  0
  7  9  1  0  0  0  0
  9 10  1  0  0  0  0
  9 11  1  0  0  0  0
  9 24  1  0  0  0  0
 11 12  1  0  0  0  0
 11 13  1  0  0  0  0
 11 14  1  0  0  0  0
 14 15  1  0  0  0  0
 14 16  1  0  0  0  0
 14 20  1  0  0  0  0
 16 17  1  0  0  0  0
 16 18  1  0  0  0  0
 16 19  1  0  0  0  0
 20 21  1  0  0  0  0
 20 22  1  0  0  0  0
 20 23  1  0  0  0  0
 24 25  2  0  0  0  0
 24 26  1  0  0  0  0
 26 27  1  0  0  0  0
 26 28  1  0  0  0  0
 28 29  1  0  0  0  0
 28 30  1  0  0  0  0
 28 31  1  0  0  0  0
M  END
$$$$

  -OEChem-01062216083D

 31 30  0     1  0  0  0  0  0999 V2000
   -2.7121   -2.1978   -0.5847 H   0  0  0  0  0  0  0  0  0  0  0  0
   -2.2462   -1.9933    0.3821 C   0  0  0  0  0  0  0  0  0  0  0  0
   -2.7198   -2.6203    1.1422 H   0  0  0  0  0  0  0  0  0  0  0  0
   -1.1923   -2.2588    0.3211 H   0  0  0  0  0  0  0  0  0  0  0  0
   -2.4361   -0.5248    0.7334 C   0  0  0  0  0  0  0  0  0  0  0  0
   -3.4807   -0.1785    1.2527 O   0  0  0  0  0  0  0  0  0  0  0  0
   -1.7644    0.4768    0.0797 N   0  0  0  0  0  0  0  0  0  0  0  0
   -2.3330    1.3235    0.0764 H   0  0  0  0  0  0  0  0  0  0  0  0
   -0.3151    0.7525   -0.0375 C   0  0  1  0  0  0  0  0  0  0  0  0
   -0.1800    1.5768    0.6709 H   0  0  0  0  0  0  0  0  0  0  0  0
    0.7963   -0.2269    0.4407 C   0  0  0  0  0  0  0  0  0  0  0  0
    0.6589   -1.1708   -0.0931 H   0  0  0  0  0  0  0  0  0  0  0  0
    1.7568    0.1826    0.1089 H   0  0  0  0  0  0  0  0  0  0  0  0
    0.9664   -0.5278    1.9607 C   0  0  0  0  0  0  0  0  0  0  0  0
    1.3785    0.3875    2.3998 H   0  0  0  0  0  0  0  0  0  0  0  0
    2.0232   -1.6292    2.1171 C   0  0  0  0  0  0  0  0  0  0  0  0
    2.9438   -1.3568    1.5912 H   0  0  0  0  0  0  0  0  0  0  0  0
    2.2679   -1.7791    3.1735 H   0  0  0  0  0  0  0  0  0  0  0  0
    1.6559   -2.5762    1.7088 H   0  0  0  0  0  0  0  0  0  0  0  0
   -0.2437   -0.8802    2.8282 C   0  0  0  0  0  0  0  0  0  0  0  0
   -0.9795   -0.0726    2.8137 H   0  0  0  0  0  0  0  0  0  0  0  0
   -0.7032   -1.8177    2.5124 H   0  0  0  0  0  0  0  0  0  0  0  0
    0.0718   -1.0060    3.8687 H   0  0  0  0  0  0  0  0  0  0  0  0
   -0.0160    1.4402   -1.3883 C   0  0  0  0  0  0  0  0  0  0  0  0
   -0.5576    2.5053   -1.6516 O   0  0  0  0  0  0  0  0  0  0  0  0
    0.8355    0.8707   -2.3193 N   0  0  0  0  0  0  0  0  0  0  0  0
    1.2108   -0.0491   -2.1111 H   0  0  0  0  0  0  0  0  0  0  0  0
    1.0950    1.4568   -3.6289 C   0  0  0  0  0  0  0  0  0  0  0  0
    1.5261    2.4578   -3.5224 H   0  0  0  0  0  0  0  0  0  0  0  0
    1.8007    0.8354   -4.1883 H   0  0  0  0  0  0  0  0  0  0  0  0
    0.1671    1.5324   -4.2055 H   0  0  0  0  0  0  0  0  0  0  0  0
  1  2  1  0  0  0  0
  2  3  1  0  0  0  0
  2  4  1  0  0  0  0
  2  5  1  0  0  0  0
  5  6  2  0  0  0  0
  5  7  1  0  0  0  0
  7  8  1  0  0  0  0
  7  9  1  0  0  0  0
  9 10  1  0  0  0  0
  9 11  1  0  0  0  0
  9 24  1  0  0  0  0
 11 12  1  0  0  0  0
 11 13  1  0  0  0  0
 11 14  1  0  0  0  0
 14 15  1  0  0  0  0
 14 16  1  0  0  0  0
 14 20  1  0  0  0  0
 16 17  1  0  0  0  0
 16 18  1  0  0  0  0
 16 19  1  0  0  0  0
 20 21  1  0  0  0  0
 20 22  1  0  0  0  0
 20 23  1  0  0  0  0
 24 25  2  0  0  0  0
 24 26  1  0  0  0  0
 26 27  1  0  0  0  0
 26 28  1  0  0  0  0
 28 29  1  0  0  0  0
 28 30  1  0  0  0  0
 28 31  1  0  0  0  0
M  END
$$$$

  -OEChem-01062216083D

 31 30  0     1  0  0  0  0  0999 V2000
   -2.7639   -2.1839   -0.5609 H   0  0  0  0  0  0  0  0  0  0  0  0
   -2.2611   -1.9729    0.3860 C   0  0  0  0  0  0  0  0  0  0  0  0
   -2.7084   -2.5902    1.1697 H   0  0  0  0  0  0  0  0  0  0  0  0
   -1.2112   -2.2433    0.2876 H   0  0  0  0  0  0  0  0  0  0  0  0
   -2.4304   -0.5003    0.7309 C   0  0  0  0  0  0  0  0  0  0  0  0
   -3.4687   -0.1374    1.2513 O   0  0  0  0  0  0  0  0  0  0  0  0
   -1.7529    0.4894    0.0654 N   0  0  0  0  0  0  0  0  0  0  0  0
   -2.3099    1.3437    0.0784 H   0  0  0  0  0  0  0  0  0  0  0  0
   -0.3008    0.7497   -0.0501 C   0  0  1  0  0  0  0  0  0  0  0  0
   -0.1592    1.5755    0.6558 H   0  0  0  0  0  0  0  0  0  0  0  0
    0.8053   -0.2341    0.4266 C   0  0  0  0  0  0  0  0  0  0  0  0
    0.6607   -1.1786   -0.1040 H   0  0  0  0  0  0  0  0  0  0  0  0
    1.7654    0.1693    0.0859 H   0  0  0  0  0  0  0  0  0  0  0  0
    0.9780   -0.5358    1.9456 C   0  0  0  0  0  0  0  0  0  0  0  0
    1.3946    0.3778    2.3841 H   0  0  0  0  0  0  0  0  0  0  0  0
    2.0294   -1.6425    2.0995 C   0  0  0  0  0  0  0  0  0  0  0  0
    2.9523   -1.3721    1.5770 H   0  0  0  0  0  0  0  0  0  0  0  0
    2.2709   -1.7983    3.1558 H   0  0  0  0  0  0  0  0  0  0  0  0
    1.6582   -2.5858    1.6863 H   0  0  0  0  0  0  0  0  0  0  0  0
   -0.2311   -0.8852    2.8146 C   0  0  0  0  0  0  0  0  0  0  0  0
   -0.9624   -0.0734    2.8060 H   0  0  0  0  0  0  0  0  0  0  0  0
   -0.6958   -1.8188    2.4950 H   0  0  0  0  0  0  0  0  0  0  0  0
    0.0870   -1.0174    3.8537 H   0  0  0  0  0  0  0  0  0  0  0  0
    0.0124    1.4172   -1.4049 C   0  0  0  0  0  0  0  0  0  0  0  0
   -0.3011    2.5849   -1.5903 O   0  0  0  0  0  0  0  0  0  0  0  0
    0.6021    0.7011   -2.4315 N   0  0  0  0  0  0  0  0  0  0  0  0
    0.7596   -0.2902   -2.2797 H   0  0  0  0  0  0  0  0  0  0  0  0
    0.8361    1.2560   -3.7593 C   0  0  0  0  0  0  0  0  0  0  0  0
    1.4983    2.1261   -3.6999 H   0  0  0  0  0  0  0  0  0  0  0  0
    1.3068    0.5078   -4.4042 H   0  0  0  0  0  0  0  0  0  0  0  0
   -0.1095    1.5634   -4.2181 H   0  0  0  0  0  0  0  0  0  0  0  0
  1  2  1  0  0  0  0
  2  3  1  0  0  0  0
  2  4  1  0  0  0  0
  2  5  1  0  0  0  0
  5  6  2  0  0  0  0
  5  7  1  0  0  0  0
  7  8  1  0  0  0  0
  7  9  1  0  0  0  0
  9 10  1  0  0  0  0
  9 11  1  0  0  0  0
  9 24  1  0  0  0  0
 11 12  1  0  0  0  0
 11 13  1  0  0  0  0
 11 14  1  0  0  0  0
 14 15  1  0  0  0  0
 14 16  1  0  0  0  0
 14 20  1  0  0  0  0
 16 17  1  0  0  0  0
 16 18  1  0  0  0  0
 16 19  1  0  0  0  0
 20 21  1  0  0  0  0
 20 22  1  0  0  0  0
 20 23  1  0  0  0  0
 24 25  2  0  0  0  0
 24 26  1  0  0  0  0
 26 27  1  0  0  0  0
 26 28  1  0  0  0  0
 28 29  1  0  0  0  0
 28 30  1  0  0  0  0
 28 31  1  0  0  0  0
M  END
$$$$

  -OEChem-01062216083D

 31 30  0     1  0  0  0  0  0999 V2000
   -2.8101   -2.1522   -0.5390 H   0  0  0  0  0  0  0  0  0  0  0  0
   -2.2928   -1.9439    0.4006 C   0  0  0  0  0  0  0  0  0  0  0  0
   -2.7414   -2.5489    1.1930 H   0  0  0  0  0  0  0  0  0  0  0  0
   -1.2482   -2.2312    0.2917 H   0  0  0  0  0  0  0  0  0  0  0  0
   -2.4336   -0.4669    0.7374 C   0  0  0  0  0  0  0  0  0  0  0  0
   -3.4629   -0.0805    1.2581 O   0  0  0  0  0  0  0  0  0  0  0  0
   -1.7487    0.5037    0.0527 N   0  0  0  0  0  0  0  0  0  0  0  0
   -2.2918    1.3664    0.0757 H   0  0  0  0  0  0  0  0  0  0  0  0
   -0.2933    0.7431   -0.0660 C   0  0  1  0  0  0  0  0  0  0  0  0
   -0.1407    1.5736    0.6324 H   0  0  0  0  0  0  0  0  0  0  0  0
    0.8058   -0.2482    0.4100 C   0  0  0  0  0  0  0  0  0  0  0  0
    0.6483   -1.1933   -0.1158 H   0  0  0  0  0  0  0  0  0  0  0  0
    1.7667    0.1444    0.0583 H   0  0  0  0  0  0  0  0  0  0  0  0
    0.9853   -0.5481    1.9289 C   0  0  0  0  0  0  0  0  0  0  0  0
    1.4123    0.3625    2.3635 H   0  0  0  0  0  0  0  0  0  0  0  0
    2.0288   -1.6634    2.0791 C   0  0  0  0  0  0  0  0  0  0  0  0
    2.9497   -1.4022    1.5479 H   0  0  0  0  0  0  0  0  0  0  0  0
    2.2784   -1.8165    3.1340 H   0  0  0  0  0  0  0  0  0  0  0  0
    1.6480   -2.6060    1.6727 H   0  0  0  0  0  0  0  0  0  0  0  0
   -0.2215   -0.8873    2.8052 C   0  0  0  0  0  0  0  0  0  0  0  0
   -0.9455   -0.0692    2.8006 H   0  0  0  0  0  0  0  0  0  0  0  0
   -0.6959   -1.8172    2.4889 H   0  0  0  0  0  0  0  0  0  0  0  0
    0.1016   -1.0215    3.8424 H   0  0  0  0  0  0  0  0  0  0  0  0
    0.0313    1.3807   -1.4309 C   0  0  0  0  0  0  0  0  0  0  0  0
    0.0154    2.5969   -1.5573 O   0  0  0  0  0  0  0  0  0  0  0  0
    0.3179    0.5839   -2.5244 N   0  0  0  0  0  0  0  0  0  0  0  0
    0.2148   -0.4194   -2.4084 H   0  0  0  0  0  0  0  0  0  0  0  0
    0.5553    1.1181   -3.8598 C   0  0  0  0  0  0  0  0  0  0  0  0
    1.4217    1.7878   -3.8559 H   0  0  0  0  0  0  0  0  0  0  0  0
    0.7525    0.3038   -4.5635 H   0  0  0  0  0  0  0  0  0  0  0  0
   -0.3198    1.6750   -4.2108 H   0  0  0  0  0  0  0  0  0  0  0  0
  1  2  1  0  0  0  0
  2  3  1  0  0  0  0
  2  4  1  0  0  0  0
  2  5  1  0  0  0  0
  5  6  2  0  0  0  0
  5  7  1  0  0  0  0
  7  8  1  0  0  0  0
  7  9  1  0  0  0  0
  9 10  1  0  0  0  0
  9 11  1  0  0  0  0
  9 24  1  0  0  0  0
 11 12  1  0  0  0  0
 11 13  1  0  0  0  0
 11 14  1  0  0  0  0
 14 15  1  0  0  0  0
 14 16  1  0  0  0  0
 14 20  1  0  0  0  0
 16 17  1  0  0  0  0
 16 18  1  0  0  0  0
 16 19  1  0  0  0  0
 20 21  1  0  0  0  0
 20 22  1  0  0  0  0
 20 23  1  0  0  0  0
 24 25  2  0  0  0  0
 24 26  1  0  0  0  0
 26 27  1  0  0  0  0
 26 28  1  0  0  0  0
 28 29  1  0  0  0  0
 28 30  1  0  0  0  0
 28 31  1  0  0  0  0
M  END
$$$$

  -OEChem-01062216083D

 31 30  0     1  0  0  0  0  0999 V2000
   -2.8726   -2.1639   -0.4631 H   0  0  0  0  0  0  0  0  0  0  0  0
   -2.3156   -1.9343    0.4483 C   0  0  0  0  0  0  0  0  0  0  0  0
   -2.7322   -2.5181    1.2737 H   0  0  0  0  0  0  0  0  0  0  0  0
   -1.2772   -2.2285    0.3030 H   0  0  0  0  0  0  0  0  0  0  0  0
   -2.4382   -0.4489    0.7549 C   0  0  0  0  0  0  0  0  0  0  0  0
   -3.4585   -0.0406    1.2764 O   0  0  0  0  0  0  0  0  0  0  0  0
   -1.7531    0.5037    0.0453 N   0  0  0  0  0  0  0  0  0  0  0  0
   -2.2858    1.3723    0.0748 H   0  0  0  0  0  0  0  0  0  0  0  0
   -0.2959    0.7255   -0.0909 C   0  0  1  0  0  0  0  0  0  0  0  0
   -0.1305    1.5642    0.5949 H   0  0  0  0  0  0  0  0  0  0  0  0
    0.7984   -0.2688    0.3865 C   0  0  0  0  0  0  0  0  0  0  0  0
    0.6286   -1.2185   -0.1273 H   0  0  0  0  0  0  0  0  0  0  0  0
    1.7585    0.1121    0.0203 H   0  0  0  0  0  0  0  0  0  0  0  0
    0.9921   -0.5506    1.9070 C   0  0  0  0  0  0  0  0  0  0  0  0
    1.4320    0.3621    2.3243 H   0  0  0  0  0  0  0  0  0  0  0  0
    2.0270   -1.6732    2.0586 C   0  0  0  0  0  0  0  0  0  0  0  0
    2.9442   -1.4260    1.5148 H   0  0  0  0  0  0  0  0  0  0  0  0
    2.2864   -1.8171    3.1123 H   0  0  0  0  0  0  0  0  0  0  0  0
    1.6328   -2.6161    1.6663 H   0  0  0  0  0  0  0  0  0  0  0  0
   -0.2066   -0.8689    2.8020 C   0  0  0  0  0  0  0  0  0  0  0  0
   -0.9243   -0.0453    2.7961 H   0  0  0  0  0  0  0  0  0  0  0  0
   -0.6913   -1.7992    2.5033 H   0  0  0  0  0  0  0  0  0  0  0  0
    0.1280   -0.9927    3.8369 H   0  0  0  0  0  0  0  0  0  0  0  0
    0.0296    1.3349   -1.4679 C   0  0  0  0  0  0  0  0  0  0  0  0
    0.3514    2.5110   -1.5611 O   0  0  0  0  0  0  0  0  0  0  0  0
   -0.0064    0.5428   -2.6003 N   0  0  0  0  0  0  0  0  0  0  0  0
   -0.3773   -0.3968   -2.4951 H   0  0  0  0  0  0  0  0  0  0  0  0
    0.2402    1.0583   -3.9415 C   0  0  0  0  0  0  0  0  0  0  0  0
    1.2471    1.4834   -4.0091 H   0  0  0  0  0  0  0  0  0  0  0  0
    0.1559    0.2534   -4.6778 H   0  0  0  0  0  0  0  0  0  0  0  0
   -0.4880    1.8365   -4.1930 H   0  0  0  0  0  0  0  0  0  0  0  0
  1  2  1  0  0  0  0
  2  3  1  0  0  0  0
  2  4  1  0  0  0  0
  2  5  1  0  0  0  0
  5  6  2  0  0  0  0
  5  7  1  0  0  0  0
  7  8  1  0  0  0  0
  7  9  1  0  0  0  0
  9 10  1  0  0  0  0
  9 11  1  0  0  0  0
  9 24  1  0  0  0  0
 11 12  1  0  0  0  0
 11 13  1  0  0  0  0
 11 14  1  0  0  0  0
 14 15  1  0  0  0  0
 14 16  1  0  0  0  0
 14 20  1  0  0  0  0
 16 17  1  0  0  0  0
 16 18  1  0  0  0  0
 16 19  1  0  0  0  0
 20 21  1  0  0  0  0
 20 22  1  0  0  0  0
 20 23  1  0  0  0  0
 24 25  2  0  0  0  0
 24 26  1  0  0  0  0
 26 27  1  0  0  0  0
 26 28  1  0  0  0  0
 28 29  1  0  0  0  0
 28 30  1  0  0  0  0
 28 31  1  0  0  0  0
M  END
$$$$

  -OEChem-01062216083D

 31 30  0     1  0  0  0  0  0999 V2000
   -2.8968   -2.1763   -0.4448 H   0  0  0  0  0  0  0  0  0  0  0  0
   -2.3348   -1.9454    0.4633 C   0  0  0  0  0  0  0  0  0  0  0  0
   -2.7502   -2.5244    1.2925 H   0  0  0  0  0  0  0  0  0  0  0  0
   -1.2981   -2.2443    0.3144 H   0  0  0  0  0  0  0  0  0  0  0  0
   -2.4498   -0.4584    0.7649 C   0  0  0  0  0  0  0  0  0  0  0  0
   -3.4685   -0.0430    1.2839 O   0  0  0  0  0  0  0  0  0  0  0  0
   -1.7683    0.4895    0.0456 N   0  0  0  0  0  0  0  0  0  0  0  0
   -2.2988    1.3590    0.0824 H   0  0  0  0  0  0  0  0  0  0  0  0
   -0.3102    0.7066   -0.1021 C   0  0  1  0  0  0  0  0  0  0  0  0
   -0.1387    1.5490    0.5773 H   0  0  0  0  0  0  0  0  0  0  0  0
    0.7852   -0.2882    0.3722 C   0  0  0  0  0  0  0  0  0  0  0  0
    0.6091   -1.2398   -0.1358 H   0  0  0  0  0  0  0  0  0  0  0  0
    1.7439    0.0877   -0.0035 H   0  0  0  0  0  0  0  0  0  0  0  0
    0.9893   -0.5627    1.8926 C   0  0  0  0  0  0  0  0  0  0  0  0
    1.4353    0.3513    2.3007 H   0  0  0  0  0  0  0  0  0  0  0  0
    2.0221   -1.6872    2.0446 C   0  0  0  0  0  0  0  0  0  0  0  0
    2.9330   -1.4507    1.4855 H   0  0  0  0  0  0  0  0  0  0  0  0
    2.2942   -1.8184    3.0967 H   0  0  0  0  0  0  0  0  0  0  0  0
    1.6197   -2.6338    1.6701 H   0  0  0  0  0  0  0  0  0  0  0  0
   -0.2045   -0.8699    2.7978 C   0  0  0  0  0  0  0  0  0  0  0  0
   -0.9192   -0.0437    2.7901 H   0  0  0  0  0  0  0  0  0  0  0  0
   -0.6944   -1.8005    2.5086 H   0  0  0  0  0  0  0  0  0  0  0  0
    0.1364   -0.9874    3.8313 H   0  0  0  0  0  0  0  0  0  0  0  0
    0.0139    1.3083   -1.4822 C   0  0  0  0  0  0  0  0  0  0  0  0
    0.6382    2.3563   -1.5669 O   0  0  0  0  0  0  0  0  0  0  0  0
   -0.3236    0.6168   -2.6300 N   0  0  0  0  0  0  0  0  0  0  0  0
   -0.9067   -0.2072   -2.5163 H   0  0  0  0  0  0  0  0  0  0  0  0
   -0.0621    1.1201   -3.9726 C   0  0  0  0  0  0  0  0  0  0  0  0
    1.0148    1.2356   -4.1345 H   0  0  0  0  0  0  0  0  0  0  0  0
   -0.4509    0.4224   -4.7205 H   0  0  0  0  0  0  0  0  0  0  0  0
   -0.5469    2.0909   -4.1199 H   0  0  0  0  0  0  0  0  0  0  0  0
  1  2  1  0  0  0  0
  2  3  1  0  0  0  0
  2  4  1  0  0  0  0
  2  5  1  0  0  0  0
  5  6  2  0  0  0  0
  5  7  1  0  0  0  0
  7  8  1  0  0  0  0
  7  9  1  0  0  0  0
  9 10  1  0  0  0  0
  9 11  1  0  0  0  0
  9 24  1  0  0  0  0
 11 12  1  0  0  0  0
 11 13  1  0  0  0  0
 11 14  1  0  0  0  0
 14 15  1  0  0  0  0
 14 16  1  0  0  0  0
 14 20  1  0  0  0  0
 16 17  1  0  0  0  0
 16 18  1  0  0  0  0
 16 19  1  0  0  0  0
 20 21  1  0  0  0  0
 20 22  1  0  0  0  0
 20 23  1  0  0  0  0
 24 25  2  0  0  0  0
 24 26  1  0  0  0  0
 26 27  1  0  0  0  0
 26 28  1  0  0  0  0
 28 29  1  0  0  0  0
 28 30  1  0  0  0  0
 28 31  1  0  0  0  0
M  END
$$$$

  -OEChem-01062216083D

 31 30  0     1  0  0  0  0  0999 V2000
   -2.9170   -2.1610   -0.3875 H   0  0  0  0  0  0  0  0  0  0  0  0
   -2.3598   -1.9275    0.5229 C   0  0  0  0  0  0  0  0  0  0  0  0
   -2.7942   -2.4862    1.3563 H   0  0  0  0  0  0  0  0  0  0  0  0
   -1.3277   -2.2489    0.3893 H   0  0  0  0  0  0  0  0  0  0  0  0
   -2.4477   -0.4346    0.8026 C   0  0  0  0  0  0  0  0  0  0  0  0
   -3.4513    0.0062    1.3297 O   0  0  0  0  0  0  0  0  0  0  0  0
   -1.7681    0.4910    0.0537 N   0  0  0  0  0  0  0  0  0  0  0  0
   -2.2835    1.3691    0.0951 H   0  0  0  0  0  0  0  0  0  0  0  0
   -0.3091    0.6847   -0.1242 C   0  0  1  0  0  0  0  0  0  0  0  0
   -0.1120    1.5386    0.5333 H   0  0  0  0  0  0  0  0  0  0  0  0
    0.7750   -0.3221    0.3520 C   0  0  0  0  0  0  0  0  0  0  0  0
    0.5728   -1.2785   -0.1372 H   0  0  0  0  0  0  0  0  0  0  0  0
    1.7353    0.0267   -0.0448 H   0  0  0  0  0  0  0  0  0  0  0  0
    0.9992   -0.5733    1.8738 C   0  0  0  0  0  0  0  0  0  0  0  0
    1.4712    0.3389    2.2556 H   0  0  0  0  0  0  0  0  0  0  0  0
    2.0130   -1.7147    2.0285 C   0  0  0  0  0  0  0  0  0  0  0  0
    2.9186   -1.5058    1.4499 H   0  0  0  0  0  0  0  0  0  0  0  0
    2.3009   -1.8329    3.0780 H   0  0  0  0  0  0  0  0  0  0  0  0
    1.5860   -2.6595    1.6774 H   0  0  0  0  0  0  0  0  0  0  0  0
   -0.1821   -0.8378    2.8086 C   0  0  0  0  0  0  0  0  0  0  0  0
   -0.8820    0.0008    2.7959 H   0  0  0  0  0  0  0  0  0  0  0  0
   -0.6948   -1.7657    2.5517 H   0  0  0  0  0  0  0  0  0  0  0  0
    0.1774   -0.9375    3.8377 H   0  0  0  0  0  0  0  0  0  0  0  0
    0.0023    1.2572   -1.5205 C   0  0  0  0  0  0  0  0  0  0  0  0
    0.8506    2.1277   -1.6553 O   0  0  0  0  0  0  0  0  0  0  0  0
   -0.6203    0.7280   -2.6349 N   0  0  0  0  0  0  0  0  0  0  0  0
   -1.3642    0.0562   -2.4676 H   0  0  0  0  0  0  0  0  0  0  0  0
   -0.3985    1.2200   -3.9888 C   0  0  0  0  0  0  0  0  0  0  0  0
    0.6634    1.1602   -4.2498 H   0  0  0  0  0  0  0  0  0  0  0  0
   -0.9635    0.6179   -4.7068 H   0  0  0  0  0  0  0  0  0  0  0  0
   -0.7247    2.2616   -4.0756 H   0  0  0  0  0  0  0  0  0  0  0  0
  1  2  1  0  0  0  0
  2  3  1  0  0  0  0
  2  4  1  0  0  0  0
  2  5  1  0  0  0  0
  5  6  2  0  0  0  0
  5  7  1  0  0  0  0
  7  8  1  0  0  0  0
  7  9  1  0  0  0  0
  9 10  1  0  0  0  0
  9 11  1  0  0  0  0
  9 24  1  0  0  0  0
 11 12  1  0  0  0  0
 11 13  1  0  0  0  0
 11 14  1  0  0  0  0
 14 15  1  0  0  0  0
 14 16  1  0  0  0  0
 14 20  1  0  0  0  0
 16 17  1  0  0  0  0
 16 18  1  0  0  0  0
 16 19  1  0  0  0  0
 20 21  1  0  0  0  0
 20 22  1  0  0  0  0
 20 23  1  0  0  0  0
 24 25  2  0  0  0  0
 24 26  1  0  0  0  0
 26 27  1  0  0  0  0
 26 28  1  0  0  0  0
 28 29  1  0  0  0  0
 28 30  1  0  0  0  0
 28 31  1  0  0  0  0
M  END
$$$$

  -OEChem-01062216083D

 31 30  0     1  0  0  0  0  0999 V2000
   -2.9352   -2.1881   -0.3437 H   0  0  0  0  0  0  0  0  0  0  0  0
   -2.3707   -1.9494    0.5609 C   0  0  0  0  0  0  0  0  0  0  0  0
   -2.8000   -2.5012    1.4015 H   0  0  0  0  0  0  0  0  0  0  0  0
   -1.3408   -2.2746    0.4218 H   0  0  0  0  0  0  0  0  0  0  0  0
   -2.4525   -0.4543    0.8311 C   0  0  0  0  0  0  0  0  0  0  0  0
   -3.4469   -0.0077    1.3709 O   0  0  0  0  0  0  0  0  0  0  0  0
   -1.7854    0.4682    0.0669 N   0  0  0  0  0  0  0  0  0  0  0  0
   -2.2985    1.3469    0.1214 H   0  0  0  0  0  0  0  0  0  0  0  0
   -0.3280    0.6620   -0.1359 C   0  0  1  0  0  0  0  0  0  0  0  0
   -0.1199    1.5214    0.5107 H   0  0  0  0  0  0  0  0  0  0  0  0
    0.7575   -0.3460    0.3389 C   0  0  0  0  0  0  0  0  0  0  0  0
    0.5447   -1.3065   -0.1370 H   0  0  0  0  0  0  0  0  0  0  0  0
    1.7166   -0.0097   -0.0711 H   0  0  0  0  0  0  0  0  0  0  0  0
    0.9978   -0.5806    1.8611 C   0  0  0  0  0  0  0  0  0  0  0  0
    1.4796    0.3332    2.2263 H   0  0  0  0  0  0  0  0  0  0  0  0
    2.0073   -1.7254    2.0169 C   0  0  0  0  0  0  0  0  0  0  0  0
    2.9045   -1.5303    1.4211 H   0  0  0  0  0  0  0  0  0  0  0  0
    2.3108   -1.8297    3.0635 H   0  0  0  0  0  0  0  0  0  0  0  0
    1.5689   -2.6726    1.6865 H   0  0  0  0  0  0  0  0  0  0  0  0
   -0.1728   -0.8272    2.8145 C   0  0  0  0  0  0  0  0  0  0  0  0
   -0.8671    0.0162    2.8020 H   0  0  0  0  0  0  0  0  0  0  0  0
   -0.6949   -1.7544    2.5745 H   0  0  0  0  0  0  0  0  0  0  0  0
    0.1996   -0.9189    3.8397 H   0  0  0  0  0  0  0  0  0  0  0  0
   -0.0325    1.2287   -1.5405 C   0  0  0  0  0  0  0  0  0  0  0  0
    0.9621    1.9139   -1.7334 O   0  0  0  0  0  0  0  0  0  0  0  0
   -0.8689    0.9299   -2.5997 N   0  0  0  0  0  0  0  0  0  0  0  0
   -1.7032    0.3895   -2.3867 H   0  0  0  0  0  0  0  0  0  0  0  0
   -0.6730    1.4381   -3.9515 C   0  0  0  0  0  0  0  0  0  0  0  0
    0.3170    1.1582   -4.3264 H   0  0  0  0  0  0  0  0  0  0  0  0
   -1.4270    1.0207   -4.6254 H   0  0  0  0  0  0  0  0  0  0  0  0
   -0.7602    2.5294   -3.9663 H   0  0  0  0  0  0  0  0  0  0  0  0
  1  2  1  0  0  0  0
  2  3  1  0  0  0  0
  2  4  1  0  0  0  0
  2  5  1  0  0  0  0
  5  6  2  0  0  0  0
  5  7  1  0  0  0  0
  7  8  1  0  0  0  0
  7  9  1  0  0  0  0
  9 10  1  0  0  0  0
  9 11  1  0  0  0  0
  9 24  1  0  0  0  0
 11 12  1  0  0  0  0
 11 13  1  0  0  0  0
 11 14  1  0  0  0  0
 14 15  1  0  0  0  0
 14 16  1  0  0  0  0
 14 20  1  0  0  0  0
 16 17  1  0  0  0  0
 16 18  1  0  0  0  0
 16 19  1  0  0  0  0
 20 21  1  0  0  0  0
 20 22  1  0  0  0  0
 20 23  1  0  0  0  0
 24 25  2  0  0  0  0
 24 26  1  0  0  0  0
 26 27  1  0  0  0  0
 26 28  1  0  0  0  0
 28 29  1  0  0  0  0
 28 30  1  0  0  0  0
 28 31  1  0  0  0  0
M  END
$$$$

  -OEChem-01062216083D

 31 30  0     1  0  0  0  0  0999 V2000
   -2.9311   -2.2020   -0.3351 H   0  0  0  0  0  0  0  0  0  0  0  0
   -2.3784   -1.9702    0.5784 C   0  0  0  0  0  0  0  0  0  0  0  0
   -2.8204   -2.5257    1.4099 H   0  0  0  0  0  0  0  0  0  0  0  0
   -1.3477   -2.2983    0.4519 H   0  0  0  0  0  0  0  0  0  0  0  0
   -2.4592   -0.4764    0.8565 C   0  0  0  0  0  0  0  0  0  0  0  0
   -3.4455   -0.0327    1.4134 O   0  0  0  0  0  0  0  0  0  0  0  0
   -1.8074    0.4512    0.0856 N   0  0  0  0  0  0  0  0  0  0  0  0
   -2.3204    1.3283    0.1621 H   0  0  0  0  0  0  0  0  0  0  0  0
   -0.3527    0.6528   -0.1358 C   0  0  1  0  0  0  0  0  0  0  0  0
   -0.1392    1.5145    0.5053 H   0  0  0  0  0  0  0  0  0  0  0  0
    0.7372   -0.3553    0.3355 C   0  0  0  0  0  0  0  0  0  0  0  0
    0.5182   -1.3170   -0.1350 H   0  0  0  0  0  0  0  0  0  0  0  0
    1.6955   -0.0264   -0.0810 H   0  0  0  0  0  0  0  0  0  0  0  0
    0.9910   -0.5840    1.8567 C   0  0  0  0  0  0  0  0  0  0  0  0
    1.4771    0.3306    2.2141 H   0  0  0  0  0  0  0  0  0  0  0  0
    2.0011   -1.7294    2.0073 C   0  0  0  0  0  0  0  0  0  0  0  0
    2.8960   -1.5338    1.4079 H   0  0  0  0  0  0  0  0  0  0  0  0
    2.3098   -1.8345    3.0522 H   0  0  0  0  0  0  0  0  0  0  0  0
    1.5620   -2.6766    1.6781 H   0  0  0  0  0  0  0  0  0  0  0  0
   -0.1701   -0.8254    2.8226 C   0  0  0  0  0  0  0  0  0  0  0  0
   -0.8637    0.0188    2.8137 H   0  0  0  0  0  0  0  0  0  0  0  0
   -0.6955   -1.7529    2.5918 H   0  0  0  0  0  0  0  0  0  0  0  0
    0.2125   -0.9137    3.8444 H   0  0  0  0  0  0  0  0  0  0  0  0
   -0.0776    1.2246   -1.5459 C   0  0  0  0  0  0  0  0  0  0  0  0
    1.0092    1.7155   -1.8185 O   0  0  0  0  0  0  0  0  0  0  0  0
   -1.0625    1.1915   -2.5159 N   0  0  0  0  0  0  0  0  0  0  0  0
   -1.9454    0.7584   -2.2583 H   0  0  0  0  0  0  0  0  0  0  0  0
   -0.8808    1.6928   -3.8724 C   0  0  0  0  0  0  0  0  0  0  0  0
   -0.0605    1.1644   -4.3696 H   0  0  0  0  0  0  0  0  0  0  0  0
   -1.7936    1.5414   -4.4563 H   0  0  0  0  0  0  0  0  0  0  0  0
   -0.6530    2.7639   -3.8579 H   0  0  0  0  0  0  0  0  0  0  0  0
  1  2  1  0  0  0  0
  2  3  1  0  0  0  0
  2  4  1  0  0  0  0
  2  5  1  0  0  0  0
  5  6  2  0  0  0  0
  5  7  1  0  0  0  0
  7  8  1  0  0  0  0
  7  9  1  0  0  0  0
  9 10  1  0  0  0  0
  9 11  1  0  0  0  0
  9 24  1  0  0  0  0
 11 12  1  0  0  0  0
 11 13  1  0  0  0  0
 11 14  1  0  0  0  0
 14 15  1  0  0  0  0
 14 16  1  0  0  0  0
 14 20  1  0  0  0  0
 16 17  1  0  0  0  0
 16 18  1  0  0  0  0
 16 19  1  0  0  0  0
 20 21  1  0  0  0  0
 20 22  1  0  0  0  0
 20 23  1  0  0  0  0
 24 25  2  0  0  0  0
 24 26  1  0  0  0  0
 26 27  1  0  0  0  0
 26 28  1  0  0  0  0
 28 29  1  0  0  0  0
 28 30  1  0  0  0  0
 28 31  1  0  0  0  0
M  END
$$$$

  -OEChem-01062216083D

 31 30  0     1  0  0  0  0  0999 V2000
   -2.8105   -2.1881   -0.4025 H   0  0  0  0  0  0  0  0  0  0  0  0
   -2.3728   -1.9944    0.5797 C   0  0  0  0  0  0  0  0  0  0  0  0
   -2.9308   -2.5579    1.3323 H   0  0  0  0  0  0  0  0  0  0  0  0
   -1.3433   -2.3498    0.5757 H   0  0  0  0  0  0  0  0  0  0  0  0
   -2.4508   -0.5057    0.8871 C   0  0  0  0  0  0  0  0  0  0  0  0
   -3.4180   -0.0696    1.4828 O   0  0  0  0  0  0  0  0  0  0  0  0
   -1.8227    0.4334    0.1110 N   0  0  0  0  0  0  0  0  0  0  0  0
   -2.3255    1.3113    0.2308 H   0  0  0  0  0  0  0  0  0  0  0  0
   -0.3729    0.6308   -0.1426 C   0  0  1  0  0  0  0  0  0  0  0  0
   -0.1443    1.4904    0.4957 H   0  0  0  0  0  0  0  0  0  0  0  0
    0.7151   -0.3840    0.3244 C   0  0  0  0  0  0  0  0  0  0  0  0
    0.4802   -1.3492   -0.1315 H   0  0  0  0  0  0  0  0  0  0  0  0
    1.6725   -0.0719   -0.1060 H   0  0  0  0  0  0  0  0  0  0  0  0
    0.9876   -0.5941    1.8462 C   0  0  0  0  0  0  0  0  0  0  0  0
    1.4919    0.3198    2.1788 H   0  0  0  0  0  0  0  0  0  0  0  0
    1.9871   -1.7477    2.0020 C   0  0  0  0  0  0  0  0  0  0  0  0
    2.8747   -1.5740    1.3853 H   0  0  0  0  0  0  0  0  0  0  0  0
    2.3105   -1.8381    3.0440 H   0  0  0  0  0  0  0  0  0  0  0  0
    1.5312   -2.6950    1.6970 H   0  0  0  0  0  0  0  0  0  0  0  0
   -0.1590   -0.7986    2.8389 C   0  0  0  0  0  0  0  0  0  0  0  0
   -0.8418    0.0543    2.8235 H   0  0  0  0  0  0  0  0  0  0  0  0
   -0.7021   -1.7239    2.6412 H   0  0  0  0  0  0  0  0  0  0  0  0
    0.2423   -0.8678    3.8549 H   0  0  0  0  0  0  0  0  0  0  0  0
   -0.1263    1.2207   -1.5536 C   0  0  0  0  0  0  0  0  0  0  0  0
    1.0039    1.4932   -1.9341 O   0  0  0  0  0  0  0  0  0  0  0  0
   -1.1928    1.4911   -2.3925 N   0  0  0  0  0  0  0  0  0  0  0  0
   -2.1078    1.1745   -2.0831 H   0  0  0  0  0  0  0  0  0  0  0  0
   -1.0429    2.0105   -3.7464 C   0  0  0  0  0  0  0  0  0  0  0  0
   -0.4570    1.3181   -4.3597 H   0  0  0  0  0  0  0  0  0  0  0  0
   -2.0243    2.1406   -4.2123 H   0  0  0  0  0  0  0  0  0  0  0  0
   -0.5372    2.9817   -3.7304 H   0  0  0  0  0  0  0  0  0  0  0  0
  1  2  1  0  0  0  0
  2  3  1  0  0  0  0
  2  4  1  0  0  0  0
  2  5  1  0  0  0  0
  5  6  2  0  0  0  0
  5  7  1  0  0  0  0
  7  8  1  0  0  0  0
  7  9  1  0  0  0  0
  9 10  1  0  0  0  0
  9 11  1  0  0  0  0
  9 24  1  0  0  0  0
 11 12  1  0  0  0  0
 11 13  1  0  0  0  0
 11 14  1  0  0  0  0
 14 15  1  0  0  0  0
 14 16  1  0  0  0  0
 14 20  1  0  0  0  0
 16 17  1  0  0  0  0
 16 18  1  0  0  0  0
 16 19  1  0  0  0  0
 20 21  1  0  0  0  0
 20 22  1  0  0  0  0
 20 23  1  0  0  0  0
 24 25  2  0  0  0  0
 24 26  1  0  0  0  0
 26 27  1  0  0  0  0
 26 28  1  0  0  0  0
 28 29  1  0  0  0  0
 28 30  1  0  0  0  0
 28 31  1  0  0  0  0
M  END
$$$$

  -OEChem-01062216083D

 31 30  0     1  0  0  0  0  0999 V2000
   -2.7843   -2.2122   -0.4226 H   0  0  0  0  0  0  0  0  0  0  0  0
   -2.3637   -2.0309    0.5693 C   0  0  0  0  0  0  0  0  0  0  0  0
   -2.9308   -2.6081    1.3046 H   0  0  0  0  0  0  0  0  0  0  0  0
   -1.3321   -2.3806    0.5774 H   0  0  0  0  0  0  0  0  0  0  0  0
   -2.4553   -0.5473    0.8962 C   0  0  0  0  0  0  0  0  0  0  0  0
   -3.4163   -0.1277    1.5136 O   0  0  0  0  0  0  0  0  0  0  0  0
   -1.8465    0.4095    0.1270 N   0  0  0  0  0  0  0  0  0  0  0  0
   -2.3551    1.2787    0.2762 H   0  0  0  0  0  0  0  0  0  0  0  0
   -0.4007    0.6264   -0.1333 C   0  0  1  0  0  0  0  0  0  0  0  0
   -0.1775    1.4830    0.5106 H   0  0  0  0  0  0  0  0  0  0  0  0
    0.6993   -0.3803    0.3268 C   0  0  0  0  0  0  0  0  0  0  0  0
    0.4730   -1.3452   -0.1340 H   0  0  0  0  0  0  0  0  0  0  0  0
    1.6540   -0.0573   -0.1012 H   0  0  0  0  0  0  0  0  0  0  0  0
    0.9782   -0.5932    1.8472 C   0  0  0  0  0  0  0  0  0  0  0  0
    1.4742    0.3244    2.1824 H   0  0  0  0  0  0  0  0  0  0  0  0
    1.9895   -1.7375    1.9952 C   0  0  0  0  0  0  0  0  0  0  0  0
    2.8732   -1.5520    1.3763 H   0  0  0  0  0  0  0  0  0  0  0  0
    2.3171   -1.8277    3.0356 H   0  0  0  0  0  0  0  0  0  0  0  0
    1.5431   -2.6885    1.6879 H   0  0  0  0  0  0  0  0  0  0  0  0
   -0.1633   -0.8139    2.8427 C   0  0  0  0  0  0  0  0  0  0  0  0
   -0.8525    0.0340    2.8359 H   0  0  0  0  0  0  0  0  0  0  0  0
   -0.7006   -1.7417    2.6403 H   0  0  0  0  0  0  0  0  0  0  0  0
    0.2421   -0.8876    3.8567 H   0  0  0  0  0  0  0  0  0  0  0  0
   -0.1740    1.2366   -1.5412 C   0  0  0  0  0  0  0  0  0  0  0  0
    0.9429    1.2996   -2.0367 O   0  0  0  0  0  0  0  0  0  0  0  0
   -1.2346    1.7874   -2.2393 N   0  0  0  0  0  0  0  0  0  0  0  0
   -2.1639    1.6092   -1.8695 H   0  0  0  0  0  0  0  0  0  0  0  0
   -1.1089    2.3449   -3.5807 C   0  0  0  0  0  0  0  0  0  0  0  0
   -0.7538    1.5819   -4.2814 H   0  0  0  0  0  0  0  0  0  0  0  0
   -2.0789    2.7120   -3.9295 H   0  0  0  0  0  0  0  0  0  0  0  0
   -0.4027    3.1820   -3.5833 H   0  0  0  0  0  0  0  0  0  0  0  0
  1  2  1  0  0  0  0
  2  3  1  0  0  0  0
  2  4  1  0  0  0  0
  2  5  1  0  0  0  0
  5  6  2  0  0  0  0
  5  7  1  0  0  0  0
  7  8  1  0  0  0  0
  7  9  1  0  0  0  0
  9 10  1  0  0  0  0
  9 11  1  0  0  0  0
  9 24  1  0  0  0  0
 11 12  1  0  0  0  0
 11 13  1  0  0  0  0
 11 14  1  0  0  0  0
 14 15  1  0  0  0  0
 14 16  1  0  0  0  0
 14 20  1  0  0  0  0
 16 17  1  0  0  0  0
 16 18  1  0  0  0  0
 16 19  1  0  0  0  0
 20 21  1  0  0  0  0
 20 22  1  0  0  0  0
 20 23  1  0  0  0  0
 24 25  2  0  0  0  0
 24 26  1  0  0  0  0
 26 27  1  0  0  0  0
 26 28  1  0  0  0  0
 28 29  1  0  0  0  0
 28 30  1  0  0  0  0
 28 31  1  0  0  0  0
M  END
$$$$

  -OEChem-01062216083D

 31 30  0     1  0  0  0  0  0999 V2000
   -2.7868   -2.2256   -0.4322 H   0  0  0  0  0  0  0  0  0  0  0  0
   -2.3634   -2.0537    0.5604 C   0  0  0  0  0  0  0  0  0  0  0  0
   -2.9224   -2.6452    1.2906 H   0  0  0  0  0  0  0  0  0  0  0  0
   -1.3287   -2.3944    0.5595 H   0  0  0  0  0  0  0  0  0  0  0  0
   -2.4653   -0.5749    0.9062 C   0  0  0  0  0  0  0  0  0  0  0  0
   -3.4221   -0.1697    1.5398 O   0  0  0  0  0  0  0  0  0  0  0  0
   -1.8710    0.3964    0.1443 N   0  0  0  0  0  0  0  0  0  0  0  0
   -2.3917    1.2554    0.3050 H   0  0  0  0  0  0  0  0  0  0  0  0
   -0.4285    0.6313   -0.1155 C   0  0  1  0  0  0  0  0  0  0  0  0
   -0.2127    1.4844    0.5355 H   0  0  0  0  0  0  0  0  0  0  0  0
    0.6843   -0.3659    0.3355 C   0  0  0  0  0  0  0  0  0  0  0  0
    0.4705   -1.3294   -0.1342 H   0  0  0  0  0  0  0  0  0  0  0  0
    1.6335   -0.0239   -0.0901 H   0  0  0  0  0  0  0  0  0  0  0  0
    0.9704   -0.5899    1.8530 C   0  0  0  0  0  0  0  0  0  0  0  0
    1.4560    0.3299    2.1977 H   0  0  0  0  0  0  0  0  0  0  0  0
    1.9960   -1.7236    1.9857 C   0  0  0  0  0  0  0  0  0  0  0  0
    2.8761   -1.5202    1.3675 H   0  0  0  0  0  0  0  0  0  0  0  0
    2.3270   -1.8234    3.0243 H   0  0  0  0  0  0  0  0  0  0  0  0
    1.5602   -2.6762    1.6677 H   0  0  0  0  0  0  0  0  0  0  0  0
   -0.1668   -0.8372    2.8471 C   0  0  0  0  0  0  0  0  0  0  0  0
   -0.8648    0.0034    2.8539 H   0  0  0  0  0  0  0  0  0  0  0  0
   -0.6947   -1.7672    2.6307 H   0  0  0  0  0  0  0  0  0  0  0  0
    0.2404   -0.9223    3.8596 H   0  0  0  0  0  0  0  0  0  0  0  0
   -0.2159    1.2565   -1.5194 C   0  0  0  0  0  0  0  0  0  0  0  0
    0.8238    1.0904   -2.1428 O   0  0  0  0  0  0  0  0  0  0  0  0
   -1.1910    2.0668   -2.0757 N   0  0  0  0  0  0  0  0  0  0  0  0
   -2.0934    2.0832   -1.6114 H   0  0  0  0  0  0  0  0  0  0  0  0
   -1.0803    2.6538   -3.4063 C   0  0  0  0  0  0  0  0  0  0  0  0
   -0.9835    1.8699   -4.1649 H   0  0  0  0  0  0  0  0  0  0  0  0
   -1.9715    3.2471   -3.6327 H   0  0  0  0  0  0  0  0  0  0  0  0
   -0.2059    3.3106   -3.4643 H   0  0  0  0  0  0  0  0  0  0  0  0
  1  2  1  0  0  0  0
  2  3  1  0  0  0  0
  2  4  1  0  0  0  0
  2  5  1  0  0  0  0
  5  6  2  0  0  0  0
  5  7  1  0  0  0  0
  7  8  1  0  0  0  0
  7  9  1  0  0  0  0
  9 10  1  0  0  0  0
  9 11  1  0  0  0  0
  9 24  1  0  0  0  0
 11 12  1  0  0  0  0
 11 13  1  0  0  0  0
 11 14  1  0  0  0  0
 14 15  1  0  0  0  0
 14 16  1  0  0  0  0
 14 20  1  0  0  0  0
 16 17  1  0  0  0  0
 16 18  1  0  0  0  0
 16 19  1  0  0  0  0
 20 21  1  0  0  0  0
 20 22  1  0  0  0  0
 20 23  1  0  0  0  0
 24 25  2  0  0  0  0
 24 26  1  0  0  0  0
 26 27  1  0  0  0  0
 26 28  1  0  0  0  0
 28 29  1  0  0  0  0
 28 30  1  0  0  0  0
 28 31  1  0  0  0  0
M  END
$$$$

  -OEChem-01062216083D

 31 30  0     1  0  0  0  0  0999 V2000
   -2.8368   -2.2766   -0.3986 H   0  0  0  0  0  0  0  0  0  0  0  0
   -2.3554   -2.0819    0.5628 C   0  0  0  0  0  0  0  0  0  0  0  0
   -2.8435   -2.6866    1.3318 H   0  0  0  0  0  0  0  0  0  0  0  0
   -1.3114   -2.3851    0.4945 H   0  0  0  0  0  0  0  0  0  0  0  0
   -2.4876   -0.6052    0.9059 C   0  0  0  0  0  0  0  0  0  0  0  0
   -3.4589   -0.2184    1.5294 O   0  0  0  0  0  0  0  0  0  0  0  0
   -1.9001    0.3785    0.1545 N   0  0  0  0  0  0  0  0  0  0  0  0
   -2.4528    1.2221    0.2804 H   0  0  0  0  0  0  0  0  0  0  0  0
   -0.4607    0.6429   -0.0903 C   0  0  1  0  0  0  0  0  0  0  0  0
   -0.2638    1.4919    0.5718 H   0  0  0  0  0  0  0  0  0  0  0  0
    0.6726   -0.3341    0.3498 C   0  0  0  0  0  0  0  0  0  0  0  0
    0.4854   -1.2945   -0.1375 H   0  0  0  0  0  0  0  0  0  0  0  0
    1.6129    0.0413   -0.0686 H   0  0  0  0  0  0  0  0  0  0  0  0
    0.9582   -0.5764    1.8639 C   0  0  0  0  0  0  0  0  0  0  0  0
    1.4192    0.3486    2.2270 H   0  0  0  0  0  0  0  0  0  0  0  0
    2.0099   -1.6876    1.9809 C   0  0  0  0  0  0  0  0  0  0  0  0
    2.8883   -1.4512    1.3718 H   0  0  0  0  0  0  0  0  0  0  0  0
    2.3373   -1.7996    3.0193 H   0  0  0  0  0  0  0  0  0  0  0  0
    1.5992   -2.6439    1.6416 H   0  0  0  0  0  0  0  0  0  0  0  0
   -0.1785   -0.8695    2.8454 C   0  0  0  0  0  0  0  0  0  0  0  0
   -0.8978   -0.0472    2.8612 H   0  0  0  0  0  0  0  0  0  0  0  0
   -0.6805   -1.8091    2.6093 H   0  0  0  0  0  0  0  0  0  0  0  0
    0.2241   -0.9610    3.8591 H   0  0  0  0  0  0  0  0  0  0  0  0
   -0.2522    1.2769   -1.4887 C   0  0  0  0  0  0  0  0  0  0  0  0
    0.6534    0.9101   -2.2256 O   0  0  0  0  0  0  0  0  0  0  0  0
   -1.0771    2.3022   -1.9194 N   0  0  0  0  0  0  0  0  0  0  0  0
   -1.8694    2.5451   -1.3342 H   0  0  0  0  0  0  0  0  0  0  0  0
   -0.9596    2.9244   -3.2331 C   0  0  0  0  0  0  0  0  0  0  0  0
   -1.0768    2.1763   -4.0243 H   0  0  0  0  0  0  0  0  0  0  0  0
   -1.7338    3.6869   -3.3610 H   0  0  0  0  0  0  0  0  0  0  0  0
    0.0188    3.4038   -3.3431 H   0  0  0  0  0  0  0  0  0  0  0  0
  1  2  1  0  0  0  0
  2  3  1  0  0  0  0
  2  4  1  0  0  0  0
  2  5  1  0  0  0  0
  5  6  2  0  0  0  0
  5  7  1  0  0  0  0
  7  8  1  0  0  0  0
  7  9  1  0  0  0  0
  9 10  1  0  0  0  0
  9 11  1  0  0  0  0
  9 24  1  0  0  0  0
 11 12  1  0  0  0  0
 11 13  1  0  0  0  0
 11 14  1  0  0  0  0
 14 15  1  0  0  0  0
 14 16  1  0  0  0  0
 14 20  1  0  0  0  0
 16 17  1  0  0  0  0
 16 18  1  0  0  0  0
 16 19  1  0  0  0  0
 20 21  1  0  0  0  0
 20 22  1  0  0  0  0
 20 23  1  0  0  0  0
 24 25  2  0  0  0  0
 24 26  1  0  0  0  0
 26 27  1  0  0  0  0
 26 28  1  0  0  0  0
 28 29  1  0  0  0  0
 28 30  1  0  0  0  0
 28 31  1  0  0  0  0
M  END
$$$$

  -OEChem-01062216083D

 31 30  0     1  0  0  0  0  0999 V2000
   -2.8951   -2.2981   -0.3756 H   0  0  0  0  0  0  0  0  0  0  0  0
   -2.3623   -2.0866    0.5546 C   0  0  0  0  0  0  0  0  0  0  0  0
   -2.7860   -2.7008    1.3536 H   0  0  0  0  0  0  0  0  0  0  0  0
   -1.3164   -2.3608    0.4227 H   0  0  0  0  0  0  0  0  0  0  0  0
   -2.5131   -0.6127    0.9004 C   0  0  0  0  0  0  0  0  0  0  0  0
   -3.5019   -0.2388    1.5040 O   0  0  0  0  0  0  0  0  0  0  0  0
   -1.9210    0.3781    0.1622 N   0  0  0  0  0  0  0  0  0  0  0  0
   -2.4997    1.2103    0.2400 H   0  0  0  0  0  0  0  0  0  0  0  0
   -0.4829    0.6642   -0.0586 C   0  0  1  0  0  0  0  0  0  0  0  0
   -0.3030    1.5064    0.6165 H   0  0  0  0  0  0  0  0  0  0  0  0
    0.6631   -0.3006    0.3693 C   0  0  0  0  0  0  0  0  0  0  0  0
    0.4946   -1.2537   -0.1389 H   0  0  0  0  0  0  0  0  0  0  0  0
    1.5964    0.1018   -0.0402 H   0  0  0  0  0  0  0  0  0  0  0  0
    0.9432   -0.5738    1.8787 C   0  0  0  0  0  0  0  0  0  0  0  0
    1.3833    0.3503    2.2692 H   0  0  0  0  0  0  0  0  0  0  0  0
    2.0147   -1.6682    1.9761 C   0  0  0  0  0  0  0  0  0  0  0  0
    2.8933   -1.4000    1.3806 H   0  0  0  0  0  0  0  0  0  0  0  0
    2.3358   -1.8010    3.0142 H   0  0  0  0  0  0  0  0  0  0  0  0
    1.6246   -2.6229    1.6090 H   0  0  0  0  0  0  0  0  0  0  0  0
   -0.1954   -0.9163    2.8411 C   0  0  0  0  0  0  0  0  0  0  0  0
   -0.9314   -0.1096    2.8729 H   0  0  0  0  0  0  0  0  0  0  0  0
   -0.6755   -1.8586    2.5733 H   0  0  0  0  0  0  0  0  0  0  0  0
    0.2006   -1.0284    3.8554 H   0  0  0  0  0  0  0  0  0  0  0  0
   -0.2706    1.3030   -1.4511 C   0  0  0  0  0  0  0  0  0  0  0  0
    0.4639    0.7822   -2.2800 O   0  0  0  0  0  0  0  0  0  0  0  0
   -0.8891    2.5007   -1.7662 N   0  0  0  0  0  0  0  0  0  0  0  0
   -1.5129    2.9073   -1.0767 H   0  0  0  0  0  0  0  0  0  0  0  0
   -0.7466    3.1585   -3.0598 C   0  0  0  0  0  0  0  0  0  0  0  0
   -1.0753    2.4946   -3.8664 H   0  0  0  0  0  0  0  0  0  0  0  0
   -1.3557    4.0671   -3.0910 H   0  0  0  0  0  0  0  0  0  0  0  0
    0.2982    3.4358   -3.2351 H   0  0  0  0  0  0  0  0  0  0  0  0
  1  2  1  0  0  0  0
  2  3  1  0  0  0  0
  2  4  1  0  0  0  0
  2  5  1  0  0  0  0
  5  6  2  0  0  0  0
  5  7  1  0  0  0  0
  7  8  1  0  0  0  0
  7  9  1  0  0  0  0
  9 10  1  0  0  0  0
  9 11  1  0  0  0  0
  9 24  1  0  0  0  0
 11 12  1  0  0  0  0
 11 13  1  0  0  0  0
 11 14  1  0  0  0  0
 14 15  1  0  0  0  0
 14 16  1  0  0  0  0
 14 20  1  0  0  0  0
 16 17  1  0  0  0  0
 16 18  1  0  0  0  0
 16 19  1  0  0  0  0
 20 21  1  0  0  0  0
 20 22  1  0  0  0  0
 20 23  1  0  0  0  0
 24 25  2  0  0  0  0
 24 26  1  0  0  0  0
 26 27  1  0  0  0  0
 26 28  1  0  0  0  0
 28 29  1  0  0  0  0
 28 30  1  0  0  0  0
 28 31  1  0  0  0  0
M  END
$$$$

  -OEChem-01062216083D

 31 30  0     1  0  0  0  0  0999 V2000
   -2.9229   -2.3047   -0.3881 H   0  0  0  0  0  0  0  0  0  0  0  0
   -2.3597   -2.0924    0.5239 C   0  0  0  0  0  0  0  0  0  0  0  0
   -2.7409   -2.7239    1.3305 H   0  0  0  0  0  0  0  0  0  0  0  0
   -1.3137   -2.3422    0.3491 H   0  0  0  0  0  0  0  0  0  0  0  0
   -2.5272   -0.6256    0.8911 C   0  0  0  0  0  0  0  0  0  0  0  0
   -3.5228   -0.2716    1.4957 O   0  0  0  0  0  0  0  0  0  0  0  0
   -1.9386    0.3790    0.1695 N   0  0  0  0  0  0  0  0  0  0  0  0
   -2.5322    1.2023    0.2334 H   0  0  0  0  0  0  0  0  0  0  0  0
   -0.5028    0.6876   -0.0273 C   0  0  1  0  0  0  0  0  0  0  0  0
   -0.3423    1.5199    0.6649 H   0  0  0  0  0  0  0  0  0  0  0  0
    0.6551   -0.2655    0.3899 C   0  0  0  0  0  0  0  0  0  0  0  0
    0.5053   -1.2109   -0.1384 H   0  0  0  0  0  0  0  0  0  0  0  0
    1.5824    0.1609   -0.0087 H   0  0  0  0  0  0  0  0  0  0  0  0
    0.9275   -0.5684    1.8949 C   0  0  0  0  0  0  0  0  0  0  0  0
    1.3470    0.3539    2.3113 H   0  0  0  0  0  0  0  0  0  0  0  0
    2.0171   -1.6460    1.9765 C   0  0  0  0  0  0  0  0  0  0  0  0
    2.8946   -1.3516    1.3920 H   0  0  0  0  0  0  0  0  0  0  0  0
    2.3342   -1.7949    3.0135 H   0  0  0  0  0  0  0  0  0  0  0  0
    1.6443   -2.5990    1.5877 H   0  0  0  0  0  0  0  0  0  0  0  0
   -0.2139   -0.9541    2.8369 C   0  0  0  0  0  0  0  0  0  0  0  0
   -0.9629   -0.1602    2.8830 H   0  0  0  0  0  0  0  0  0  0  0  0
   -0.6753   -1.8965    2.5386 H   0  0  0  0  0  0  0  0  0  0  0  0
    0.1738   -1.0865    3.8519 H   0  0  0  0  0  0  0  0  0  0  0  0
   -0.2809    1.3392   -1.4096 C   0  0  0  0  0  0  0  0  0  0  0  0
    0.2580    0.7163   -2.3145 O   0  0  0  0  0  0  0  0  0  0  0  0
   -0.6460    2.6569   -1.6234 N   0  0  0  0  0  0  0  0  0  0  0  0
   -1.1052    3.1510   -0.8646 H   0  0  0  0  0  0  0  0  0  0  0  0
   -0.4710    3.3368   -2.9014 C   0  0  0  0  0  0  0  0  0  0  0  0
   -1.0231    2.8161   -3.6910 H   0  0  0  0  0  0  0  0  0  0  0  0
   -0.8446    4.3633   -2.8379 H   0  0  0  0  0  0  0  0  0  0  0  0
    0.5886    3.3710   -3.1760 H   0  0  0  0  0  0  0  0  0  0  0  0
  1  2  1  0  0  0  0
  2  3  1  0  0  0  0
  2  4  1  0  0  0  0
  2  5  1  0  0  0  0
  5  6  2  0  0  0  0
  5  7  1  0  0  0  0
  7  8  1  0  0  0  0
  7  9  1  0  0  0  0
  9 10  1  0  0  0  0
  9 11  1  0  0  0  0
  9 24  1  0  0  0  0
 11 12  1  0  0  0  0
 11 13  1  0  0  0  0
 11 14  1  0  0  0  0
 14 15  1  0  0  0  0
 14 16  1  0  0  0  0
 14 20  1  0  0  0  0
 16 17  1  0  0  0  0
 16 18  1  0  0  0  0
 16 19  1  0  0  0  0
 20 21  1  0  0  0  0
 20 22  1  0  0  0  0
 20 23  1  0  0  0  0
 24 25  2  0  0  0  0
 24 26  1  0  0  0  0
 26 27  1  0  0  0  0
 26 28  1  0  0  0  0
 28 29  1  0  0  0  0
 28 30  1  0  0  0  0
 28 31  1  0  0  0  0
M  END
$$$$

  -OEChem-01062216083D

 31 30  0     1  0  0  0  0  0999 V2000
   -2.8949   -2.3144   -0.4156 H   0  0  0  0  0  0  0  0  0  0  0  0
   -2.3403   -2.1019    0.5015 C   0  0  0  0  0  0  0  0  0  0  0  0
   -2.7143   -2.7476    1.3003 H   0  0  0  0  0  0  0  0  0  0  0  0
   -1.2895   -2.3317    0.3284 H   0  0  0  0  0  0  0  0  0  0  0  0
   -2.5343   -0.6419    0.8825 C   0  0  0  0  0  0  0  0  0  0  0  0
   -3.5413   -0.3096    1.4810 O   0  0  0  0  0  0  0  0  0  0  0  0
   -1.9532    0.3768    0.1750 N   0  0  0  0  0  0  0  0  0  0  0  0
   -2.5642    1.1885    0.2259 H   0  0  0  0  0  0  0  0  0  0  0  0
   -0.5214    0.7142    0.0022 C   0  0  1  0  0  0  0  0  0  0  0  0
   -0.3864    1.5384    0.7091 H   0  0  0  0  0  0  0  0  0  0  0  0
    0.6501   -0.2234    0.4121 C   0  0  0  0  0  0  0  0  0  0  0  0
    0.5207   -1.1611   -0.1357 H   0  0  0  0  0  0  0  0  0  0  0  0
    1.5721    0.2279    0.0288 H   0  0  0  0  0  0  0  0  0  0  0  0
    0.9150   -0.5536    1.9125 C   0  0  0  0  0  0  0  0  0  0  0  0
    1.3116    0.3678    2.3526 H   0  0  0  0  0  0  0  0  0  0  0  0
    2.0256   -1.6106    1.9796 C   0  0  0  0  0  0  0  0  0  0  0  0
    2.9019   -1.2849    1.4100 H   0  0  0  0  0  0  0  0  0  0  0  0
    2.3365   -1.7764    3.0160 H   0  0  0  0  0  0  0  0  0  0  0  0
    1.6766   -2.5624    1.5660 H   0  0  0  0  0  0  0  0  0  0  0  0
   -0.2252   -0.9843    2.8363 C   0  0  0  0  0  0  0  0  0  0  0  0
   -0.9931   -0.2092    2.8929 H   0  0  0  0  0  0  0  0  0  0  0  0
   -0.6619   -1.9309    2.5151 H   0  0  0  0  0  0  0  0  0  0  0  0
    0.1571   -1.1291    3.8517 H   0  0  0  0  0  0  0  0  0  0  0  0
   -0.2885    1.3760   -1.3722 C   0  0  0  0  0  0  0  0  0  0  0  0
    0.0331    0.6958   -2.3367 O   0  0  0  0  0  0  0  0  0  0  0  0
   -0.3774    2.7498   -1.5151 N   0  0  0  0  0  0  0  0  0  0  0  0
   -0.6581    3.2950   -0.7058 H   0  0  0  0  0  0  0  0  0  0  0  0
   -0.1643    3.4342   -2.7850 C   0  0  0  0  0  0  0  0  0  0  0  0
   -0.8818    3.0834   -3.5344 H   0  0  0  0  0  0  0  0  0  0  0  0
   -0.2948    4.5134   -2.6604 H   0  0  0  0  0  0  0  0  0  0  0  0
    0.8499    3.2496   -3.1544 H   0  0  0  0  0  0  0  0  0  0  0  0
  1  2  1  0  0  0  0
  2  3  1  0  0  0  0
  2  4  1  0  0  0  0
  2  5  1  0  0  0  0
  5  6  2  0  0  0  0
  5  7  1  0  0  0  0
  7  8  1  0  0  0  0
  7  9  1  0  0  0  0
  9 10  1  0  0  0  0
  9 11  1  0  0  0  0
  9 24  1  0  0  0  0
 11 12  1  0  0  0  0
 11 13  1  0  0  0  0
 11 14  1  0  0  0  0
 14 15  1  0  0  0  0
 14 16  1  0  0  0  0
 14 20  1  0  0  0  0
 16 17  1  0  0  0  0
 16 18  1  0  0  0  0
 16 19  1  0  0  0  0
 20 21  1  0  0  0  0
 20 22  1  0  0  0  0
 20 23  1  0  0  0  0
 24 25  2  0  0  0  0
 24 26  1  0  0  0  0
 26 27  1  0  0  0  0
 26 28  1  0  0  0  0
 28 29  1  0  0  0  0
 28 30  1  0  0  0  0
 28 31  1  0  0  0  0
M  END
$$$$

  -OEChem-01062216083D

 31 30  0     1  0  0  0  0  0999 V2000
   -2.8911   -2.2990   -0.4536 H   0  0  0  0  0  0  0  0  0  0  0  0
   -2.3459   -2.0986    0.4720 C   0  0  0  0  0  0  0  0  0  0  0  0
   -2.7274   -2.7552    1.2582 H   0  0  0  0  0  0  0  0  0  0  0  0
   -1.2930   -2.3245    0.3064 H   0  0  0  0  0  0  0  0  0  0  0  0
   -2.5448   -0.6438    0.8701 C   0  0  0  0  0  0  0  0  0  0  0  0
   -3.5524   -0.3226    1.4737 O   0  0  0  0  0  0  0  0  0  0  0  0
   -1.9626    0.3838    0.1766 N   0  0  0  0  0  0  0  0  0  0  0  0
   -2.5781    1.1924    0.2240 H   0  0  0  0  0  0  0  0  0  0  0  0
   -0.5314    0.7296    0.0161 C   0  0  1  0  0  0  0  0  0  0  0  0
   -0.4115    1.5455    0.7351 H   0  0  0  0  0  0  0  0  0  0  0  0
    0.6442   -0.2031    0.4218 C   0  0  0  0  0  0  0  0  0  0  0  0
    0.5221   -1.1369   -0.1343 H   0  0  0  0  0  0  0  0  0  0  0  0
    1.5653    0.2560    0.0459 H   0  0  0  0  0  0  0  0  0  0  0  0
    0.9025   -0.5457    1.9204 C   0  0  0  0  0  0  0  0  0  0  0  0
    1.2895    0.3740    2.3725 H   0  0  0  0  0  0  0  0  0  0  0  0
    2.0202   -1.5951    1.9856 C   0  0  0  0  0  0  0  0  0  0  0  0
    2.8991   -1.2566    1.4278 H   0  0  0  0  0  0  0  0  0  0  0  0
    2.3236   -1.7699    3.0228 H   0  0  0  0  0  0  0  0  0  0  0  0
    1.6820   -2.5448    1.5585 H   0  0  0  0  0  0  0  0  0  0  0  0
   -0.2412   -0.9944    2.8313 C   0  0  0  0  0  0  0  0  0  0  0  0
   -1.0135   -0.2242    2.8919 H   0  0  0  0  0  0  0  0  0  0  0  0
   -0.6708   -1.9392    2.4952 H   0  0  0  0  0  0  0  0  0  0  0  0
    0.1349   -1.1496    3.8475 H   0  0  0  0  0  0  0  0  0  0  0  0
   -0.2815    1.4069   -1.3477 C   0  0  0  0  0  0  0  0  0  0  0  0
   -0.2106    0.7305   -2.3642 O   0  0  0  0  0  0  0  0  0  0  0  0
   -0.0633    2.7713   -1.4285 N   0  0  0  0  0  0  0  0  0  0  0  0
   -0.1251    3.3146   -0.5728 H   0  0  0  0  0  0  0  0  0  0  0  0
    0.2015    3.4643   -2.6841 C   0  0  0  0  0  0  0  0  0  0  0  0
   -0.6392    3.3406   -3.3750 H   0  0  0  0  0  0  0  0  0  0  0  0
    0.3457    4.5338   -2.5032 H   0  0  0  0  0  0  0  0  0  0  0  0
    1.1069    3.0692   -3.1569 H   0  0  0  0  0  0  0  0  0  0  0  0
  1  2  1  0  0  0  0
  2  3  1  0  0  0  0
  2  4  1  0  0  0  0
  2  5  1  0  0  0  0
  5  6  2  0  0  0  0
  5  7  1  0  0  0  0
  7  8  1  0  0  0  0
  7  9  1  0  0  0  0
  9 10  1  0  0  0  0
  9 11  1  0  0  0  0
  9 24  1  0  0  0  0
 11 12  1  0  0  0  0
 11 13  1  0  0  0  0
 11 14  1  0  0  0  0
 14 15  1  0  0  0  0
 14 16  1  0  0  0  0
 14 20  1  0  0  0  0
 16 17  1  0  0  0  0
 16 18  1  0  0  0  0
 16 19  1  0  0  0  0
 20 21  1  0  0  0  0
 20 22  1  0  0  0  0
 20 23  1  0  0  0  0
 24 25  2  0  0  0  0
 24 26  1  0  0  0  0
 26 27  1  0  0  0  0
 26 28  1  0  0  0  0
 28 29  1  0  0  0  0
 28 30  1  0  0  0  0
 28 31  1  0  0  0  0
M  END
$$$$

  -OEChem-01062216083D

 31 30  0     1  0  0  0  0  0999 V2000
   -2.8756   -2.2634   -0.5122 H   0  0  0  0  0  0  0  0  0  0  0  0
   -2.3472   -2.0784    0.4264 C   0  0  0  0  0  0  0  0  0  0  0  0
   -2.7460   -2.7445    1.1958 H   0  0  0  0  0  0  0  0  0  0  0  0
   -1.2925   -2.3067    0.2767 H   0  0  0  0  0  0  0  0  0  0  0  0
   -2.5478   -0.6287    0.8415 C   0  0  0  0  0  0  0  0  0  0  0  0
   -3.5625   -0.3136    1.4364 O   0  0  0  0  0  0  0  0  0  0  0  0
   -1.9528    0.4046    0.1682 N   0  0  0  0  0  0  0  0  0  0  0  0
   -2.5690    1.2132    0.2029 H   0  0  0  0  0  0  0  0  0  0  0  0
   -0.5193    0.7493    0.0267 C   0  0  1  0  0  0  0  0  0  0  0  0
   -0.4101    1.5559    0.7574 H   0  0  0  0  0  0  0  0  0  0  0  0
    0.6483   -0.1928    0.4326 C   0  0  0  0  0  0  0  0  0  0  0  0
    0.5275   -1.1189   -0.1367 H   0  0  0  0  0  0  0  0  0  0  0  0
    1.5754    0.2671    0.0729 H   0  0  0  0  0  0  0  0  0  0  0  0
    0.8892   -0.5558    1.9294 C   0  0  0  0  0  0  0  0  0  0  0  0
    1.2750    0.3568    2.3966 H   0  0  0  0  0  0  0  0  0  0  0  0
    2.0021   -1.6102    1.9941 C   0  0  0  0  0  0  0  0  0  0  0  0
    2.8874   -1.2698    1.4478 H   0  0  0  0  0  0  0  0  0  0  0  0
    2.2950   -1.7969    3.0321 H   0  0  0  0  0  0  0  0  0  0  0  0
    1.6636   -2.5539    1.5543 H   0  0  0  0  0  0  0  0  0  0  0  0
   -0.2661   -1.0095    2.8230 C   0  0  0  0  0  0  0  0  0  0  0  0
   -1.0359   -0.2368    2.8837 H   0  0  0  0  0  0  0  0  0  0  0  0
   -0.6966   -1.9486    2.4724 H   0  0  0  0  0  0  0  0  0  0  0  0
    0.0984   -1.1772    3.8414 H   0  0  0  0  0  0  0  0  0  0  0  0
   -0.2451    1.4440   -1.3239 C   0  0  0  0  0  0  0  0  0  0  0  0
   -0.4464    0.8505   -2.3741 O   0  0  0  0  0  0  0  0  0  0  0  0
    0.2795    2.7242   -1.3635 N   0  0  0  0  0  0  0  0  0  0  0  0
    0.4293    3.2049   -0.4816 H   0  0  0  0  0  0  0  0  0  0  0  0
    0.5640    3.4311   -2.6068 C   0  0  0  0  0  0  0  0  0  0  0  0
   -0.3577    3.5891   -3.1767 H   0  0  0  0  0  0  0  0  0  0  0  0
    1.0112    4.4068   -2.3940 H   0  0  0  0  0  0  0  0  0  0  0  0
    1.2650    2.8579   -3.2226 H   0  0  0  0  0  0  0  0  0  0  0  0
  1  2  1  0  0  0  0
  2  3  1  0  0  0  0
  2  4  1  0  0  0  0
  2  5  1  0  0  0  0
  5  6  2  0  0  0  0
  5  7  1  0  0  0  0
  7  8  1  0  0  0  0
  7  9  1  0  0  0  0
  9 10  1  0  0  0  0
  9 11  1  0  0  0  0
  9 24  1  0  0  0  0
 11 12  1  0  0  0  0
 11 13  1  0  0  0  0
 11 14  1  0  0  0  0
 14 15  1  0  0  0  0
 14 16  1  0  0  0  0
 14 20  1  0  0  0  0
 16 17  1  0  0  0  0
 16 18  1  0  0  0  0
 16 19  1  0  0  0  0
 20 21  1  0  0  0  0
 20 22  1  0  0  0  0
 20 23  1  0  0  0  0
 24 25  2  0  0  0  0
 24 26  1  0  0  0  0
 26 27  1  0  0  0  0
 26 28  1  0  0  0  0
 28 29  1  0  0  0  0
 28 30  1  0  0  0  0
 28 31  1  0  0  0  0
M  END
$$$$

  -OEChem-01062216083D

 31 30  0     1  0  0  0  0  0999 V2000
   -2.8478   -2.2970   -0.5119 H   0  0  0  0  0  0  0  0  0  0  0  0
   -2.3182   -2.0946    0.4223 C   0  0  0  0  0  0  0  0  0  0  0  0
   -2.7031   -2.7593    1.2000 H   0  0  0  0  0  0  0  0  0  0  0  0
   -1.2608   -2.3082    0.2708 H   0  0  0  0  0  0  0  0  0  0  0  0
   -2.5412   -0.6440    0.8230 C   0  0  0  0  0  0  0  0  0  0  0  0
   -3.5670   -0.3397    1.4043 O   0  0  0  0  0  0  0  0  0  0  0  0
   -1.9487    0.3915    0.1500 N   0  0  0  0  0  0  0  0  0  0  0  0
   -2.5773    1.1914    0.1550 H   0  0  0  0  0  0  0  0  0  0  0  0
   -0.5181    0.7527    0.0154 C   0  0  1  0  0  0  0  0  0  0  0  0
   -0.4285    1.5684    0.7390 H   0  0  0  0  0  0  0  0  0  0  0  0
    0.6552   -0.1735    0.4414 C   0  0  0  0  0  0  0  0  0  0  0  0
    0.5477   -1.1069   -0.1184 H   0  0  0  0  0  0  0  0  0  0  0  0
    1.5825    0.2889    0.0861 H   0  0  0  0  0  0  0  0  0  0  0  0
    0.8850   -0.5171    1.9444 C   0  0  0  0  0  0  0  0  0  0  0  0
    1.2558    0.4040    2.4068 H   0  0  0  0  0  0  0  0  0  0  0  0
    2.0078   -1.5596    2.0302 C   0  0  0  0  0  0  0  0  0  0  0  0
    2.8952   -1.2147    1.4899 H   0  0  0  0  0  0  0  0  0  0  0  0
    2.2922   -1.7336    3.0728 H   0  0  0  0  0  0  0  0  0  0  0  0
    1.6846   -2.5110    1.5956 H   0  0  0  0  0  0  0  0  0  0  0  0
   -0.2748   -0.9748    2.8300 C   0  0  0  0  0  0  0  0  0  0  0  0
   -1.0520   -0.2083    2.8773 H   0  0  0  0  0  0  0  0  0  0  0  0
   -0.6933   -1.9201    2.4818 H   0  0  0  0  0  0  0  0  0  0  0  0
    0.0810   -1.1321    3.8531 H   0  0  0  0  0  0  0  0  0  0  0  0
   -0.2292    1.4463   -1.3344 C   0  0  0  0  0  0  0  0  0  0  0  0
   -0.6762    0.9914   -2.3779 O   0  0  0  0  0  0  0  0  0  0  0  0
    0.5602    2.5825   -1.3818 N   0  0  0  0  0  0  0  0  0  0  0  0
    0.9179    2.9504   -0.5056 H   0  0  0  0  0  0  0  0  0  0  0  0
    0.8765    3.2837   -2.6208 C   0  0  0  0  0  0  0  0  0  0  0  0
   -0.0374    3.6642   -3.0890 H   0  0  0  0  0  0  0  0  0  0  0  0
    1.5399    4.1300   -2.4182 H   0  0  0  0  0  0  0  0  0  0  0  0
    1.3797    2.6121   -3.3246 H   0  0  0  0  0  0  0  0  0  0  0  0
  1  2  1  0  0  0  0
  2  3  1  0  0  0  0
  2  4  1  0  0  0  0
  2  5  1  0  0  0  0
  5  6  2  0  0  0  0
  5  7  1  0  0  0  0
  7  8  1  0  0  0  0
  7  9  1  0  0  0  0
  9 10  1  0  0  0  0
  9 11  1  0  0  0  0
  9 24  1  0  0  0  0
 11 12  1  0  0  0  0
 11 13  1  0  0  0  0
 11 14  1  0  0  0  0
 14 15  1  0  0  0  0
 14 16  1  0  0  0  0
 14 20  1  0  0  0  0
 16 17  1  0  0  0  0
 16 18  1  0  0  0  0
 16 19  1  0  0  0  0
 20 21  1  0  0  0  0
 20 22  1  0  0  0  0
 20 23  1  0  0  0  0
 24 25  2  0  0  0  0
 24 26  1  0  0  0  0
 26 27  1  0  0  0  0
 26 28  1  0  0  0  0
 28 29  1  0  0  0  0
 28 30  1  0  0  0  0
 28 31  1  0  0  0  0
M  END
$$$$

  -OEChem-01062216083D

 31 30  0     1  0  0  0  0  0999 V2000
   -2.7776   -2.2884   -0.5332 H   0  0  0  0  0  0  0  0  0  0  0  0
   -2.2969   -2.0897    0.4279 C   0  0  0  0  0  0  0  0  0  0  0  0
   -2.7302   -2.7491    1.1843 H   0  0  0  0  0  0  0  0  0  0  0  0
   -1.2356   -2.3153    0.3349 H   0  0  0  0  0  0  0  0  0  0  0  0
   -2.5273   -0.6364    0.8147 C   0  0  0  0  0  0  0  0  0  0  0  0
   -3.5583   -0.3324    1.3871 O   0  0  0  0  0  0  0  0  0  0  0  0
   -1.9275    0.3964    0.1430 N   0  0  0  0  0  0  0  0  0  0  0  0
   -2.5573    1.1956    0.1209 H   0  0  0  0  0  0  0  0  0  0  0  0
   -0.4962    0.7534   -0.0009 C   0  0  1  0  0  0  0  0  0  0  0  0
   -0.4026    1.5736    0.7172 H   0  0  0  0  0  0  0  0  0  0  0  0
    0.6682   -0.1807    0.4380 C   0  0  0  0  0  0  0  0  0  0  0  0
    0.5509   -1.1202   -0.1091 H   0  0  0  0  0  0  0  0  0  0  0  0
    1.6033    0.2625    0.0801 H   0  0  0  0  0  0  0  0  0  0  0  0
    0.8901   -0.5047    1.9471 C   0  0  0  0  0  0  0  0  0  0  0  0
    1.2721    0.4195    2.3939 H   0  0  0  0  0  0  0  0  0  0  0  0
    2.0007   -1.5581    2.0545 C   0  0  0  0  0  0  0  0  0  0  0  0
    2.8921   -1.2356    1.5071 H   0  0  0  0  0  0  0  0  0  0  0  0
    2.2832   -1.7133    3.1007 H   0  0  0  0  0  0  0  0  0  0  0  0
    1.6654   -2.5146    1.6404 H   0  0  0  0  0  0  0  0  0  0  0  0
   -0.2762   -0.9295    2.8412 C   0  0  0  0  0  0  0  0  0  0  0  0
   -1.0475   -0.1561    2.8660 H   0  0  0  0  0  0  0  0  0  0  0  0
   -0.7021   -1.8807    2.5190 H   0  0  0  0  0  0  0  0  0  0  0  0
    0.0762   -1.0618    3.8691 H   0  0  0  0  0  0  0  0  0  0  0  0
   -0.2051    1.4521   -1.3503 C   0  0  0  0  0  0  0  0  0  0  0  0
   -0.8816    1.2168   -2.3420 O   0  0  0  0  0  0  0  0  0  0  0  0
    0.8191    2.3786   -1.4496 N   0  0  0  0  0  0  0  0  0  0  0  0
    1.3608    2.5796   -0.6146 H   0  0  0  0  0  0  0  0  0  0  0  0
    1.1372    3.0898   -2.6824 C   0  0  0  0  0  0  0  0  0  0  0  0
    0.2800    3.6857   -3.0132 H   0  0  0  0  0  0  0  0  0  0  0  0
    1.9851    3.7630   -2.5235 H   0  0  0  0  0  0  0  0  0  0  0  0
    1.4015    2.3822   -3.4755 H   0  0  0  0  0  0  0  0  0  0  0  0
  1  2  1  0  0  0  0
  2  3  1  0  0  0  0
  2  4  1  0  0  0  0
  2  5  1  0  0  0  0
  5  6  2  0  0  0  0
  5  7  1  0  0  0  0
  7  8  1  0  0  0  0
  7  9  1  0  0  0  0
  9 10  1  0  0  0  0
  9 11  1  0  0  0  0
  9 24  1  0  0  0  0
 11 12  1  0  0  0  0
 11 13  1  0  0  0  0
 11 14  1  0  0  0  0
 14 15  1  0  0  0  0
 14 16  1  0  0  0  0
 14 20  1  0  0  0  0
 16 17  1  0  0  0  0
 16 18  1  0  0  0  0
 16 19  1  0  0  0  0
 20 21  1  0  0  0  0
 20 22  1  0  0  0  0
 20 23  1  0  0  0  0
 24 25  2  0  0  0  0
 24 26  1  0  0  0  0
 26 27  1  0  0  0  0
 26 28  1  0  0  0  0
 28 29  1  0  0  0  0
 28 30  1  0  0  0  0
 28 31  1  0  0  0  0
M  END
$$$$

  -OEChem-01062216083D

 31 30  0     1  0  0  0  0  0999 V2000
   -2.7261   -2.2835   -0.5599 H   0  0  0  0  0  0  0  0  0  0  0  0
   -2.2709   -2.0871    0.4140 C   0  0  0  0  0  0  0  0  0  0  0  0
   -2.7283   -2.7446    1.1581 H   0  0  0  0  0  0  0  0  0  0  0  0
   -1.2091   -2.3189    0.3506 H   0  0  0  0  0  0  0  0  0  0  0  0
   -2.5058   -0.6326    0.7955 C   0  0  0  0  0  0  0  0  0  0  0  0
   -3.5493   -0.3303    1.3454 O   0  0  0  0  0  0  0  0  0  0  0  0
   -1.8920    0.4006    0.1362 N   0  0  0  0  0  0  0  0  0  0  0  0
   -2.5231    1.1978    0.0833 H   0  0  0  0  0  0  0  0  0  0  0  0
   -0.4601    0.7577   -0.0061 C   0  0  1  0  0  0  0  0  0  0  0  0
   -0.3612    1.5780    0.7114 H   0  0  0  0  0  0  0  0  0  0  0  0
    0.6924   -0.1897    0.4434 C   0  0  0  0  0  0  0  0  0  0  0  0
    0.5676   -1.1288   -0.1019 H   0  0  0  0  0  0  0  0  0  0  0  0
    1.6384    0.2360    0.0960 H   0  0  0  0  0  0  0  0  0  0  0  0
    0.8978   -0.5113    1.9557 C   0  0  0  0  0  0  0  0  0  0  0  0
    1.2876    0.4101    2.4017 H   0  0  0  0  0  0  0  0  0  0  0  0
    1.9953   -1.5770    2.0757 C   0  0  0  0  0  0  0  0  0  0  0  0
    2.9003   -1.2595    1.5483 H   0  0  0  0  0  0  0  0  0  0  0  0
    2.2560   -1.7445    3.1255 H   0  0  0  0  0  0  0  0  0  0  0  0
    1.6576   -2.5260    1.6470 H   0  0  0  0  0  0  0  0  0  0  0  0
   -0.2793   -0.9162    2.8450 C   0  0  0  0  0  0  0  0  0  0  0  0
   -1.0432   -0.1351    2.8566 H   0  0  0  0  0  0  0  0  0  0  0  0
   -0.7117   -1.8663    2.5286 H   0  0  0  0  0  0  0  0  0  0  0  0
    0.0643   -1.0421    3.8768 H   0  0  0  0  0  0  0  0  0  0  0  0
   -0.1743    1.4689   -1.3541 C   0  0  0  0  0  0  0  0  0  0  0  0
   -1.0093    1.4853   -2.2486 O   0  0  0  0  0  0  0  0  0  0  0  0
    1.0129    2.1536   -1.5542 N   0  0  0  0  0  0  0  0  0  0  0  0
    1.6829    2.1729   -0.7917 H   0  0  0  0  0  0  0  0  0  0  0  0
    1.3222    2.8817   -2.7797 C   0  0  0  0  0  0  0  0  0  0  0  0
    0.5971    3.6861   -2.9416 H   0  0  0  0  0  0  0  0  0  0  0  0
    2.3206    3.3246   -2.7149 H   0  0  0  0  0  0  0  0  0  0  0  0
    1.2991    2.2076   -3.6424 H   0  0  0  0  0  0  0  0  0  0  0  0
  1  2  1  0  0  0  0
  2  3  1  0  0  0  0
  2  4  1  0  0  0  0
  2  5  1  0  0  0  0
  5  6  2  0  0  0  0
  5  7  1  0  0  0  0
  7  8  1  0  0  0  0
  7  9  1  0  0  0  0
  9 10  1  0  0  0  0
  9 11  1  0  0  0  0
  9 24  1  0  0  0  0
 11 12  1  0  0  0  0
 11 13  1  0  0  0  0
 11 14  1  0  0  0  0
 14 15  1  0  0  0  0
 14 16  1  0  0  0  0
 14 20  1  0  0  0  0
 16 17  1  0  0  0  0
 16 18  1  0  0  0  0
 16 19  1  0  0  0  0
 20 21  1  0  0  0  0
 20 22  1  0  0  0  0
 20 23  1  0  0  0  0
 24 25  2  0  0  0  0
 24 26  1  0  0  0  0
 26 27  1  0  0  0  0
 26 28  1  0  0  0  0
 28 29  1  0  0  0  0
 28 30  1  0  0  0  0
 28 31  1  0  0  0  0
M  END
$$$$

  -OEChem-01062216083D

 31 30  0     1  0  0  0  0  0999 V2000
   -2.5649   -2.7330    1.2366 H   0  0  0  0  0  0  0  0  0  0  0  0
   -2.4600   -1.9480    0.4835 C   0  0  0  0  0  0  0  0  0  0  0  0
   -1.5854   -2.1579   -0.1347 H   0  0  0  0  0  0  0  0  0  0  0  0
   -3.3452   -1.9527   -0.1572 H   0  0  0  0  0  0  0  0  0  0  0  0
   -2.3319   -0.5915    1.1570 C   0  0  0  0  0  0  0  0  0  0  0  0
   -3.1381   -0.2924    2.0187 O   0  0  0  0  0  0  0  0  0  0  0  0
   -1.8093    0.4653    0.4641 N   0  0  0  0  0  0  0  0  0  0  0  0
   -2.3956    1.2870    0.6083 H   0  0  0  0  0  0  0  0  0  0  0  0
   -0.4114    0.8242    0.1276 C   0  0  1  0  0  0  0  0  0  0  0  0
   -0.0961    1.3939    1.0073 H   0  0  0  0  0  0  0  0  0  0  0  0
    0.7328   -0.2341    0.0091 C   0  0  0  0  0  0  0  0  0  0  0  0
    0.3980   -0.9585   -0.7403 H   0  0  0  0  0  0  0  0  0  0  0  0
    1.6154    0.2584   -0.4074 H   0  0  0  0  0  0  0  0  0  0  0  0
    1.2497   -1.0343    1.2458 C   0  0  0  0  0  0  0  0  0  0  0  0
    1.8047   -0.3087    1.8506 H   0  0  0  0  0  0  0  0  0  0  0  0
    2.2554   -2.0813    0.7448 C   0  0  0  0  0  0  0  0  0  0  0  0
    3.0286   -1.6113    0.1288 H   0  0  0  0  0  0  0  0  0  0  0  0
    2.7494   -2.5748    1.5880 H   0  0  0  0  0  0  0  0  0  0  0  0
    1.7496   -2.8447    0.1448 H   0  0  0  0  0  0  0  0  0  0  0  0
    0.2983   -1.7206    2.2243 C   0  0  0  0  0  0  0  0  0  0  0  0
   -0.3676   -0.9946    2.6949 H   0  0  0  0  0  0  0  0  0  0  0  0
   -0.2712   -2.5100    1.7338 H   0  0  0  0  0  0  0  0  0  0  0  0
    0.8728   -2.1885    3.0302 H   0  0  0  0  0  0  0  0  0  0  0  0
   -0.3821    1.9021   -0.9919 C   0  0  0  0  0  0  0  0  0  0  0  0
   -1.4239    2.3981   -1.4027 O   0  0  0  0  0  0  0  0  0  0  0  0
    0.8104    2.4067   -1.4846 N   0  0  0  0  0  0  0  0  0  0  0  0
    1.6745    2.0374   -1.1012 H   0  0  0  0  0  0  0  0  0  0  0  0
    0.8842    3.4742   -2.4763 C   0  0  0  0  0  0  0  0  0  0  0  0
    0.4607    4.4006   -2.0743 H   0  0  0  0  0  0  0  0  0  0  0  0
    1.9259    3.6617   -2.7537 H   0  0  0  0  0  0  0  0  0  0  0  0
    0.3321    3.1976   -3.3807 H   0  0  0  0  0  0  0  0  0  0  0  0
  1  2  1  0  0  0  0
  2  3  1  0  0  0  0
  2  4  1  0  0  0  0
  2  5  1  0  0  0  0
  5  6  2  0  0  0  0
  5  7  1  0  0  0  0
  7  8  1  0  0  0  0
  7  9  1  0  0  0  0
  9 10  1  0  0  0  0
  9 11  1  0  0  0  0
  9 24  1  0  0  0  0
 11 12  1  0  0  0  0
 11 13  1  0  0  0  0
 11 14  1  0  0  0  0
 14 15  1  0  0  0  0
 14 16  1  0  0  0  0
 14 20  1  0  0  0  0
 16 17  1  0  0  0  0
 16 18  1  0  0  0  0
 16 19  1  0  0  0  0
 20 21  1  0  0  0  0
 20 22  1  0  0  0  0
 20 23  1  0  0  0  0
 24 25  2  0  0  0  0
 24 26  1  0  0  0  0
 26 27  1  0  0  0  0
 26 28  1  0  0  0  0
 28 29  1  0  0  0  0
 28 30  1  0  0  0  0
 28 31  1  0  0  0  0
M  END
$$$$

  -OEChem-01062216083D

 31 30  0     1  0  0  0  0  0999 V2000
   -2.5704   -2.7024    1.2124 H   0  0  0  0  0  0  0  0  0  0  0  0
   -2.4448   -1.9182    0.4616 C   0  0  0  0  0  0  0  0  0  0  0  0
   -1.5627   -2.1371   -0.1426 H   0  0  0  0  0  0  0  0  0  0  0  0
   -3.3196   -1.9131   -0.1932 H   0  0  0  0  0  0  0  0  0  0  0  0
   -2.3129   -0.5636    1.1384 C   0  0  0  0  0  0  0  0  0  0  0  0
   -3.1247   -0.2590    1.9926 O   0  0  0  0  0  0  0  0  0  0  0  0
   -1.7688    0.4886    0.4547 N   0  0  0  0  0  0  0  0  0  0  0  0
   -2.3310    1.3245    0.6167 H   0  0  0  0  0  0  0  0  0  0  0  0
   -0.3641    0.8213    0.1215 C   0  0  1  0  0  0  0  0  0  0  0  0
   -0.0389    1.3859    1.0011 H   0  0  0  0  0  0  0  0  0  0  0  0
    0.7653   -0.2543    0.0121 C   0  0  0  0  0  0  0  0  0  0  0  0
    0.4306   -0.9748   -0.7409 H   0  0  0  0  0  0  0  0  0  0  0  0
    1.6597    0.2282   -0.3893 H   0  0  0  0  0  0  0  0  0  0  0  0
    1.2631   -1.0543    1.2567 C   0  0  0  0  0  0  0  0  0  0  0  0
    1.8251   -0.3334    1.8607 H   0  0  0  0  0  0  0  0  0  0  0  0
    2.2558   -2.1195    0.7688 C   0  0  0  0  0  0  0  0  0  0  0  0
    3.0401   -1.6649    0.1554 H   0  0  0  0  0  0  0  0  0  0  0  0
    2.7363   -2.6153    1.6185 H   0  0  0  0  0  0  0  0  0  0  0  0
    1.7423   -2.8788    0.1701 H   0  0  0  0  0  0  0  0  0  0  0  0
    0.2951   -1.7192    2.2334 C   0  0  0  0  0  0  0  0  0  0  0  0
   -0.3642   -0.9799    2.6926 H   0  0  0  0  0  0  0  0  0  0  0  0
   -0.2816   -2.5051    1.7457 H   0  0  0  0  0  0  0  0  0  0  0  0
    0.8570   -2.1877    3.0477 H   0  0  0  0  0  0  0  0  0  0  0  0
   -0.3331    1.9086   -0.9895 C   0  0  0  0  0  0  0  0  0  0  0  0
   -1.3240    2.6004   -1.1907 O   0  0  0  0  0  0  0  0  0  0  0  0
    0.8111    2.1999   -1.7144 N   0  0  0  0  0  0  0  0  0  0  0  0
    1.6407    1.6440   -1.5347 H   0  0  0  0  0  0  0  0  0  0  0  0
    0.8774    3.2498   -2.7250 C   0  0  0  0  0  0  0  0  0  0  0  0
    0.6990    4.2303   -2.2711 H   0  0  0  0  0  0  0  0  0  0  0  0
    1.8654    3.2608   -3.1951 H   0  0  0  0  0  0  0  0  0  0  0  0
    0.1267    3.0804   -3.5041 H   0  0  0  0  0  0  0  0  0  0  0  0
  1  2  1  0  0  0  0
  2  3  1  0  0  0  0
  2  4  1  0  0  0  0
  2  5  1  0  0  0  0
  5  6  2  0  0  0  0
  5  7  1  0  0  0  0
  7  8  1  0  0  0  0
  7  9  1  0  0  0  0
  9 10  1  0  0  0  0
  9 11  1  0  0  0  0
  9 24  1  0  0  0  0
 11 12  1  0  0  0  0
 11 13  1  0  0  0  0
 11 14  1  0  0  0  0
 14 15  1  0  0  0  0
 14 16  1  0  0  0  0
 14 20  1  0  0  0  0
 16 17  1  0  0  0  0
 16 18  1  0  0  0  0
 16 19  1  0  0  0  0
 20 21  1  0  0  0  0
 20 22  1  0  0  0  0
 20 23  1  0  0  0  0
 24 25  2  0  0  0  0
 24 26  1  0  0  0  0
 26 27  1  0  0  0  0
 26 28  1  0  0  0  0
 28 29  1  0  0  0  0
 28 30  1  0  0  0  0
 28 31  1  0  0  0  0
M  END
$$$$

  -OEChem-01062216083D

 31 30  0     1  0  0  0  0  0999 V2000
   -2.5616   -2.6842    1.1953 H   0  0  0  0  0  0  0  0  0  0  0  0
   -2.4280   -1.9060    0.4396 C   0  0  0  0  0  0  0  0  0  0  0  0
   -1.5399   -2.1301   -0.1537 H   0  0  0  0  0  0  0  0  0  0  0  0
   -3.2959   -1.9055   -0.2243 H   0  0  0  0  0  0  0  0  0  0  0  0
   -2.3032   -0.5464    1.1078 C   0  0  0  0  0  0  0  0  0  0  0  0
   -3.1253   -0.2348    1.9495 O   0  0  0  0  0  0  0  0  0  0  0  0
   -1.7460    0.5004    0.4258 N   0  0  0  0  0  0  0  0  0  0  0  0
   -2.2906    1.3454    0.6032 H   0  0  0  0  0  0  0  0  0  0  0  0
   -0.3348    0.8137    0.1046 C   0  0  1  0  0  0  0  0  0  0  0  0
   -0.0135    1.3800    0.9849 H   0  0  0  0  0  0  0  0  0  0  0  0
    0.7928   -0.2636    0.0141 C   0  0  0  0  0  0  0  0  0  0  0  0
    0.4700   -0.9883   -0.7400 H   0  0  0  0  0  0  0  0  0  0  0  0
    1.6918    0.2232   -0.3739 H   0  0  0  0  0  0  0  0  0  0  0  0
    1.2754   -1.0540    1.2703 C   0  0  0  0  0  0  0  0  0  0  0  0
    1.8316   -0.3293    1.8750 H   0  0  0  0  0  0  0  0  0  0  0  0
    2.2711   -2.1251    0.8018 C   0  0  0  0  0  0  0  0  0  0  0  0
    3.0614   -1.6774    0.1908 H   0  0  0  0  0  0  0  0  0  0  0  0
    2.7438   -2.6129    1.6602 H   0  0  0  0  0  0  0  0  0  0  0  0
    1.7621   -2.8898    0.2065 H   0  0  0  0  0  0  0  0  0  0  0  0
    0.2937   -1.7092    2.2397 C   0  0  0  0  0  0  0  0  0  0  0  0
   -0.3692   -0.9647    2.6846 H   0  0  0  0  0  0  0  0  0  0  0  0
   -0.2793   -2.4967    1.7505 H   0  0  0  0  0  0  0  0  0  0  0  0
    0.8441   -2.1732    3.0643 H   0  0  0  0  0  0  0  0  0  0  0  0
   -0.2930    1.8970   -1.0069 C   0  0  0  0  0  0  0  0  0  0  0  0
   -1.1708    2.7505   -1.0432 O   0  0  0  0  0  0  0  0  0  0  0  0
    0.7357    1.9830   -1.9308 N   0  0  0  0  0  0  0  0  0  0  0  0
    1.4472    1.2596   -1.9153 H   0  0  0  0  0  0  0  0  0  0  0  0
    0.7986    3.0061   -2.9683 C   0  0  0  0  0  0  0  0  0  0  0  0
    0.8506    4.0037   -2.5195 H   0  0  0  0  0  0  0  0  0  0  0  0
    1.6872    2.8608   -3.5900 H   0  0  0  0  0  0  0  0  0  0  0  0
   -0.0859    2.9545   -3.6121 H   0  0  0  0  0  0  0  0  0  0  0  0
  1  2  1  0  0  0  0
  2  3  1  0  0  0  0
  2  4  1  0  0  0  0
  2  5  1  0  0  0  0
  5  6  2  0  0  0  0
  5  7  1  0  0  0  0
  7  8  1  0  0  0  0
  7  9  1  0  0  0  0
  9 10  1  0  0  0  0
  9 11  1  0  0  0  0
  9 24  1  0  0  0  0
 11 12  1  0  0  0  0
 11 13  1  0  0  0  0
 11 14  1  0  0  0  0
 14 15  1  0  0  0  0
 14 16  1  0  0  0  0
 14 20  1  0  0  0  0
 16 17  1  0  0  0  0
 16 18  1  0  0  0  0
 16 19  1  0  0  0  0
 20 21  1  0  0  0  0
 20 22  1  0  0  0  0
 20 23  1  0  0  0  0
 24 25  2  0  0  0  0
 24 26  1  0  0  0  0
 26 27  1  0  0  0  0
 26 28  1  0  0  0  0
 28 29  1  0  0  0  0
 28 30  1  0  0  0  0
 28 31  1  0  0  0  0
M  END
$$$$

  -OEChem-01062216083D

 31 30  0     1  0  0  0  0  0999 V2000
   -2.5598   -2.6543    1.1919 H   0  0  0  0  0  0  0  0  0  0  0  0
   -2.4279   -1.8802    0.4319 C   0  0  0  0  0  0  0  0  0  0  0  0
   -1.5450   -2.1109   -0.1668 H   0  0  0  0  0  0  0  0  0  0  0  0
   -3.3005   -1.8784   -0.2258 H   0  0  0  0  0  0  0  0  0  0  0  0
   -2.2911   -0.5185    1.0933 C   0  0  0  0  0  0  0  0  0  0  0  0
   -3.1092   -0.1945    1.9337 O   0  0  0  0  0  0  0  0  0  0  0  0
   -1.7256    0.5195    0.4050 N   0  0  0  0  0  0  0  0  0  0  0  0
   -2.2513    1.3721    0.6028 H   0  0  0  0  0  0  0  0  0  0  0  0
   -0.3090    0.8144    0.0940 C   0  0  1  0  0  0  0  0  0  0  0  0
    0.0108    1.3839    0.9730 H   0  0  0  0  0  0  0  0  0  0  0  0
    0.8160   -0.2644    0.0127 C   0  0  0  0  0  0  0  0  0  0  0  0
    0.4962   -0.9907   -0.7410 H   0  0  0  0  0  0  0  0  0  0  0  0
    1.7152    0.2259   -0.3738 H   0  0  0  0  0  0  0  0  0  0  0  0
    1.2895   -1.0544    1.2717 C   0  0  0  0  0  0  0  0  0  0  0  0
    1.8416   -0.3315    1.8827 H   0  0  0  0  0  0  0  0  0  0  0  0
    2.2861   -2.1270    0.8087 C   0  0  0  0  0  0  0  0  0  0  0  0
    3.0829   -1.6796    0.2063 H   0  0  0  0  0  0  0  0  0  0  0  0
    2.7498   -2.6188    1.6698 H   0  0  0  0  0  0  0  0  0  0  0  0
    1.7802   -2.8884    0.2060 H   0  0  0  0  0  0  0  0  0  0  0  0
    0.2966   -1.7116    2.2282 C   0  0  0  0  0  0  0  0  0  0  0  0
   -0.3664   -0.9669    2.6728 H   0  0  0  0  0  0  0  0  0  0  0  0
   -0.2761   -2.4924    1.7277 H   0  0  0  0  0  0  0  0  0  0  0  0
    0.8374   -2.1849    3.0540 H   0  0  0  0  0  0  0  0  0  0  0  0
   -0.2520    1.8840   -1.0249 C   0  0  0  0  0  0  0  0  0  0  0  0
   -0.9773    2.8671   -0.9455 O   0  0  0  0  0  0  0  0  0  0  0  0
    0.6001    1.7762   -2.1112 N   0  0  0  0  0  0  0  0  0  0  0  0
    1.1525    0.9287   -2.1943 H   0  0  0  0  0  0  0  0  0  0  0  0
    0.6423    2.7519   -3.1939 C   0  0  0  0  0  0  0  0  0  0  0  0
    0.9289    3.7368   -2.8106 H   0  0  0  0  0  0  0  0  0  0  0  0
    1.3746    2.4487   -3.9481 H   0  0  0  0  0  0  0  0  0  0  0  0
   -0.3378    2.8328   -3.6757 H   0  0  0  0  0  0  0  0  0  0  0  0
  1  2  1  0  0  0  0
  2  3  1  0  0  0  0
  2  4  1  0  0  0  0
  2  5  1  0  0  0  0
  5  6  2  0  0  0  0
  5  7  1  0  0  0  0
  7  8  1  0  0  0  0
  7  9  1  0  0  0  0
  9 10  1  0  0  0  0
  9 11  1  0  0  0  0
  9 24  1  0  0  0  0
 11 12  1  0  0  0  0
 11 13  1  0  0  0  0
 11 14  1  0  0  0  0
 14 15  1  0  0  0  0
 14 16  1  0  0  0  0
 14 20  1  0  0  0  0
 16 17  1  0  0  0  0
 16 18  1  0  0  0  0
 16 19  1  0  0  0  0
 20 21  1  0  0  0  0
 20 22  1  0  0  0  0
 20 23  1  0  0  0  0
 24 25  2  0  0  0  0
 24 26  1  0  0  0  0
 26 27  1  0  0  0  0
 26 28  1  0  0  0  0
 28 29  1  0  0  0  0
 28 30  1  0  0  0  0
 28 31  1  0  0  0  0
M  END
$$$$

  -OEChem-01062216083D

 31 30  0     1  0  0  0  0  0999 V2000
   -2.5573   -2.6321    1.2147 H   0  0  0  0  0  0  0  0  0  0  0  0
   -2.4239   -1.8733    0.4394 C   0  0  0  0  0  0  0  0  0  0  0  0
   -1.5398   -2.1156   -0.1527 H   0  0  0  0  0  0  0  0  0  0  0  0
   -3.2955   -1.8852   -0.2196 H   0  0  0  0  0  0  0  0  0  0  0  0
   -2.2884   -0.4988    1.0738 C   0  0  0  0  0  0  0  0  0  0  0  0
   -3.1096   -0.1569    1.9039 O   0  0  0  0  0  0  0  0  0  0  0  0
   -1.7188    0.5269    0.3702 N   0  0  0  0  0  0  0  0  0  0  0  0
   -2.2331    1.3843    0.5762 H   0  0  0  0  0  0  0  0  0  0  0  0
   -0.2990    0.8085    0.0633 C   0  0  1  0  0  0  0  0  0  0  0  0
    0.0171    1.3882    0.9374 H   0  0  0  0  0  0  0  0  0  0  0  0
    0.8277   -0.2679    0.0000 C   0  0  0  0  0  0  0  0  0  0  0  0
    0.5113   -1.0067   -0.7427 H   0  0  0  0  0  0  0  0  0  0  0  0
    1.7234    0.2223   -0.3966 H   0  0  0  0  0  0  0  0  0  0  0  0
    1.2979   -1.0412    1.2701 C   0  0  0  0  0  0  0  0  0  0  0  0
    1.8457   -0.3091    1.8738 H   0  0  0  0  0  0  0  0  0  0  0  0
    2.2990   -2.1181    0.8268 C   0  0  0  0  0  0  0  0  0  0  0  0
    3.0970   -1.6777    0.2205 H   0  0  0  0  0  0  0  0  0  0  0  0
    2.7605   -2.5951    1.6973 H   0  0  0  0  0  0  0  0  0  0  0  0
    1.7979   -2.8903    0.2345 H   0  0  0  0  0  0  0  0  0  0  0  0
    0.3012   -1.6869    2.2300 C   0  0  0  0  0  0  0  0  0  0  0  0
   -0.3668   -0.9379    2.6595 H   0  0  0  0  0  0  0  0  0  0  0  0
   -0.2660   -2.4766    1.7374 H   0  0  0  0  0  0  0  0  0  0  0  0
    0.8387   -2.1457    3.0659 H   0  0  0  0  0  0  0  0  0  0  0  0
   -0.2229    1.8556   -1.0707 C   0  0  0  0  0  0  0  0  0  0  0  0
   -0.7561    2.9455   -0.9122 O   0  0  0  0  0  0  0  0  0  0  0  0
    0.3993    1.5815   -2.2765 N   0  0  0  0  0  0  0  0  0  0  0  0
    0.7578    0.6422   -2.4170 H   0  0  0  0  0  0  0  0  0  0  0  0
    0.4292    2.5206   -3.3916 C   0  0  0  0  0  0  0  0  0  0  0  0
    0.9214    3.4528   -3.0947 H   0  0  0  0  0  0  0  0  0  0  0  0
    0.9824    2.0916   -4.2327 H   0  0  0  0  0  0  0  0  0  0  0  0
   -0.5877    2.7505   -3.7268 H   0  0  0  0  0  0  0  0  0  0  0  0
  1  2  1  0  0  0  0
  2  3  1  0  0  0  0
  2  4  1  0  0  0  0
  2  5  1  0  0  0  0
  5  6  2  0  0  0  0
  5  7  1  0  0  0  0
  7  8  1  0  0  0  0
  7  9  1  0  0  0  0
  9 10  1  0  0  0  0
  9 11  1  0  0  0  0
  9 24  1  0  0  0  0
 11 12  1  0  0  0  0
 11 13  1  0  0  0  0
 11 14  1  0  0  0  0
 14 15  1  0  0  0  0
 14 16  1  0  0  0  0
 14 20  1  0  0  0  0
 16 17  1  0  0  0  0
 16 18  1  0  0  0  0
 16 19  1  0  0  0  0
 20 21  1  0  0  0  0
 20 22  1  0  0  0  0
 20 23  1  0  0  0  0
 24 25  2  0  0  0  0
 24 26  1  0  0  0  0
 26 27  1  0  0  0  0
 26 28  1  0  0  0  0
 28 29  1  0  0  0  0
 28 30  1  0  0  0  0
 28 31  1  0  0  0  0
M  END
$$$$

  -OEChem-01062216083D

 31 30  0     1  0  0  0  0  0999 V2000
   -2.5629   -2.6097    1.2262 H   0  0  0  0  0  0  0  0  0  0  0  0
   -2.4310   -1.8575    0.4442 C   0  0  0  0  0  0  0  0  0  0  0  0
   -1.5538   -2.1105   -0.1541 H   0  0  0  0  0  0  0  0  0  0  0  0
   -3.3086   -1.8676   -0.2069 H   0  0  0  0  0  0  0  0  0  0  0  0
   -2.2790   -0.4795    1.0666 C   0  0  0  0  0  0  0  0  0  0  0  0
   -3.0932   -0.1212    1.8965 O   0  0  0  0  0  0  0  0  0  0  0  0
   -1.7117    0.5343    0.3450 N   0  0  0  0  0  0  0  0  0  0  0  0
   -2.2202    1.3938    0.5553 H   0  0  0  0  0  0  0  0  0  0  0  0
   -0.2896    0.8095    0.0457 C   0  0  1  0  0  0  0  0  0  0  0  0
    0.0231    1.3981    0.9153 H   0  0  0  0  0  0  0  0  0  0  0  0
    0.8374   -0.2652   -0.0095 C   0  0  0  0  0  0  0  0  0  0  0  0
    0.5217   -1.0069   -0.7496 H   0  0  0  0  0  0  0  0  0  0  0  0
    1.7306    0.2263   -0.4111 H   0  0  0  0  0  0  0  0  0  0  0  0
    1.3056   -1.0383    1.2616 C   0  0  0  0  0  0  0  0  0  0  0  0
    1.8497   -0.3063    1.8688 H   0  0  0  0  0  0  0  0  0  0  0  0
    2.3093   -2.1123    0.8176 C   0  0  0  0  0  0  0  0  0  0  0  0
    3.1076   -1.6676    0.2151 H   0  0  0  0  0  0  0  0  0  0  0  0
    2.7699   -2.5918    1.6875 H   0  0  0  0  0  0  0  0  0  0  0  0
    1.8110   -2.8831    0.2206 H   0  0  0  0  0  0  0  0  0  0  0  0
    0.3068   -1.6915    2.2147 C   0  0  0  0  0  0  0  0  0  0  0  0
   -0.3625   -0.9463    2.6485 H   0  0  0  0  0  0  0  0  0  0  0  0
   -0.2593   -2.4774    1.7148 H   0  0  0  0  0  0  0  0  0  0  0  0
    0.8424   -2.1568    3.0485 H   0  0  0  0  0  0  0  0  0  0  0  0
   -0.1997    1.8302   -1.1079 C   0  0  0  0  0  0  0  0  0  0  0  0
   -0.5059    2.9966   -0.9037 O   0  0  0  0  0  0  0  0  0  0  0  0
    0.1542    1.4358   -2.3862 N   0  0  0  0  0  0  0  0  0  0  0  0
    0.3017    0.4441   -2.5454 H   0  0  0  0  0  0  0  0  0  0  0  0
    0.1520    2.3404   -3.5297 C   0  0  0  0  0  0  0  0  0  0  0  0
    0.8434    3.1726   -3.3608 H   0  0  0  0  0  0  0  0  0  0  0  0
    0.4660    1.8095   -4.4335 H   0  0  0  0  0  0  0  0  0  0  0  0
   -0.8519    2.7447   -3.6966 H   0  0  0  0  0  0  0  0  0  0  0  0
  1  2  1  0  0  0  0
  2  3  1  0  0  0  0
  2  4  1  0  0  0  0
  2  5  1  0  0  0  0
  5  6  2  0  0  0  0
  5  7  1  0  0  0  0
  7  8  1  0  0  0  0
  7  9  1  0  0  0  0
  9 10  1  0  0  0  0
  9 11  1  0  0  0  0
  9 24  1  0  0  0  0
 11 12  1  0  0  0  0
 11 13  1  0  0  0  0
 11 14  1  0  0  0  0
 14 15  1  0  0  0  0
 14 16  1  0  0  0  0
 14 20  1  0  0  0  0
 16 17  1  0  0  0  0
 16 18  1  0  0  0  0
 16 19  1  0  0  0  0
 20 21  1  0  0  0  0
 20 22  1  0  0  0  0
 20 23  1  0  0  0  0
 24 25  2  0  0  0  0
 24 26  1  0  0  0  0
 26 27  1  0  0  0  0
 26 28  1  0  0  0  0
 28 29  1  0  0  0  0
 28 30  1  0  0  0  0
 28 31  1  0  0  0  0
M  END
$$$$

  -OEChem-01062216083D

 31 30  0     1  0  0  0  0  0999 V2000
   -2.5737   -2.5945    1.2533 H   0  0  0  0  0  0  0  0  0  0  0  0
   -2.4481   -1.8514    0.4615 C   0  0  0  0  0  0  0  0  0  0  0  0
   -1.5818   -2.1171   -0.1471 H   0  0  0  0  0  0  0  0  0  0  0  0
   -3.3356   -1.8619   -0.1761 H   0  0  0  0  0  0  0  0  0  0  0  0
   -2.2766   -0.4684    1.0669 C   0  0  0  0  0  0  0  0  0  0  0  0
   -3.0802   -0.0919    1.8989 O   0  0  0  0  0  0  0  0  0  0  0  0
   -1.7127    0.5339    0.3272 N   0  0  0  0  0  0  0  0  0  0  0  0
   -2.2133    1.3954    0.5464 H   0  0  0  0  0  0  0  0  0  0  0  0
   -0.2899    0.8019    0.0239 C   0  0  1  0  0  0  0  0  0  0  0  0
    0.0255    1.3966    0.8886 H   0  0  0  0  0  0  0  0  0  0  0  0
    0.8365   -0.2727   -0.0307 C   0  0  0  0  0  0  0  0  0  0  0  0
    0.5174   -1.0172   -0.7666 H   0  0  0  0  0  0  0  0  0  0  0  0
    1.7271    0.2172   -0.4406 H   0  0  0  0  0  0  0  0  0  0  0  0
    1.3088   -1.0425    1.2407 C   0  0  0  0  0  0  0  0  0  0  0  0
    1.8531   -0.3090    1.8457 H   0  0  0  0  0  0  0  0  0  0  0  0
    2.3115   -2.1172    0.7963 C   0  0  0  0  0  0  0  0  0  0  0  0
    3.1096   -1.6733    0.1927 H   0  0  0  0  0  0  0  0  0  0  0  0
    2.7731   -2.5954    1.6661 H   0  0  0  0  0  0  0  0  0  0  0  0
    1.8126   -2.8887    0.2009 H   0  0  0  0  0  0  0  0  0  0  0  0
    0.3121   -1.6970    2.1948 C   0  0  0  0  0  0  0  0  0  0  0  0
   -0.3540   -0.9520    2.6336 H   0  0  0  0  0  0  0  0  0  0  0  0
   -0.2567   -2.4802    1.6934 H   0  0  0  0  0  0  0  0  0  0  0  0
    0.8492   -2.1664    3.0251 H   0  0  0  0  0  0  0  0  0  0  0  0
   -0.1918    1.8013   -1.1460 C   0  0  0  0  0  0  0  0  0  0  0  0
   -0.2049    3.0035   -0.9229 O   0  0  0  0  0  0  0  0  0  0  0  0
   -0.1417    1.3513   -2.4528 N   0  0  0  0  0  0  0  0  0  0  0  0
   -0.2440    0.3527   -2.6053 H   0  0  0  0  0  0  0  0  0  0  0  0
   -0.1449    2.2443   -3.6053 C   0  0  0  0  0  0  0  0  0  0  0  0
    0.7118    2.9254   -3.5657 H   0  0  0  0  0  0  0  0  0  0  0  0
   -0.0818    1.6657   -4.5318 H   0  0  0  0  0  0  0  0  0  0  0  0
   -1.0654    2.8371   -3.6282 H   0  0  0  0  0  0  0  0  0  0  0  0
  1  2  1  0  0  0  0
  2  3  1  0  0  0  0
  2  4  1  0  0  0  0
  2  5  1  0  0  0  0
  5  6  2  0  0  0  0
  5  7  1  0  0  0  0
  7  8  1  0  0  0  0
  7  9  1  0  0  0  0
  9 10  1  0  0  0  0
  9 11  1  0  0  0  0
  9 24  1  0  0  0  0
 11 12  1  0  0  0  0
 11 13  1  0  0  0  0
 11 14  1  0  0  0  0
 14 15  1  0  0  0  0
 14 16  1  0  0  0  0
 14 20  1  0  0  0  0
 16 17  1  0  0  0  0
 16 18  1  0  0  0  0
 16 19  1  0  0  0  0
 20 21  1  0  0  0  0
 20 22  1  0  0  0  0
 20 23  1  0  0  0  0
 24 25  2  0  0  0  0
 24 26  1  0  0  0  0
 26 27  1  0  0  0  0
 26 28  1  0  0  0  0
 28 29  1  0  0  0  0
 28 30  1  0  0  0  0
 28 31  1  0  0  0  0
M  END
$$$$

  -OEChem-01062216083D

 31 30  0     1  0  0  0  0  0999 V2000
   -2.5683   -2.5892    1.2920 H   0  0  0  0  0  0  0  0  0  0  0  0
   -2.4518   -1.8598    0.4864 C   0  0  0  0  0  0  0  0  0  0  0  0
   -1.5885   -2.1324   -0.1236 H   0  0  0  0  0  0  0  0  0  0  0  0
   -3.3433   -1.8856   -0.1450 H   0  0  0  0  0  0  0  0  0  0  0  0
   -2.2823   -0.4656    1.0668 C   0  0  0  0  0  0  0  0  0  0  0  0
   -3.0886   -0.0729    1.8885 O   0  0  0  0  0  0  0  0  0  0  0  0
   -1.7251    0.5254    0.3072 N   0  0  0  0  0  0  0  0  0  0  0  0
   -2.2247    1.3873    0.5254 H   0  0  0  0  0  0  0  0  0  0  0  0
   -0.3027    0.7897   -0.0056 C   0  0  1  0  0  0  0  0  0  0  0  0
    0.0144    1.3964    0.8503 H   0  0  0  0  0  0  0  0  0  0  0  0
    0.8244   -0.2829   -0.0532 C   0  0  0  0  0  0  0  0  0  0  0  0
    0.5031   -1.0352   -0.7803 H   0  0  0  0  0  0  0  0  0  0  0  0
    1.7115    0.2044   -0.4739 H   0  0  0  0  0  0  0  0  0  0  0  0
    1.3051   -1.0383    1.2239 C   0  0  0  0  0  0  0  0  0  0  0  0
    1.8530   -0.2972    1.8162 H   0  0  0  0  0  0  0  0  0  0  0  0
    2.3071   -2.1163    0.7859 C   0  0  0  0  0  0  0  0  0  0  0  0
    3.1011   -1.6771    0.1735 H   0  0  0  0  0  0  0  0  0  0  0  0
    2.7741   -2.5841    1.6584 H   0  0  0  0  0  0  0  0  0  0  0  0
    1.8070   -2.8951    0.2013 H   0  0  0  0  0  0  0  0  0  0  0  0
    0.3164   -1.6807    2.1947 C   0  0  0  0  0  0  0  0  0  0  0  0
   -0.3493   -0.9307    2.6256 H   0  0  0  0  0  0  0  0  0  0  0  0
   -0.2528   -2.4741    1.7102 H   0  0  0  0  0  0  0  0  0  0  0  0
    0.8605   -2.1341    3.0294 H   0  0  0  0  0  0  0  0  0  0  0  0
   -0.2030    1.7672   -1.1921 C   0  0  0  0  0  0  0  0  0  0  0  0
    0.1141    2.9332   -1.0057 O   0  0  0  0  0  0  0  0  0  0  0  0
   -0.4644    1.3247   -2.4752 N   0  0  0  0  0  0  0  0  0  0  0  0
   -0.8219    0.3791   -2.5735 H   0  0  0  0  0  0  0  0  0  0  0  0
   -0.4564    2.2019   -3.6395 C   0  0  0  0  0  0  0  0  0  0  0  0
    0.5257    2.6714   -3.7600 H   0  0  0  0  0  0  0  0  0  0  0  0
   -0.6775    1.6297   -4.5455 H   0  0  0  0  0  0  0  0  0  0  0  0
   -1.2116    2.9877   -3.5322 H   0  0  0  0  0  0  0  0  0  0  0  0
  1  2  1  0  0  0  0
  2  3  1  0  0  0  0
  2  4  1  0  0  0  0
  2  5  1  0  0  0  0
  5  6  2  0  0  0  0
  5  7  1  0  0  0  0
  7  8  1  0  0  0  0
  7  9  1  0  0  0  0
  9 10  1  0  0  0  0
  9 11  1  0  0  0  0
  9 24  1  0  0  0  0
 11 12  1  0  0  0  0
 11 13  1  0  0  0  0
 11 14  1  0  0  0  0
 14 15  1  0  0  0  0
 14 16  1  0  0  0  0
 14 20  1  0  0  0  0
 16 17  1  0  0  0  0
 16 18  1  0  0  0  0
 16 19  1  0  0  0  0
 20 21  1  0  0  0  0
 20 22  1  0  0  0  0
 20 23  1  0  0  0  0
 24 25  2  0  0  0  0
 24 26  1  0  0  0  0
 26 27  1  0  0  0  0
 26 28  1  0  0  0  0
 28 29  1  0  0  0  0
 28 30  1  0  0  0  0
 28 31  1  0  0  0  0
M  END
$$$$

  -OEChem-01062216083D

 31 30  0     1  0  0  0  0  0999 V2000
   -2.5542   -2.6004    1.3325 H   0  0  0  0  0  0  0  0  0  0  0  0
   -2.4565   -1.8767    0.5193 C   0  0  0  0  0  0  0  0  0  0  0  0
   -1.6028   -2.1494   -0.1044 H   0  0  0  0  0  0  0  0  0  0  0  0
   -3.3596   -1.9128   -0.0951 H   0  0  0  0  0  0  0  0  0  0  0  0
   -2.2842   -0.4771    1.0857 C   0  0  0  0  0  0  0  0  0  0  0  0
   -3.0859   -0.0771    1.9082 O   0  0  0  0  0  0  0  0  0  0  0  0
   -1.7424    0.5092    0.3093 N   0  0  0  0  0  0  0  0  0  0  0  0
   -2.2420    1.3696    0.5323 H   0  0  0  0  0  0  0  0  0  0  0  0
   -0.3241    0.7758   -0.0243 C   0  0  1  0  0  0  0  0  0  0  0  0
    0.0007    1.3919    0.8218 H   0  0  0  0  0  0  0  0  0  0  0  0
    0.8058   -0.2934   -0.0788 C   0  0  0  0  0  0  0  0  0  0  0  0
    0.4779   -1.0510   -0.7973 H   0  0  0  0  0  0  0  0  0  0  0  0
    1.6862    0.1939   -0.5137 H   0  0  0  0  0  0  0  0  0  0  0  0
    1.3062   -1.0379    1.1969 C   0  0  0  0  0  0  0  0  0  0  0  0
    1.8599   -0.2900    1.7756 H   0  0  0  0  0  0  0  0  0  0  0  0
    2.3059   -2.1158    0.7533 C   0  0  0  0  0  0  0  0  0  0  0  0
    3.0880   -1.6798    0.1236 H   0  0  0  0  0  0  0  0  0  0  0  0
    2.7887   -2.5738    1.6225 H   0  0  0  0  0  0  0  0  0  0  0  0
    1.7991   -2.9018    0.1842 H   0  0  0  0  0  0  0  0  0  0  0  0
    0.3334   -1.6761    2.1860 C   0  0  0  0  0  0  0  0  0  0  0  0
   -0.3293   -0.9251    2.6197 H   0  0  0  0  0  0  0  0  0  0  0  0
   -0.2388   -2.4753    1.7149 H   0  0  0  0  0  0  0  0  0  0  0  0
    0.8907   -2.1212    3.0164 H   0  0  0  0  0  0  0  0  0  0  0  0
   -0.2366    1.7416   -1.2209 C   0  0  0  0  0  0  0  0  0  0  0  0
    0.3807    2.7923   -1.1233 O   0  0  0  0  0  0  0  0  0  0  0  0
   -0.7995    1.3855   -2.4316 N   0  0  0  0  0  0  0  0  0  0  0  0
   -1.3663    0.5425   -2.4447 H   0  0  0  0  0  0  0  0  0  0  0  0
   -0.7790    2.2451   -3.6083 C   0  0  0  0  0  0  0  0  0  0  0  0
    0.2518    2.4824   -3.8920 H   0  0  0  0  0  0  0  0  0  0  0  0
   -1.2611    1.7424   -4.4523 H   0  0  0  0  0  0  0  0  0  0  0  0
   -1.3138    3.1797   -3.4091 H   0  0  0  0  0  0  0  0  0  0  0  0
  1  2  1  0  0  0  0
  2  3  1  0  0  0  0
  2  4  1  0  0  0  0
  2  5  1  0  0  0  0
  5  6  2  0  0  0  0
  5  7  1  0  0  0  0
  7  8  1  0  0  0  0
  7  9  1  0  0  0  0
  9 10  1  0  0  0  0
  9 11  1  0  0  0  0
  9 24  1  0  0  0  0
 11 12  1  0  0  0  0
 11 13  1  0  0  0  0
 11 14  1  0  0  0  0
 14 15  1  0  0  0  0
 14 16  1  0  0  0  0
 14 20  1  0  0  0  0
 16 17  1  0  0  0  0
 16 18  1  0  0  0  0
 16 19  1  0  0  0  0
 20 21  1  0  0  0  0
 20 22  1  0  0  0  0
 20 23  1  0  0  0  0
 24 25  2  0  0  0  0
 24 26  1  0  0  0  0
 26 27  1  0  0  0  0
 26 28  1  0  0  0  0
 28 29  1  0  0  0  0
 28 30  1  0  0  0  0
 28 31  1  0  0  0  0
M  END
$$$$

  -OEChem-01062216083D

 31 30  0     1  0  0  0  0  0999 V2000
   -2.5549   -2.6094    1.3721 H   0  0  0  0  0  0  0  0  0  0  0  0
   -2.4619   -1.8940    0.5510 C   0  0  0  0  0  0  0  0  0  0  0  0
   -1.6131   -2.1745   -0.0759 H   0  0  0  0  0  0  0  0  0  0  0  0
   -3.3696   -1.9348   -0.0562 H   0  0  0  0  0  0  0  0  0  0  0  0
   -2.2828   -0.4889    1.1013 C   0  0  0  0  0  0  0  0  0  0  0  0
   -3.0749   -0.0794    1.9285 O   0  0  0  0  0  0  0  0  0  0  0  0
   -1.7552    0.4920    0.3084 N   0  0  0  0  0  0  0  0  0  0  0  0
   -2.2517    1.3523    0.5371 H   0  0  0  0  0  0  0  0  0  0  0  0
   -0.3410    0.7580   -0.0476 C   0  0  1  0  0  0  0  0  0  0  0  0
   -0.0065    1.3852    0.7862 H   0  0  0  0  0  0  0  0  0  0  0  0
    0.7861   -0.3150   -0.1016 C   0  0  0  0  0  0  0  0  0  0  0  0
    0.4481   -1.0801   -0.8074 H   0  0  0  0  0  0  0  0  0  0  0  0
    1.6632    0.1634   -0.5527 H   0  0  0  0  0  0  0  0  0  0  0  0
    1.3018   -1.0441    1.1771 C   0  0  0  0  0  0  0  0  0  0  0  0
    1.8660   -0.2900    1.7373 H   0  0  0  0  0  0  0  0  0  0  0  0
    2.2930   -2.1298    0.7330 C   0  0  0  0  0  0  0  0  0  0  0  0
    3.0640   -1.7043    0.0826 H   0  0  0  0  0  0  0  0  0  0  0  0
    2.7909   -2.5741    1.6008 H   0  0  0  0  0  0  0  0  0  0  0  0
    1.7761   -2.9246    0.1857 H   0  0  0  0  0  0  0  0  0  0  0  0
    0.3434   -1.6659    2.1905 C   0  0  0  0  0  0  0  0  0  0  0  0
   -0.3120   -0.9079    2.6236 H   0  0  0  0  0  0  0  0  0  0  0  0
   -0.2365   -2.4717    1.7408 H   0  0  0  0  0  0  0  0  0  0  0  0
    0.9134   -2.0989    3.0188 H   0  0  0  0  0  0  0  0  0  0  0  0
   -0.2638    1.7136   -1.2545 C   0  0  0  0  0  0  0  0  0  0  0  0
    0.5640    2.6133   -1.2775 O   0  0  0  0  0  0  0  0  0  0  0  0
   -1.0839    1.5096   -2.3480 N   0  0  0  0  0  0  0  0  0  0  0  0
   -1.7906    0.7842   -2.2629 H   0  0  0  0  0  0  0  0  0  0  0  0
   -1.0844    2.3704   -3.5242 C   0  0  0  0  0  0  0  0  0  0  0  0
   -0.0914    2.3899   -3.9856 H   0  0  0  0  0  0  0  0  0  0  0  0
   -1.8005    1.9999   -4.2640 H   0  0  0  0  0  0  0  0  0  0  0  0
   -1.3657    3.3925   -3.2502 H   0  0  0  0  0  0  0  0  0  0  0  0
  1  2  1  0  0  0  0
  2  3  1  0  0  0  0
  2  4  1  0  0  0  0
  2  5  1  0  0  0  0
  5  6  2  0  0  0  0
  5  7  1  0  0  0  0
  7  8  1  0  0  0  0
  7  9  1  0  0  0  0
  9 10  1  0  0  0  0
  9 11  1  0  0  0  0
  9 24  1  0  0  0  0
 11 12  1  0  0  0  0
 11 13  1  0  0  0  0
 11 14  1  0  0  0  0
 14 15  1  0  0  0  0
 14 16  1  0  0  0  0
 14 20  1  0  0  0  0
 16 17  1  0  0  0  0
 16 18  1  0  0  0  0
 16 19  1  0  0  0  0
 20 21  1  0  0  0  0
 20 22  1  0  0  0  0
 20 23  1  0  0  0  0
 24 25  2  0  0  0  0
 24 26  1  0  0  0  0
 26 27  1  0  0  0  0
 26 28  1  0  0  0  0
 28 29  1  0  0  0  0
 28 30  1  0  0  0  0
 28 31  1  0  0  0  0
M  END
$$$$

  -OEChem-01062216083D

 31 30  0     1  0  0  0  0  0999 V2000
   -2.5474   -2.6277    1.4172 H   0  0  0  0  0  0  0  0  0  0  0  0
   -2.4671   -1.9190    0.5888 C   0  0  0  0  0  0  0  0  0  0  0  0
   -1.6270   -2.2040   -0.0477 H   0  0  0  0  0  0  0  0  0  0  0  0
   -3.3833   -1.9665   -0.0051 H   0  0  0  0  0  0  0  0  0  0  0  0
   -2.2817   -0.5091    1.1252 C   0  0  0  0  0  0  0  0  0  0  0  0
   -3.0616   -0.0941    1.9612 O   0  0  0  0  0  0  0  0  0  0  0  0
   -1.7717    0.4689    0.3174 N   0  0  0  0  0  0  0  0  0  0  0  0
   -2.2664    1.3277    0.5557 H   0  0  0  0  0  0  0  0  0  0  0  0
   -0.3643    0.7422   -0.0659 C   0  0  1  0  0  0  0  0  0  0  0  0
   -0.0186    1.3804    0.7546 H   0  0  0  0  0  0  0  0  0  0  0  0
    0.7647   -0.3311   -0.1234 C   0  0  0  0  0  0  0  0  0  0  0  0
    0.4159   -1.1059   -0.8132 H   0  0  0  0  0  0  0  0  0  0  0  0
    1.6359    0.1375   -0.5950 H   0  0  0  0  0  0  0  0  0  0  0  0
    1.3009   -1.0424    1.1573 C   0  0  0  0  0  0  0  0  0  0  0  0
    1.8730   -0.2799    1.6974 H   0  0  0  0  0  0  0  0  0  0  0  0
    2.2870   -2.1332    0.7142 C   0  0  0  0  0  0  0  0  0  0  0  0
    3.0501   -1.7150    0.0500 H   0  0  0  0  0  0  0  0  0  0  0  0
    2.7957   -2.5671    1.5810 H   0  0  0  0  0  0  0  0  0  0  0  0
    1.7637   -2.9342    0.1821 H   0  0  0  0  0  0  0  0  0  0  0  0
    0.3595   -1.6496    2.1949 C   0  0  0  0  0  0  0  0  0  0  0  0
   -0.2876   -0.8848    2.6279 H   0  0  0  0  0  0  0  0  0  0  0  0
   -0.2287   -2.4609    1.7663 H   0  0  0  0  0  0  0  0  0  0  0  0
    0.9425   -2.0715    3.0197 H   0  0  0  0  0  0  0  0  0  0  0  0
   -0.3092    1.6915   -1.2819 C   0  0  0  0  0  0  0  0  0  0  0  0
    0.6470    2.4370   -1.4418 O   0  0  0  0  0  0  0  0  0  0  0  0
   -1.3276    1.6826   -2.2167 N   0  0  0  0  0  0  0  0  0  0  0  0
   -2.1086    1.0560   -2.0411 H   0  0  0  0  0  0  0  0  0  0  0  0
   -1.3529    2.5439   -3.3921 C   0  0  0  0  0  0  0  0  0  0  0  0
   -0.4694    2.3687   -4.0149 H   0  0  0  0  0  0  0  0  0  0  0  0
   -2.2443    2.3385   -3.9926 H   0  0  0  0  0  0  0  0  0  0  0  0
   -1.3711    3.5974   -3.0940 H   0  0  0  0  0  0  0  0  0  0  0  0
  1  2  1  0  0  0  0
  2  3  1  0  0  0  0
  2  4  1  0  0  0  0
  2  5  1  0  0  0  0
  5  6  2  0  0  0  0
  5  7  1  0  0  0  0
  7  8  1  0  0  0  0
  7  9  1  0  0  0  0
  9 10  1  0  0  0  0
  9 11  1  0  0  0  0
  9 24  1  0  0  0  0
 11 12  1  0  0  0  0
 11 13  1  0  0  0  0
 11 14  1  0  0  0  0
 14 15  1  0  0  0  0
 14 16  1  0  0  0  0
 14 20  1  0  0  0  0
 16 17  1  0  0  0  0
 16 18  1  0  0  0  0
 16 19  1  0  0  0  0
 20 21  1  0  0  0  0
 20 22  1  0  0  0  0
 20 23  1  0  0  0  0
 24 25  2  0  0  0  0
 24 26  1  0  0  0  0
 26 27  1  0  0  0  0
 26 28  1  0  0  0  0
 28 29  1  0  0  0  0
 28 30  1  0  0  0  0
 28 31  1  0  0  0  0
M  END
$$$$

  -OEChem-01062216083D

 31 30  0     1  0  0  0  0  0999 V2000
   -2.5461   -2.6480    1.4422 H   0  0  0  0  0  0  0  0  0  0  0  0
   -2.4614   -1.9423    0.6119 C   0  0  0  0  0  0  0  0  0  0  0  0
   -1.6180   -2.2300   -0.0189 H   0  0  0  0  0  0  0  0  0  0  0  0
   -3.3739   -1.9914    0.0129 H   0  0  0  0  0  0  0  0  0  0  0  0
   -2.2793   -0.5309    1.1450 C   0  0  0  0  0  0  0  0  0  0  0  0
   -3.0492   -0.1184    1.9915 O   0  0  0  0  0  0  0  0  0  0  0  0
   -1.7874    0.4502    0.3305 N   0  0  0  0  0  0  0  0  0  0  0  0
   -2.2737    1.3070    0.5913 H   0  0  0  0  0  0  0  0  0  0  0  0
   -0.3881    0.7267   -0.0816 C   0  0  1  0  0  0  0  0  0  0  0  0
   -0.0283    1.3687    0.7296 H   0  0  0  0  0  0  0  0  0  0  0  0
    0.7368   -0.3536   -0.1433 C   0  0  0  0  0  0  0  0  0  0  0  0
    0.3734   -1.1354   -0.8173 H   0  0  0  0  0  0  0  0  0  0  0  0
    1.6048    0.1006   -0.6337 H   0  0  0  0  0  0  0  0  0  0  0  0
    1.2909   -1.0498    1.1388 C   0  0  0  0  0  0  0  0  0  0  0  0
    1.8775   -0.2816    1.6548 H   0  0  0  0  0  0  0  0  0  0  0  0
    2.2645   -2.1511    0.6944 C   0  0  0  0  0  0  0  0  0  0  0  0
    3.0151   -1.7473    0.0075 H   0  0  0  0  0  0  0  0  0  0  0  0
    2.7893   -2.5726    1.5576 H   0  0  0  0  0  0  0  0  0  0  0  0
    1.7275   -2.9588    0.1869 H   0  0  0  0  0  0  0  0  0  0  0  0
    0.3692   -1.6332    2.2082 C   0  0  0  0  0  0  0  0  0  0  0  0
   -0.2689   -0.8585    2.6372 H   0  0  0  0  0  0  0  0  0  0  0  0
   -0.2279   -2.4537    1.8104 H   0  0  0  0  0  0  0  0  0  0  0  0
    0.9687   -2.0373    3.0302 H   0  0  0  0  0  0  0  0  0  0  0  0
   -0.3566    1.6820   -1.2981 C   0  0  0  0  0  0  0  0  0  0  0  0
    0.6737    2.2645   -1.6067 O   0  0  0  0  0  0  0  0  0  0  0  0
   -1.5027    1.9087   -2.0385 N   0  0  0  0  0  0  0  0  0  0  0  0
   -2.3272    1.3708   -1.7847 H   0  0  0  0  0  0  0  0  0  0  0  0
   -1.5517    2.7792   -3.2065 C   0  0  0  0  0  0  0  0  0  0  0  0
   -0.8524    2.4308   -3.9738 H   0  0  0  0  0  0  0  0  0  0  0  0
   -2.5594    2.7831   -3.6327 H   0  0  0  0  0  0  0  0  0  0  0  0
   -1.2892    3.8059   -2.9304 H   0  0  0  0  0  0  0  0  0  0  0  0
  1  2  1  0  0  0  0
  2  3  1  0  0  0  0
  2  4  1  0  0  0  0
  2  5  1  0  0  0  0
  5  6  2  0  0  0  0
  5  7  1  0  0  0  0
  7  8  1  0  0  0  0
  7  9  1  0  0  0  0
  9 10  1  0  0  0  0
  9 11  1  0  0  0  0
  9 24  1  0  0  0  0
 11 12  1  0  0  0  0
 11 13  1  0  0  0  0
 11 14  1  0  0  0  0
 14 15  1  0  0  0  0
 14 16  1  0  0  0  0
 14 20  1  0  0  0  0
 16 17  1  0  0  0  0
 16 18  1  0  0  0  0
 16 19  1  0  0  0  0
 20 21  1  0  0  0  0
 20 22  1  0  0  0  0
 20 23  1  0  0  0  0
 24 25  2  0  0  0  0
 24 26  1  0  0  0  0
 26 27  1  0  0  0  0
 26 28  1  0  0  0  0
 28 29  1  0  0  0  0
 28 30  1  0  0  0  0
 28 31  1  0  0  0  0
M  END
$$$$

  -OEChem-01062216083D

 31 30  0     1  0  0  0  0  0999 V2000
   -2.5476   -2.6702    1.4676 H   0  0  0  0  0  0  0  0  0  0  0  0
   -2.4684   -1.9648    0.6363 C   0  0  0  0  0  0  0  0  0  0  0  0
   -1.6304   -2.2545   -0.0005 H   0  0  0  0  0  0  0  0  0  0  0  0
   -3.3859   -2.0123    0.0447 H   0  0  0  0  0  0  0  0  0  0  0  0
   -2.2784   -0.5535    1.1673 C   0  0  0  0  0  0  0  0  0  0  0  0
   -3.0274   -0.1430    2.0334 O   0  0  0  0  0  0  0  0  0  0  0  0
   -1.8050    0.4328    0.3482 N   0  0  0  0  0  0  0  0  0  0  0  0
   -2.2805    1.2865    0.6364 H   0  0  0  0  0  0  0  0  0  0  0  0
   -0.4139    0.7136   -0.0905 C   0  0  1  0  0  0  0  0  0  0  0  0
   -0.0415    1.3571    0.7134 H   0  0  0  0  0  0  0  0  0  0  0  0
    0.7093   -0.3706   -0.1601 C   0  0  0  0  0  0  0  0  0  0  0  0
    0.3343   -1.1570   -0.8219 H   0  0  0  0  0  0  0  0  0  0  0  0
    1.5734    0.0728   -0.6657 H   0  0  0  0  0  0  0  0  0  0  0  0
    1.2818   -1.0552    1.1204 C   0  0  0  0  0  0  0  0  0  0  0  0
    1.8772   -0.2827    1.6195 H   0  0  0  0  0  0  0  0  0  0  0  0
    2.2465   -2.1624    0.6716 C   0  0  0  0  0  0  0  0  0  0  0  0
    2.9870   -1.7666   -0.0308 H   0  0  0  0  0  0  0  0  0  0  0  0
    2.7838   -2.5767    1.5306 H   0  0  0  0  0  0  0  0  0  0  0  0
    1.7001   -2.9736    0.1799 H   0  0  0  0  0  0  0  0  0  0  0  0
    0.3778   -1.6274    2.2107 C   0  0  0  0  0  0  0  0  0  0  0  0
   -0.2515   -0.8478    2.6441 H   0  0  0  0  0  0  0  0  0  0  0  0
   -0.2275   -2.4503    1.8309 H   0  0  0  0  0  0  0  0  0  0  0  0
    0.9908   -2.0255    3.0255 H   0  0  0  0  0  0  0  0  0  0  0  0
   -0.4063    1.6770   -1.3053 C   0  0  0  0  0  0  0  0  0  0  0  0
    0.6450    2.0903   -1.7751 O   0  0  0  0  0  0  0  0  0  0  0  0
   -1.5953    2.1504   -1.8323 N   0  0  0  0  0  0  0  0  0  0  0  0
   -2.4489    1.7130   -1.4966 H   0  0  0  0  0  0  0  0  0  0  0  0
   -1.6657    3.0472   -2.9796 C   0  0  0  0  0  0  0  0  0  0  0  0
   -1.2188    2.5769   -3.8617 H   0  0  0  0  0  0  0  0  0  0  0  0
   -2.7083    3.2897   -3.2064 H   0  0  0  0  0  0  0  0  0  0  0  0
   -1.1329    3.9807   -2.7697 H   0  0  0  0  0  0  0  0  0  0  0  0
  1  2  1  0  0  0  0
  2  3  1  0  0  0  0
  2  4  1  0  0  0  0
  2  5  1  0  0  0  0
  5  6  2  0  0  0  0
  5  7  1  0  0  0  0
  7  8  1  0  0  0  0
  7  9  1  0  0  0  0
  9 10  1  0  0  0  0
  9 11  1  0  0  0  0
  9 24  1  0  0  0  0
 11 12  1  0  0  0  0
 11 13  1  0  0  0  0
 11 14  1  0  0  0  0
 14 15  1  0  0  0  0
 14 16  1  0  0  0  0
 14 20  1  0  0  0  0
 16 17  1  0  0  0  0
 16 18  1  0  0  0  0
 16 19  1  0  0  0  0
 20 21  1  0  0  0  0
 20 22  1  0  0  0  0
 20 23  1  0  0  0  0
 24 25  2  0  0  0  0
 24 26  1  0  0  0  0
 26 27  1  0  0  0  0
 26 28  1  0  0  0  0
 28 29  1  0  0  0  0
 28 30  1  0  0  0  0
 28 31  1  0  0  0  0
M  END
$$$$

  -OEChem-01062216083D

 31 30  0     1  0  0  0  0  0999 V2000
   -2.5513   -2.7080    1.4637 H   0  0  0  0  0  0  0  0  0  0  0  0
   -2.4638   -1.9944    0.6404 C   0  0  0  0  0  0  0  0  0  0  0  0
   -1.6214   -2.2804    0.0079 H   0  0  0  0  0  0  0  0  0  0  0  0
   -3.3762   -2.0338    0.0402 H   0  0  0  0  0  0  0  0  0  0  0  0
   -2.2743   -0.5884    1.1862 C   0  0  0  0  0  0  0  0  0  0  0  0
   -3.0031   -0.1929    2.0765 O   0  0  0  0  0  0  0  0  0  0  0  0
   -1.8249    0.4116    0.3705 N   0  0  0  0  0  0  0  0  0  0  0  0
   -2.2932    1.2562    0.6925 H   0  0  0  0  0  0  0  0  0  0  0  0
   -0.4437    0.7035   -0.0914 C   0  0  1  0  0  0  0  0  0  0  0  0
   -0.0619    1.3444    0.7095 H   0  0  0  0  0  0  0  0  0  0  0  0
    0.6847   -0.3769   -0.1737 C   0  0  0  0  0  0  0  0  0  0  0  0
    0.3061   -1.1664   -0.8299 H   0  0  0  0  0  0  0  0  0  0  0  0
    1.5427    0.0681   -0.6878 H   0  0  0  0  0  0  0  0  0  0  0  0
    1.2789   -1.0533    1.1017 C   0  0  0  0  0  0  0  0  0  0  0  0
    1.8788   -0.2758    1.5877 H   0  0  0  0  0  0  0  0  0  0  0  0
    2.2423   -2.1586    0.6450 C   0  0  0  0  0  0  0  0  0  0  0  0
    2.9720   -1.7634   -0.0689 H   0  0  0  0  0  0  0  0  0  0  0  0
    2.7924   -2.5666    1.4990 H   0  0  0  0  0  0  0  0  0  0  0  0
    1.6929   -2.9744    0.1644 H   0  0  0  0  0  0  0  0  0  0  0  0
    0.3942   -1.6219    2.2095 C   0  0  0  0  0  0  0  0  0  0  0  0
   -0.2283   -0.8405    2.6499 H   0  0  0  0  0  0  0  0  0  0  0  0
   -0.2171   -2.4468    1.8435 H   0  0  0  0  0  0  0  0  0  0  0  0
    1.0213   -2.0156    3.0158 H   0  0  0  0  0  0  0  0  0  0  0  0
   -0.4679    1.6834   -1.2961 C   0  0  0  0  0  0  0  0  0  0  0  0
    0.5388    1.9107   -1.9535 O   0  0  0  0  0  0  0  0  0  0  0  0
   -1.6176    2.3942   -1.5979 N   0  0  0  0  0  0  0  0  0  0  0  0
   -2.4733    2.0923   -1.1420 H   0  0  0  0  0  0  0  0  0  0  0  0
   -1.7152    3.3211   -2.7196 C   0  0  0  0  0  0  0  0  0  0  0  0
   -1.5434    2.7975   -3.6659 H   0  0  0  0  0  0  0  0  0  0  0  0
   -2.7104    3.7748   -2.7490 H   0  0  0  0  0  0  0  0  0  0  0  0
   -0.9752    4.1224   -2.6203 H   0  0  0  0  0  0  0  0  0  0  0  0
  1  2  1  0  0  0  0
  2  3  1  0  0  0  0
  2  4  1  0  0  0  0
  2  5  1  0  0  0  0
  5  6  2  0  0  0  0
  5  7  1  0  0  0  0
  7  8  1  0  0  0  0
  7  9  1  0  0  0  0
  9 10  1  0  0  0  0
  9 11  1  0  0  0  0
  9 24  1  0  0  0  0
 11 12  1  0  0  0  0
 11 13  1  0  0  0  0
 11 14  1  0  0  0  0
 14 15  1  0  0  0  0
 14 16  1  0  0  0  0
 14 20  1  0  0  0  0
 16 17  1  0  0  0  0
 16 18  1  0  0  0  0
 16 19  1  0  0  0  0
 20 21  1  0  0  0  0
 20 22  1  0  0  0  0
 20 23  1  0  0  0  0
 24 25  2  0  0  0  0
 24 26  1  0  0  0  0
 26 27  1  0  0  0  0
 26 28  1  0  0  0  0
 28 29  1  0  0  0  0
 28 30  1  0  0  0  0
 28 31  1  0  0  0  0
M  END
$$$$

  -OEChem-01062216083D

 31 30  0     1  0  0  0  0  0999 V2000
   -2.5337   -2.7403    1.4640 H   0  0  0  0  0  0  0  0  0  0  0  0
   -2.4606   -2.0230    0.6425 C   0  0  0  0  0  0  0  0  0  0  0  0
   -1.6168   -2.2941    0.0051 H   0  0  0  0  0  0  0  0  0  0  0  0
   -3.3749   -2.0740    0.0462 H   0  0  0  0  0  0  0  0  0  0  0  0
   -2.2901   -0.6164    1.1925 C   0  0  0  0  0  0  0  0  0  0  0  0
   -3.0219   -0.2325    2.0856 O   0  0  0  0  0  0  0  0  0  0  0  0
   -1.8537    0.3932    0.3825 N   0  0  0  0  0  0  0  0  0  0  0  0
   -2.3426    1.2256    0.7011 H   0  0  0  0  0  0  0  0  0  0  0  0
   -0.4760    0.7040   -0.0756 C   0  0  1  0  0  0  0  0  0  0  0  0
   -0.1025    1.3460    0.7285 H   0  0  0  0  0  0  0  0  0  0  0  0
    0.6679   -0.3602   -0.1583 C   0  0  0  0  0  0  0  0  0  0  0  0
    0.3042   -1.1517   -0.8208 H   0  0  0  0  0  0  0  0  0  0  0  0
    1.5208    0.1029   -0.6652 H   0  0  0  0  0  0  0  0  0  0  0  0
    1.2701   -1.0328    1.1156 C   0  0  0  0  0  0  0  0  0  0  0  0
    1.8574   -0.2496    1.6076 H   0  0  0  0  0  0  0  0  0  0  0  0
    2.2495   -2.1219    0.6546 C   0  0  0  0  0  0  0  0  0  0  0  0
    2.9759   -1.7118   -0.0543 H   0  0  0  0  0  0  0  0  0  0  0  0
    2.8024   -2.5289    1.5071 H   0  0  0  0  0  0  0  0  0  0  0  0
    1.7125   -2.9414    0.1662 H   0  0  0  0  0  0  0  0  0  0  0  0
    0.3903   -1.6226    2.2164 C   0  0  0  0  0  0  0  0  0  0  0  0
   -0.2454   -0.8540    2.6605 H   0  0  0  0  0  0  0  0  0  0  0  0
   -0.2079   -2.4535    1.8421 H   0  0  0  0  0  0  0  0  0  0  0  0
    1.0202   -2.0137    3.0216 H   0  0  0  0  0  0  0  0  0  0  0  0
   -0.5145    1.6899   -1.2756 C   0  0  0  0  0  0  0  0  0  0  0  0
    0.3757    1.7133   -2.1151 O   0  0  0  0  0  0  0  0  0  0  0  0
   -1.5438    2.6093   -1.3970 N   0  0  0  0  0  0  0  0  0  0  0  0
   -2.3359    2.5062   -0.7720 H   0  0  0  0  0  0  0  0  0  0  0  0
   -1.6553    3.5431   -2.5120 C   0  0  0  0  0  0  0  0  0  0  0  0
   -1.7809    3.0010   -3.4551 H   0  0  0  0  0  0  0  0  0  0  0  0
   -2.5195    4.1991   -2.3707 H   0  0  0  0  0  0  0  0  0  0  0  0
   -0.7581    4.1673   -2.5806 H   0  0  0  0  0  0  0  0  0  0  0  0
  1  2  1  0  0  0  0
  2  3  1  0  0  0  0
  2  4  1  0  0  0  0
  2  5  1  0  0  0  0
  5  6  2  0  0  0  0
  5  7  1  0  0  0  0
  7  8  1  0  0  0  0
  7  9  1  0  0  0  0
  9 10  1  0  0  0  0
  9 11  1  0  0  0  0
  9 24  1  0  0  0  0
 11 12  1  0  0  0  0
 11 13  1  0  0  0  0
 11 14  1  0  0  0  0
 14 15  1  0  0  0  0
 14 16  1  0  0  0  0
 14 20  1  0  0  0  0
 16 17  1  0  0  0  0
 16 18  1  0  0  0  0
 16 19  1  0  0  0  0
 20 21  1  0  0  0  0
 20 22  1  0  0  0  0
 20 23  1  0  0  0  0
 24 25  2  0  0  0  0
 24 26  1  0  0  0  0
 26 27  1  0  0  0  0
 26 28  1  0  0  0  0
 28 29  1  0  0  0  0
 28 30  1  0  0  0  0
 28 31  1  0  0  0  0
M  END
$$$$

  -OEChem-01062216083D

 31 30  0     1  0  0  0  0  0999 V2000
   -2.5143   -2.7653    1.4663 H   0  0  0  0  0  0  0  0  0  0  0  0
   -2.4654   -2.0410    0.6493 C   0  0  0  0  0  0  0  0  0  0  0  0
   -1.6252   -2.2907   -0.0015 H   0  0  0  0  0  0  0  0  0  0  0  0
   -3.3860   -2.1050    0.0643 H   0  0  0  0  0  0  0  0  0  0  0  0
   -2.3150   -0.6353    1.2067 C   0  0  0  0  0  0  0  0  0  0  0  0
   -3.0629   -0.2635    2.0919 O   0  0  0  0  0  0  0  0  0  0  0  0
   -1.8785    0.3805    0.4042 N   0  0  0  0  0  0  0  0  0  0  0  0
   -2.4090    1.2053    0.6698 H   0  0  0  0  0  0  0  0  0  0  0  0
   -0.5032    0.7055   -0.0478 C   0  0  1  0  0  0  0  0  0  0  0  0
   -0.1339    1.3403    0.7636 H   0  0  0  0  0  0  0  0  0  0  0  0
    0.6531   -0.3406   -0.1479 C   0  0  0  0  0  0  0  0  0  0  0  0
    0.3002   -1.1271   -0.8223 H   0  0  0  0  0  0  0  0  0  0  0  0
    1.4955    0.1471   -0.6505 H   0  0  0  0  0  0  0  0  0  0  0  0
    1.2637   -1.0238    1.1154 C   0  0  0  0  0  0  0  0  0  0  0  0
    1.8398   -0.2411    1.6209 H   0  0  0  0  0  0  0  0  0  0  0  0
    2.2575   -2.0927    0.6381 C   0  0  0  0  0  0  0  0  0  0  0  0
    2.9759   -1.6631   -0.0674 H   0  0  0  0  0  0  0  0  0  0  0  0
    2.8185   -2.5025    1.4841 H   0  0  0  0  0  0  0  0  0  0  0  0
    1.7311   -2.9137    0.1406 H   0  0  0  0  0  0  0  0  0  0  0  0
    0.3885   -1.6426    2.2038 C   0  0  0  0  0  0  0  0  0  0  0  0
   -0.2594   -0.8902    2.6574 H   0  0  0  0  0  0  0  0  0  0  0  0
   -0.1968   -2.4754    1.8139 H   0  0  0  0  0  0  0  0  0  0  0  0
    1.0206   -2.0379    3.0054 H   0  0  0  0  0  0  0  0  0  0  0  0
   -0.5543    1.6967   -1.2389 C   0  0  0  0  0  0  0  0  0  0  0  0
    0.1401    1.5369   -2.2340 O   0  0  0  0  0  0  0  0  0  0  0  0
   -1.3985    2.7942   -1.1975 N   0  0  0  0  0  0  0  0  0  0  0  0
   -1.9730    2.9215   -0.3713 H   0  0  0  0  0  0  0  0  0  0  0  0
   -1.5131    3.7582   -2.2857 C   0  0  0  0  0  0  0  0  0  0  0  0
   -1.8379    3.2606   -3.2057 H   0  0  0  0  0  0  0  0  0  0  0  0
   -2.2473    4.5291   -2.0325 H   0  0  0  0  0  0  0  0  0  0  0  0
   -0.5497    4.2454   -2.4693 H   0  0  0  0  0  0  0  0  0  0  0  0
  1  2  1  0  0  0  0
  2  3  1  0  0  0  0
  2  4  1  0  0  0  0
  2  5  1  0  0  0  0
  5  6  2  0  0  0  0
  5  7  1  0  0  0  0
  7  8  1  0  0  0  0
  7  9  1  0  0  0  0
  9 10  1  0  0  0  0
  9 11  1  0  0  0  0
  9 24  1  0  0  0  0
 11 12  1  0  0  0  0
 11 13  1  0  0  0  0
 11 14  1  0  0  0  0
 14 15  1  0  0  0  0
 14 16  1  0  0  0  0
 14 20  1  0  0  0  0
 16 17  1  0  0  0  0
 16 18  1  0  0  0  0
 16 19  1  0  0  0  0
 20 21  1  0  0  0  0
 20 22  1  0  0  0  0
 20 23  1  0  0  0  0
 24 25  2  0  0  0  0
 24 26  1  0  0  0  0
 26 27  1  0  0  0  0
 26 28  1  0  0  0  0
 28 29  1  0  0  0  0
 28 30  1  0  0  0  0
 28 31  1  0  0  0  0
M  END
$$$$

  -OEChem-01062216083D

 31 30  0     1  0  0  0  0  0999 V2000
   -2.5130   -2.7806    1.4550 H   0  0  0  0  0  0  0  0  0  0  0  0
   -2.4835   -2.0451    0.6473 C   0  0  0  0  0  0  0  0  0  0  0  0
   -1.6516   -2.2771   -0.0208 H   0  0  0  0  0  0  0  0  0  0  0  0
   -3.4129   -2.1105    0.0762 H   0  0  0  0  0  0  0  0  0  0  0  0
   -2.3375   -0.6453    1.2201 C   0  0  0  0  0  0  0  0  0  0  0  0
   -3.0949   -0.2846    2.1019 O   0  0  0  0  0  0  0  0  0  0  0  0
   -1.8975    0.3778    0.4287 N   0  0  0  0  0  0  0  0  0  0  0  0
   -2.4558    1.1957    0.6587 H   0  0  0  0  0  0  0  0  0  0  0  0
   -0.5213    0.7224   -0.0013 C   0  0  1  0  0  0  0  0  0  0  0  0
   -0.1627    1.3474    0.8224 H   0  0  0  0  0  0  0  0  0  0  0  0
    0.6473   -0.3055   -0.1218 C   0  0  0  0  0  0  0  0  0  0  0  0
    0.3050   -1.0782   -0.8176 H   0  0  0  0  0  0  0  0  0  0  0  0
    1.4820    0.2087   -0.6114 H   0  0  0  0  0  0  0  0  0  0  0  0
    1.2593   -1.0192    1.1234 C   0  0  0  0  0  0  0  0  0  0  0  0
    1.8215   -0.2458    1.6580 H   0  0  0  0  0  0  0  0  0  0  0  0
    2.2691   -2.0610    0.6206 C   0  0  0  0  0  0  0  0  0  0  0  0
    2.9868   -1.6021   -0.0669 H   0  0  0  0  0  0  0  0  0  0  0  0
    2.8293   -2.4899    1.4576 H   0  0  0  0  0  0  0  0  0  0  0  0
    1.7555   -2.8725    0.0951 H   0  0  0  0  0  0  0  0  0  0  0  0
    0.3821   -1.6840    2.1817 C   0  0  0  0  0  0  0  0  0  0  0  0
   -0.2784   -0.9548    2.6544 H   0  0  0  0  0  0  0  0  0  0  0  0
   -0.1899   -2.5091    1.7572 H   0  0  0  0  0  0  0  0  0  0  0  0
    1.0122   -2.0993    2.9747 H   0  0  0  0  0  0  0  0  0  0  0  0
   -0.5794    1.7165   -1.1854 C   0  0  0  0  0  0  0  0  0  0  0  0
   -0.0771    1.4459   -2.2681 O   0  0  0  0  0  0  0  0  0  0  0  0
   -1.1958    2.9461   -1.0250 N   0  0  0  0  0  0  0  0  0  0  0  0
   -1.5885    3.1660   -0.1151 H   0  0  0  0  0  0  0  0  0  0  0  0
   -1.2862    3.9404   -2.0881 C   0  0  0  0  0  0  0  0  0  0  0  0
   -1.8172    3.5297   -2.9535 H   0  0  0  0  0  0  0  0  0  0  0  0
   -1.8305    4.8220   -1.7365 H   0  0  0  0  0  0  0  0  0  0  0  0
   -0.2863    4.2549   -2.4048 H   0  0  0  0  0  0  0  0  0  0  0  0
  1  2  1  0  0  0  0
  2  3  1  0  0  0  0
  2  4  1  0  0  0  0
  2  5  1  0  0  0  0
  5  6  2  0  0  0  0
  5  7  1  0  0  0  0
  7  8  1  0  0  0  0
  7  9  1  0  0  0  0
  9 10  1  0  0  0  0
  9 11  1  0  0  0  0
  9 24  1  0  0  0  0
 11 12  1  0  0  0  0
 11 13  1  0  0  0  0
 11 14  1  0  0  0  0
 14 15  1  0  0  0  0
 14 16  1  0  0  0  0
 14 20  1  0  0  0  0
 16 17  1  0  0  0  0
 16 18  1  0  0  0  0
 16 19  1  0  0  0  0
 20 21  1  0  0  0  0
 20 22  1  0  0  0  0
 20 23  1  0  0  0  0
 24 25  2  0  0  0  0
 24 26  1  0  0  0  0
 26 27  1  0  0  0  0
 26 28  1  0  0  0  0
 28 29  1  0  0  0  0
 28 30  1  0  0  0  0
 28 31  1  0  0  0  0
M  END
$$$$

  -OEChem-01062216083D

 31 30  0     1  0  0  0  0  0999 V2000
   -2.5311   -2.7934    1.4168 H   0  0  0  0  0  0  0  0  0  0  0  0
   -2.5076   -2.0393    0.6261 C   0  0  0  0  0  0  0  0  0  0  0  0
   -1.6826   -2.2570   -0.0556 H   0  0  0  0  0  0  0  0  0  0  0  0
   -3.4426   -2.0884    0.0626 H   0  0  0  0  0  0  0  0  0  0  0  0
   -2.3516   -0.6536    1.2293 C   0  0  0  0  0  0  0  0  0  0  0  0
   -3.0999   -0.3100    2.1259 O   0  0  0  0  0  0  0  0  0  0  0  0
   -1.9116    0.3820    0.4548 N   0  0  0  0  0  0  0  0  0  0  0  0
   -2.4800    1.1936    0.6845 H   0  0  0  0  0  0  0  0  0  0  0  0
   -0.5326    0.7457    0.0547 C   0  0  1  0  0  0  0  0  0  0  0  0
   -0.1888    1.3554    0.8959 H   0  0  0  0  0  0  0  0  0  0  0  0
    0.6455   -0.2662   -0.0856 C   0  0  0  0  0  0  0  0  0  0  0  0
    0.3148   -1.0199   -0.8077 H   0  0  0  0  0  0  0  0  0  0  0  0
    1.4773    0.2722   -0.5541 H   0  0  0  0  0  0  0  0  0  0  0  0
    1.2513   -1.0180    1.1395 C   0  0  0  0  0  0  0  0  0  0  0  0
    1.7993   -0.2613    1.7113 H   0  0  0  0  0  0  0  0  0  0  0  0
    2.2759   -2.0307    0.6074 C   0  0  0  0  0  0  0  0  0  0  0  0
    2.9973   -1.5379   -0.0521 H   0  0  0  0  0  0  0  0  0  0  0  0
    2.8306   -2.4882    1.4327 H   0  0  0  0  0  0  0  0  0  0  0  0
    1.7762   -2.8248    0.0432 H   0  0  0  0  0  0  0  0  0  0  0  0
    0.3662   -1.7347    2.1566 C   0  0  0  0  0  0  0  0  0  0  0  0
   -0.3022   -1.0305    2.6550 H   0  0  0  0  0  0  0  0  0  0  0  0
   -0.1977   -2.5409    1.6871 H   0  0  0  0  0  0  0  0  0  0  0  0
    0.9887   -2.1842    2.9369 H   0  0  0  0  0  0  0  0  0  0  0  0
   -0.5833    1.7476   -1.1198 C   0  0  0  0  0  0  0  0  0  0  0  0
   -0.2891    1.4010   -2.2558 O   0  0  0  0  0  0  0  0  0  0  0  0
   -0.9308    3.0672   -0.8880 N   0  0  0  0  0  0  0  0  0  0  0  0
   -1.1633    3.3375    0.0628 H   0  0  0  0  0  0  0  0  0  0  0  0
   -0.9879    4.0747   -1.9406 C   0  0  0  0  0  0  0  0  0  0  0  0
   -1.7026    3.7790   -2.7158 H   0  0  0  0  0  0  0  0  0  0  0  0
   -1.3057    5.0366   -1.5271 H   0  0  0  0  0  0  0  0  0  0  0  0
   -0.0027    4.2042   -2.4008 H   0  0  0  0  0  0  0  0  0  0  0  0
  1  2  1  0  0  0  0
  2  3  1  0  0  0  0
  2  4  1  0  0  0  0
  2  5  1  0  0  0  0
  5  6  2  0  0  0  0
  5  7  1  0  0  0  0
  7  8  1  0  0  0  0
  7  9  1  0  0  0  0
  9 10  1  0  0  0  0
  9 11  1  0  0  0  0
  9 24  1  0  0  0  0
 11 12  1  0  0  0  0
 11 13  1  0  0  0  0
 11 14  1  0  0  0  0
 14 15  1  0  0  0  0
 14 16  1  0  0  0  0
 14 20  1  0  0  0  0
 16 17  1  0  0  0  0
 16 18  1  0  0  0  0
 16 19  1  0  0  0  0
 20 21  1  0  0  0  0
 20 22  1  0  0  0  0
 20 23  1  0  0  0  0
 24 25  2  0  0  0  0
 24 26  1  0  0  0  0
 26 27  1  0  0  0  0
 26 28  1  0  0  0  0
 28 29  1  0  0  0  0
 28 30  1  0  0  0  0
 28 31  1  0  0  0  0
M  END
$$$$

  -OEChem-01062216083D

 31 30  0     1  0  0  0  0  0999 V2000
   -2.5204   -2.8000    1.4057 H   0  0  0  0  0  0  0  0  0  0  0  0
   -2.5236   -2.0331    0.6273 C   0  0  0  0  0  0  0  0  0  0  0  0
   -1.7145   -2.2323   -0.0790 H   0  0  0  0  0  0  0  0  0  0  0  0
   -3.4724   -2.0813    0.0873 H   0  0  0  0  0  0  0  0  0  0  0  0
   -2.3628   -0.6559    1.2482 C   0  0  0  0  0  0  0  0  0  0  0  0
   -3.1018   -0.3255    2.1575 O   0  0  0  0  0  0  0  0  0  0  0  0
   -1.9257    0.3888    0.4844 N   0  0  0  0  0  0  0  0  0  0  0  0
   -2.5006    1.1955    0.7165 H   0  0  0  0  0  0  0  0  0  0  0  0
   -0.5459    0.7669    0.1019 C   0  0  1  0  0  0  0  0  0  0  0  0
   -0.2133    1.3632    0.9569 H   0  0  0  0  0  0  0  0  0  0  0  0
    0.6393   -0.2330   -0.0556 C   0  0  0  0  0  0  0  0  0  0  0  0
    0.3153   -0.9717   -0.7964 H   0  0  0  0  0  0  0  0  0  0  0  0
    1.4685    0.3219   -0.5093 H   0  0  0  0  0  0  0  0  0  0  0  0
    1.2456   -1.0120    1.1520 C   0  0  0  0  0  0  0  0  0  0  0  0
    1.7839   -0.2671    1.7478 H   0  0  0  0  0  0  0  0  0  0  0  0
    2.2796   -2.0032    0.5978 C   0  0  0  0  0  0  0  0  0  0  0  0
    3.0062   -1.4867   -0.0374 H   0  0  0  0  0  0  0  0  0  0  0  0
    2.8271   -2.4858    1.4135 H   0  0  0  0  0  0  0  0  0  0  0  0
    1.7886   -2.7800    0.0028 H   0  0  0  0  0  0  0  0  0  0  0  0
    0.3603   -1.7650    2.1416 C   0  0  0  0  0  0  0  0  0  0  0  0
   -0.3134   -1.0806    2.6600 H   0  0  0  0  0  0  0  0  0  0  0  0
   -0.1976   -2.5578    1.6430 H   0  0  0  0  0  0  0  0  0  0  0  0
    0.9817   -2.2369    2.9092 H   0  0  0  0  0  0  0  0  0  0  0  0
   -0.5863    1.7753   -1.0665 C   0  0  0  0  0  0  0  0  0  0  0  0
   -0.5259    1.3870   -2.2251 O   0  0  0  0  0  0  0  0  0  0  0  0
   -0.6361    3.1349   -0.8127 N   0  0  0  0  0  0  0  0  0  0  0  0
   -0.6851    3.4367    0.1558 H   0  0  0  0  0  0  0  0  0  0  0  0
   -0.6454    4.1436   -1.8659 C   0  0  0  0  0  0  0  0  0  0  0  0
   -1.5150    4.0097   -2.5180 H   0  0  0  0  0  0  0  0  0  0  0  0
   -0.6921    5.1460   -1.4297 H   0  0  0  0  0  0  0  0  0  0  0  0
    0.2637    4.0733   -2.4725 H   0  0  0  0  0  0  0  0  0  0  0  0
  1  2  1  0  0  0  0
  2  3  1  0  0  0  0
  2  4  1  0  0  0  0
  2  5  1  0  0  0  0
  5  6  2  0  0  0  0
  5  7  1  0  0  0  0
  7  8  1  0  0  0  0
  7  9  1  0  0  0  0
  9 10  1  0  0  0  0
  9 11  1  0  0  0  0
  9 24  1  0  0  0  0
 11 12  1  0  0  0  0
 11 13  1  0  0  0  0
 11 14  1  0  0  0  0
 14 15  1  0  0  0  0
 14 16  1  0  0  0  0
 14 20  1  0  0  0  0
 16 17  1  0  0  0  0
 16 18  1  0  0  0  0
 16 19  1  0  0  0  0
 20 21  1  0  0  0  0
 20 22  1  0  0  0  0
 20 23  1  0  0  0  0
 24 25  2  0  0  0  0
 24 26  1  0  0  0  0
 26 27  1  0  0  0  0
 26 28  1  0  0  0  0
 28 29  1  0  0  0  0
 28 30  1  0  0  0  0
 28 31  1  0  0  0  0
M  END
$$$$

  -OEChem-01062216083D

 31 30  0     1  0  0  0  0  0999 V2000
   -2.5486   -2.8008    1.3571 H   0  0  0  0  0  0  0  0  0  0  0  0
   -2.5326   -2.0224    0.5903 C   0  0  0  0  0  0  0  0  0  0  0  0
   -1.7124   -2.2169   -0.1042 H   0  0  0  0  0  0  0  0  0  0  0  0
   -3.4716   -2.0555    0.0321 H   0  0  0  0  0  0  0  0  0  0  0  0
   -2.3739   -0.6557    1.2345 C   0  0  0  0  0  0  0  0  0  0  0  0
   -3.1183   -0.3397    2.1445 O   0  0  0  0  0  0  0  0  0  0  0  0
   -1.9280    0.3981    0.4889 N   0  0  0  0  0  0  0  0  0  0  0  0
   -2.5113    1.2006    0.7147 H   0  0  0  0  0  0  0  0  0  0  0  0
   -0.5435    0.7868    0.1365 C   0  0  1  0  0  0  0  0  0  0  0  0
   -0.2308    1.3710    1.0072 H   0  0  0  0  0  0  0  0  0  0  0  0
    0.6458   -0.2065   -0.0216 C   0  0  0  0  0  0  0  0  0  0  0  0
    0.3323   -0.9316   -0.7802 H   0  0  0  0  0  0  0  0  0  0  0  0
    1.4801    0.3575   -0.4537 H   0  0  0  0  0  0  0  0  0  0  0  0
    1.2352   -1.0085    1.1792 C   0  0  0  0  0  0  0  0  0  0  0  0
    1.7620   -0.2748    1.7987 H   0  0  0  0  0  0  0  0  0  0  0  0
    2.2803   -1.9856    0.6207 C   0  0  0  0  0  0  0  0  0  0  0  0
    3.0069   -1.4568   -0.0043 H   0  0  0  0  0  0  0  0  0  0  0  0
    2.8265   -2.4727    1.4346 H   0  0  0  0  0  0  0  0  0  0  0  0
    1.7989   -2.7596    0.0143 H   0  0  0  0  0  0  0  0  0  0  0  0
    0.3372   -1.7858    2.1386 C   0  0  0  0  0  0  0  0  0  0  0  0
   -0.3454   -1.1153    2.6634 H   0  0  0  0  0  0  0  0  0  0  0  0
   -0.2119   -2.5681    1.6141 H   0  0  0  0  0  0  0  0  0  0  0  0
    0.9489   -2.2739    2.9040 H   0  0  0  0  0  0  0  0  0  0  0  0
   -0.5591    1.8060   -1.0225 C   0  0  0  0  0  0  0  0  0  0  0  0
   -0.7451    1.4305   -2.1716 O   0  0  0  0  0  0  0  0  0  0  0  0
   -0.3070    3.1454   -0.7829 N   0  0  0  0  0  0  0  0  0  0  0  0
   -0.1567    3.4370    0.1783 H   0  0  0  0  0  0  0  0  0  0  0  0
   -0.2871    4.1543   -1.8355 C   0  0  0  0  0  0  0  0  0  0  0  0
   -1.2615    4.2090   -2.3323 H   0  0  0  0  0  0  0  0  0  0  0  0
   -0.0587    5.1375   -1.4131 H   0  0  0  0  0  0  0  0  0  0  0  0
    0.4766    3.9140   -2.5827 H   0  0  0  0  0  0  0  0  0  0  0  0
  1  2  1  0  0  0  0
  2  3  1  0  0  0  0
  2  4  1  0  0  0  0
  2  5  1  0  0  0  0
  5  6  2  0  0  0  0
  5  7  1  0  0  0  0
  7  8  1  0  0  0  0
  7  9  1  0  0  0  0
  9 10  1  0  0  0  0
  9 11  1  0  0  0  0
  9 24  1  0  0  0  0
 11 12  1  0  0  0  0
 11 13  1  0  0  0  0
 11 14  1  0  0  0  0
 14 15  1  0  0  0  0
 14 16  1  0  0  0  0
 14 20  1  0  0  0  0
 16 17  1  0  0  0  0
 16 18  1  0  0  0  0
 16 19  1  0  0  0  0
 20 21  1  0  0  0  0
 20 22  1  0  0  0  0
 20 23  1  0  0  0  0
 24 25  2  0  0  0  0
 24 26  1  0  0  0  0
 26 27  1  0  0  0  0
 26 28  1  0  0  0  0
 28 29  1  0  0  0  0
 28 30  1  0  0  0  0
 28 31  1  0  0  0  0
M  END
$$$$

  -OEChem-01062216083D

 31 30  0     1  0  0  0  0  0999 V2000
   -2.5417   -2.7951    1.3394 H   0  0  0  0  0  0  0  0  0  0  0  0
   -2.5274   -2.0121    0.5772 C   0  0  0  0  0  0  0  0  0  0  0  0
   -1.7039   -2.1974   -0.1161 H   0  0  0  0  0  0  0  0  0  0  0  0
   -3.4644   -2.0474    0.0159 H   0  0  0  0  0  0  0  0  0  0  0  0
   -2.3784   -0.6484    1.2302 C   0  0  0  0  0  0  0  0  0  0  0  0
   -3.1299   -0.3417    2.1376 O   0  0  0  0  0  0  0  0  0  0  0  0
   -1.9232    0.4095    0.4957 N   0  0  0  0  0  0  0  0  0  0  0  0
   -2.5137    1.2116    0.7042 H   0  0  0  0  0  0  0  0  0  0  0  0
   -0.5367    0.7996    0.1517 C   0  0  1  0  0  0  0  0  0  0  0  0
   -0.2328    1.3770    1.0299 H   0  0  0  0  0  0  0  0  0  0  0  0
    0.6520   -0.1934   -0.0081 C   0  0  0  0  0  0  0  0  0  0  0  0
    0.3411   -0.9132   -0.7729 H   0  0  0  0  0  0  0  0  0  0  0  0
    1.4895    0.3720   -0.4320 H   0  0  0  0  0  0  0  0  0  0  0  0
    1.2343   -1.0034    1.1906 C   0  0  0  0  0  0  0  0  0  0  0  0
    1.7591   -0.2740    1.8169 H   0  0  0  0  0  0  0  0  0  0  0  0
    2.2812   -1.9789    0.6327 C   0  0  0  0  0  0  0  0  0  0  0  0
    3.0164   -1.4466    0.0210 H   0  0  0  0  0  0  0  0  0  0  0  0
    2.8165   -2.4768    1.4474 H   0  0  0  0  0  0  0  0  0  0  0  0
    1.8034   -2.7451    0.0135 H   0  0  0  0  0  0  0  0  0  0  0  0
    0.3304   -1.7834    2.1423 C   0  0  0  0  0  0  0  0  0  0  0  0
   -0.3550   -1.1143    2.6656 H   0  0  0  0  0  0  0  0  0  0  0  0
   -0.2163   -2.5634    1.6121 H   0  0  0  0  0  0  0  0  0  0  0  0
    0.9370   -2.2753    2.9094 H   0  0  0  0  0  0  0  0  0  0  0  0
   -0.5343    1.8291   -0.9987 C   0  0  0  0  0  0  0  0  0  0  0  0
   -0.9974    1.5373   -2.0924 O   0  0  0  0  0  0  0  0  0  0  0  0
    0.0176    3.0846   -0.8135 N   0  0  0  0  0  0  0  0  0  0  0  0
    0.3853    3.3115    0.1056 H   0  0  0  0  0  0  0  0  0  0  0  0
    0.0490    4.1047   -1.8551 C   0  0  0  0  0  0  0  0  0  0  0  0
   -0.9685    4.3847   -2.1474 H   0  0  0  0  0  0  0  0  0  0  0  0
    0.5639    4.9996   -1.4928 H   0  0  0  0  0  0  0  0  0  0  0  0
    0.5801    3.7354   -2.7389 H   0  0  0  0  0  0  0  0  0  0  0  0
  1  2  1  0  0  0  0
  2  3  1  0  0  0  0
  2  4  1  0  0  0  0
  2  5  1  0  0  0  0
  5  6  2  0  0  0  0
  5  7  1  0  0  0  0
  7  8  1  0  0  0  0
  7  9  1  0  0  0  0
  9 10  1  0  0  0  0
  9 11  1  0  0  0  0
  9 24  1  0  0  0  0
 11 12  1  0  0  0  0
 11 13  1  0  0  0  0
 11 14  1  0  0  0  0
 14 15  1  0  0  0  0
 14 16  1  0  0  0  0
 14 20  1  0  0  0  0
 16 17  1  0  0  0  0
 16 18  1  0  0  0  0
 16 19  1  0  0  0  0
 20 21  1  0  0  0  0
 20 22  1  0  0  0  0
 20 23  1  0  0  0  0
 24 25  2  0  0  0  0
 24 26  1  0  0  0  0
 26 27  1  0  0  0  0
 26 28  1  0  0  0  0
 28 29  1  0  0  0  0
 28 30  1  0  0  0  0
 28 31  1  0  0  0  0
M  END
$$$$

  -OEChem-01062216083D

 31 30  0     1  0  0  0  0  0999 V2000
   -2.5445   -2.7932    1.2991 H   0  0  0  0  0  0  0  0  0  0  0  0
   -2.5169   -2.0063    0.5412 C   0  0  0  0  0  0  0  0  0  0  0  0
   -1.6818   -2.1886   -0.1388 H   0  0  0  0  0  0  0  0  0  0  0  0
   -3.4444   -2.0379   -0.0360 H   0  0  0  0  0  0  0  0  0  0  0  0
   -2.3793   -0.6459    1.2033 C   0  0  0  0  0  0  0  0  0  0  0  0
   -3.1448   -0.3467    2.1014 O   0  0  0  0  0  0  0  0  0  0  0  0
   -1.9117    0.4149    0.4809 N   0  0  0  0  0  0  0  0  0  0  0  0
   -2.5084    1.2170    0.6715 H   0  0  0  0  0  0  0  0  0  0  0  0
   -0.5225    0.8073    0.1494 C   0  0  1  0  0  0  0  0  0  0  0  0
   -0.2315    1.3843    1.0324 H   0  0  0  0  0  0  0  0  0  0  0  0
    0.6654   -0.1888    0.0050 C   0  0  0  0  0  0  0  0  0  0  0  0
    0.3586   -0.9118   -0.7582 H   0  0  0  0  0  0  0  0  0  0  0  0
    1.5097    0.3692   -0.4140 H   0  0  0  0  0  0  0  0  0  0  0  0
    1.2313   -0.9944    1.2146 C   0  0  0  0  0  0  0  0  0  0  0  0
    1.7505   -0.2635    1.8439 H   0  0  0  0  0  0  0  0  0  0  0  0
    2.2819   -1.9749    0.6732 C   0  0  0  0  0  0  0  0  0  0  0  0
    3.0246   -1.4473    0.0663 H   0  0  0  0  0  0  0  0  0  0  0  0
    2.8081   -2.4693    1.4961 H   0  0  0  0  0  0  0  0  0  0  0  0
    1.8089   -2.7431    0.0531 H   0  0  0  0  0  0  0  0  0  0  0  0
    0.3140   -1.7671    2.1596 C   0  0  0  0  0  0  0  0  0  0  0  0
   -0.3762   -1.0931    2.6704 H   0  0  0  0  0  0  0  0  0  0  0  0
   -0.2280   -2.5491    1.6274 H   0  0  0  0  0  0  0  0  0  0  0  0
    0.9099   -2.2553    2.9374 H   0  0  0  0  0  0  0  0  0  0  0  0
   -0.4991    1.8468   -0.9942 C   0  0  0  0  0  0  0  0  0  0  0  0
   -1.2056    1.7070   -1.9829 O   0  0  0  0  0  0  0  0  0  0  0  0
    0.3151    2.9627   -0.9057 N   0  0  0  0  0  0  0  0  0  0  0  0
    0.8835    3.0712   -0.0711 H   0  0  0  0  0  0  0  0  0  0  0  0
    0.3631    4.0011   -1.9286 C   0  0  0  0  0  0  0  0  0  0  0  0
   -0.6120    4.4903   -2.0240 H   0  0  0  0  0  0  0  0  0  0  0  0
    1.1060    4.7595   -1.6632 H   0  0  0  0  0  0  0  0  0  0  0  0
    0.6388    3.5728   -2.8981 H   0  0  0  0  0  0  0  0  0  0  0  0
  1  2  1  0  0  0  0
  2  3  1  0  0  0  0
  2  4  1  0  0  0  0
  2  5  1  0  0  0  0
  5  6  2  0  0  0  0
  5  7  1  0  0  0  0
  7  8  1  0  0  0  0
  7  9  1  0  0  0  0
  9 10  1  0  0  0  0
  9 11  1  0  0  0  0
  9 24  1  0  0  0  0
 11 12  1  0  0  0  0
 11 13  1  0  0  0  0
 11 14  1  0  0  0  0
 14 15  1  0  0  0  0
 14 16  1  0  0  0  0
 14 20  1  0  0  0  0
 16 17  1  0  0  0  0
 16 18  1  0  0  0  0
 16 19  1  0  0  0  0
 20 21  1  0  0  0  0
 20 22  1  0  0  0  0
 20 23  1  0  0  0  0
 24 25  2  0  0  0  0
 24 26  1  0  0  0  0
 26 27  1  0  0  0  0
 26 28  1  0  0  0  0
 28 29  1  0  0  0  0
 28 30  1  0  0  0  0
 28 31  1  0  0  0  0
M  END
$$$$

  -OEChem-01062216083D

 31 30  0     1  0  0  0  0  0999 V2000
   -2.5605   -2.7765    1.2623 H   0  0  0  0  0  0  0  0  0  0  0  0
   -2.5085   -1.9861    0.5094 C   0  0  0  0  0  0  0  0  0  0  0  0
   -1.6593   -2.1722   -0.1511 H   0  0  0  0  0  0  0  0  0  0  0  0
   -3.4223   -2.0065   -0.0898 H   0  0  0  0  0  0  0  0  0  0  0  0
   -2.3758   -0.6299    1.1813 C   0  0  0  0  0  0  0  0  0  0  0  0
   -3.1575   -0.3348    2.0667 O   0  0  0  0  0  0  0  0  0  0  0  0
   -1.8899    0.4313    0.4709 N   0  0  0  0  0  0  0  0  0  0  0  0
   -2.4915    1.2366    0.6335 H   0  0  0  0  0  0  0  0  0  0  0  0
   -0.4973    0.8177    0.1450 C   0  0  1  0  0  0  0  0  0  0  0  0
   -0.2066    1.3926    1.0296 H   0  0  0  0  0  0  0  0  0  0  0  0
    0.6814   -0.1940    0.0105 C   0  0  0  0  0  0  0  0  0  0  0  0
    0.3713   -0.9165   -0.7517 H   0  0  0  0  0  0  0  0  0  0  0  0
    1.5376    0.3477   -0.4049 H   0  0  0  0  0  0  0  0  0  0  0  0
    1.2295   -1.0005    1.2283 C   0  0  0  0  0  0  0  0  0  0  0  0
    1.7544   -0.2713    1.8549 H   0  0  0  0  0  0  0  0  0  0  0  0
    2.2725   -1.9980    0.7031 C   0  0  0  0  0  0  0  0  0  0  0  0
    3.0265   -1.4852    0.0976 H   0  0  0  0  0  0  0  0  0  0  0  0
    2.7860   -2.4910    1.5348 H   0  0  0  0  0  0  0  0  0  0  0  0
    1.7956   -2.7666    0.0863 H   0  0  0  0  0  0  0  0  0  0  0  0
    0.2978   -1.7526    2.1759 C   0  0  0  0  0  0  0  0  0  0  0  0
   -0.3883   -1.0651    2.6739 H   0  0  0  0  0  0  0  0  0  0  0  0
   -0.2491   -2.5355    1.6500 H   0  0  0  0  0  0  0  0  0  0  0  0
    0.8835   -2.2374    2.9634 H   0  0  0  0  0  0  0  0  0  0  0  0
   -0.4599    1.8694   -0.9901 C   0  0  0  0  0  0  0  0  0  0  0  0
   -1.3544    1.9334   -1.8226 O   0  0  0  0  0  0  0  0  0  0  0  0
    0.5652    2.7982   -1.0453 N   0  0  0  0  0  0  0  0  0  0  0  0
    1.2829    2.7555   -0.3282 H   0  0  0  0  0  0  0  0  0  0  0  0
    0.6392    3.8497   -2.0532 C   0  0  0  0  0  0  0  0  0  0  0  0
   -0.2169    4.5267   -1.9638 H   0  0  0  0  0  0  0  0  0  0  0  0
    1.5564    4.4325   -1.9251 H   0  0  0  0  0  0  0  0  0  0  0  0
    0.6432    3.4173   -3.0593 H   0  0  0  0  0  0  0  0  0  0  0  0
  1  2  1  0  0  0  0
  2  3  1  0  0  0  0
  2  4  1  0  0  0  0
  2  5  1  0  0  0  0
  5  6  2  0  0  0  0
  5  7  1  0  0  0  0
  7  8  1  0  0  0  0
  7  9  1  0  0  0  0
  9 10  1  0  0  0  0
  9 11  1  0  0  0  0
  9 24  1  0  0  0  0
 11 12  1  0  0  0  0
 11 13  1  0  0  0  0
 11 14  1  0  0  0  0
 14 15  1  0  0  0  0
 14 16  1  0  0  0  0
 14 20  1  0  0  0  0
 16 17  1  0  0  0  0
 16 18  1  0  0  0  0
 16 19  1  0  0  0  0
 20 21  1  0  0  0  0
 20 22  1  0  0  0  0
 20 23  1  0  0  0  0
 24 25  2  0  0  0  0
 24 26  1  0  0  0  0
 26 27  1  0  0  0  0
 26 28  1  0  0  0  0
 28 29  1  0  0  0  0
 28 30  1  0  0  0  0
 28 31  1  0  0  0  0
M  END
$$$$

  -OEChem-01062216083D

 31 30  0     1  0  0  0  0  0999 V2000
   -2.5573   -2.7557    1.2583 H   0  0  0  0  0  0  0  0  0  0  0  0
   -2.4846   -1.9685    0.5038 C   0  0  0  0  0  0  0  0  0  0  0  0
   -1.6246   -2.1640   -0.1394 H   0  0  0  0  0  0  0  0  0  0  0  0
   -3.3867   -1.9846   -0.1129 H   0  0  0  0  0  0  0  0  0  0  0  0
   -2.3561   -0.6112    1.1749 C   0  0  0  0  0  0  0  0  0  0  0  0
   -3.1532   -0.3136    2.0454 O   0  0  0  0  0  0  0  0  0  0  0  0
   -1.8525    0.4479    0.4724 N   0  0  0  0  0  0  0  0  0  0  0  0
   -2.4508    1.2598    0.6181 H   0  0  0  0  0  0  0  0  0  0  0  0
   -0.4586    0.8237    0.1379 C   0  0  1  0  0  0  0  0  0  0  0  0
   -0.1550    1.3972    1.0192 H   0  0  0  0  0  0  0  0  0  0  0  0
    0.7039   -0.2108    0.0085 C   0  0  0  0  0  0  0  0  0  0  0  0
    0.3775   -0.9355   -0.7443 H   0  0  0  0  0  0  0  0  0  0  0  0
    1.5716    0.3046   -0.4137 H   0  0  0  0  0  0  0  0  0  0  0  0
    1.2406   -1.0143    1.2342 C   0  0  0  0  0  0  0  0  0  0  0  0
    1.7810   -0.2865    1.8493 H   0  0  0  0  0  0  0  0  0  0  0  0
    2.2650   -2.0357    0.7182 C   0  0  0  0  0  0  0  0  0  0  0  0
    3.0272   -1.5432    0.1063 H   0  0  0  0  0  0  0  0  0  0  0  0
    2.7710   -2.5292    1.5542 H   0  0  0  0  0  0  0  0  0  0  0  0
    1.7730   -2.8019    0.1102 H   0  0  0  0  0  0  0  0  0  0  0  0
    0.3022   -1.7362    2.1989 C   0  0  0  0  0  0  0  0  0  0  0  0
   -0.3758   -1.0311    2.6832 H   0  0  0  0  0  0  0  0  0  0  0  0
   -0.2538   -2.5248    1.6918 H   0  0  0  0  0  0  0  0  0  0  0  0
    0.8845   -2.2103    2.9955 H   0  0  0  0  0  0  0  0  0  0  0  0
   -0.4259    1.8887   -0.9900 C   0  0  0  0  0  0  0  0  0  0  0  0
   -1.4378    2.1730   -1.6176 O   0  0  0  0  0  0  0  0  0  0  0  0
    0.7284    2.6085   -1.2506 N   0  0  0  0  0  0  0  0  0  0  0  0
    1.5501    2.4041   -0.6904 H   0  0  0  0  0  0  0  0  0  0  0  0
    0.8032    3.6734   -2.2447 C   0  0  0  0  0  0  0  0  0  0  0  0
    0.1337    4.4971   -1.9754 H   0  0  0  0  0  0  0  0  0  0  0  0
    1.8240    4.0627   -2.3061 H   0  0  0  0  0  0  0  0  0  0  0  0
    0.5185    3.2967   -3.2327 H   0  0  0  0  0  0  0  0  0  0  0  0
  1  2  1  0  0  0  0
  2  3  1  0  0  0  0
  2  4  1  0  0  0  0
  2  5  1  0  0  0  0
  5  6  2  0  0  0  0
  5  7  1  0  0  0  0
  7  8  1  0  0  0  0
  7  9  1  0  0  0  0
  9 10  1  0  0  0  0
  9 11  1  0  0  0  0
  9 24  1  0  0  0  0
 11 12  1  0  0  0  0
 11 13  1  0  0  0  0
 11 14  1  0  0  0  0
 14 15  1  0  0  0  0
 14 16  1  0  0  0  0
 14 20  1  0  0  0  0
 16 17  1  0  0  0  0
 16 18  1  0  0  0  0
 16 19  1  0  0  0  0
 20 21  1  0  0  0  0
 20 22  1  0  0  0  0
 20 23  1  0  0  0  0
 24 25  2  0  0  0  0
 24 26  1  0  0  0  0
 26 27  1  0  0  0  0
 26 28  1  0  0  0  0
 28 29  1  0  0  0  0
 28 30  1  0  0  0  0
 28 31  1  0  0  0  0
M  END
$$$$
