default_name
  -OEChem-01062215323D

 31 30  0     1  0  0  0  0  0999 V2000
   -3.5895   -3.5013    1.1082 H   0  0  0  0  0  0  0  0  0  0  0  0
   -3.5145   -2.5363    0.6082 C   0  0  0  0  0  0  0  0  0  0  0  0
   -4.2285   -1.8413    1.0452 H   0  0  0  0  0  0  0  0  0  0  0  0
   -3.7155   -2.6583   -0.4538 H   0  0  0  0  0  0  0  0  0  0  0  0
   -2.1155   -1.9963    0.7922 C   0  0  0  0  0  0  0  0  0  0  0  0
   -1.2875   -2.6383    1.4252 O   0  0  0  0  0  0  0  0  0  0  0  0
   -1.8575   -0.8123    0.2402 N   0  0  0  0  0  0  0  0  0  0  0  0
   -2.6005   -0.3333   -0.2478 H   0  0  0  0  0  0  0  0  0  0  0  0
   -0.5675   -0.1203    0.3102 C   0  0  1  0  0  0  0  0  0  0  0  0
   -0.3473    0.0863    1.3581 H   0  0  0  0  0  0  0  0  0  0  0  0
    0.5224   -1.0545   -0.2559 C   0  0  0  0  0  0  0  0  0  0  0  0
    0.2400   -1.3456   -1.2695 H   0  0  0  0  0  0  0  0  0  0  0  0
    1.4528   -0.4862   -0.3222 H   0  0  0  0  0  0  0  0  0  0  0  0
    0.7982   -2.3320    0.5582 C   0  0  0  0  0  0  0  0  0  0  0  0
   -0.1357   -2.8663    0.7325 H   0  0  0  0  0  0  0  0  0  0  0  0
    1.7831   -3.2680   -0.1483 C   0  0  0  0  0  0  0  0  0  0  0  0
    2.7184   -2.7420   -0.3444 H   0  0  0  0  0  0  0  0  0  0  0  0
    1.9860   -4.1325    0.4841 H   0  0  0  0  0  0  0  0  0  0  0  0
    1.3694   -3.6204   -1.0907 H   0  0  0  0  0  0  0  0  0  0  0  0
    1.3912   -1.9603    1.9168 C   0  0  0  0  0  0  0  0  0  0  0  0
    0.6956   -1.3184    2.4573 H   0  0  0  0  0  0  0  0  0  0  0  0
    1.5616   -2.8614    2.5059 H   0  0  0  0  0  0  0  0  0  0  0  0
    2.3368   -1.4339    1.7826 H   0  0  0  0  0  0  0  0  0  0  0  0
   -0.6420    1.2199   -0.4410 C   0  0  0  0  0  0  0  0  0  0  0  0
   -1.6849    1.5593   -0.9955 O   0  0  0  0  0  0  0  0  0  0  0  0
    0.4655    1.9725   -0.4667 N   0  0  0  0  0  0  0  0  0  0  0  0
    1.2799    1.6289    0.0167 H   0  0  0  0  0  0  0  0  0  0  0  0
    0.5610    3.2602   -1.1505 C   0  0  0  0  0  0  0  0  0  0  0  0
   -0.1815    3.9500   -0.7432 H   0  0  0  0  0  0  0  0  0  0  0  0
    1.5571    3.6858   -1.0190 H   0  0  0  0  0  0  0  0  0  0  0  0
    0.3630    3.1275   -2.2153 H   0  0  0  0  0  0  0  0  0  0  0  0
  5  6  2  0  0  0  0
  5  7  1  0  0  0  0
  2  3  1  0  0  0  0
  2  4  1  0  0  0  0
  2  5  1  0  0  0  0
  1  2  1  0  0  0  0
 24 25  2  0  0  0  0
 24 26  1  0  0  0  0
 20 21  1  0  0  0  0
 20 22  1  0  0  0  0
 20 23  1  0  0  0  0
 16 17  1  0  0  0  0
 16 18  1  0  0  0  0
 16 19  1  0  0  0  0
 14 15  1  0  0  0  0
 14 16  1  0  0  0  0
 14 20  1  0  0  0  0
 11 12  1  0  0  0  0
 11 13  1  0  0  0  0
 11 14  1  0  0  0  0
  9 10  1  0  0  0  0
  9 11  1  0  0  0  0
  9 24  1  0  0  0  0
  7  8  1  0  0  0  0
  7  9  1  0  0  0  0
 28 29  1  0  0  0  0
 28 30  1  0  0  0  0
 28 31  1  0  0  0  0
 26 27  1  0  0  0  0
 26 28  1  0  0  0  0
M  END
$$$$
default_name
  -OEChem-01062215323D

 31 30  0     1  0  0  0  0  0999 V2000
   -3.5895   -3.5013    1.1082 H   0  0  0  0  0  0  0  0  0  0  0  0
   -3.5145   -2.5363    0.6082 C   0  0  0  0  0  0  0  0  0  0  0  0
   -4.2285   -1.8413    1.0452 H   0  0  0  0  0  0  0  0  0  0  0  0
   -3.7155   -2.6583   -0.4538 H   0  0  0  0  0  0  0  0  0  0  0  0
   -2.1155   -1.9963    0.7922 C   0  0  0  0  0  0  0  0  0  0  0  0
   -1.2875   -2.6383    1.4252 O   0  0  0  0  0  0  0  0  0  0  0  0
   -1.8575   -0.8123    0.2402 N   0  0  0  0  0  0  0  0  0  0  0  0
   -2.6005   -0.3333   -0.2478 H   0  0  0  0  0  0  0  0  0  0  0  0
   -0.5675   -0.1203    0.3102 C   0  0  1  0  0  0  0  0  0  0  0  0
   -0.3473    0.0863    1.3581 H   0  0  0  0  0  0  0  0  0  0  0  0
    0.5224   -1.0545   -0.2559 C   0  0  0  0  0  0  0  0  0  0  0  0
    0.2400   -1.3456   -1.2695 H   0  0  0  0  0  0  0  0  0  0  0  0
    1.4528   -0.4862   -0.3222 H   0  0  0  0  0  0  0  0  0  0  0  0
    0.7982   -2.3320    0.5582 C   0  0  0  0  0  0  0  0  0  0  0  0
   -0.1357   -2.8663    0.7325 H   0  0  0  0  0  0  0  0  0  0  0  0
    1.7831   -3.2680   -0.1483 C   0  0  0  0  0  0  0  0  0  0  0  0
    2.7184   -2.7420   -0.3444 H   0  0  0  0  0  0  0  0  0  0  0  0
    1.9860   -4.1325    0.4841 H   0  0  0  0  0  0  0  0  0  0  0  0
    1.3694   -3.6204   -1.0907 H   0  0  0  0  0  0  0  0  0  0  0  0
    1.3912   -1.9603    1.9168 C   0  0  0  0  0  0  0  0  0  0  0  0
    0.6956   -1.3184    2.4573 H   0  0  0  0  0  0  0  0  0  0  0  0
    1.5616   -2.8614    2.5059 H   0  0  0  0  0  0  0  0  0  0  0  0
    2.3368   -1.4339    1.7826 H   0  0  0  0  0  0  0  0  0  0  0  0
   -0.6420    1.2199   -0.4410 C   0  0  0  0  0  0  0  0  0  0  0  0
   -1.7325    1.6909   -0.7559 O   0  0  0  0  0  0  0  0  0  0  0  0
    0.5161    1.8248   -0.7353 N   0  0  0  0  0  0  0  0  0  0  0  0
    1.3693    1.3790   -0.4381 H   0  0  0  0  0  0  0  0  0  0  0  0
    0.6145    3.0910   -1.4576 C   0  0  0  0  0  0  0  0  0  0  0  0
    0.0756    3.8693   -0.9127 H   0  0  0  0  0  0  0  0  0  0  0  0
    1.6596    3.3855   -1.5649 H   0  0  0  0  0  0  0  0  0  0  0  0
    0.1657    2.9868   -2.4467 H   0  0  0  0  0  0  0  0  0  0  0  0
  5  6  2  0  0  0  0
  5  7  1  0  0  0  0
  2  3  1  0  0  0  0
  2  4  1  0  0  0  0
  2  5  1  0  0  0  0
  1  2  1  0  0  0  0
 24 25  2  0  0  0  0
 24 26  1  0  0  0  0
 20 21  1  0  0  0  0
 20 22  1  0  0  0  0
 20 23  1  0  0  0  0
 16 17  1  0  0  0  0
 16 18  1  0  0  0  0
 16 19  1  0  0  0  0
 14 15  1  0  0  0  0
 14 16  1  0  0  0  0
 14 20  1  0  0  0  0
 11 12  1  0  0  0  0
 11 13  1  0  0  0  0
 11 14  1  0  0  0  0
  9 10  1  0  0  0  0
  9 11  1  0  0  0  0
  9 24  1  0  0  0  0
  7  8  1  0  0  0  0
  7  9  1  0  0  0  0
 28 29  1  0  0  0  0
 28 30  1  0  0  0  0
 28 31  1  0  0  0  0
 26 27  1  0  0  0  0
 26 28  1  0  0  0  0
M  END
$$$$
default_name
  -OEChem-01062215323D

 31 30  0     1  0  0  0  0  0999 V2000
   -3.5895   -3.5013    1.1082 H   0  0  0  0  0  0  0  0  0  0  0  0
   -3.5145   -2.5363    0.6082 C   0  0  0  0  0  0  0  0  0  0  0  0
   -4.2285   -1.8413    1.0452 H   0  0  0  0  0  0  0  0  0  0  0  0
   -3.7155   -2.6583   -0.4538 H   0  0  0  0  0  0  0  0  0  0  0  0
   -2.1155   -1.9963    0.7922 C   0  0  0  0  0  0  0  0  0  0  0  0
   -1.2875   -2.6383    1.4252 O   0  0  0  0  0  0  0  0  0  0  0  0
   -1.8575   -0.8123    0.2402 N   0  0  0  0  0  0  0  0  0  0  0  0
   -2.6005   -0.3333   -0.2478 H   0  0  0  0  0  0  0  0  0  0  0  0
   -0.5675   -0.1203    0.3102 C   0  0  1  0  0  0  0  0  0  0  0  0
   -0.3473    0.0863    1.3581 H   0  0  0  0  0  0  0  0  0  0  0  0
    0.5224   -1.0545   -0.2559 C   0  0  0  0  0  0  0  0  0  0  0  0
    0.2400   -1.3456   -1.2695 H   0  0  0  0  0  0  0  0  0  0  0  0
    1.4528   -0.4862   -0.3222 H   0  0  0  0  0  0  0  0  0  0  0  0
    0.7982   -2.3320    0.5582 C   0  0  0  0  0  0  0  0  0  0  0  0
   -0.1357   -2.8663    0.7325 H   0  0  0  0  0  0  0  0  0  0  0  0
    1.7831   -3.2680   -0.1483 C   0  0  0  0  0  0  0  0  0  0  0  0
    2.7184   -2.7420   -0.3444 H   0  0  0  0  0  0  0  0  0  0  0  0
    1.9860   -4.1325    0.4841 H   0  0  0  0  0  0  0  0  0  0  0  0
    1.3694   -3.6204   -1.0907 H   0  0  0  0  0  0  0  0  0  0  0  0
    1.3912   -1.9603    1.9168 C   0  0  0  0  0  0  0  0  0  0  0  0
    0.6956   -1.3184    2.4573 H   0  0  0  0  0  0  0  0  0  0  0  0
    1.5616   -2.8614    2.5059 H   0  0  0  0  0  0  0  0  0  0  0  0
    2.3368   -1.4339    1.7826 H   0  0  0  0  0  0  0  0  0  0  0  0
   -0.6420    1.2199   -0.4410 C   0  0  0  0  0  0  0  0  0  0  0  0
   -1.7078    1.8271   -0.5155 O   0  0  0  0  0  0  0  0  0  0  0  0
    0.4858    1.6724   -1.0042 N   0  0  0  0  0  0  0  0  0  0  0  0
    1.3214    1.1206   -0.8944 H   0  0  0  0  0  0  0  0  0  0  0  0
    0.5755    2.9170   -1.7642 C   0  0  0  0  0  0  0  0  0  0  0  0
    0.2755    3.7568   -1.1333 H   0  0  0  0  0  0  0  0  0  0  0  0
    1.5976    3.0757   -2.1115 H   0  0  0  0  0  0  0  0  0  0  0  0
   -0.0949    2.8730   -2.6239 H   0  0  0  0  0  0  0  0  0  0  0  0
  5  6  2  0  0  0  0
  5  7  1  0  0  0  0
  2  3  1  0  0  0  0
  2  4  1  0  0  0  0
  2  5  1  0  0  0  0
  1  2  1  0  0  0  0
 24 25  2  0  0  0  0
 24 26  1  0  0  0  0
 20 21  1  0  0  0  0
 20 22  1  0  0  0  0
 20 23  1  0  0  0  0
 16 17  1  0  0  0  0
 16 18  1  0  0  0  0
 16 19  1  0  0  0  0
 14 15  1  0  0  0  0
 14 16  1  0  0  0  0
 14 20  1  0  0  0  0
 11 12  1  0  0  0  0
 11 13  1  0  0  0  0
 11 14  1  0  0  0  0
  9 10  1  0  0  0  0
  9 11  1  0  0  0  0
  9 24  1  0  0  0  0
  7  8  1  0  0  0  0
  7  9  1  0  0  0  0
 28 29  1  0  0  0  0
 28 30  1  0  0  0  0
 28 31  1  0  0  0  0
 26 27  1  0  0  0  0
 26 28  1  0  0  0  0
M  END
$$$$
default_name
  -OEChem-01062215323D

 31 30  0     1  0  0  0  0  0999 V2000
   -3.5895   -3.5013    1.1082 H   0  0  0  0  0  0  0  0  0  0  0  0
   -3.5145   -2.5363    0.6082 C   0  0  0  0  0  0  0  0  0  0  0  0
   -4.2285   -1.8413    1.0452 H   0  0  0  0  0  0  0  0  0  0  0  0
   -3.7155   -2.6583   -0.4538 H   0  0  0  0  0  0  0  0  0  0  0  0
   -2.1155   -1.9963    0.7922 C   0  0  0  0  0  0  0  0  0  0  0  0
   -1.2875   -2.6383    1.4252 O   0  0  0  0  0  0  0  0  0  0  0  0
   -1.8575   -0.8123    0.2402 N   0  0  0  0  0  0  0  0  0  0  0  0
   -2.6005   -0.3333   -0.2478 H   0  0  0  0  0  0  0  0  0  0  0  0
   -0.5675   -0.1203    0.3102 C   0  0  1  0  0  0  0  0  0  0  0  0
   -0.3473    0.0863    1.3581 H   0  0  0  0  0  0  0  0  0  0  0  0
    0.5224   -1.0545   -0.2559 C   0  0  0  0  0  0  0  0  0  0  0  0
    0.2400   -1.3456   -1.2695 H   0  0  0  0  0  0  0  0  0  0  0  0
    1.4528   -0.4862   -0.3222 H   0  0  0  0  0  0  0  0  0  0  0  0
    0.7982   -2.3320    0.5582 C   0  0  0  0  0  0  0  0  0  0  0  0
   -0.1357   -2.8663    0.7325 H   0  0  0  0  0  0  0  0  0  0  0  0
    1.7831   -3.2680   -0.1483 C   0  0  0  0  0  0  0  0  0  0  0  0
    2.7184   -2.7420   -0.3444 H   0  0  0  0  0  0  0  0  0  0  0  0
    1.9860   -4.1325    0.4841 H   0  0  0  0  0  0  0  0  0  0  0  0
    1.3694   -3.6204   -1.0907 H   0  0  0  0  0  0  0  0  0  0  0  0
    1.3912   -1.9603    1.9168 C   0  0  0  0  0  0  0  0  0  0  0  0
    0.6956   -1.3184    2.4573 H   0  0  0  0  0  0  0  0  0  0  0  0
    1.5616   -2.8614    2.5059 H   0  0  0  0  0  0  0  0  0  0  0  0
    2.3368   -1.4339    1.7826 H   0  0  0  0  0  0  0  0  0  0  0  0
   -0.6420    1.2199   -0.4410 C   0  0  0  0  0  0  0  0  0  0  0  0
   -1.6126    1.9585   -0.2905 O   0  0  0  0  0  0  0  0  0  0  0  0
    0.3765    1.5256   -1.2553 N   0  0  0  0  0  0  0  0  0  0  0  0
    1.1397    0.8713   -1.3211 H   0  0  0  0  0  0  0  0  0  0  0  0
    0.4468    2.7500   -2.0493 C   0  0  0  0  0  0  0  0  0  0  0  0
    0.4046    3.6200   -1.3901 H   0  0  0  0  0  0  0  0  0  0  0  0
    1.3753    2.7775   -2.6216 H   0  0  0  0  0  0  0  0  0  0  0  0
   -0.4010    2.7937   -2.7349 H   0  0  0  0  0  0  0  0  0  0  0  0
  5  6  2  0  0  0  0
  5  7  1  0  0  0  0
  2  3  1  0  0  0  0
  2  4  1  0  0  0  0
  2  5  1  0  0  0  0
  1  2  1  0  0  0  0
 24 25  2  0  0  0  0
 24 26  1  0  0  0  0
 20 21  1  0  0  0  0
 20 22  1  0  0  0  0
 20 23  1  0  0  0  0
 16 17  1  0  0  0  0
 16 18  1  0  0  0  0
 16 19  1  0  0  0  0
 14 15  1  0  0  0  0
 14 16  1  0  0  0  0
 14 20  1  0  0  0  0
 11 12  1  0  0  0  0
 11 13  1  0  0  0  0
 11 14  1  0  0  0  0
  9 10  1  0  0  0  0
  9 11  1  0  0  0  0
  9 24  1  0  0  0  0
  7  8  1  0  0  0  0
  7  9  1  0  0  0  0
 28 29  1  0  0  0  0
 28 30  1  0  0  0  0
 28 31  1  0  0  0  0
 26 27  1  0  0  0  0
 26 28  1  0  0  0  0
M  END
$$$$
default_name
  -OEChem-01062215323D

 31 30  0     1  0  0  0  0  0999 V2000
   -3.5895   -3.5013    1.1082 H   0  0  0  0  0  0  0  0  0  0  0  0
   -3.5145   -2.5363    0.6082 C   0  0  0  0  0  0  0  0  0  0  0  0
   -4.2285   -1.8413    1.0452 H   0  0  0  0  0  0  0  0  0  0  0  0
   -3.7155   -2.6583   -0.4538 H   0  0  0  0  0  0  0  0  0  0  0  0
   -2.1155   -1.9963    0.7922 C   0  0  0  0  0  0  0  0  0  0  0  0
   -1.2875   -2.6383    1.4252 O   0  0  0  0  0  0  0  0  0  0  0  0
   -1.8575   -0.8123    0.2402 N   0  0  0  0  0  0  0  0  0  0  0  0
   -2.6005   -0.3333   -0.2478 H   0  0  0  0  0  0  0  0  0  0  0  0
   -0.5675   -0.1203    0.3102 C   0  0  1  0  0  0  0  0  0  0  0  0
   -0.3473    0.0863    1.3581 H   0  0  0  0  0  0  0  0  0  0  0  0
    0.5224   -1.0545   -0.2559 C   0  0  0  0  0  0  0  0  0  0  0  0
    0.2400   -1.3456   -1.2695 H   0  0  0  0  0  0  0  0  0  0  0  0
    1.4528   -0.4862   -0.3222 H   0  0  0  0  0  0  0  0  0  0  0  0
    0.7982   -2.3320    0.5582 C   0  0  0  0  0  0  0  0  0  0  0  0
   -0.1357   -2.8663    0.7325 H   0  0  0  0  0  0  0  0  0  0  0  0
    1.7831   -3.2680   -0.1483 C   0  0  0  0  0  0  0  0  0  0  0  0
    2.7184   -2.7420   -0.3444 H   0  0  0  0  0  0  0  0  0  0  0  0
    1.9860   -4.1325    0.4841 H   0  0  0  0  0  0  0  0  0  0  0  0
    1.3694   -3.6204   -1.0907 H   0  0  0  0  0  0  0  0  0  0  0  0
    1.3912   -1.9603    1.9168 C   0  0  0  0  0  0  0  0  0  0  0  0
    0.6956   -1.3184    2.4573 H   0  0  0  0  0  0  0  0  0  0  0  0
    1.5616   -2.8614    2.5059 H   0  0  0  0  0  0  0  0  0  0  0  0
    2.3368   -1.4339    1.7826 H   0  0  0  0  0  0  0  0  0  0  0  0
   -0.6420    1.2199   -0.4410 C   0  0  0  0  0  0  0  0  0  0  0  0
   -1.4532    2.0762   -0.0963 O   0  0  0  0  0  0  0  0  0  0  0  0
    0.1958    1.3945   -1.4713 N   0  0  0  0  0  0  0  0  0  0  0  0
    0.8364    0.6481   -1.6892 H   0  0  0  0  0  0  0  0  0  0  0  0
    0.2370    2.6014   -2.2937 C   0  0  0  0  0  0  0  0  0  0  0  0
    0.4541    3.4684   -1.6656 H   0  0  0  0  0  0  0  0  0  0  0  0
    1.0079    2.5110   -3.0604 H   0  0  0  0  0  0  0  0  0  0  0  0
   -0.7317    2.7545   -2.7721 H   0  0  0  0  0  0  0  0  0  0  0  0
  5  6  2  0  0  0  0
  5  7  1  0  0  0  0
  2  3  1  0  0  0  0
  2  4  1  0  0  0  0
  2  5  1  0  0  0  0
  1  2  1  0  0  0  0
 24 25  2  0  0  0  0
 24 26  1  0  0  0  0
 20 21  1  0  0  0  0
 20 22  1  0  0  0  0
 20 23  1  0  0  0  0
 16 17  1  0  0  0  0
 16 18  1  0  0  0  0
 16 19  1  0  0  0  0
 14 15  1  0  0  0  0
 14 16  1  0  0  0  0
 14 20  1  0  0  0  0
 11 12  1  0  0  0  0
 11 13  1  0  0  0  0
 11 14  1  0  0  0  0
  9 10  1  0  0  0  0
  9 11  1  0  0  0  0
  9 24  1  0  0  0  0
  7  8  1  0  0  0  0
  7  9  1  0  0  0  0
 28 29  1  0  0  0  0
 28 30  1  0  0  0  0
 28 31  1  0  0  0  0
 26 27  1  0  0  0  0
 26 28  1  0  0  0  0
M  END
$$$$
default_name
  -OEChem-01062215323D

 31 30  0     1  0  0  0  0  0999 V2000
   -3.5895   -3.5013    1.1082 H   0  0  0  0  0  0  0  0  0  0  0  0
   -3.5145   -2.5363    0.6082 C   0  0  0  0  0  0  0  0  0  0  0  0
   -4.2285   -1.8413    1.0452 H   0  0  0  0  0  0  0  0  0  0  0  0
   -3.7155   -2.6583   -0.4538 H   0  0  0  0  0  0  0  0  0  0  0  0
   -2.1155   -1.9963    0.7922 C   0  0  0  0  0  0  0  0  0  0  0  0
   -1.2875   -2.6383    1.4252 O   0  0  0  0  0  0  0  0  0  0  0  0
   -1.8575   -0.8123    0.2402 N   0  0  0  0  0  0  0  0  0  0  0  0
   -2.6005   -0.3333   -0.2478 H   0  0  0  0  0  0  0  0  0  0  0  0
   -0.5675   -0.1203    0.3102 C   0  0  1  0  0  0  0  0  0  0  0  0
   -0.3473    0.0863    1.3581 H   0  0  0  0  0  0  0  0  0  0  0  0
    0.5224   -1.0545   -0.2559 C   0  0  0  0  0  0  0  0  0  0  0  0
    0.2400   -1.3456   -1.2695 H   0  0  0  0  0  0  0  0  0  0  0  0
    1.4528   -0.4862   -0.3222 H   0  0  0  0  0  0  0  0  0  0  0  0
    0.7982   -2.3320    0.5582 C   0  0  0  0  0  0  0  0  0  0  0  0
   -0.1357   -2.8663    0.7325 H   0  0  0  0  0  0  0  0  0  0  0  0
    1.7831   -3.2680   -0.1483 C   0  0  0  0  0  0  0  0  0  0  0  0
    2.7184   -2.7420   -0.3444 H   0  0  0  0  0  0  0  0  0  0  0  0
    1.9860   -4.1325    0.4841 H   0  0  0  0  0  0  0  0  0  0  0  0
    1.3694   -3.6204   -1.0907 H   0  0  0  0  0  0  0  0  0  0  0  0
    1.3912   -1.9603    1.9168 C   0  0  0  0  0  0  0  0  0  0  0  0
    0.6956   -1.3184    2.4573 H   0  0  0  0  0  0  0  0  0  0  0  0
    1.5616   -2.8614    2.5059 H   0  0  0  0  0  0  0  0  0  0  0  0
    2.3368   -1.4339    1.7826 H   0  0  0  0  0  0  0  0  0  0  0  0
   -0.6420    1.2199   -0.4410 C   0  0  0  0  0  0  0  0  0  0  0  0
   -1.2406    2.1722    0.0539 O   0  0  0  0  0  0  0  0  0  0  0  0
   -0.0440    1.2880   -1.6375 N   0  0  0  0  0  0  0  0  0  0  0  0
    0.4322    0.4662   -1.9736 H   0  0  0  0  0  0  0  0  0  0  0  0
   -0.0396    2.4813   -2.4805 C   0  0  0  0  0  0  0  0  0  0  0  0
    0.4207    3.3122   -1.9409 H   0  0  0  0  0  0  0  0  0  0  0  0
    0.5203    2.2946   -3.3981 H   0  0  0  0  0  0  0  0  0  0  0  0
   -1.0644    2.7579   -2.7330 H   0  0  0  0  0  0  0  0  0  0  0  0
  5  6  2  0  0  0  0
  5  7  1  0  0  0  0
  2  3  1  0  0  0  0
  2  4  1  0  0  0  0
  2  5  1  0  0  0  0
  1  2  1  0  0  0  0
 24 25  2  0  0  0  0
 24 26  1  0  0  0  0
 20 21  1  0  0  0  0
 20 22  1  0  0  0  0
 20 23  1  0  0  0  0
 16 17  1  0  0  0  0
 16 18  1  0  0  0  0
 16 19  1  0  0  0  0
 14 15  1  0  0  0  0
 14 16  1  0  0  0  0
 14 20  1  0  0  0  0
 11 12  1  0  0  0  0
 11 13  1  0  0  0  0
 11 14  1  0  0  0  0
  9 10  1  0  0  0  0
  9 11  1  0  0  0  0
  9 24  1  0  0  0  0
  7  8  1  0  0  0  0
  7  9  1  0  0  0  0
 28 29  1  0  0  0  0
 28 30  1  0  0  0  0
 28 31  1  0  0  0  0
 26 27  1  0  0  0  0
 26 28  1  0  0  0  0
M  END
$$$$
default_name
  -OEChem-01062215323D

 31 30  0     1  0  0  0  0  0999 V2000
   -3.5895   -3.5013    1.1082 H   0  0  0  0  0  0  0  0  0  0  0  0
   -3.5145   -2.5363    0.6082 C   0  0  0  0  0  0  0  0  0  0  0  0
   -4.2285   -1.8413    1.0452 H   0  0  0  0  0  0  0  0  0  0  0  0
   -3.7155   -2.6583   -0.4538 H   0  0  0  0  0  0  0  0  0  0  0  0
   -2.1155   -1.9963    0.7922 C   0  0  0  0  0  0  0  0  0  0  0  0
   -1.2875   -2.6383    1.4252 O   0  0  0  0  0  0  0  0  0  0  0  0
   -1.8575   -0.8123    0.2402 N   0  0  0  0  0  0  0  0  0  0  0  0
   -2.6005   -0.3333   -0.2478 H   0  0  0  0  0  0  0  0  0  0  0  0
   -0.5675   -0.1203    0.3102 C   0  0  1  0  0  0  0  0  0  0  0  0
   -0.3473    0.0863    1.3581 H   0  0  0  0  0  0  0  0  0  0  0  0
    0.5224   -1.0545   -0.2559 C   0  0  0  0  0  0  0  0  0  0  0  0
    0.2400   -1.3456   -1.2695 H   0  0  0  0  0  0  0  0  0  0  0  0
    1.4528   -0.4862   -0.3222 H   0  0  0  0  0  0  0  0  0  0  0  0
    0.7982   -2.3320    0.5582 C   0  0  0  0  0  0  0  0  0  0  0  0
   -0.1357   -2.8663    0.7325 H   0  0  0  0  0  0  0  0  0  0  0  0
    1.7831   -3.2680   -0.1483 C   0  0  0  0  0  0  0  0  0  0  0  0
    2.7184   -2.7420   -0.3444 H   0  0  0  0  0  0  0  0  0  0  0  0
    1.9860   -4.1325    0.4841 H   0  0  0  0  0  0  0  0  0  0  0  0
    1.3694   -3.6204   -1.0907 H   0  0  0  0  0  0  0  0  0  0  0  0
    1.3912   -1.9603    1.9168 C   0  0  0  0  0  0  0  0  0  0  0  0
    0.6956   -1.3184    2.4573 H   0  0  0  0  0  0  0  0  0  0  0  0
    1.5616   -2.8614    2.5059 H   0  0  0  0  0  0  0  0  0  0  0  0
    2.3368   -1.4339    1.7826 H   0  0  0  0  0  0  0  0  0  0  0  0
   -0.6420    1.2199   -0.4410 C   0  0  0  0  0  0  0  0  0  0  0  0
   -0.9893    2.2400    0.1498 O   0  0  0  0  0  0  0  0  0  0  0  0
   -0.3267    1.2133   -1.7427 N   0  0  0  0  0  0  0  0  0  0  0  0
   -0.0454    0.3381   -2.1548 H   0  0  0  0  0  0  0  0  0  0  0  0
   -0.3640    2.3980   -2.5970 C   0  0  0  0  0  0  0  0  0  0  0  0
    0.3065    3.1621   -2.1974 H   0  0  0  0  0  0  0  0  0  0  0  0
   -0.0541    2.1430   -3.6116 H   0  0  0  0  0  0  0  0  0  0  0  0
   -1.3766    2.8037   -2.6202 H   0  0  0  0  0  0  0  0  0  0  0  0
  5  6  2  0  0  0  0
  5  7  1  0  0  0  0
  2  3  1  0  0  0  0
  2  4  1  0  0  0  0
  2  5  1  0  0  0  0
  1  2  1  0  0  0  0
 24 25  2  0  0  0  0
 24 26  1  0  0  0  0
 20 21  1  0  0  0  0
 20 22  1  0  0  0  0
 20 23  1  0  0  0  0
 16 17  1  0  0  0  0
 16 18  1  0  0  0  0
 16 19  1  0  0  0  0
 14 15  1  0  0  0  0
 14 16  1  0  0  0  0
 14 20  1  0  0  0  0
 11 12  1  0  0  0  0
 11 13  1  0  0  0  0
 11 14  1  0  0  0  0
  9 10  1  0  0  0  0
  9 11  1  0  0  0  0
  9 24  1  0  0  0  0
  7  8  1  0  0  0  0
  7  9  1  0  0  0  0
 28 29  1  0  0  0  0
 28 30  1  0  0  0  0
 28 31  1  0  0  0  0
 26 27  1  0  0  0  0
 26 28  1  0  0  0  0
M  END
$$$$
default_name
  -OEChem-01062215323D

 31 30  0     1  0  0  0  0  0999 V2000
   -3.5895   -3.5013    1.1082 H   0  0  0  0  0  0  0  0  0  0  0  0
   -3.5145   -2.5363    0.6082 C   0  0  0  0  0  0  0  0  0  0  0  0
   -4.2285   -1.8413    1.0452 H   0  0  0  0  0  0  0  0  0  0  0  0
   -3.7155   -2.6583   -0.4538 H   0  0  0  0  0  0  0  0  0  0  0  0
   -2.1155   -1.9963    0.7922 C   0  0  0  0  0  0  0  0  0  0  0  0
   -1.2875   -2.6383    1.4252 O   0  0  0  0  0  0  0  0  0  0  0  0
   -1.8575   -0.8123    0.2402 N   0  0  0  0  0  0  0  0  0  0  0  0
   -2.6005   -0.3333   -0.2478 H   0  0  0  0  0  0  0  0  0  0  0  0
   -0.5675   -0.1203    0.3102 C   0  0  1  0  0  0  0  0  0  0  0  0
   -0.3473    0.0863    1.3581 H   0  0  0  0  0  0  0  0  0  0  0  0
    0.5224   -1.0545   -0.2559 C   0  0  0  0  0  0  0  0  0  0  0  0
    0.2400   -1.3456   -1.2695 H   0  0  0  0  0  0  0  0  0  0  0  0
    1.4528   -0.4862   -0.3222 H   0  0  0  0  0  0  0  0  0  0  0  0
    0.7982   -2.3320    0.5582 C   0  0  0  0  0  0  0  0  0  0  0  0
   -0.1357   -2.8663    0.7325 H   0  0  0  0  0  0  0  0  0  0  0  0
    1.7831   -3.2680   -0.1483 C   0  0  0  0  0  0  0  0  0  0  0  0
    2.7184   -2.7420   -0.3444 H   0  0  0  0  0  0  0  0  0  0  0  0
    1.9860   -4.1325    0.4841 H   0  0  0  0  0  0  0  0  0  0  0  0
    1.3694   -3.6204   -1.0907 H   0  0  0  0  0  0  0  0  0  0  0  0
    1.3912   -1.9603    1.9168 C   0  0  0  0  0  0  0  0  0  0  0  0
    0.6956   -1.3184    2.4573 H   0  0  0  0  0  0  0  0  0  0  0  0
    1.5616   -2.8614    2.5059 H   0  0  0  0  0  0  0  0  0  0  0  0
    2.3368   -1.4339    1.7826 H   0  0  0  0  0  0  0  0  0  0  0  0
   -0.6420    1.2199   -0.4410 C   0  0  0  0  0  0  0  0  0  0  0  0
   -0.7163    2.2748    0.1849 O   0  0  0  0  0  0  0  0  0  0  0  0
   -0.6328    1.1756   -1.7796 N   0  0  0  0  0  0  0  0  0  0  0  0
   -0.5637    0.2724   -2.2205 H   0  0  0  0  0  0  0  0  0  0  0  0
   -0.7142    2.3570   -2.6354 C   0  0  0  0  0  0  0  0  0  0  0  0
    0.1195    3.0283   -2.4175 H   0  0  0  0  0  0  0  0  0  0  0  0
   -0.6763    2.0664   -3.6864 H   0  0  0  0  0  0  0  0  0  0  0  0
   -1.6469    2.8889   -2.4415 H   0  0  0  0  0  0  0  0  0  0  0  0
  5  6  2  0  0  0  0
  5  7  1  0  0  0  0
  2  3  1  0  0  0  0
  2  4  1  0  0  0  0
  2  5  1  0  0  0  0
  1  2  1  0  0  0  0
 24 25  2  0  0  0  0
 24 26  1  0  0  0  0
 20 21  1  0  0  0  0
 20 22  1  0  0  0  0
 20 23  1  0  0  0  0
 16 17  1  0  0  0  0
 16 18  1  0  0  0  0
 16 19  1  0  0  0  0
 14 15  1  0  0  0  0
 14 16  1  0  0  0  0
 14 20  1  0  0  0  0
 11 12  1  0  0  0  0
 11 13  1  0  0  0  0
 11 14  1  0  0  0  0
  9 10  1  0  0  0  0
  9 11  1  0  0  0  0
  9 24  1  0  0  0  0
  7  8  1  0  0  0  0
  7  9  1  0  0  0  0
 28 29  1  0  0  0  0
 28 30  1  0  0  0  0
 28 31  1  0  0  0  0
 26 27  1  0  0  0  0
 26 28  1  0  0  0  0
M  END
$$$$
default_name
  -OEChem-01062215323D

 31 30  0     1  0  0  0  0  0999 V2000
   -3.5895   -3.5013    1.1082 H   0  0  0  0  0  0  0  0  0  0  0  0
   -3.5145   -2.5363    0.6082 C   0  0  0  0  0  0  0  0  0  0  0  0
   -4.2285   -1.8413    1.0452 H   0  0  0  0  0  0  0  0  0  0  0  0
   -3.7155   -2.6583   -0.4538 H   0  0  0  0  0  0  0  0  0  0  0  0
   -2.1155   -1.9963    0.7922 C   0  0  0  0  0  0  0  0  0  0  0  0
   -1.2875   -2.6383    1.4252 O   0  0  0  0  0  0  0  0  0  0  0  0
   -1.8575   -0.8123    0.2402 N   0  0  0  0  0  0  0  0  0  0  0  0
   -2.6005   -0.3333   -0.2478 H   0  0  0  0  0  0  0  0  0  0  0  0
   -0.5675   -0.1203    0.3102 C   0  0  1  0  0  0  0  0  0  0  0  0
   -0.3473    0.0863    1.3581 H   0  0  0  0  0  0  0  0  0  0  0  0
    0.5224   -1.0545   -0.2559 C   0  0  0  0  0  0  0  0  0  0  0  0
    0.2400   -1.3456   -1.2695 H   0  0  0  0  0  0  0  0  0  0  0  0
    1.4528   -0.4862   -0.3222 H   0  0  0  0  0  0  0  0  0  0  0  0
    0.7982   -2.3320    0.5582 C   0  0  0  0  0  0  0  0  0  0  0  0
   -0.1357   -2.8663    0.7325 H   0  0  0  0  0  0  0  0  0  0  0  0
    1.7831   -3.2680   -0.1483 C   0  0  0  0  0  0  0  0  0  0  0  0
    2.7184   -2.7420   -0.3444 H   0  0  0  0  0  0  0  0  0  0  0  0
    1.9860   -4.1325    0.4841 H   0  0  0  0  0  0  0  0  0  0  0  0
    1.3694   -3.6204   -1.0907 H   0  0  0  0  0  0  0  0  0  0  0  0
    1.3912   -1.9603    1.9168 C   0  0  0  0  0  0  0  0  0  0  0  0
    0.6956   -1.3184    2.4573 H   0  0  0  0  0  0  0  0  0  0  0  0
    1.5616   -2.8614    2.5059 H   0  0  0  0  0  0  0  0  0  0  0  0
    2.3368   -1.4339    1.7826 H   0  0  0  0  0  0  0  0  0  0  0  0
   -0.6420    1.2199   -0.4410 C   0  0  0  0  0  0  0  0  0  0  0  0
   -0.4403    2.2744    0.1568 O   0  0  0  0  0  0  0  0  0  0  0  0
   -0.9416    1.1774   -1.7457 N   0  0  0  0  0  0  0  0  0  0  0  0
   -1.0875    0.2736   -2.1663 H   0  0  0  0  0  0  0  0  0  0  0  0
   -1.0663    2.3611   -2.5930 C   0  0  0  0  0  0  0  0  0  0  0  0
   -0.1277    2.9200   -2.5862 H   0  0  0  0  0  0  0  0  0  0  0  0
   -1.3039    2.0702   -3.6174 H   0  0  0  0  0  0  0  0  0  0  0  0
   -1.8569    3.0076   -2.2089 H   0  0  0  0  0  0  0  0  0  0  0  0
  5  6  2  0  0  0  0
  5  7  1  0  0  0  0
  2  3  1  0  0  0  0
  2  4  1  0  0  0  0
  2  5  1  0  0  0  0
  1  2  1  0  0  0  0
 24 25  2  0  0  0  0
 24 26  1  0  0  0  0
 20 21  1  0  0  0  0
 20 22  1  0  0  0  0
 20 23  1  0  0  0  0
 16 17  1  0  0  0  0
 16 18  1  0  0  0  0
 16 19  1  0  0  0  0
 14 15  1  0  0  0  0
 14 16  1  0  0  0  0
 14 20  1  0  0  0  0
 11 12  1  0  0  0  0
 11 13  1  0  0  0  0
 11 14  1  0  0  0  0
  9 10  1  0  0  0  0
  9 11  1  0  0  0  0
  9 24  1  0  0  0  0
  7  8  1  0  0  0  0
  7  9  1  0  0  0  0
 28 29  1  0  0  0  0
 28 30  1  0  0  0  0
 28 31  1  0  0  0  0
 26 27  1  0  0  0  0
 26 28  1  0  0  0  0
M  END
$$$$
default_name
  -OEChem-01062215323D

 31 30  0     1  0  0  0  0  0999 V2000
   -3.5895   -3.5013    1.1082 H   0  0  0  0  0  0  0  0  0  0  0  0
   -3.5145   -2.5363    0.6082 C   0  0  0  0  0  0  0  0  0  0  0  0
   -4.2285   -1.8413    1.0452 H   0  0  0  0  0  0  0  0  0  0  0  0
   -3.7155   -2.6583   -0.4538 H   0  0  0  0  0  0  0  0  0  0  0  0
   -2.1155   -1.9963    0.7922 C   0  0  0  0  0  0  0  0  0  0  0  0
   -1.2875   -2.6383    1.4252 O   0  0  0  0  0  0  0  0  0  0  0  0
   -1.8575   -0.8123    0.2402 N   0  0  0  0  0  0  0  0  0  0  0  0
   -2.6005   -0.3333   -0.2478 H   0  0  0  0  0  0  0  0  0  0  0  0
   -0.5675   -0.1203    0.3102 C   0  0  1  0  0  0  0  0  0  0  0  0
   -0.3473    0.0863    1.3581 H   0  0  0  0  0  0  0  0  0  0  0  0
    0.5224   -1.0545   -0.2559 C   0  0  0  0  0  0  0  0  0  0  0  0
    0.2400   -1.3456   -1.2695 H   0  0  0  0  0  0  0  0  0  0  0  0
    1.4528   -0.4862   -0.3222 H   0  0  0  0  0  0  0  0  0  0  0  0
    0.7982   -2.3320    0.5582 C   0  0  0  0  0  0  0  0  0  0  0  0
   -0.1357   -2.8663    0.7325 H   0  0  0  0  0  0  0  0  0  0  0  0
    1.7831   -3.2680   -0.1483 C   0  0  0  0  0  0  0  0  0  0  0  0
    2.7184   -2.7420   -0.3444 H   0  0  0  0  0  0  0  0  0  0  0  0
    1.9860   -4.1325    0.4841 H   0  0  0  0  0  0  0  0  0  0  0  0
    1.3694   -3.6204   -1.0907 H   0  0  0  0  0  0  0  0  0  0  0  0
    1.3912   -1.9603    1.9168 C   0  0  0  0  0  0  0  0  0  0  0  0
    0.6956   -1.3184    2.4573 H   0  0  0  0  0  0  0  0  0  0  0  0
    1.5616   -2.8614    2.5059 H   0  0  0  0  0  0  0  0  0  0  0  0
    2.3368   -1.4339    1.7826 H   0  0  0  0  0  0  0  0  0  0  0  0
   -0.6420    1.2199   -0.4410 C   0  0  0  0  0  0  0  0  0  0  0  0
   -0.1801    2.2388    0.0675 O   0  0  0  0  0  0  0  0  0  0  0  0
   -1.2320    1.2186   -1.6434 N   0  0  0  0  0  0  0  0  0  0  0  0
   -1.5811    0.3417   -1.9959 H   0  0  0  0  0  0  0  0  0  0  0  0
   -1.3963    2.4102   -2.4727 C   0  0  0  0  0  0  0  0  0  0  0  0
   -0.4183    2.8445   -2.6921 H   0  0  0  0  0  0  0  0  0  0  0  0
   -1.8940    2.1540   -3.4093 H   0  0  0  0  0  0  0  0  0  0  0  0
   -1.9923    3.1517   -1.9384 H   0  0  0  0  0  0  0  0  0  0  0  0
  5  6  2  0  0  0  0
  5  7  1  0  0  0  0
  2  3  1  0  0  0  0
  2  4  1  0  0  0  0
  2  5  1  0  0  0  0
  1  2  1  0  0  0  0
 24 25  2  0  0  0  0
 24 26  1  0  0  0  0
 20 21  1  0  0  0  0
 20 22  1  0  0  0  0
 20 23  1  0  0  0  0
 16 17  1  0  0  0  0
 16 18  1  0  0  0  0
 16 19  1  0  0  0  0
 14 15  1  0  0  0  0
 14 16  1  0  0  0  0
 14 20  1  0  0  0  0
 11 12  1  0  0  0  0
 11 13  1  0  0  0  0
 11 14  1  0  0  0  0
  9 10  1  0  0  0  0
  9 11  1  0  0  0  0
  9 24  1  0  0  0  0
  7  8  1  0  0  0  0
  7  9  1  0  0  0  0
 28 29  1  0  0  0  0
 28 30  1  0  0  0  0
 28 31  1  0  0  0  0
 26 27  1  0  0  0  0
 26 28  1  0  0  0  0
M  END
$$$$
default_name
  -OEChem-01062215323D

 31 30  0     1  0  0  0  0  0999 V2000
   -3.5895   -3.5013    1.1082 H   0  0  0  0  0  0  0  0  0  0  0  0
   -3.5145   -2.5363    0.6082 C   0  0  0  0  0  0  0  0  0  0  0  0
   -4.2285   -1.8413    1.0452 H   0  0  0  0  0  0  0  0  0  0  0  0
   -3.7155   -2.6583   -0.4538 H   0  0  0  0  0  0  0  0  0  0  0  0
   -2.1155   -1.9963    0.7922 C   0  0  0  0  0  0  0  0  0  0  0  0
   -1.2875   -2.6383    1.4252 O   0  0  0  0  0  0  0  0  0  0  0  0
   -1.8575   -0.8123    0.2402 N   0  0  0  0  0  0  0  0  0  0  0  0
   -2.6005   -0.3333   -0.2478 H   0  0  0  0  0  0  0  0  0  0  0  0
   -0.5675   -0.1203    0.3102 C   0  0  1  0  0  0  0  0  0  0  0  0
   -0.3473    0.0863    1.3581 H   0  0  0  0  0  0  0  0  0  0  0  0
    0.5224   -1.0545   -0.2559 C   0  0  0  0  0  0  0  0  0  0  0  0
    0.2400   -1.3456   -1.2695 H   0  0  0  0  0  0  0  0  0  0  0  0
    1.4528   -0.4862   -0.3222 H   0  0  0  0  0  0  0  0  0  0  0  0
    0.7982   -2.3320    0.5582 C   0  0  0  0  0  0  0  0  0  0  0  0
   -0.1357   -2.8663    0.7325 H   0  0  0  0  0  0  0  0  0  0  0  0
    1.7831   -3.2680   -0.1483 C   0  0  0  0  0  0  0  0  0  0  0  0
    2.7184   -2.7420   -0.3444 H   0  0  0  0  0  0  0  0  0  0  0  0
    1.9860   -4.1325    0.4841 H   0  0  0  0  0  0  0  0  0  0  0  0
    1.3694   -3.6204   -1.0907 H   0  0  0  0  0  0  0  0  0  0  0  0
    1.3912   -1.9603    1.9168 C   0  0  0  0  0  0  0  0  0  0  0  0
    0.6956   -1.3184    2.4573 H   0  0  0  0  0  0  0  0  0  0  0  0
    1.5616   -2.8614    2.5059 H   0  0  0  0  0  0  0  0  0  0  0  0
    2.3368   -1.4339    1.7826 H   0  0  0  0  0  0  0  0  0  0  0  0
   -0.6420    1.2199   -0.4410 C   0  0  0  0  0  0  0  0  0  0  0  0
    0.0466    2.1704   -0.0771 O   0  0  0  0  0  0  0  0  0  0  0  0
   -1.4842    1.2963   -1.4796 N   0  0  0  0  0  0  0  0  0  0  0  0
   -2.0108    0.4720   -1.7208 H   0  0  0  0  0  0  0  0  0  0  0  0
   -1.6817    2.5008   -2.2827 C   0  0  0  0  0  0  0  0  0  0  0  0
   -0.7324    2.8069   -2.7279 H   0  0  0  0  0  0  0  0  0  0  0  0
   -2.4065    2.3122   -3.0762 H   0  0  0  0  0  0  0  0  0  0  0  0
   -2.0439    3.3113   -1.6484 H   0  0  0  0  0  0  0  0  0  0  0  0
  5  6  2  0  0  0  0
  5  7  1  0  0  0  0
  2  3  1  0  0  0  0
  2  4  1  0  0  0  0
  2  5  1  0  0  0  0
  1  2  1  0  0  0  0
 24 25  2  0  0  0  0
 24 26  1  0  0  0  0
 20 21  1  0  0  0  0
 20 22  1  0  0  0  0
 20 23  1  0  0  0  0
 16 17  1  0  0  0  0
 16 18  1  0  0  0  0
 16 19  1  0  0  0  0
 14 15  1  0  0  0  0
 14 16  1  0  0  0  0
 14 20  1  0  0  0  0
 11 12  1  0  0  0  0
 11 13  1  0  0  0  0
 11 14  1  0  0  0  0
  9 10  1  0  0  0  0
  9 11  1  0  0  0  0
  9 24  1  0  0  0  0
  7  8  1  0  0  0  0
  7  9  1  0  0  0  0
 28 29  1  0  0  0  0
 28 30  1  0  0  0  0
 28 31  1  0  0  0  0
 26 27  1  0  0  0  0
 26 28  1  0  0  0  0
M  END
$$$$
default_name
  -OEChem-01062215323D

 31 30  0     1  0  0  0  0  0999 V2000
   -3.5895   -3.5013    1.1082 H   0  0  0  0  0  0  0  0  0  0  0  0
   -3.5145   -2.5363    0.6082 C   0  0  0  0  0  0  0  0  0  0  0  0
   -4.2285   -1.8413    1.0452 H   0  0  0  0  0  0  0  0  0  0  0  0
   -3.7155   -2.6583   -0.4538 H   0  0  0  0  0  0  0  0  0  0  0  0
   -2.1155   -1.9963    0.7922 C   0  0  0  0  0  0  0  0  0  0  0  0
   -1.2875   -2.6383    1.4252 O   0  0  0  0  0  0  0  0  0  0  0  0
   -1.8575   -0.8123    0.2402 N   0  0  0  0  0  0  0  0  0  0  0  0
   -2.6005   -0.3333   -0.2478 H   0  0  0  0  0  0  0  0  0  0  0  0
   -0.5675   -0.1203    0.3102 C   0  0  1  0  0  0  0  0  0  0  0  0
   -0.3473    0.0863    1.3581 H   0  0  0  0  0  0  0  0  0  0  0  0
    0.5224   -1.0545   -0.2559 C   0  0  0  0  0  0  0  0  0  0  0  0
    0.2400   -1.3456   -1.2695 H   0  0  0  0  0  0  0  0  0  0  0  0
    1.4528   -0.4862   -0.3222 H   0  0  0  0  0  0  0  0  0  0  0  0
    0.7982   -2.3320    0.5582 C   0  0  0  0  0  0  0  0  0  0  0  0
   -0.1357   -2.8663    0.7325 H   0  0  0  0  0  0  0  0  0  0  0  0
    1.7831   -3.2680   -0.1483 C   0  0  0  0  0  0  0  0  0  0  0  0
    2.7184   -2.7420   -0.3444 H   0  0  0  0  0  0  0  0  0  0  0  0
    1.9860   -4.1325    0.4841 H   0  0  0  0  0  0  0  0  0  0  0  0
    1.3694   -3.6204   -1.0907 H   0  0  0  0  0  0  0  0  0  0  0  0
    1.3912   -1.9603    1.9168 C   0  0  0  0  0  0  0  0  0  0  0  0
    0.6956   -1.3184    2.4573 H   0  0  0  0  0  0  0  0  0  0  0  0
    1.5616   -2.8614    2.5059 H   0  0  0  0  0  0  0  0  0  0  0  0
    2.3368   -1.4339    1.7826 H   0  0  0  0  0  0  0  0  0  0  0  0
   -0.6420    1.2199   -0.4410 C   0  0  0  0  0  0  0  0  0  0  0  0
    0.2243    2.0739   -0.2670 O   0  0  0  0  0  0  0  0  0  0  0  0
   -1.6811    1.4054   -1.2655 N   0  0  0  0  0  0  0  0  0  0  0  0
   -2.3473    0.6556   -1.3598 H   0  0  0  0  0  0  0  0  0  0  0  0
   -1.9031    2.6268   -2.0360 C   0  0  0  0  0  0  0  0  0  0  0  0
   -1.0485    2.8099   -2.6912 H   0  0  0  0  0  0  0  0  0  0  0  0
   -2.8064    2.5339   -2.6409 H   0  0  0  0  0  0  0  0  0  0  0  0
   -2.0082    3.4757   -1.3586 H   0  0  0  0  0  0  0  0  0  0  0  0
  5  6  2  0  0  0  0
  5  7  1  0  0  0  0
  2  3  1  0  0  0  0
  2  4  1  0  0  0  0
  2  5  1  0  0  0  0
  1  2  1  0  0  0  0
 24 25  2  0  0  0  0
 24 26  1  0  0  0  0
 20 21  1  0  0  0  0
 20 22  1  0  0  0  0
 20 23  1  0  0  0  0
 16 17  1  0  0  0  0
 16 18  1  0  0  0  0
 16 19  1  0  0  0  0
 14 15  1  0  0  0  0
 14 16  1  0  0  0  0
 14 20  1  0  0  0  0
 11 12  1  0  0  0  0
 11 13  1  0  0  0  0
 11 14  1  0  0  0  0
  9 10  1  0  0  0  0
  9 11  1  0  0  0  0
  9 24  1  0  0  0  0
  7  8  1  0  0  0  0
  7  9  1  0  0  0  0
 28 29  1  0  0  0  0
 28 30  1  0  0  0  0
 28 31  1  0  0  0  0
 26 27  1  0  0  0  0
 26 28  1  0  0  0  0
M  END
$$$$
default_name
  -OEChem-01062215323D

 31 30  0     1  0  0  0  0  0999 V2000
   -3.5895   -3.5013    1.1082 H   0  0  0  0  0  0  0  0  0  0  0  0
   -3.5145   -2.5363    0.6082 C   0  0  0  0  0  0  0  0  0  0  0  0
   -4.2285   -1.8413    1.0452 H   0  0  0  0  0  0  0  0  0  0  0  0
   -3.7155   -2.6583   -0.4538 H   0  0  0  0  0  0  0  0  0  0  0  0
   -2.1155   -1.9963    0.7922 C   0  0  0  0  0  0  0  0  0  0  0  0
   -1.2875   -2.6383    1.4252 O   0  0  0  0  0  0  0  0  0  0  0  0
   -1.8575   -0.8123    0.2402 N   0  0  0  0  0  0  0  0  0  0  0  0
   -2.6005   -0.3333   -0.2478 H   0  0  0  0  0  0  0  0  0  0  0  0
   -0.5675   -0.1203    0.3102 C   0  0  1  0  0  0  0  0  0  0  0  0
   -0.3473    0.0863    1.3581 H   0  0  0  0  0  0  0  0  0  0  0  0
    0.5224   -1.0545   -0.2559 C   0  0  0  0  0  0  0  0  0  0  0  0
    0.2400   -1.3456   -1.2695 H   0  0  0  0  0  0  0  0  0  0  0  0
    1.4528   -0.4862   -0.3222 H   0  0  0  0  0  0  0  0  0  0  0  0
    0.7982   -2.3320    0.5582 C   0  0  0  0  0  0  0  0  0  0  0  0
   -0.1357   -2.8663    0.7325 H   0  0  0  0  0  0  0  0  0  0  0  0
    1.7831   -3.2680   -0.1483 C   0  0  0  0  0  0  0  0  0  0  0  0
    2.7184   -2.7420   -0.3444 H   0  0  0  0  0  0  0  0  0  0  0  0
    1.9860   -4.1325    0.4841 H   0  0  0  0  0  0  0  0  0  0  0  0
    1.3694   -3.6204   -1.0907 H   0  0  0  0  0  0  0  0  0  0  0  0
    1.3912   -1.9603    1.9168 C   0  0  0  0  0  0  0  0  0  0  0  0
    0.6956   -1.3184    2.4573 H   0  0  0  0  0  0  0  0  0  0  0  0
    1.5616   -2.8614    2.5059 H   0  0  0  0  0  0  0  0  0  0  0  0
    2.3368   -1.4339    1.7826 H   0  0  0  0  0  0  0  0  0  0  0  0
   -0.6420    1.2199   -0.4410 C   0  0  0  0  0  0  0  0  0  0  0  0
    0.3410    1.9558   -0.4893 O   0  0  0  0  0  0  0  0  0  0  0  0
   -1.8092    1.5383   -1.0156 N   0  0  0  0  0  0  0  0  0  0  0  0
   -2.5678    0.8800   -0.9375 H   0  0  0  0  0  0  0  0  0  0  0  0
   -2.0454    2.7796   -1.7493 C   0  0  0  0  0  0  0  0  0  0  0  0
   -1.3453    2.8532   -2.5845 H   0  0  0  0  0  0  0  0  0  0  0  0
   -3.0665    2.8041   -2.1330 H   0  0  0  0  0  0  0  0  0  0  0  0
   -1.8875    3.6337   -1.0888 H   0  0  0  0  0  0  0  0  0  0  0  0
  5  6  2  0  0  0  0
  5  7  1  0  0  0  0
  2  3  1  0  0  0  0
  2  4  1  0  0  0  0
  2  5  1  0  0  0  0
  1  2  1  0  0  0  0
 24 25  2  0  0  0  0
 24 26  1  0  0  0  0
 20 21  1  0  0  0  0
 20 22  1  0  0  0  0
 20 23  1  0  0  0  0
 16 17  1  0  0  0  0
 16 18  1  0  0  0  0
 16 19  1  0  0  0  0
 14 15  1  0  0  0  0
 14 16  1  0  0  0  0
 14 20  1  0  0  0  0
 11 12  1  0  0  0  0
 11 13  1  0  0  0  0
 11 14  1  0  0  0  0
  9 10  1  0  0  0  0
  9 11  1  0  0  0  0
  9 24  1  0  0  0  0
  7  8  1  0  0  0  0
  7  9  1  0  0  0  0
 28 29  1  0  0  0  0
 28 30  1  0  0  0  0
 28 31  1  0  0  0  0
 26 27  1  0  0  0  0
 26 28  1  0  0  0  0
M  END
$$$$
default_name
  -OEChem-01062215323D

 31 30  0     1  0  0  0  0  0999 V2000
   -3.5895   -3.5013    1.1082 H   0  0  0  0  0  0  0  0  0  0  0  0
   -3.5145   -2.5363    0.6082 C   0  0  0  0  0  0  0  0  0  0  0  0
   -4.2285   -1.8413    1.0452 H   0  0  0  0  0  0  0  0  0  0  0  0
   -3.7155   -2.6583   -0.4538 H   0  0  0  0  0  0  0  0  0  0  0  0
   -2.1155   -1.9963    0.7922 C   0  0  0  0  0  0  0  0  0  0  0  0
   -1.2875   -2.6383    1.4252 O   0  0  0  0  0  0  0  0  0  0  0  0
   -1.8575   -0.8123    0.2402 N   0  0  0  0  0  0  0  0  0  0  0  0
   -2.6005   -0.3333   -0.2478 H   0  0  0  0  0  0  0  0  0  0  0  0
   -0.5675   -0.1203    0.3102 C   0  0  1  0  0  0  0  0  0  0  0  0
   -0.3473    0.0863    1.3581 H   0  0  0  0  0  0  0  0  0  0  0  0
    0.5224   -1.0545   -0.2559 C   0  0  0  0  0  0  0  0  0  0  0  0
    0.2400   -1.3456   -1.2695 H   0  0  0  0  0  0  0  0  0  0  0  0
    1.4528   -0.4862   -0.3222 H   0  0  0  0  0  0  0  0  0  0  0  0
    0.7982   -2.3320    0.5582 C   0  0  0  0  0  0  0  0  0  0  0  0
   -0.1357   -2.8663    0.7325 H   0  0  0  0  0  0  0  0  0  0  0  0
    1.7831   -3.2680   -0.1483 C   0  0  0  0  0  0  0  0  0  0  0  0
    2.7184   -2.7420   -0.3444 H   0  0  0  0  0  0  0  0  0  0  0  0
    1.9860   -4.1325    0.4841 H   0  0  0  0  0  0  0  0  0  0  0  0
    1.3694   -3.6204   -1.0907 H   0  0  0  0  0  0  0  0  0  0  0  0
    1.3912   -1.9603    1.9168 C   0  0  0  0  0  0  0  0  0  0  0  0
    0.6956   -1.3184    2.4573 H   0  0  0  0  0  0  0  0  0  0  0  0
    1.5616   -2.8614    2.5059 H   0  0  0  0  0  0  0  0  0  0  0  0
    2.3368   -1.4339    1.7826 H   0  0  0  0  0  0  0  0  0  0  0  0
   -0.6420    1.2199   -0.4410 C   0  0  0  0  0  0  0  0  0  0  0  0
    0.3886    1.8242   -0.7288 O   0  0  0  0  0  0  0  0  0  0  0  0
   -1.8598    1.6860   -0.7471 N   0  0  0  0  0  0  0  0  0  0  0  0
   -2.6572    1.1299   -0.4827 H   0  0  0  0  0  0  0  0  0  0  0  0
   -2.0989    2.9487   -1.4422 C   0  0  0  0  0  0  0  0  0  0  0  0
   -1.6024    2.9339   -2.4150 H   0  0  0  0  0  0  0  0  0  0  0  0
   -3.1690    3.1044   -1.5872 H   0  0  0  0  0  0  0  0  0  0  0  0
   -1.6902    3.7743   -0.8574 H   0  0  0  0  0  0  0  0  0  0  0  0
  5  6  2  0  0  0  0
  5  7  1  0  0  0  0
  2  3  1  0  0  0  0
  2  4  1  0  0  0  0
  2  5  1  0  0  0  0
  1  2  1  0  0  0  0
 24 25  2  0  0  0  0
 24 26  1  0  0  0  0
 20 21  1  0  0  0  0
 20 22  1  0  0  0  0
 20 23  1  0  0  0  0
 16 17  1  0  0  0  0
 16 18  1  0  0  0  0
 16 19  1  0  0  0  0
 14 15  1  0  0  0  0
 14 16  1  0  0  0  0
 14 20  1  0  0  0  0
 11 12  1  0  0  0  0
 11 13  1  0  0  0  0
 11 14  1  0  0  0  0
  9 10  1  0  0  0  0
  9 11  1  0  0  0  0
  9 24  1  0  0  0  0
  7  8  1  0  0  0  0
  7  9  1  0  0  0  0
 28 29  1  0  0  0  0
 28 30  1  0  0  0  0
 28 31  1  0  0  0  0
 26 27  1  0  0  0  0
 26 28  1  0  0  0  0
M  END
$$$$
default_name
  -OEChem-01062215323D

 31 30  0     1  0  0  0  0  0999 V2000
   -3.5895   -3.5013    1.1082 H   0  0  0  0  0  0  0  0  0  0  0  0
   -3.5145   -2.5363    0.6082 C   0  0  0  0  0  0  0  0  0  0  0  0
   -4.2285   -1.8413    1.0452 H   0  0  0  0  0  0  0  0  0  0  0  0
   -3.7155   -2.6583   -0.4538 H   0  0  0  0  0  0  0  0  0  0  0  0
   -2.1155   -1.9963    0.7922 C   0  0  0  0  0  0  0  0  0  0  0  0
   -1.2875   -2.6383    1.4252 O   0  0  0  0  0  0  0  0  0  0  0  0
   -1.8575   -0.8123    0.2402 N   0  0  0  0  0  0  0  0  0  0  0  0
   -2.6005   -0.3333   -0.2478 H   0  0  0  0  0  0  0  0  0  0  0  0
   -0.5675   -0.1203    0.3102 C   0  0  1  0  0  0  0  0  0  0  0  0
   -0.3473    0.0863    1.3581 H   0  0  0  0  0  0  0  0  0  0  0  0
    0.5224   -1.0545   -0.2559 C   0  0  0  0  0  0  0  0  0  0  0  0
    0.2400   -1.3456   -1.2695 H   0  0  0  0  0  0  0  0  0  0  0  0
    1.4528   -0.4862   -0.3222 H   0  0  0  0  0  0  0  0  0  0  0  0
    0.7982   -2.3320    0.5582 C   0  0  0  0  0  0  0  0  0  0  0  0
   -0.1357   -2.8663    0.7325 H   0  0  0  0  0  0  0  0  0  0  0  0
    1.7831   -3.2680   -0.1483 C   0  0  0  0  0  0  0  0  0  0  0  0
    2.7184   -2.7420   -0.3444 H   0  0  0  0  0  0  0  0  0  0  0  0
    1.9860   -4.1325    0.4841 H   0  0  0  0  0  0  0  0  0  0  0  0
    1.3694   -3.6204   -1.0907 H   0  0  0  0  0  0  0  0  0  0  0  0
    1.3912   -1.9603    1.9168 C   0  0  0  0  0  0  0  0  0  0  0  0
    0.6956   -1.3184    2.4573 H   0  0  0  0  0  0  0  0  0  0  0  0
    1.5616   -2.8614    2.5059 H   0  0  0  0  0  0  0  0  0  0  0  0
    2.3368   -1.4339    1.7826 H   0  0  0  0  0  0  0  0  0  0  0  0
   -0.6420    1.2199   -0.4410 C   0  0  0  0  0  0  0  0  0  0  0  0
    0.3640    1.6880   -0.9693 O   0  0  0  0  0  0  0  0  0  0  0  0
   -1.8294    1.8385   -0.4781 N   0  0  0  0  0  0  0  0  0  0  0  0
   -2.6093    1.3884   -0.0264 H   0  0  0  0  0  0  0  0  0  0  0  0
   -2.0599    3.1227   -1.1356 C   0  0  0  0  0  0  0  0  0  0  0  0
   -1.8023    3.0465   -2.1943 H   0  0  0  0  0  0  0  0  0  0  0  0
   -3.1070    3.4142   -1.0406 H   0  0  0  0  0  0  0  0  0  0  0  0
   -1.4296    3.8882   -0.6802 H   0  0  0  0  0  0  0  0  0  0  0  0
  5  6  2  0  0  0  0
  5  7  1  0  0  0  0
  2  3  1  0  0  0  0
  2  4  1  0  0  0  0
  2  5  1  0  0  0  0
  1  2  1  0  0  0  0
 24 25  2  0  0  0  0
 24 26  1  0  0  0  0
 20 21  1  0  0  0  0
 20 22  1  0  0  0  0
 20 23  1  0  0  0  0
 16 17  1  0  0  0  0
 16 18  1  0  0  0  0
 16 19  1  0  0  0  0
 14 15  1  0  0  0  0
 14 16  1  0  0  0  0
 14 20  1  0  0  0  0
 11 12  1  0  0  0  0
 11 13  1  0  0  0  0
 11 14  1  0  0  0  0
  9 10  1  0  0  0  0
  9 11  1  0  0  0  0
  9 24  1  0  0  0  0
  7  8  1  0  0  0  0
  7  9  1  0  0  0  0
 28 29  1  0  0  0  0
 28 30  1  0  0  0  0
 28 31  1  0  0  0  0
 26 27  1  0  0  0  0
 26 28  1  0  0  0  0
M  END
$$$$
default_name
  -OEChem-01062215323D

 31 30  0     1  0  0  0  0  0999 V2000
   -3.5895   -3.5013    1.1082 H   0  0  0  0  0  0  0  0  0  0  0  0
   -3.5145   -2.5363    0.6082 C   0  0  0  0  0  0  0  0  0  0  0  0
   -4.2285   -1.8413    1.0452 H   0  0  0  0  0  0  0  0  0  0  0  0
   -3.7155   -2.6583   -0.4538 H   0  0  0  0  0  0  0  0  0  0  0  0
   -2.1155   -1.9963    0.7922 C   0  0  0  0  0  0  0  0  0  0  0  0
   -1.2875   -2.6383    1.4252 O   0  0  0  0  0  0  0  0  0  0  0  0
   -1.8575   -0.8123    0.2402 N   0  0  0  0  0  0  0  0  0  0  0  0
   -2.6005   -0.3333   -0.2478 H   0  0  0  0  0  0  0  0  0  0  0  0
   -0.5675   -0.1203    0.3102 C   0  0  1  0  0  0  0  0  0  0  0  0
   -0.3473    0.0863    1.3581 H   0  0  0  0  0  0  0  0  0  0  0  0
    0.5224   -1.0545   -0.2559 C   0  0  0  0  0  0  0  0  0  0  0  0
    0.2400   -1.3456   -1.2695 H   0  0  0  0  0  0  0  0  0  0  0  0
    1.4528   -0.4862   -0.3222 H   0  0  0  0  0  0  0  0  0  0  0  0
    0.7982   -2.3320    0.5582 C   0  0  0  0  0  0  0  0  0  0  0  0
   -0.1357   -2.8663    0.7325 H   0  0  0  0  0  0  0  0  0  0  0  0
    1.7831   -3.2680   -0.1483 C   0  0  0  0  0  0  0  0  0  0  0  0
    2.7184   -2.7420   -0.3444 H   0  0  0  0  0  0  0  0  0  0  0  0
    1.9860   -4.1325    0.4841 H   0  0  0  0  0  0  0  0  0  0  0  0
    1.3694   -3.6204   -1.0907 H   0  0  0  0  0  0  0  0  0  0  0  0
    1.3912   -1.9603    1.9168 C   0  0  0  0  0  0  0  0  0  0  0  0
    0.6956   -1.3184    2.4573 H   0  0  0  0  0  0  0  0  0  0  0  0
    1.5616   -2.8614    2.5059 H   0  0  0  0  0  0  0  0  0  0  0  0
    2.3368   -1.4339    1.7826 H   0  0  0  0  0  0  0  0  0  0  0  0
   -0.6420    1.2199   -0.4410 C   0  0  0  0  0  0  0  0  0  0  0  0
    0.2687    1.5566   -1.1942 O   0  0  0  0  0  0  0  0  0  0  0  0
   -1.7201    1.9852   -0.2271 N   0  0  0  0  0  0  0  0  0  0  0  0
   -2.4276    1.6377    0.4004 H   0  0  0  0  0  0  0  0  0  0  0  0
   -1.9311    3.2897   -0.8504 C   0  0  0  0  0  0  0  0  0  0  0  0
   -1.9314    3.1832   -1.9375 H   0  0  0  0  0  0  0  0  0  0  0  0
   -2.8847    3.7124   -0.5305 H   0  0  0  0  0  0  0  0  0  0  0  0
   -1.1235    3.9674   -0.5692 H   0  0  0  0  0  0  0  0  0  0  0  0
  5  6  2  0  0  0  0
  5  7  1  0  0  0  0
  2  3  1  0  0  0  0
  2  4  1  0  0  0  0
  2  5  1  0  0  0  0
  1  2  1  0  0  0  0
 24 25  2  0  0  0  0
 24 26  1  0  0  0  0
 20 21  1  0  0  0  0
 20 22  1  0  0  0  0
 20 23  1  0  0  0  0
 16 17  1  0  0  0  0
 16 18  1  0  0  0  0
 16 19  1  0  0  0  0
 14 15  1  0  0  0  0
 14 16  1  0  0  0  0
 14 20  1  0  0  0  0
 11 12  1  0  0  0  0
 11 13  1  0  0  0  0
 11 14  1  0  0  0  0
  9 10  1  0  0  0  0
  9 11  1  0  0  0  0
  9 24  1  0  0  0  0
  7  8  1  0  0  0  0
  7  9  1  0  0  0  0
 28 29  1  0  0  0  0
 28 30  1  0  0  0  0
 28 31  1  0  0  0  0
 26 27  1  0  0  0  0
 26 28  1  0  0  0  0
M  END
$$$$
default_name
  -OEChem-01062215323D

 31 30  0     1  0  0  0  0  0999 V2000
   -3.5895   -3.5013    1.1082 H   0  0  0  0  0  0  0  0  0  0  0  0
   -3.5145   -2.5363    0.6082 C   0  0  0  0  0  0  0  0  0  0  0  0
   -4.2285   -1.8413    1.0452 H   0  0  0  0  0  0  0  0  0  0  0  0
   -3.7155   -2.6583   -0.4538 H   0  0  0  0  0  0  0  0  0  0  0  0
   -2.1155   -1.9963    0.7922 C   0  0  0  0  0  0  0  0  0  0  0  0
   -1.2875   -2.6383    1.4252 O   0  0  0  0  0  0  0  0  0  0  0  0
   -1.8575   -0.8123    0.2402 N   0  0  0  0  0  0  0  0  0  0  0  0
   -2.6005   -0.3333   -0.2478 H   0  0  0  0  0  0  0  0  0  0  0  0
   -0.5675   -0.1203    0.3102 C   0  0  1  0  0  0  0  0  0  0  0  0
   -0.3473    0.0863    1.3581 H   0  0  0  0  0  0  0  0  0  0  0  0
    0.5224   -1.0545   -0.2559 C   0  0  0  0  0  0  0  0  0  0  0  0
    0.2400   -1.3456   -1.2695 H   0  0  0  0  0  0  0  0  0  0  0  0
    1.4528   -0.4862   -0.3222 H   0  0  0  0  0  0  0  0  0  0  0  0
    0.7982   -2.3320    0.5582 C   0  0  0  0  0  0  0  0  0  0  0  0
   -0.1357   -2.8663    0.7325 H   0  0  0  0  0  0  0  0  0  0  0  0
    1.7831   -3.2680   -0.1483 C   0  0  0  0  0  0  0  0  0  0  0  0
    2.7184   -2.7420   -0.3444 H   0  0  0  0  0  0  0  0  0  0  0  0
    1.9860   -4.1325    0.4841 H   0  0  0  0  0  0  0  0  0  0  0  0
    1.3694   -3.6204   -1.0907 H   0  0  0  0  0  0  0  0  0  0  0  0
    1.3912   -1.9603    1.9168 C   0  0  0  0  0  0  0  0  0  0  0  0
    0.6956   -1.3184    2.4573 H   0  0  0  0  0  0  0  0  0  0  0  0
    1.5616   -2.8614    2.5059 H   0  0  0  0  0  0  0  0  0  0  0  0
    2.3368   -1.4339    1.7826 H   0  0  0  0  0  0  0  0  0  0  0  0
   -0.6420    1.2199   -0.4410 C   0  0  0  0  0  0  0  0  0  0  0  0
    0.1093    1.4389   -1.3885 O   0  0  0  0  0  0  0  0  0  0  0  0
   -1.5394    2.1164   -0.0111 N   0  0  0  0  0  0  0  0  0  0  0  0
   -2.1242    1.8608    0.7685 H   0  0  0  0  0  0  0  0  0  0  0  0
   -1.7213    3.4383   -0.6061 C   0  0  0  0  0  0  0  0  0  0  0  0
   -1.9810    3.3349   -1.6621 H   0  0  0  0  0  0  0  0  0  0  0  0
   -2.5173    3.9789   -0.0916 H   0  0  0  0  0  0  0  0  0  0  0  0
   -0.7928    4.0067   -0.5320 H   0  0  0  0  0  0  0  0  0  0  0  0
  5  6  2  0  0  0  0
  5  7  1  0  0  0  0
  2  3  1  0  0  0  0
  2  4  1  0  0  0  0
  2  5  1  0  0  0  0
  1  2  1  0  0  0  0
 24 25  2  0  0  0  0
 24 26  1  0  0  0  0
 20 21  1  0  0  0  0
 20 22  1  0  0  0  0
 20 23  1  0  0  0  0
 16 17  1  0  0  0  0
 16 18  1  0  0  0  0
 16 19  1  0  0  0  0
 14 15  1  0  0  0  0
 14 16  1  0  0  0  0
 14 20  1  0  0  0  0
 11 12  1  0  0  0  0
 11 13  1  0  0  0  0
 11 14  1  0  0  0  0
  9 10  1  0  0  0  0
  9 11  1  0  0  0  0
  9 24  1  0  0  0  0
  7  8  1  0  0  0  0
  7  9  1  0  0  0  0
 28 29  1  0  0  0  0
 28 30  1  0  0  0  0
 28 31  1  0  0  0  0
 26 27  1  0  0  0  0
 26 28  1  0  0  0  0
M  END
$$$$
default_name
  -OEChem-01062215323D

 31 30  0     1  0  0  0  0  0999 V2000
   -3.5895   -3.5013    1.1082 H   0  0  0  0  0  0  0  0  0  0  0  0
   -3.5145   -2.5363    0.6082 C   0  0  0  0  0  0  0  0  0  0  0  0
   -4.2285   -1.8413    1.0452 H   0  0  0  0  0  0  0  0  0  0  0  0
   -3.7155   -2.6583   -0.4538 H   0  0  0  0  0  0  0  0  0  0  0  0
   -2.1155   -1.9963    0.7922 C   0  0  0  0  0  0  0  0  0  0  0  0
   -1.2875   -2.6383    1.4252 O   0  0  0  0  0  0  0  0  0  0  0  0
   -1.8575   -0.8123    0.2402 N   0  0  0  0  0  0  0  0  0  0  0  0
   -2.6005   -0.3333   -0.2478 H   0  0  0  0  0  0  0  0  0  0  0  0
   -0.5675   -0.1203    0.3102 C   0  0  1  0  0  0  0  0  0  0  0  0
   -0.3473    0.0863    1.3581 H   0  0  0  0  0  0  0  0  0  0  0  0
    0.5224   -1.0545   -0.2559 C   0  0  0  0  0  0  0  0  0  0  0  0
    0.2400   -1.3456   -1.2695 H   0  0  0  0  0  0  0  0  0  0  0  0
    1.4528   -0.4862   -0.3222 H   0  0  0  0  0  0  0  0  0  0  0  0
    0.7982   -2.3320    0.5582 C   0  0  0  0  0  0  0  0  0  0  0  0
   -0.1357   -2.8663    0.7325 H   0  0  0  0  0  0  0  0  0  0  0  0
    1.7831   -3.2680   -0.1483 C   0  0  0  0  0  0  0  0  0  0  0  0
    2.7184   -2.7420   -0.3444 H   0  0  0  0  0  0  0  0  0  0  0  0
    1.9860   -4.1325    0.4841 H   0  0  0  0  0  0  0  0  0  0  0  0
    1.3694   -3.6204   -1.0907 H   0  0  0  0  0  0  0  0  0  0  0  0
    1.3912   -1.9603    1.9168 C   0  0  0  0  0  0  0  0  0  0  0  0
    0.6956   -1.3184    2.4573 H   0  0  0  0  0  0  0  0  0  0  0  0
    1.5616   -2.8614    2.5059 H   0  0  0  0  0  0  0  0  0  0  0  0
    2.3368   -1.4339    1.7826 H   0  0  0  0  0  0  0  0  0  0  0  0
   -0.6420    1.2199   -0.4410 C   0  0  0  0  0  0  0  0  0  0  0  0
   -0.1032    1.3429   -1.5386 O   0  0  0  0  0  0  0  0  0  0  0  0
   -1.2996    2.2229    0.1552 N   0  0  0  0  0  0  0  0  0  0  0  0
   -1.7200    2.0427    1.0528 H   0  0  0  0  0  0  0  0  0  0  0  0
   -1.4448    3.5584   -0.4193 C   0  0  0  0  0  0  0  0  0  0  0  0
   -1.9475    3.4910   -1.3867 H   0  0  0  0  0  0  0  0  0  0  0  0
   -2.0297    4.1953    0.2460 H   0  0  0  0  0  0  0  0  0  0  0  0
   -0.4601    4.0033   -0.5711 H   0  0  0  0  0  0  0  0  0  0  0  0
  5  6  2  0  0  0  0
  5  7  1  0  0  0  0
  2  3  1  0  0  0  0
  2  4  1  0  0  0  0
  2  5  1  0  0  0  0
  1  2  1  0  0  0  0
 24 25  2  0  0  0  0
 24 26  1  0  0  0  0
 20 21  1  0  0  0  0
 20 22  1  0  0  0  0
 20 23  1  0  0  0  0
 16 17  1  0  0  0  0
 16 18  1  0  0  0  0
 16 19  1  0  0  0  0
 14 15  1  0  0  0  0
 14 16  1  0  0  0  0
 14 20  1  0  0  0  0
 11 12  1  0  0  0  0
 11 13  1  0  0  0  0
 11 14  1  0  0  0  0
  9 10  1  0  0  0  0
  9 11  1  0  0  0  0
  9 24  1  0  0  0  0
  7  8  1  0  0  0  0
  7  9  1  0  0  0  0
 28 29  1  0  0  0  0
 28 30  1  0  0  0  0
 28 31  1  0  0  0  0
 26 27  1  0  0  0  0
 26 28  1  0  0  0  0
M  END
$$$$
default_name
  -OEChem-01062215323D

 31 30  0     1  0  0  0  0  0999 V2000
   -3.5895   -3.5013    1.1082 H   0  0  0  0  0  0  0  0  0  0  0  0
   -3.5145   -2.5363    0.6082 C   0  0  0  0  0  0  0  0  0  0  0  0
   -4.2285   -1.8413    1.0452 H   0  0  0  0  0  0  0  0  0  0  0  0
   -3.7155   -2.6583   -0.4538 H   0  0  0  0  0  0  0  0  0  0  0  0
   -2.1155   -1.9963    0.7922 C   0  0  0  0  0  0  0  0  0  0  0  0
   -1.2875   -2.6383    1.4252 O   0  0  0  0  0  0  0  0  0  0  0  0
   -1.8575   -0.8123    0.2402 N   0  0  0  0  0  0  0  0  0  0  0  0
   -2.6005   -0.3333   -0.2478 H   0  0  0  0  0  0  0  0  0  0  0  0
   -0.5675   -0.1203    0.3102 C   0  0  1  0  0  0  0  0  0  0  0  0
   -0.3473    0.0863    1.3581 H   0  0  0  0  0  0  0  0  0  0  0  0
    0.5224   -1.0545   -0.2559 C   0  0  0  0  0  0  0  0  0  0  0  0
    0.2400   -1.3456   -1.2695 H   0  0  0  0  0  0  0  0  0  0  0  0
    1.4528   -0.4862   -0.3222 H   0  0  0  0  0  0  0  0  0  0  0  0
    0.7982   -2.3320    0.5582 C   0  0  0  0  0  0  0  0  0  0  0  0
   -0.1357   -2.8663    0.7325 H   0  0  0  0  0  0  0  0  0  0  0  0
    1.7831   -3.2680   -0.1483 C   0  0  0  0  0  0  0  0  0  0  0  0
    2.7184   -2.7420   -0.3444 H   0  0  0  0  0  0  0  0  0  0  0  0
    1.9860   -4.1325    0.4841 H   0  0  0  0  0  0  0  0  0  0  0  0
    1.3694   -3.6204   -1.0907 H   0  0  0  0  0  0  0  0  0  0  0  0
    1.3912   -1.9603    1.9168 C   0  0  0  0  0  0  0  0  0  0  0  0
    0.6956   -1.3184    2.4573 H   0  0  0  0  0  0  0  0  0  0  0  0
    1.5616   -2.8614    2.5059 H   0  0  0  0  0  0  0  0  0  0  0  0
    2.3368   -1.4339    1.7826 H   0  0  0  0  0  0  0  0  0  0  0  0
   -0.6420    1.2199   -0.4410 C   0  0  0  0  0  0  0  0  0  0  0  0
   -0.3546    1.2752   -1.6345 O   0  0  0  0  0  0  0  0  0  0  0  0
   -1.0170    2.2976    0.2603 N   0  0  0  0  0  0  0  0  0  0  0  0
   -1.2425    2.1708    1.2340 H   0  0  0  0  0  0  0  0  0  0  0  0
   -1.1204    3.6418   -0.3027 C   0  0  0  0  0  0  0  0  0  0  0  0
   -1.8334    3.6411   -1.1303 H   0  0  0  0  0  0  0  0  0  0  0  0
   -1.4553    4.3469    0.4596 H   0  0  0  0  0  0  0  0  0  0  0  0
   -0.1479    3.9574   -0.6839 H   0  0  0  0  0  0  0  0  0  0  0  0
  5  6  2  0  0  0  0
  5  7  1  0  0  0  0
  2  3  1  0  0  0  0
  2  4  1  0  0  0  0
  2  5  1  0  0  0  0
  1  2  1  0  0  0  0
 24 25  2  0  0  0  0
 24 26  1  0  0  0  0
 20 21  1  0  0  0  0
 20 22  1  0  0  0  0
 20 23  1  0  0  0  0
 16 17  1  0  0  0  0
 16 18  1  0  0  0  0
 16 19  1  0  0  0  0
 14 15  1  0  0  0  0
 14 16  1  0  0  0  0
 14 20  1  0  0  0  0
 11 12  1  0  0  0  0
 11 13  1  0  0  0  0
 11 14  1  0  0  0  0
  9 10  1  0  0  0  0
  9 11  1  0  0  0  0
  9 24  1  0  0  0  0
  7  8  1  0  0  0  0
  7  9  1  0  0  0  0
 28 29  1  0  0  0  0
 28 30  1  0  0  0  0
 28 31  1  0  0  0  0
 26 27  1  0  0  0  0
 26 28  1  0  0  0  0
M  END
$$$$
default_name
  -OEChem-01062215323D

 31 30  0     1  0  0  0  0  0999 V2000
   -3.5895   -3.5013    1.1082 H   0  0  0  0  0  0  0  0  0  0  0  0
   -3.5145   -2.5363    0.6082 C   0  0  0  0  0  0  0  0  0  0  0  0
   -4.2285   -1.8413    1.0452 H   0  0  0  0  0  0  0  0  0  0  0  0
   -3.7155   -2.6583   -0.4538 H   0  0  0  0  0  0  0  0  0  0  0  0
   -2.1155   -1.9963    0.7922 C   0  0  0  0  0  0  0  0  0  0  0  0
   -1.2875   -2.6383    1.4252 O   0  0  0  0  0  0  0  0  0  0  0  0
   -1.8575   -0.8123    0.2402 N   0  0  0  0  0  0  0  0  0  0  0  0
   -2.6005   -0.3333   -0.2478 H   0  0  0  0  0  0  0  0  0  0  0  0
   -0.5675   -0.1203    0.3102 C   0  0  1  0  0  0  0  0  0  0  0  0
   -0.3473    0.0863    1.3581 H   0  0  0  0  0  0  0  0  0  0  0  0
    0.5224   -1.0545   -0.2559 C   0  0  0  0  0  0  0  0  0  0  0  0
    0.2400   -1.3456   -1.2695 H   0  0  0  0  0  0  0  0  0  0  0  0
    1.4528   -0.4862   -0.3222 H   0  0  0  0  0  0  0  0  0  0  0  0
    0.7982   -2.3320    0.5582 C   0  0  0  0  0  0  0  0  0  0  0  0
   -0.1357   -2.8663    0.7325 H   0  0  0  0  0  0  0  0  0  0  0  0
    1.7831   -3.2680   -0.1483 C   0  0  0  0  0  0  0  0  0  0  0  0
    2.7184   -2.7420   -0.3444 H   0  0  0  0  0  0  0  0  0  0  0  0
    1.9860   -4.1325    0.4841 H   0  0  0  0  0  0  0  0  0  0  0  0
    1.3694   -3.6204   -1.0907 H   0  0  0  0  0  0  0  0  0  0  0  0
    1.3912   -1.9603    1.9168 C   0  0  0  0  0  0  0  0  0  0  0  0
    0.6956   -1.3184    2.4573 H   0  0  0  0  0  0  0  0  0  0  0  0
    1.5616   -2.8614    2.5059 H   0  0  0  0  0  0  0  0  0  0  0  0
    2.3368   -1.4339    1.7826 H   0  0  0  0  0  0  0  0  0  0  0  0
   -0.6420    1.2199   -0.4410 C   0  0  0  0  0  0  0  0  0  0  0  0
   -0.6276    1.2403   -1.6696 O   0  0  0  0  0  0  0  0  0  0  0  0
   -0.7108    2.3353    0.2973 N   0  0  0  0  0  0  0  0  0  0  0  0
   -0.7242    2.2365    1.2998 H   0  0  0  0  0  0  0  0  0  0  0  0
   -0.7702    3.6828   -0.2643 C   0  0  0  0  0  0  0  0  0  0  0  0
   -1.6463    3.7749   -0.9102 H   0  0  0  0  0  0  0  0  0  0  0  0
   -0.8331    4.4234    0.5344 H   0  0  0  0  0  0  0  0  0  0  0  0
    0.1224    3.8723   -0.8626 H   0  0  0  0  0  0  0  0  0  0  0  0
  5  6  2  0  0  0  0
  5  7  1  0  0  0  0
  2  3  1  0  0  0  0
  2  4  1  0  0  0  0
  2  5  1  0  0  0  0
  1  2  1  0  0  0  0
 24 25  2  0  0  0  0
 24 26  1  0  0  0  0
 20 21  1  0  0  0  0
 20 22  1  0  0  0  0
 20 23  1  0  0  0  0
 16 17  1  0  0  0  0
 16 18  1  0  0  0  0
 16 19  1  0  0  0  0
 14 15  1  0  0  0  0
 14 16  1  0  0  0  0
 14 20  1  0  0  0  0
 11 12  1  0  0  0  0
 11 13  1  0  0  0  0
 11 14  1  0  0  0  0
  9 10  1  0  0  0  0
  9 11  1  0  0  0  0
  9 24  1  0  0  0  0
  7  8  1  0  0  0  0
  7  9  1  0  0  0  0
 28 29  1  0  0  0  0
 28 30  1  0  0  0  0
 28 31  1  0  0  0  0
 26 27  1  0  0  0  0
 26 28  1  0  0  0  0
M  END
$$$$
default_name
  -OEChem-01062215323D

 31 30  0     1  0  0  0  0  0999 V2000
   -3.5895   -3.5013    1.1082 H   0  0  0  0  0  0  0  0  0  0  0  0
   -3.5145   -2.5363    0.6082 C   0  0  0  0  0  0  0  0  0  0  0  0
   -4.2285   -1.8413    1.0452 H   0  0  0  0  0  0  0  0  0  0  0  0
   -3.7155   -2.6583   -0.4538 H   0  0  0  0  0  0  0  0  0  0  0  0
   -2.1155   -1.9963    0.7922 C   0  0  0  0  0  0  0  0  0  0  0  0
   -1.2875   -2.6383    1.4252 O   0  0  0  0  0  0  0  0  0  0  0  0
   -1.8575   -0.8123    0.2402 N   0  0  0  0  0  0  0  0  0  0  0  0
   -2.6005   -0.3333   -0.2478 H   0  0  0  0  0  0  0  0  0  0  0  0
   -0.5675   -0.1203    0.3102 C   0  0  1  0  0  0  0  0  0  0  0  0
   -0.3473    0.0863    1.3581 H   0  0  0  0  0  0  0  0  0  0  0  0
    0.5224   -1.0545   -0.2559 C   0  0  0  0  0  0  0  0  0  0  0  0
    0.2400   -1.3456   -1.2695 H   0  0  0  0  0  0  0  0  0  0  0  0
    1.4528   -0.4862   -0.3222 H   0  0  0  0  0  0  0  0  0  0  0  0
    0.7982   -2.3320    0.5582 C   0  0  0  0  0  0  0  0  0  0  0  0
   -0.1357   -2.8663    0.7325 H   0  0  0  0  0  0  0  0  0  0  0  0
    1.7831   -3.2680   -0.1483 C   0  0  0  0  0  0  0  0  0  0  0  0
    2.7184   -2.7420   -0.3444 H   0  0  0  0  0  0  0  0  0  0  0  0
    1.9860   -4.1325    0.4841 H   0  0  0  0  0  0  0  0  0  0  0  0
    1.3694   -3.6204   -1.0907 H   0  0  0  0  0  0  0  0  0  0  0  0
    1.3912   -1.9603    1.9168 C   0  0  0  0  0  0  0  0  0  0  0  0
    0.6956   -1.3184    2.4573 H   0  0  0  0  0  0  0  0  0  0  0  0
    1.5616   -2.8614    2.5059 H   0  0  0  0  0  0  0  0  0  0  0  0
    2.3368   -1.4339    1.7826 H   0  0  0  0  0  0  0  0  0  0  0  0
   -0.6420    1.2199   -0.4410 C   0  0  0  0  0  0  0  0  0  0  0  0
   -0.9036    1.2407   -1.6416 O   0  0  0  0  0  0  0  0  0  0  0  0
   -0.4021    2.3335    0.2634 N   0  0  0  0  0  0  0  0  0  0  0  0
   -0.2004    2.2353    1.2456 H   0  0  0  0  0  0  0  0  0  0  0  0
   -0.4181    3.6786   -0.3067 C   0  0  0  0  0  0  0  0  0  0  0  0
   -1.3991    3.8832   -0.7414 H   0  0  0  0  0  0  0  0  0  0  0  0
   -0.2055    4.4197    0.4653 H   0  0  0  0  0  0  0  0  0  0  0  0
    0.3324    3.7536   -1.0952 H   0  0  0  0  0  0  0  0  0  0  0  0
  5  6  2  0  0  0  0
  5  7  1  0  0  0  0
  2  3  1  0  0  0  0
  2  4  1  0  0  0  0
  2  5  1  0  0  0  0
  1  2  1  0  0  0  0
 24 25  2  0  0  0  0
 24 26  1  0  0  0  0
 20 21  1  0  0  0  0
 20 22  1  0  0  0  0
 20 23  1  0  0  0  0
 16 17  1  0  0  0  0
 16 18  1  0  0  0  0
 16 19  1  0  0  0  0
 14 15  1  0  0  0  0
 14 16  1  0  0  0  0
 14 20  1  0  0  0  0
 11 12  1  0  0  0  0
 11 13  1  0  0  0  0
 11 14  1  0  0  0  0
  9 10  1  0  0  0  0
  9 11  1  0  0  0  0
  9 24  1  0  0  0  0
  7  8  1  0  0  0  0
  7  9  1  0  0  0  0
 28 29  1  0  0  0  0
 28 30  1  0  0  0  0
 28 31  1  0  0  0  0
 26 27  1  0  0  0  0
 26 28  1  0  0  0  0
M  END
$$$$
default_name
  -OEChem-01062215323D

 31 30  0     1  0  0  0  0  0999 V2000
   -3.5895   -3.5013    1.1082 H   0  0  0  0  0  0  0  0  0  0  0  0
   -3.5145   -2.5363    0.6082 C   0  0  0  0  0  0  0  0  0  0  0  0
   -4.2285   -1.8413    1.0452 H   0  0  0  0  0  0  0  0  0  0  0  0
   -3.7155   -2.6583   -0.4538 H   0  0  0  0  0  0  0  0  0  0  0  0
   -2.1155   -1.9963    0.7922 C   0  0  0  0  0  0  0  0  0  0  0  0
   -1.2875   -2.6383    1.4252 O   0  0  0  0  0  0  0  0  0  0  0  0
   -1.8575   -0.8123    0.2402 N   0  0  0  0  0  0  0  0  0  0  0  0
   -2.6005   -0.3333   -0.2478 H   0  0  0  0  0  0  0  0  0  0  0  0
   -0.5675   -0.1203    0.3102 C   0  0  1  0  0  0  0  0  0  0  0  0
   -0.3473    0.0863    1.3581 H   0  0  0  0  0  0  0  0  0  0  0  0
    0.5224   -1.0545   -0.2559 C   0  0  0  0  0  0  0  0  0  0  0  0
    0.2400   -1.3456   -1.2695 H   0  0  0  0  0  0  0  0  0  0  0  0
    1.4528   -0.4862   -0.3222 H   0  0  0  0  0  0  0  0  0  0  0  0
    0.7982   -2.3320    0.5582 C   0  0  0  0  0  0  0  0  0  0  0  0
   -0.1357   -2.8663    0.7325 H   0  0  0  0  0  0  0  0  0  0  0  0
    1.7831   -3.2680   -0.1483 C   0  0  0  0  0  0  0  0  0  0  0  0
    2.7184   -2.7420   -0.3444 H   0  0  0  0  0  0  0  0  0  0  0  0
    1.9860   -4.1325    0.4841 H   0  0  0  0  0  0  0  0  0  0  0  0
    1.3694   -3.6204   -1.0907 H   0  0  0  0  0  0  0  0  0  0  0  0
    1.3912   -1.9603    1.9168 C   0  0  0  0  0  0  0  0  0  0  0  0
    0.6956   -1.3184    2.4573 H   0  0  0  0  0  0  0  0  0  0  0  0
    1.5616   -2.8614    2.5059 H   0  0  0  0  0  0  0  0  0  0  0  0
    2.3368   -1.4339    1.7826 H   0  0  0  0  0  0  0  0  0  0  0  0
   -0.6420    1.2199   -0.4410 C   0  0  0  0  0  0  0  0  0  0  0  0
   -1.1638    1.2763   -1.5522 O   0  0  0  0  0  0  0  0  0  0  0  0
   -0.1116    2.2923    0.1611 N   0  0  0  0  0  0  0  0  0  0  0  0
    0.2932    2.1672    1.0751 H   0  0  0  0  0  0  0  0  0  0  0  0
   -0.0881    3.6296   -0.4270 C   0  0  0  0  0  0  0  0  0  0  0  0
   -1.1085    3.9587   -0.6356 H   0  0  0  0  0  0  0  0  0  0  0  0
    0.3846    4.3359    0.2572 H   0  0  0  0  0  0  0  0  0  0  0  0
    0.4679    3.6095   -1.3657 H   0  0  0  0  0  0  0  0  0  0  0  0
  5  6  2  0  0  0  0
  5  7  1  0  0  0  0
  2  3  1  0  0  0  0
  2  4  1  0  0  0  0
  2  5  1  0  0  0  0
  1  2  1  0  0  0  0
 24 25  2  0  0  0  0
 24 26  1  0  0  0  0
 20 21  1  0  0  0  0
 20 22  1  0  0  0  0
 20 23  1  0  0  0  0
 16 17  1  0  0  0  0
 16 18  1  0  0  0  0
 16 19  1  0  0  0  0
 14 15  1  0  0  0  0
 14 16  1  0  0  0  0
 14 20  1  0  0  0  0
 11 12  1  0  0  0  0
 11 13  1  0  0  0  0
 11 14  1  0  0  0  0
  9 10  1  0  0  0  0
  9 11  1  0  0  0  0
  9 24  1  0  0  0  0
  7  8  1  0  0  0  0
  7  9  1  0  0  0  0
 28 29  1  0  0  0  0
 28 30  1  0  0  0  0
 28 31  1  0  0  0  0
 26 27  1  0  0  0  0
 26 28  1  0  0  0  0
M  END
$$$$
default_name
  -OEChem-01062215323D

 31 30  0     1  0  0  0  0  0999 V2000
   -3.5895   -3.5013    1.1082 H   0  0  0  0  0  0  0  0  0  0  0  0
   -3.5145   -2.5363    0.6082 C   0  0  0  0  0  0  0  0  0  0  0  0
   -4.2285   -1.8413    1.0452 H   0  0  0  0  0  0  0  0  0  0  0  0
   -3.7155   -2.6583   -0.4538 H   0  0  0  0  0  0  0  0  0  0  0  0
   -2.1155   -1.9963    0.7922 C   0  0  0  0  0  0  0  0  0  0  0  0
   -1.2875   -2.6383    1.4252 O   0  0  0  0  0  0  0  0  0  0  0  0
   -1.8575   -0.8123    0.2402 N   0  0  0  0  0  0  0  0  0  0  0  0
   -2.6005   -0.3333   -0.2478 H   0  0  0  0  0  0  0  0  0  0  0  0
   -0.5675   -0.1203    0.3102 C   0  0  1  0  0  0  0  0  0  0  0  0
   -0.3473    0.0863    1.3581 H   0  0  0  0  0  0  0  0  0  0  0  0
    0.5224   -1.0545   -0.2559 C   0  0  0  0  0  0  0  0  0  0  0  0
    0.2400   -1.3456   -1.2695 H   0  0  0  0  0  0  0  0  0  0  0  0
    1.4528   -0.4862   -0.3222 H   0  0  0  0  0  0  0  0  0  0  0  0
    0.7982   -2.3320    0.5582 C   0  0  0  0  0  0  0  0  0  0  0  0
   -0.1357   -2.8663    0.7325 H   0  0  0  0  0  0  0  0  0  0  0  0
    1.7831   -3.2680   -0.1483 C   0  0  0  0  0  0  0  0  0  0  0  0
    2.7184   -2.7420   -0.3444 H   0  0  0  0  0  0  0  0  0  0  0  0
    1.9860   -4.1325    0.4841 H   0  0  0  0  0  0  0  0  0  0  0  0
    1.3694   -3.6204   -1.0907 H   0  0  0  0  0  0  0  0  0  0  0  0
    1.3912   -1.9603    1.9168 C   0  0  0  0  0  0  0  0  0  0  0  0
    0.6956   -1.3184    2.4573 H   0  0  0  0  0  0  0  0  0  0  0  0
    1.5616   -2.8614    2.5059 H   0  0  0  0  0  0  0  0  0  0  0  0
    2.3368   -1.4339    1.7826 H   0  0  0  0  0  0  0  0  0  0  0  0
   -0.6420    1.2199   -0.4410 C   0  0  0  0  0  0  0  0  0  0  0  0
   -1.3905    1.3447   -1.4076 O   0  0  0  0  0  0  0  0  0  0  0  0
    0.1406    2.2145   -0.0027 N   0  0  0  0  0  0  0  0  0  0  0  0
    0.7229    2.0369    0.8000 H   0  0  0  0  0  0  0  0  0  0  0  0
    0.1973    3.5390   -0.6170 C   0  0  0  0  0  0  0  0  0  0  0  0
   -0.7945    3.9963   -0.5998 H   0  0  0  0  0  0  0  0  0  0  0  0
    0.8971    4.1777   -0.0759 H   0  0  0  0  0  0  0  0  0  0  0  0
    0.5194    3.4498   -1.6558 H   0  0  0  0  0  0  0  0  0  0  0  0
  5  6  2  0  0  0  0
  5  7  1  0  0  0  0
  2  3  1  0  0  0  0
  2  4  1  0  0  0  0
  2  5  1  0  0  0  0
  1  2  1  0  0  0  0
 24 25  2  0  0  0  0
 24 26  1  0  0  0  0
 20 21  1  0  0  0  0
 20 22  1  0  0  0  0
 20 23  1  0  0  0  0
 16 17  1  0  0  0  0
 16 18  1  0  0  0  0
 16 19  1  0  0  0  0
 14 15  1  0  0  0  0
 14 16  1  0  0  0  0
 14 20  1  0  0  0  0
 11 12  1  0  0  0  0
 11 13  1  0  0  0  0
 11 14  1  0  0  0  0
  9 10  1  0  0  0  0
  9 11  1  0  0  0  0
  9 24  1  0  0  0  0
  7  8  1  0  0  0  0
  7  9  1  0  0  0  0
 28 29  1  0  0  0  0
 28 30  1  0  0  0  0
 28 31  1  0  0  0  0
 26 27  1  0  0  0  0
 26 28  1  0  0  0  0
M  END
$$$$
default_name
  -OEChem-01062215323D

 31 30  0     1  0  0  0  0  0999 V2000
   -3.5895   -3.5013    1.1082 H   0  0  0  0  0  0  0  0  0  0  0  0
   -3.5145   -2.5363    0.6082 C   0  0  0  0  0  0  0  0  0  0  0  0
   -4.2285   -1.8413    1.0452 H   0  0  0  0  0  0  0  0  0  0  0  0
   -3.7155   -2.6583   -0.4538 H   0  0  0  0  0  0  0  0  0  0  0  0
   -2.1155   -1.9963    0.7922 C   0  0  0  0  0  0  0  0  0  0  0  0
   -1.2875   -2.6383    1.4252 O   0  0  0  0  0  0  0  0  0  0  0  0
   -1.8575   -0.8123    0.2402 N   0  0  0  0  0  0  0  0  0  0  0  0
   -2.6005   -0.3333   -0.2478 H   0  0  0  0  0  0  0  0  0  0  0  0
   -0.5675   -0.1203    0.3102 C   0  0  1  0  0  0  0  0  0  0  0  0
   -0.3473    0.0863    1.3581 H   0  0  0  0  0  0  0  0  0  0  0  0
    0.5224   -1.0545   -0.2559 C   0  0  0  0  0  0  0  0  0  0  0  0
    0.2400   -1.3456   -1.2695 H   0  0  0  0  0  0  0  0  0  0  0  0
    1.4528   -0.4862   -0.3222 H   0  0  0  0  0  0  0  0  0  0  0  0
    0.7982   -2.3320    0.5582 C   0  0  0  0  0  0  0  0  0  0  0  0
   -0.1357   -2.8663    0.7325 H   0  0  0  0  0  0  0  0  0  0  0  0
    1.7831   -3.2680   -0.1483 C   0  0  0  0  0  0  0  0  0  0  0  0
    2.7184   -2.7420   -0.3444 H   0  0  0  0  0  0  0  0  0  0  0  0
    1.9860   -4.1325    0.4841 H   0  0  0  0  0  0  0  0  0  0  0  0
    1.3694   -3.6204   -1.0907 H   0  0  0  0  0  0  0  0  0  0  0  0
    1.3912   -1.9603    1.9168 C   0  0  0  0  0  0  0  0  0  0  0  0
    0.6956   -1.3184    2.4573 H   0  0  0  0  0  0  0  0  0  0  0  0
    1.5616   -2.8614    2.5059 H   0  0  0  0  0  0  0  0  0  0  0  0
    2.3368   -1.4339    1.7826 H   0  0  0  0  0  0  0  0  0  0  0  0
   -0.6420    1.2199   -0.4410 C   0  0  0  0  0  0  0  0  0  0  0  0
   -1.5682    1.4412   -1.2178 O   0  0  0  0  0  0  0  0  0  0  0  0
    0.3375    2.1055   -0.2168 N   0  0  0  0  0  0  0  0  0  0  0  0
    1.0594    1.8533    0.4390 H   0  0  0  0  0  0  0  0  0  0  0  0
    0.4188    3.4130   -0.8638 C   0  0  0  0  0  0  0  0  0  0  0  0
   -0.4783    3.9933   -0.6365 H   0  0  0  0  0  0  0  0  0  0  0  0
    1.2970    3.9560   -0.5112 H   0  0  0  0  0  0  0  0  0  0  0  0
    0.4837    3.2854   -1.9455 H   0  0  0  0  0  0  0  0  0  0  0  0
  5  6  2  0  0  0  0
  5  7  1  0  0  0  0
  2  3  1  0  0  0  0
  2  4  1  0  0  0  0
  2  5  1  0  0  0  0
  1  2  1  0  0  0  0
 24 25  2  0  0  0  0
 24 26  1  0  0  0  0
 20 21  1  0  0  0  0
 20 22  1  0  0  0  0
 20 23  1  0  0  0  0
 16 17  1  0  0  0  0
 16 18  1  0  0  0  0
 16 19  1  0  0  0  0
 14 15  1  0  0  0  0
 14 16  1  0  0  0  0
 14 20  1  0  0  0  0
 11 12  1  0  0  0  0
 11 13  1  0  0  0  0
 11 14  1  0  0  0  0
  9 10  1  0  0  0  0
  9 11  1  0  0  0  0
  9 24  1  0  0  0  0
  7  8  1  0  0  0  0
  7  9  1  0  0  0  0
 28 29  1  0  0  0  0
 28 30  1  0  0  0  0
 28 31  1  0  0  0  0
 26 27  1  0  0  0  0
 26 28  1  0  0  0  0
M  END
$$$$
default_name
  -OEChem-01062215323D

 31 30  0     1  0  0  0  0  0999 V2000
   -3.5895   -3.5013    1.1082 H   0  0  0  0  0  0  0  0  0  0  0  0
   -3.5145   -2.5363    0.6082 C   0  0  0  0  0  0  0  0  0  0  0  0
   -4.2285   -1.8413    1.0452 H   0  0  0  0  0  0  0  0  0  0  0  0
   -3.7155   -2.6583   -0.4538 H   0  0  0  0  0  0  0  0  0  0  0  0
   -2.1155   -1.9963    0.7922 C   0  0  0  0  0  0  0  0  0  0  0  0
   -1.2875   -2.6383    1.4252 O   0  0  0  0  0  0  0  0  0  0  0  0
   -1.8575   -0.8123    0.2402 N   0  0  0  0  0  0  0  0  0  0  0  0
   -2.6005   -0.3333   -0.2478 H   0  0  0  0  0  0  0  0  0  0  0  0
   -0.5675   -0.1203    0.3102 C   0  0  1  0  0  0  0  0  0  0  0  0
   -0.2191   -0.1513    1.3431 H   0  0  0  0  0  0  0  0  0  0  0  0
    0.4424   -0.8724   -0.5819 C   0  0  0  0  0  0  0  0  0  0  0  0
    0.0363   -0.9331   -1.5934 H   0  0  0  0  0  0  0  0  0  0  0  0
    1.3584   -0.2793   -0.6283 H   0  0  0  0  0  0  0  0  0  0  0  0
    0.8144   -2.2935   -0.1207 C   0  0  0  0  0  0  0  0  0  0  0  0
   -0.0918   -2.8780    0.0383 H   0  0  0  0  0  0  0  0  0  0  0  0
    1.7027   -3.0182   -1.1361 C   0  0  0  0  0  0  0  0  0  0  0  0
    2.6076   -2.4368   -1.3182 H   0  0  0  0  0  0  0  0  0  0  0  0
    1.9807   -3.9981   -0.7474 H   0  0  0  0  0  0  0  0  0  0  0  0
    1.1750   -3.1583   -2.0771 H   0  0  0  0  0  0  0  0  0  0  0  0
    1.5715   -2.2245    1.2050 C   0  0  0  0  0  0  0  0  0  0  0  0
    0.9492   -1.7406    1.9579 H   0  0  0  0  0  0  0  0  0  0  0  0
    1.8118   -3.2309    1.5476 H   0  0  0  0  0  0  0  0  0  0  0  0
    2.4942   -1.6564    1.0816 H   0  0  0  0  0  0  0  0  0  0  0  0
   -0.7319    1.3530   -0.1001 C   0  0  0  0  0  0  0  0  0  0  0  0
   -1.8347    1.7817   -0.4322 O   0  0  0  0  0  0  0  0  0  0  0  0
    0.3653    2.1209   -0.0867 N   0  0  0  0  0  0  0  0  0  0  0  0
    1.2326    1.6982    0.2034 H   0  0  0  0  0  0  0  0  0  0  0  0
    0.3779    3.5323   -0.4644 C   0  0  0  0  0  0  0  0  0  0  0  0
   -0.3074    4.0916    0.1764 H   0  0  0  0  0  0  0  0  0  0  0  0
    1.3833    3.9431   -0.3604 H   0  0  0  0  0  0  0  0  0  0  0  0
    0.0495    3.6396   -1.4994 H   0  0  0  0  0  0  0  0  0  0  0  0
  5  6  2  0  0  0  0
  5  7  1  0  0  0  0
  2  3  1  0  0  0  0
  2  4  1  0  0  0  0
  2  5  1  0  0  0  0
  1  2  1  0  0  0  0
 24 25  2  0  0  0  0
 24 26  1  0  0  0  0
 20 21  1  0  0  0  0
 20 22  1  0  0  0  0
 20 23  1  0  0  0  0
 16 17  1  0  0  0  0
 16 18  1  0  0  0  0
 16 19  1  0  0  0  0
 14 15  1  0  0  0  0
 14 16  1  0  0  0  0
 14 20  1  0  0  0  0
 11 12  1  0  0  0  0
 11 13  1  0  0  0  0
 11 14  1  0  0  0  0
  9 10  1  0  0  0  0
  9 11  1  0  0  0  0
  9 24  1  0  0  0  0
  7  8  1  0  0  0  0
  7  9  1  0  0  0  0
 28 29  1  0  0  0  0
 28 30  1  0  0  0  0
 28 31  1  0  0  0  0
 26 27  1  0  0  0  0
 26 28  1  0  0  0  0
M  END
$$$$
default_name
  -OEChem-01062215323D

 31 30  0     1  0  0  0  0  0999 V2000
   -3.5895   -3.5013    1.1082 H   0  0  0  0  0  0  0  0  0  0  0  0
   -3.5145   -2.5363    0.6082 C   0  0  0  0  0  0  0  0  0  0  0  0
   -4.2285   -1.8413    1.0452 H   0  0  0  0  0  0  0  0  0  0  0  0
   -3.7155   -2.6583   -0.4538 H   0  0  0  0  0  0  0  0  0  0  0  0
   -2.1155   -1.9963    0.7922 C   0  0  0  0  0  0  0  0  0  0  0  0
   -1.2875   -2.6383    1.4252 O   0  0  0  0  0  0  0  0  0  0  0  0
   -1.8575   -0.8123    0.2402 N   0  0  0  0  0  0  0  0  0  0  0  0
   -2.6005   -0.3333   -0.2478 H   0  0  0  0  0  0  0  0  0  0  0  0
   -0.5675   -0.1203    0.3102 C   0  0  1  0  0  0  0  0  0  0  0  0
   -0.2191   -0.1513    1.3431 H   0  0  0  0  0  0  0  0  0  0  0  0
    0.4424   -0.8724   -0.5819 C   0  0  0  0  0  0  0  0  0  0  0  0
    0.0363   -0.9331   -1.5934 H   0  0  0  0  0  0  0  0  0  0  0  0
    1.3584   -0.2793   -0.6283 H   0  0  0  0  0  0  0  0  0  0  0  0
    0.8144   -2.2935   -0.1207 C   0  0  0  0  0  0  0  0  0  0  0  0
   -0.0918   -2.8780    0.0383 H   0  0  0  0  0  0  0  0  0  0  0  0
    1.7027   -3.0182   -1.1361 C   0  0  0  0  0  0  0  0  0  0  0  0
    2.6076   -2.4368   -1.3182 H   0  0  0  0  0  0  0  0  0  0  0  0
    1.9807   -3.9981   -0.7474 H   0  0  0  0  0  0  0  0  0  0  0  0
    1.1750   -3.1583   -2.0771 H   0  0  0  0  0  0  0  0  0  0  0  0
    1.5715   -2.2245    1.2050 C   0  0  0  0  0  0  0  0  0  0  0  0
    0.9492   -1.7406    1.9579 H   0  0  0  0  0  0  0  0  0  0  0  0
    1.8118   -3.2309    1.5476 H   0  0  0  0  0  0  0  0  0  0  0  0
    2.4942   -1.6564    1.0816 H   0  0  0  0  0  0  0  0  0  0  0  0
   -0.7319    1.3530   -0.1001 C   0  0  0  0  0  0  0  0  0  0  0  0
   -1.8521    1.8541   -0.1650 O   0  0  0  0  0  0  0  0  0  0  0  0
    0.3821    2.0394   -0.3860 N   0  0  0  0  0  0  0  0  0  0  0  0
    1.2646    1.5605   -0.3038 H   0  0  0  0  0  0  0  0  0  0  0  0
    0.3927    3.4387   -0.8062 C   0  0  0  0  0  0  0  0  0  0  0  0
   -0.0734    4.0584   -0.0368 H   0  0  0  0  0  0  0  0  0  0  0  0
    1.4170    3.7775   -0.9687 H   0  0  0  0  0  0  0  0  0  0  0  0
   -0.1752    3.5499   -1.7313 H   0  0  0  0  0  0  0  0  0  0  0  0
  5  6  2  0  0  0  0
  5  7  1  0  0  0  0
  2  3  1  0  0  0  0
  2  4  1  0  0  0  0
  2  5  1  0  0  0  0
  1  2  1  0  0  0  0
 24 25  2  0  0  0  0
 24 26  1  0  0  0  0
 20 21  1  0  0  0  0
 20 22  1  0  0  0  0
 20 23  1  0  0  0  0
 16 17  1  0  0  0  0
 16 18  1  0  0  0  0
 16 19  1  0  0  0  0
 14 15  1  0  0  0  0
 14 16  1  0  0  0  0
 14 20  1  0  0  0  0
 11 12  1  0  0  0  0
 11 13  1  0  0  0  0
 11 14  1  0  0  0  0
  9 10  1  0  0  0  0
  9 11  1  0  0  0  0
  9 24  1  0  0  0  0
  7  8  1  0  0  0  0
  7  9  1  0  0  0  0
 28 29  1  0  0  0  0
 28 30  1  0  0  0  0
 28 31  1  0  0  0  0
 26 27  1  0  0  0  0
 26 28  1  0  0  0  0
M  END
$$$$
default_name
  -OEChem-01062215323D

 31 30  0     1  0  0  0  0  0999 V2000
   -3.5895   -3.5013    1.1082 H   0  0  0  0  0  0  0  0  0  0  0  0
   -3.5145   -2.5363    0.6082 C   0  0  0  0  0  0  0  0  0  0  0  0
   -4.2285   -1.8413    1.0452 H   0  0  0  0  0  0  0  0  0  0  0  0
   -3.7155   -2.6583   -0.4538 H   0  0  0  0  0  0  0  0  0  0  0  0
   -2.1155   -1.9963    0.7922 C   0  0  0  0  0  0  0  0  0  0  0  0
   -1.2875   -2.6383    1.4252 O   0  0  0  0  0  0  0  0  0  0  0  0
   -1.8575   -0.8123    0.2402 N   0  0  0  0  0  0  0  0  0  0  0  0
   -2.6005   -0.3333   -0.2478 H   0  0  0  0  0  0  0  0  0  0  0  0
   -0.5675   -0.1203    0.3102 C   0  0  1  0  0  0  0  0  0  0  0  0
   -0.2191   -0.1513    1.3431 H   0  0  0  0  0  0  0  0  0  0  0  0
    0.4424   -0.8724   -0.5819 C   0  0  0  0  0  0  0  0  0  0  0  0
    0.0363   -0.9331   -1.5934 H   0  0  0  0  0  0  0  0  0  0  0  0
    1.3584   -0.2793   -0.6283 H   0  0  0  0  0  0  0  0  0  0  0  0
    0.8144   -2.2935   -0.1207 C   0  0  0  0  0  0  0  0  0  0  0  0
   -0.0918   -2.8780    0.0383 H   0  0  0  0  0  0  0  0  0  0  0  0
    1.7027   -3.0182   -1.1361 C   0  0  0  0  0  0  0  0  0  0  0  0
    2.6076   -2.4368   -1.3182 H   0  0  0  0  0  0  0  0  0  0  0  0
    1.9807   -3.9981   -0.7474 H   0  0  0  0  0  0  0  0  0  0  0  0
    1.1750   -3.1583   -2.0771 H   0  0  0  0  0  0  0  0  0  0  0  0
    1.5715   -2.2245    1.2050 C   0  0  0  0  0  0  0  0  0  0  0  0
    0.9492   -1.7406    1.9579 H   0  0  0  0  0  0  0  0  0  0  0  0
    1.8118   -3.2309    1.5476 H   0  0  0  0  0  0  0  0  0  0  0  0
    2.4942   -1.6564    1.0816 H   0  0  0  0  0  0  0  0  0  0  0  0
   -0.7319    1.3530   -0.1001 C   0  0  0  0  0  0  0  0  0  0  0  0
   -1.7977    1.9327    0.0955 O   0  0  0  0  0  0  0  0  0  0  0  0
    0.3184    1.9513   -0.6770 N   0  0  0  0  0  0  0  0  0  0  0  0
    1.1602    1.4113   -0.7979 H   0  0  0  0  0  0  0  0  0  0  0  0
    0.3158    3.3379   -1.1374 C   0  0  0  0  0  0  0  0  0  0  0  0
    0.0975    4.0042   -0.2998 H   0  0  0  0  0  0  0  0  0  0  0  0
    1.2874    3.5984   -1.5601 H   0  0  0  0  0  0  0  0  0  0  0  0
   -0.4559    3.4724   -1.8970 H   0  0  0  0  0  0  0  0  0  0  0  0
  5  6  2  0  0  0  0
  5  7  1  0  0  0  0
  2  3  1  0  0  0  0
  2  4  1  0  0  0  0
  2  5  1  0  0  0  0
  1  2  1  0  0  0  0
 24 25  2  0  0  0  0
 24 26  1  0  0  0  0
 20 21  1  0  0  0  0
 20 22  1  0  0  0  0
 20 23  1  0  0  0  0
 16 17  1  0  0  0  0
 16 18  1  0  0  0  0
 16 19  1  0  0  0  0
 14 15  1  0  0  0  0
 14 16  1  0  0  0  0
 14 20  1  0  0  0  0
 11 12  1  0  0  0  0
 11 13  1  0  0  0  0
 11 14  1  0  0  0  0
  9 10  1  0  0  0  0
  9 11  1  0  0  0  0
  9 24  1  0  0  0  0
  7  8  1  0  0  0  0
  7  9  1  0  0  0  0
 28 29  1  0  0  0  0
 28 30  1  0  0  0  0
 28 31  1  0  0  0  0
 26 27  1  0  0  0  0
 26 28  1  0  0  0  0
M  END
$$$$
default_name
  -OEChem-01062215323D

 31 30  0     1  0  0  0  0  0999 V2000
   -3.5895   -3.5013    1.1082 H   0  0  0  0  0  0  0  0  0  0  0  0
   -3.5145   -2.5363    0.6082 C   0  0  0  0  0  0  0  0  0  0  0  0
   -4.2285   -1.8413    1.0452 H   0  0  0  0  0  0  0  0  0  0  0  0
   -3.7155   -2.6583   -0.4538 H   0  0  0  0  0  0  0  0  0  0  0  0
   -2.1155   -1.9963    0.7922 C   0  0  0  0  0  0  0  0  0  0  0  0
   -1.2875   -2.6383    1.4252 O   0  0  0  0  0  0  0  0  0  0  0  0
   -1.8575   -0.8123    0.2402 N   0  0  0  0  0  0  0  0  0  0  0  0
   -2.6005   -0.3333   -0.2478 H   0  0  0  0  0  0  0  0  0  0  0  0
   -0.5675   -0.1203    0.3102 C   0  0  1  0  0  0  0  0  0  0  0  0
   -0.2191   -0.1513    1.3431 H   0  0  0  0  0  0  0  0  0  0  0  0
    0.4424   -0.8724   -0.5819 C   0  0  0  0  0  0  0  0  0  0  0  0
    0.0363   -0.9331   -1.5934 H   0  0  0  0  0  0  0  0  0  0  0  0
    1.3584   -0.2793   -0.6283 H   0  0  0  0  0  0  0  0  0  0  0  0
    0.8144   -2.2935   -0.1207 C   0  0  0  0  0  0  0  0  0  0  0  0
   -0.0918   -2.8780    0.0383 H   0  0  0  0  0  0  0  0  0  0  0  0
    1.7027   -3.0182   -1.1361 C   0  0  0  0  0  0  0  0  0  0  0  0
    2.6076   -2.4368   -1.3182 H   0  0  0  0  0  0  0  0  0  0  0  0
    1.9807   -3.9981   -0.7474 H   0  0  0  0  0  0  0  0  0  0  0  0
    1.1750   -3.1583   -2.0771 H   0  0  0  0  0  0  0  0  0  0  0  0
    1.5715   -2.2245    1.2050 C   0  0  0  0  0  0  0  0  0  0  0  0
    0.9492   -1.7406    1.9579 H   0  0  0  0  0  0  0  0  0  0  0  0
    1.8118   -3.2309    1.5476 H   0  0  0  0  0  0  0  0  0  0  0  0
    2.4942   -1.6564    1.0816 H   0  0  0  0  0  0  0  0  0  0  0  0
   -0.7319    1.3530   -0.1001 C   0  0  0  0  0  0  0  0  0  0  0  0
   -1.6751    2.0121    0.3314 O   0  0  0  0  0  0  0  0  0  0  0  0
    0.1787    1.8625   -0.9398 N   0  0  0  0  0  0  0  0  0  0  0  0
    0.9267    1.2607   -1.2452 H   0  0  0  0  0  0  0  0  0  0  0  0
    0.1524    3.2367   -1.4355 C   0  0  0  0  0  0  0  0  0  0  0  0
    0.1936    3.9328   -0.5948 H   0  0  0  0  0  0  0  0  0  0  0  0
    1.0032    3.4179   -2.0942 H   0  0  0  0  0  0  0  0  0  0  0  0
   -0.7735    3.4124   -1.9854 H   0  0  0  0  0  0  0  0  0  0  0  0
  5  6  2  0  0  0  0
  5  7  1  0  0  0  0
  2  3  1  0  0  0  0
  2  4  1  0  0  0  0
  2  5  1  0  0  0  0
  1  2  1  0  0  0  0
 24 25  2  0  0  0  0
 24 26  1  0  0  0  0
 20 21  1  0  0  0  0
 20 22  1  0  0  0  0
 20 23  1  0  0  0  0
 16 17  1  0  0  0  0
 16 18  1  0  0  0  0
 16 19  1  0  0  0  0
 14 15  1  0  0  0  0
 14 16  1  0  0  0  0
 14 20  1  0  0  0  0
 11 12  1  0  0  0  0
 11 13  1  0  0  0  0
 11 14  1  0  0  0  0
  9 10  1  0  0  0  0
  9 11  1  0  0  0  0
  9 24  1  0  0  0  0
  7  8  1  0  0  0  0
  7  9  1  0  0  0  0
 28 29  1  0  0  0  0
 28 30  1  0  0  0  0
 28 31  1  0  0  0  0
 26 27  1  0  0  0  0
 26 28  1  0  0  0  0
M  END
$$$$
default_name
  -OEChem-01062215323D

 31 30  0     1  0  0  0  0  0999 V2000
   -3.5895   -3.5013    1.1082 H   0  0  0  0  0  0  0  0  0  0  0  0
   -3.5145   -2.5363    0.6082 C   0  0  0  0  0  0  0  0  0  0  0  0
   -4.2285   -1.8413    1.0452 H   0  0  0  0  0  0  0  0  0  0  0  0
   -3.7155   -2.6583   -0.4538 H   0  0  0  0  0  0  0  0  0  0  0  0
   -2.1155   -1.9963    0.7922 C   0  0  0  0  0  0  0  0  0  0  0  0
   -1.2875   -2.6383    1.4252 O   0  0  0  0  0  0  0  0  0  0  0  0
   -1.8575   -0.8123    0.2402 N   0  0  0  0  0  0  0  0  0  0  0  0
   -2.6005   -0.3333   -0.2478 H   0  0  0  0  0  0  0  0  0  0  0  0
   -0.5675   -0.1203    0.3102 C   0  0  1  0  0  0  0  0  0  0  0  0
   -0.2191   -0.1513    1.3431 H   0  0  0  0  0  0  0  0  0  0  0  0
    0.4424   -0.8724   -0.5819 C   0  0  0  0  0  0  0  0  0  0  0  0
    0.0363   -0.9331   -1.5934 H   0  0  0  0  0  0  0  0  0  0  0  0
    1.3584   -0.2793   -0.6283 H   0  0  0  0  0  0  0  0  0  0  0  0
    0.8144   -2.2935   -0.1207 C   0  0  0  0  0  0  0  0  0  0  0  0
   -0.0918   -2.8780    0.0383 H   0  0  0  0  0  0  0  0  0  0  0  0
    1.7027   -3.0182   -1.1361 C   0  0  0  0  0  0  0  0  0  0  0  0
    2.6076   -2.4368   -1.3182 H   0  0  0  0  0  0  0  0  0  0  0  0
    1.9807   -3.9981   -0.7474 H   0  0  0  0  0  0  0  0  0  0  0  0
    1.1750   -3.1583   -2.0771 H   0  0  0  0  0  0  0  0  0  0  0  0
    1.5715   -2.2245    1.2050 C   0  0  0  0  0  0  0  0  0  0  0  0
    0.9492   -1.7406    1.9579 H   0  0  0  0  0  0  0  0  0  0  0  0
    1.8118   -3.2309    1.5476 H   0  0  0  0  0  0  0  0  0  0  0  0
    2.4942   -1.6564    1.0816 H   0  0  0  0  0  0  0  0  0  0  0  0
   -0.7319    1.3530   -0.1001 C   0  0  0  0  0  0  0  0  0  0  0  0
   -1.4927    2.0868    0.5266 O   0  0  0  0  0  0  0  0  0  0  0  0
   -0.0276    1.7791   -1.1566 N   0  0  0  0  0  0  0  0  0  0  0  0
    0.5798    1.1189   -1.6152 H   0  0  0  0  0  0  0  0  0  0  0  0
   -0.0862    3.1419   -1.6801 C   0  0  0  0  0  0  0  0  0  0  0  0
    0.2085    3.8490   -0.9015 H   0  0  0  0  0  0  0  0  0  0  0  0
    0.5838    3.2484   -2.5346 H   0  0  0  0  0  0  0  0  0  0  0  0
   -1.1063    3.3738   -1.9904 H   0  0  0  0  0  0  0  0  0  0  0  0
  5  6  2  0  0  0  0
  5  7  1  0  0  0  0
  2  3  1  0  0  0  0
  2  4  1  0  0  0  0
  2  5  1  0  0  0  0
  1  2  1  0  0  0  0
 24 25  2  0  0  0  0
 24 26  1  0  0  0  0
 20 21  1  0  0  0  0
 20 22  1  0  0  0  0
 20 23  1  0  0  0  0
 16 17  1  0  0  0  0
 16 18  1  0  0  0  0
 16 19  1  0  0  0  0
 14 15  1  0  0  0  0
 14 16  1  0  0  0  0
 14 20  1  0  0  0  0
 11 12  1  0  0  0  0
 11 13  1  0  0  0  0
 11 14  1  0  0  0  0
  9 10  1  0  0  0  0
  9 11  1  0  0  0  0
  9 24  1  0  0  0  0
  7  8  1  0  0  0  0
  7  9  1  0  0  0  0
 28 29  1  0  0  0  0
 28 30  1  0  0  0  0
 28 31  1  0  0  0  0
 26 27  1  0  0  0  0
 26 28  1  0  0  0  0
M  END
$$$$
default_name
  -OEChem-01062215323D

 31 30  0     1  0  0  0  0  0999 V2000
   -3.5895   -3.5013    1.1082 H   0  0  0  0  0  0  0  0  0  0  0  0
   -3.5145   -2.5363    0.6082 C   0  0  0  0  0  0  0  0  0  0  0  0
   -4.2285   -1.8413    1.0452 H   0  0  0  0  0  0  0  0  0  0  0  0
   -3.7155   -2.6583   -0.4538 H   0  0  0  0  0  0  0  0  0  0  0  0
   -2.1155   -1.9963    0.7922 C   0  0  0  0  0  0  0  0  0  0  0  0
   -1.2875   -2.6383    1.4252 O   0  0  0  0  0  0  0  0  0  0  0  0
   -1.8575   -0.8123    0.2402 N   0  0  0  0  0  0  0  0  0  0  0  0
   -2.6005   -0.3333   -0.2478 H   0  0  0  0  0  0  0  0  0  0  0  0
   -0.5675   -0.1203    0.3102 C   0  0  1  0  0  0  0  0  0  0  0  0
   -0.2191   -0.1513    1.3431 H   0  0  0  0  0  0  0  0  0  0  0  0
    0.4424   -0.8724   -0.5819 C   0  0  0  0  0  0  0  0  0  0  0  0
    0.0363   -0.9331   -1.5934 H   0  0  0  0  0  0  0  0  0  0  0  0
    1.3584   -0.2793   -0.6283 H   0  0  0  0  0  0  0  0  0  0  0  0
    0.8144   -2.2935   -0.1207 C   0  0  0  0  0  0  0  0  0  0  0  0
   -0.0918   -2.8780    0.0383 H   0  0  0  0  0  0  0  0  0  0  0  0
    1.7027   -3.0182   -1.1361 C   0  0  0  0  0  0  0  0  0  0  0  0
    2.6076   -2.4368   -1.3182 H   0  0  0  0  0  0  0  0  0  0  0  0
    1.9807   -3.9981   -0.7474 H   0  0  0  0  0  0  0  0  0  0  0  0
    1.1750   -3.1583   -2.0771 H   0  0  0  0  0  0  0  0  0  0  0  0
    1.5715   -2.2245    1.2050 C   0  0  0  0  0  0  0  0  0  0  0  0
    0.9492   -1.7406    1.9579 H   0  0  0  0  0  0  0  0  0  0  0  0
    1.8118   -3.2309    1.5476 H   0  0  0  0  0  0  0  0  0  0  0  0
    2.4942   -1.6564    1.0816 H   0  0  0  0  0  0  0  0  0  0  0  0
   -0.7319    1.3530   -0.1001 C   0  0  0  0  0  0  0  0  0  0  0  0
   -1.2630    2.1518    0.6679 O   0  0  0  0  0  0  0  0  0  0  0  0
   -0.2863    1.7068   -1.3126 N   0  0  0  0  0  0  0  0  0  0  0  0
    0.1432    0.9957   -1.8826 H   0  0  0  0  0  0  0  0  0  0  0  0
   -0.3840    3.0601   -1.8546 C   0  0  0  0  0  0  0  0  0  0  0  0
    0.1409    3.7586   -1.1992 H   0  0  0  0  0  0  0  0  0  0  0  0
    0.0578    3.1015   -2.8514 H   0  0  0  0  0  0  0  0  0  0  0  0
   -1.4317    3.3595   -1.9116 H   0  0  0  0  0  0  0  0  0  0  0  0
  5  6  2  0  0  0  0
  5  7  1  0  0  0  0
  2  3  1  0  0  0  0
  2  4  1  0  0  0  0
  2  5  1  0  0  0  0
  1  2  1  0  0  0  0
 24 25  2  0  0  0  0
 24 26  1  0  0  0  0
 20 21  1  0  0  0  0
 20 22  1  0  0  0  0
 20 23  1  0  0  0  0
 16 17  1  0  0  0  0
 16 18  1  0  0  0  0
 16 19  1  0  0  0  0
 14 15  1  0  0  0  0
 14 16  1  0  0  0  0
 14 20  1  0  0  0  0
 11 12  1  0  0  0  0
 11 13  1  0  0  0  0
 11 14  1  0  0  0  0
  9 10  1  0  0  0  0
  9 11  1  0  0  0  0
  9 24  1  0  0  0  0
  7  8  1  0  0  0  0
  7  9  1  0  0  0  0
 28 29  1  0  0  0  0
 28 30  1  0  0  0  0
 28 31  1  0  0  0  0
 26 27  1  0  0  0  0
 26 28  1  0  0  0  0
M  END
$$$$
default_name
  -OEChem-01062215323D

 31 30  0     1  0  0  0  0  0999 V2000
   -3.5895   -3.5013    1.1082 H   0  0  0  0  0  0  0  0  0  0  0  0
   -3.5145   -2.5363    0.6082 C   0  0  0  0  0  0  0  0  0  0  0  0
   -4.2285   -1.8413    1.0452 H   0  0  0  0  0  0  0  0  0  0  0  0
   -3.7155   -2.6583   -0.4538 H   0  0  0  0  0  0  0  0  0  0  0  0
   -2.1155   -1.9963    0.7922 C   0  0  0  0  0  0  0  0  0  0  0  0
   -1.2875   -2.6383    1.4252 O   0  0  0  0  0  0  0  0  0  0  0  0
   -1.8575   -0.8123    0.2402 N   0  0  0  0  0  0  0  0  0  0  0  0
   -2.6005   -0.3333   -0.2478 H   0  0  0  0  0  0  0  0  0  0  0  0
   -0.5675   -0.1203    0.3102 C   0  0  1  0  0  0  0  0  0  0  0  0
   -0.2191   -0.1513    1.3431 H   0  0  0  0  0  0  0  0  0  0  0  0
    0.4424   -0.8724   -0.5819 C   0  0  0  0  0  0  0  0  0  0  0  0
    0.0363   -0.9331   -1.5934 H   0  0  0  0  0  0  0  0  0  0  0  0
    1.3584   -0.2793   -0.6283 H   0  0  0  0  0  0  0  0  0  0  0  0
    0.8144   -2.2935   -0.1207 C   0  0  0  0  0  0  0  0  0  0  0  0
   -0.0918   -2.8780    0.0383 H   0  0  0  0  0  0  0  0  0  0  0  0
    1.7027   -3.0182   -1.1361 C   0  0  0  0  0  0  0  0  0  0  0  0
    2.6076   -2.4368   -1.3182 H   0  0  0  0  0  0  0  0  0  0  0  0
    1.9807   -3.9981   -0.7474 H   0  0  0  0  0  0  0  0  0  0  0  0
    1.1750   -3.1583   -2.0771 H   0  0  0  0  0  0  0  0  0  0  0  0
    1.5715   -2.2245    1.2050 C   0  0  0  0  0  0  0  0  0  0  0  0
    0.9492   -1.7406    1.9579 H   0  0  0  0  0  0  0  0  0  0  0  0
    1.8118   -3.2309    1.5476 H   0  0  0  0  0  0  0  0  0  0  0  0
    2.4942   -1.6564    1.0816 H   0  0  0  0  0  0  0  0  0  0  0  0
   -0.7319    1.3530   -0.1001 C   0  0  0  0  0  0  0  0  0  0  0  0
   -1.0016    2.2027    0.7457 O   0  0  0  0  0  0  0  0  0  0  0  0
   -0.5799    1.6505   -1.3971 N   0  0  0  0  0  0  0  0  0  0  0  0
   -0.3533    0.8994   -2.0293 H   0  0  0  0  0  0  0  0  0  0  0  0
   -0.7205    2.9967   -1.9471 C   0  0  0  0  0  0  0  0  0  0  0  0
   -0.0043    3.6677   -1.4674 H   0  0  0  0  0  0  0  0  0  0  0  0
   -0.5389    2.9871   -3.0230 H   0  0  0  0  0  0  0  0  0  0  0  0
   -1.7274    3.3702   -1.7545 H   0  0  0  0  0  0  0  0  0  0  0  0
  5  6  2  0  0  0  0
  5  7  1  0  0  0  0
  2  3  1  0  0  0  0
  2  4  1  0  0  0  0
  2  5  1  0  0  0  0
  1  2  1  0  0  0  0
 24 25  2  0  0  0  0
 24 26  1  0  0  0  0
 20 21  1  0  0  0  0
 20 22  1  0  0  0  0
 20 23  1  0  0  0  0
 16 17  1  0  0  0  0
 16 18  1  0  0  0  0
 16 19  1  0  0  0  0
 14 15  1  0  0  0  0
 14 16  1  0  0  0  0
 14 20  1  0  0  0  0
 11 12  1  0  0  0  0
 11 13  1  0  0  0  0
 11 14  1  0  0  0  0
  9 10  1  0  0  0  0
  9 11  1  0  0  0  0
  9 24  1  0  0  0  0
  7  8  1  0  0  0  0
  7  9  1  0  0  0  0
 28 29  1  0  0  0  0
 28 30  1  0  0  0  0
 28 31  1  0  0  0  0
 26 27  1  0  0  0  0
 26 28  1  0  0  0  0
M  END
$$$$
default_name
  -OEChem-01062215323D

 31 30  0     1  0  0  0  0  0999 V2000
   -3.5895   -3.5013    1.1082 H   0  0  0  0  0  0  0  0  0  0  0  0
   -3.5145   -2.5363    0.6082 C   0  0  0  0  0  0  0  0  0  0  0  0
   -4.2285   -1.8413    1.0452 H   0  0  0  0  0  0  0  0  0  0  0  0
   -3.7155   -2.6583   -0.4538 H   0  0  0  0  0  0  0  0  0  0  0  0
   -2.1155   -1.9963    0.7922 C   0  0  0  0  0  0  0  0  0  0  0  0
   -1.2875   -2.6383    1.4252 O   0  0  0  0  0  0  0  0  0  0  0  0
   -1.8575   -0.8123    0.2402 N   0  0  0  0  0  0  0  0  0  0  0  0
   -2.6005   -0.3333   -0.2478 H   0  0  0  0  0  0  0  0  0  0  0  0
   -0.5675   -0.1203    0.3102 C   0  0  1  0  0  0  0  0  0  0  0  0
   -0.2191   -0.1513    1.3431 H   0  0  0  0  0  0  0  0  0  0  0  0
    0.4424   -0.8724   -0.5819 C   0  0  0  0  0  0  0  0  0  0  0  0
    0.0363   -0.9331   -1.5934 H   0  0  0  0  0  0  0  0  0  0  0  0
    1.3584   -0.2793   -0.6283 H   0  0  0  0  0  0  0  0  0  0  0  0
    0.8144   -2.2935   -0.1207 C   0  0  0  0  0  0  0  0  0  0  0  0
   -0.0918   -2.8780    0.0383 H   0  0  0  0  0  0  0  0  0  0  0  0
    1.7027   -3.0182   -1.1361 C   0  0  0  0  0  0  0  0  0  0  0  0
    2.6076   -2.4368   -1.3182 H   0  0  0  0  0  0  0  0  0  0  0  0
    1.9807   -3.9981   -0.7474 H   0  0  0  0  0  0  0  0  0  0  0  0
    1.1750   -3.1583   -2.0771 H   0  0  0  0  0  0  0  0  0  0  0  0
    1.5715   -2.2245    1.2050 C   0  0  0  0  0  0  0  0  0  0  0  0
    0.9492   -1.7406    1.9579 H   0  0  0  0  0  0  0  0  0  0  0  0
    1.8118   -3.2309    1.5476 H   0  0  0  0  0  0  0  0  0  0  0  0
    2.4942   -1.6564    1.0816 H   0  0  0  0  0  0  0  0  0  0  0  0
   -0.7319    1.3530   -0.1001 C   0  0  0  0  0  0  0  0  0  0  0  0
   -0.7263    2.2359    0.7546 O   0  0  0  0  0  0  0  0  0  0  0  0
   -0.8883    1.6140   -1.4044 N   0  0  0  0  0  0  0  0  0  0  0  0
   -0.8759    0.8367   -2.0452 H   0  0  0  0  0  0  0  0  0  0  0  0
   -1.0728    2.9563   -1.9513 C   0  0  0  0  0  0  0  0  0  0  0  0
   -0.2174    3.5825   -1.6880 H   0  0  0  0  0  0  0  0  0  0  0  0
   -1.1657    2.9131   -3.0376 H   0  0  0  0  0  0  0  0  0  0  0  0
   -1.9734    3.4053   -1.5297 H   0  0  0  0  0  0  0  0  0  0  0  0
  5  6  2  0  0  0  0
  5  7  1  0  0  0  0
  2  3  1  0  0  0  0
  2  4  1  0  0  0  0
  2  5  1  0  0  0  0
  1  2  1  0  0  0  0
 24 25  2  0  0  0  0
 24 26  1  0  0  0  0
 20 21  1  0  0  0  0
 20 22  1  0  0  0  0
 20 23  1  0  0  0  0
 16 17  1  0  0  0  0
 16 18  1  0  0  0  0
 16 19  1  0  0  0  0
 14 15  1  0  0  0  0
 14 16  1  0  0  0  0
 14 20  1  0  0  0  0
 11 12  1  0  0  0  0
 11 13  1  0  0  0  0
 11 14  1  0  0  0  0
  9 10  1  0  0  0  0
  9 11  1  0  0  0  0
  9 24  1  0  0  0  0
  7  8  1  0  0  0  0
  7  9  1  0  0  0  0
 28 29  1  0  0  0  0
 28 30  1  0  0  0  0
 28 31  1  0  0  0  0
 26 27  1  0  0  0  0
 26 28  1  0  0  0  0
M  END
$$$$
default_name
  -OEChem-01062215323D

 31 30  0     1  0  0  0  0  0999 V2000
   -3.5895   -3.5013    1.1082 H   0  0  0  0  0  0  0  0  0  0  0  0
   -3.5145   -2.5363    0.6082 C   0  0  0  0  0  0  0  0  0  0  0  0
   -4.2285   -1.8413    1.0452 H   0  0  0  0  0  0  0  0  0  0  0  0
   -3.7155   -2.6583   -0.4538 H   0  0  0  0  0  0  0  0  0  0  0  0
   -2.1155   -1.9963    0.7922 C   0  0  0  0  0  0  0  0  0  0  0  0
   -1.2875   -2.6383    1.4252 O   0  0  0  0  0  0  0  0  0  0  0  0
   -1.8575   -0.8123    0.2402 N   0  0  0  0  0  0  0  0  0  0  0  0
   -2.6005   -0.3333   -0.2478 H   0  0  0  0  0  0  0  0  0  0  0  0
   -0.5675   -0.1203    0.3102 C   0  0  1  0  0  0  0  0  0  0  0  0
   -0.2191   -0.1513    1.3431 H   0  0  0  0  0  0  0  0  0  0  0  0
    0.4424   -0.8724   -0.5819 C   0  0  0  0  0  0  0  0  0  0  0  0
    0.0363   -0.9331   -1.5934 H   0  0  0  0  0  0  0  0  0  0  0  0
    1.3584   -0.2793   -0.6283 H   0  0  0  0  0  0  0  0  0  0  0  0
    0.8144   -2.2935   -0.1207 C   0  0  0  0  0  0  0  0  0  0  0  0
   -0.0918   -2.8780    0.0383 H   0  0  0  0  0  0  0  0  0  0  0  0
    1.7027   -3.0182   -1.1361 C   0  0  0  0  0  0  0  0  0  0  0  0
    2.6076   -2.4368   -1.3182 H   0  0  0  0  0  0  0  0  0  0  0  0
    1.9807   -3.9981   -0.7474 H   0  0  0  0  0  0  0  0  0  0  0  0
    1.1750   -3.1583   -2.0771 H   0  0  0  0  0  0  0  0  0  0  0  0
    1.5715   -2.2245    1.2050 C   0  0  0  0  0  0  0  0  0  0  0  0
    0.9492   -1.7406    1.9579 H   0  0  0  0  0  0  0  0  0  0  0  0
    1.8118   -3.2309    1.5476 H   0  0  0  0  0  0  0  0  0  0  0  0
    2.4942   -1.6564    1.0816 H   0  0  0  0  0  0  0  0  0  0  0  0
   -0.7319    1.3530   -0.1001 C   0  0  0  0  0  0  0  0  0  0  0  0
   -0.4559    2.2492    0.6941 O   0  0  0  0  0  0  0  0  0  0  0  0
   -1.1906    1.5999   -1.3340 N   0  0  0  0  0  0  0  0  0  0  0  0
   -1.3890    0.8117   -1.9293 H   0  0  0  0  0  0  0  0  0  0  0  0
   -1.4169    2.9414   -1.8669 C   0  0  0  0  0  0  0  0  0  0  0  0
   -0.4838    3.5088   -1.8459 H   0  0  0  0  0  0  0  0  0  0  0  0
   -1.7799    2.8844   -2.8942 H   0  0  0  0  0  0  0  0  0  0  0  0
   -2.1529    3.4625   -1.2525 H   0  0  0  0  0  0  0  0  0  0  0  0
  5  6  2  0  0  0  0
  5  7  1  0  0  0  0
  2  3  1  0  0  0  0
  2  4  1  0  0  0  0
  2  5  1  0  0  0  0
  1  2  1  0  0  0  0
 24 25  2  0  0  0  0
 24 26  1  0  0  0  0
 20 21  1  0  0  0  0
 20 22  1  0  0  0  0
 20 23  1  0  0  0  0
 16 17  1  0  0  0  0
 16 18  1  0  0  0  0
 16 19  1  0  0  0  0
 14 15  1  0  0  0  0
 14 16  1  0  0  0  0
 14 20  1  0  0  0  0
 11 12  1  0  0  0  0
 11 13  1  0  0  0  0
 11 14  1  0  0  0  0
  9 10  1  0  0  0  0
  9 11  1  0  0  0  0
  9 24  1  0  0  0  0
  7  8  1  0  0  0  0
  7  9  1  0  0  0  0
 28 29  1  0  0  0  0
 28 30  1  0  0  0  0
 28 31  1  0  0  0  0
 26 27  1  0  0  0  0
 26 28  1  0  0  0  0
M  END
$$$$
default_name
  -OEChem-01062215323D

 31 30  0     1  0  0  0  0  0999 V2000
   -3.5895   -3.5013    1.1082 H   0  0  0  0  0  0  0  0  0  0  0  0
   -3.5145   -2.5363    0.6082 C   0  0  0  0  0  0  0  0  0  0  0  0
   -4.2285   -1.8413    1.0452 H   0  0  0  0  0  0  0  0  0  0  0  0
   -3.7155   -2.6583   -0.4538 H   0  0  0  0  0  0  0  0  0  0  0  0
   -2.1155   -1.9963    0.7922 C   0  0  0  0  0  0  0  0  0  0  0  0
   -1.2875   -2.6383    1.4252 O   0  0  0  0  0  0  0  0  0  0  0  0
   -1.8575   -0.8123    0.2402 N   0  0  0  0  0  0  0  0  0  0  0  0
   -2.6005   -0.3333   -0.2478 H   0  0  0  0  0  0  0  0  0  0  0  0
   -0.5675   -0.1203    0.3102 C   0  0  1  0  0  0  0  0  0  0  0  0
   -0.2191   -0.1513    1.3431 H   0  0  0  0  0  0  0  0  0  0  0  0
    0.4424   -0.8724   -0.5819 C   0  0  0  0  0  0  0  0  0  0  0  0
    0.0363   -0.9331   -1.5934 H   0  0  0  0  0  0  0  0  0  0  0  0
    1.3584   -0.2793   -0.6283 H   0  0  0  0  0  0  0  0  0  0  0  0
    0.8144   -2.2935   -0.1207 C   0  0  0  0  0  0  0  0  0  0  0  0
   -0.0918   -2.8780    0.0383 H   0  0  0  0  0  0  0  0  0  0  0  0
    1.7027   -3.0182   -1.1361 C   0  0  0  0  0  0  0  0  0  0  0  0
    2.6076   -2.4368   -1.3182 H   0  0  0  0  0  0  0  0  0  0  0  0
    1.9807   -3.9981   -0.7474 H   0  0  0  0  0  0  0  0  0  0  0  0
    1.1750   -3.1583   -2.0771 H   0  0  0  0  0  0  0  0  0  0  0  0
    1.5715   -2.2245    1.2050 C   0  0  0  0  0  0  0  0  0  0  0  0
    0.9492   -1.7406    1.9579 H   0  0  0  0  0  0  0  0  0  0  0  0
    1.8118   -3.2309    1.5476 H   0  0  0  0  0  0  0  0  0  0  0  0
    2.4942   -1.6564    1.0816 H   0  0  0  0  0  0  0  0  0  0  0  0
   -0.7319    1.3530   -0.1001 C   0  0  0  0  0  0  0  0  0  0  0  0
   -0.2088    2.2417    0.5682 O   0  0  0  0  0  0  0  0  0  0  0  0
   -1.4660    1.6090   -1.1907 N   0  0  0  0  0  0  0  0  0  0  0  0
   -1.8576    0.8261   -1.6894 H   0  0  0  0  0  0  0  0  0  0  0  0
   -1.7294    2.9531   -1.6996 C   0  0  0  0  0  0  0  0  0  0  0  0
   -0.7853    3.4516   -1.9304 H   0  0  0  0  0  0  0  0  0  0  0  0
   -2.3396    2.9031   -2.6027 H   0  0  0  0  0  0  0  0  0  0  0  0
   -2.2535    3.5378   -0.9419 H   0  0  0  0  0  0  0  0  0  0  0  0
  5  6  2  0  0  0  0
  5  7  1  0  0  0  0
  2  3  1  0  0  0  0
  2  4  1  0  0  0  0
  2  5  1  0  0  0  0
  1  2  1  0  0  0  0
 24 25  2  0  0  0  0
 24 26  1  0  0  0  0
 20 21  1  0  0  0  0
 20 22  1  0  0  0  0
 20 23  1  0  0  0  0
 16 17  1  0  0  0  0
 16 18  1  0  0  0  0
 16 19  1  0  0  0  0
 14 15  1  0  0  0  0
 14 16  1  0  0  0  0
 14 20  1  0  0  0  0
 11 12  1  0  0  0  0
 11 13  1  0  0  0  0
 11 14  1  0  0  0  0
  9 10  1  0  0  0  0
  9 11  1  0  0  0  0
  9 24  1  0  0  0  0
  7  8  1  0  0  0  0
  7  9  1  0  0  0  0
 28 29  1  0  0  0  0
 28 30  1  0  0  0  0
 28 31  1  0  0  0  0
 26 27  1  0  0  0  0
 26 28  1  0  0  0  0
M  END
$$$$
default_name
  -OEChem-01062215323D

 31 30  0     1  0  0  0  0  0999 V2000
   -3.5895   -3.5013    1.1082 H   0  0  0  0  0  0  0  0  0  0  0  0
   -3.5145   -2.5363    0.6082 C   0  0  0  0  0  0  0  0  0  0  0  0
   -4.2285   -1.8413    1.0452 H   0  0  0  0  0  0  0  0  0  0  0  0
   -3.7155   -2.6583   -0.4538 H   0  0  0  0  0  0  0  0  0  0  0  0
   -2.1155   -1.9963    0.7922 C   0  0  0  0  0  0  0  0  0  0  0  0
   -1.2875   -2.6383    1.4252 O   0  0  0  0  0  0  0  0  0  0  0  0
   -1.8575   -0.8123    0.2402 N   0  0  0  0  0  0  0  0  0  0  0  0
   -2.6005   -0.3333   -0.2478 H   0  0  0  0  0  0  0  0  0  0  0  0
   -0.5675   -0.1203    0.3102 C   0  0  1  0  0  0  0  0  0  0  0  0
   -0.2191   -0.1513    1.3431 H   0  0  0  0  0  0  0  0  0  0  0  0
    0.4424   -0.8724   -0.5819 C   0  0  0  0  0  0  0  0  0  0  0  0
    0.0363   -0.9331   -1.5934 H   0  0  0  0  0  0  0  0  0  0  0  0
    1.3584   -0.2793   -0.6283 H   0  0  0  0  0  0  0  0  0  0  0  0
    0.8144   -2.2935   -0.1207 C   0  0  0  0  0  0  0  0  0  0  0  0
   -0.0918   -2.8780    0.0383 H   0  0  0  0  0  0  0  0  0  0  0  0
    1.7027   -3.0182   -1.1361 C   0  0  0  0  0  0  0  0  0  0  0  0
    2.6076   -2.4368   -1.3182 H   0  0  0  0  0  0  0  0  0  0  0  0
    1.9807   -3.9981   -0.7474 H   0  0  0  0  0  0  0  0  0  0  0  0
    1.1750   -3.1583   -2.0771 H   0  0  0  0  0  0  0  0  0  0  0  0
    1.5715   -2.2245    1.2050 C   0  0  0  0  0  0  0  0  0  0  0  0
    0.9492   -1.7406    1.9579 H   0  0  0  0  0  0  0  0  0  0  0  0
    1.8118   -3.2309    1.5476 H   0  0  0  0  0  0  0  0  0  0  0  0
    2.4942   -1.6564    1.0816 H   0  0  0  0  0  0  0  0  0  0  0  0
   -0.7319    1.3530   -0.1001 C   0  0  0  0  0  0  0  0  0  0  0  0
   -0.0018    2.2140    0.3855 O   0  0  0  0  0  0  0  0  0  0  0  0
   -1.6959    1.6409   -0.9842 N   0  0  0  0  0  0  0  0  0  0  0  0
   -2.2497    0.8791   -1.3420 H   0  0  0  0  0  0  0  0  0  0  0  0
   -1.9890    2.9906   -1.4609 C   0  0  0  0  0  0  0  0  0  0  0  0
   -1.1014    3.4148   -1.9356 H   0  0  0  0  0  0  0  0  0  0  0  0
   -2.8066    2.9679   -2.1829 H   0  0  0  0  0  0  0  0  0  0  0  0
   -2.2686    3.6260   -0.6190 H   0  0  0  0  0  0  0  0  0  0  0  0
  5  6  2  0  0  0  0
  5  7  1  0  0  0  0
  2  3  1  0  0  0  0
  2  4  1  0  0  0  0
  2  5  1  0  0  0  0
  1  2  1  0  0  0  0
 24 25  2  0  0  0  0
 24 26  1  0  0  0  0
 20 21  1  0  0  0  0
 20 22  1  0  0  0  0
 20 23  1  0  0  0  0
 16 17  1  0  0  0  0
 16 18  1  0  0  0  0
 16 19  1  0  0  0  0
 14 15  1  0  0  0  0
 14 16  1  0  0  0  0
 14 20  1  0  0  0  0
 11 12  1  0  0  0  0
 11 13  1  0  0  0  0
 11 14  1  0  0  0  0
  9 10  1  0  0  0  0
  9 11  1  0  0  0  0
  9 24  1  0  0  0  0
  7  8  1  0  0  0  0
  7  9  1  0  0  0  0
 28 29  1  0  0  0  0
 28 30  1  0  0  0  0
 28 31  1  0  0  0  0
 26 27  1  0  0  0  0
 26 28  1  0  0  0  0
M  END
$$$$
default_name
  -OEChem-01062215323D

 31 30  0     1  0  0  0  0  0999 V2000
   -3.5895   -3.5013    1.1082 H   0  0  0  0  0  0  0  0  0  0  0  0
   -3.5145   -2.5363    0.6082 C   0  0  0  0  0  0  0  0  0  0  0  0
   -4.2285   -1.8413    1.0452 H   0  0  0  0  0  0  0  0  0  0  0  0
   -3.7155   -2.6583   -0.4538 H   0  0  0  0  0  0  0  0  0  0  0  0
   -2.1155   -1.9963    0.7922 C   0  0  0  0  0  0  0  0  0  0  0  0
   -1.2875   -2.6383    1.4252 O   0  0  0  0  0  0  0  0  0  0  0  0
   -1.8575   -0.8123    0.2402 N   0  0  0  0  0  0  0  0  0  0  0  0
   -2.6005   -0.3333   -0.2478 H   0  0  0  0  0  0  0  0  0  0  0  0
   -0.5675   -0.1203    0.3102 C   0  0  1  0  0  0  0  0  0  0  0  0
   -0.2191   -0.1513    1.3431 H   0  0  0  0  0  0  0  0  0  0  0  0
    0.4424   -0.8724   -0.5819 C   0  0  0  0  0  0  0  0  0  0  0  0
    0.0363   -0.9331   -1.5934 H   0  0  0  0  0  0  0  0  0  0  0  0
    1.3584   -0.2793   -0.6283 H   0  0  0  0  0  0  0  0  0  0  0  0
    0.8144   -2.2935   -0.1207 C   0  0  0  0  0  0  0  0  0  0  0  0
   -0.0918   -2.8780    0.0383 H   0  0  0  0  0  0  0  0  0  0  0  0
    1.7027   -3.0182   -1.1361 C   0  0  0  0  0  0  0  0  0  0  0  0
    2.6076   -2.4368   -1.3182 H   0  0  0  0  0  0  0  0  0  0  0  0
    1.9807   -3.9981   -0.7474 H   0  0  0  0  0  0  0  0  0  0  0  0
    1.1750   -3.1583   -2.0771 H   0  0  0  0  0  0  0  0  0  0  0  0
    1.5715   -2.2245    1.2050 C   0  0  0  0  0  0  0  0  0  0  0  0
    0.9492   -1.7406    1.9579 H   0  0  0  0  0  0  0  0  0  0  0  0
    1.8118   -3.2309    1.5476 H   0  0  0  0  0  0  0  0  0  0  0  0
    2.4942   -1.6564    1.0816 H   0  0  0  0  0  0  0  0  0  0  0  0
   -0.7319    1.3530   -0.1001 C   0  0  0  0  0  0  0  0  0  0  0  0
    0.1509    2.1678    0.1586 O   0  0  0  0  0  0  0  0  0  0  0  0
   -1.8646    1.6932   -0.7287 N   0  0  0  0  0  0  0  0  0  0  0  0
   -2.5387    0.9670   -0.9107 H   0  0  0  0  0  0  0  0  0  0  0  0
   -2.1780    3.0513   -1.1669 C   0  0  0  0  0  0  0  0  0  0  0  0
   -1.4107    3.4010   -1.8613 H   0  0  0  0  0  0  0  0  0  0  0  0
   -3.1493    3.0743   -1.6634 H   0  0  0  0  0  0  0  0  0  0  0  0
   -2.1970    3.7212   -0.3059 H   0  0  0  0  0  0  0  0  0  0  0  0
  5  6  2  0  0  0  0
  5  7  1  0  0  0  0
  2  3  1  0  0  0  0
  2  4  1  0  0  0  0
  2  5  1  0  0  0  0
  1  2  1  0  0  0  0
 24 25  2  0  0  0  0
 24 26  1  0  0  0  0
 20 21  1  0  0  0  0
 20 22  1  0  0  0  0
 20 23  1  0  0  0  0
 16 17  1  0  0  0  0
 16 18  1  0  0  0  0
 16 19  1  0  0  0  0
 14 15  1  0  0  0  0
 14 16  1  0  0  0  0
 14 20  1  0  0  0  0
 11 12  1  0  0  0  0
 11 13  1  0  0  0  0
 11 14  1  0  0  0  0
  9 10  1  0  0  0  0
  9 11  1  0  0  0  0
  9 24  1  0  0  0  0
  7  8  1  0  0  0  0
  7  9  1  0  0  0  0
 28 29  1  0  0  0  0
 28 30  1  0  0  0  0
 28 31  1  0  0  0  0
 26 27  1  0  0  0  0
 26 28  1  0  0  0  0
M  END
$$$$
default_name
  -OEChem-01062215323D

 31 30  0     1  0  0  0  0  0999 V2000
   -3.5895   -3.5013    1.1082 H   0  0  0  0  0  0  0  0  0  0  0  0
   -3.5145   -2.5363    0.6082 C   0  0  0  0  0  0  0  0  0  0  0  0
   -4.2285   -1.8413    1.0452 H   0  0  0  0  0  0  0  0  0  0  0  0
   -3.7155   -2.6583   -0.4538 H   0  0  0  0  0  0  0  0  0  0  0  0
   -2.1155   -1.9963    0.7922 C   0  0  0  0  0  0  0  0  0  0  0  0
   -1.2875   -2.6383    1.4252 O   0  0  0  0  0  0  0  0  0  0  0  0
   -1.8575   -0.8123    0.2402 N   0  0  0  0  0  0  0  0  0  0  0  0
   -2.6005   -0.3333   -0.2478 H   0  0  0  0  0  0  0  0  0  0  0  0
   -0.5675   -0.1203    0.3102 C   0  0  1  0  0  0  0  0  0  0  0  0
   -0.2191   -0.1513    1.3431 H   0  0  0  0  0  0  0  0  0  0  0  0
    0.4424   -0.8724   -0.5819 C   0  0  0  0  0  0  0  0  0  0  0  0
    0.0363   -0.9331   -1.5934 H   0  0  0  0  0  0  0  0  0  0  0  0
    1.3584   -0.2793   -0.6283 H   0  0  0  0  0  0  0  0  0  0  0  0
    0.8144   -2.2935   -0.1207 C   0  0  0  0  0  0  0  0  0  0  0  0
   -0.0918   -2.8780    0.0383 H   0  0  0  0  0  0  0  0  0  0  0  0
    1.7027   -3.0182   -1.1361 C   0  0  0  0  0  0  0  0  0  0  0  0
    2.6076   -2.4368   -1.3182 H   0  0  0  0  0  0  0  0  0  0  0  0
    1.9807   -3.9981   -0.7474 H   0  0  0  0  0  0  0  0  0  0  0  0
    1.1750   -3.1583   -2.0771 H   0  0  0  0  0  0  0  0  0  0  0  0
    1.5715   -2.2245    1.2050 C   0  0  0  0  0  0  0  0  0  0  0  0
    0.9492   -1.7406    1.9579 H   0  0  0  0  0  0  0  0  0  0  0  0
    1.8118   -3.2309    1.5476 H   0  0  0  0  0  0  0  0  0  0  0  0
    2.4942   -1.6564    1.0816 H   0  0  0  0  0  0  0  0  0  0  0  0
   -0.7319    1.3530   -0.1001 C   0  0  0  0  0  0  0  0  0  0  0  0
    0.2389    2.1064   -0.0972 O   0  0  0  0  0  0  0  0  0  0  0  0
   -1.9606    1.7625   -0.4414 N   0  0  0  0  0  0  0  0  0  0  0  0
   -2.7049    1.0837   -0.4248 H   0  0  0  0  0  0  0  0  0  0  0  0
   -2.2835    3.1312   -0.8379 C   0  0  0  0  0  0  0  0  0  0  0  0
   -1.6919    3.4111   -1.7124 H   0  0  0  0  0  0  0  0  0  0  0  0
   -3.3441    3.2151   -1.0797 H   0  0  0  0  0  0  0  0  0  0  0  0
   -2.0436    3.8169   -0.0237 H   0  0  0  0  0  0  0  0  0  0  0  0
  5  6  2  0  0  0  0
  5  7  1  0  0  0  0
  2  3  1  0  0  0  0
  2  4  1  0  0  0  0
  2  5  1  0  0  0  0
  1  2  1  0  0  0  0
 24 25  2  0  0  0  0
 24 26  1  0  0  0  0
 20 21  1  0  0  0  0
 20 22  1  0  0  0  0
 20 23  1  0  0  0  0
 16 17  1  0  0  0  0
 16 18  1  0  0  0  0
 16 19  1  0  0  0  0
 14 15  1  0  0  0  0
 14 16  1  0  0  0  0
 14 20  1  0  0  0  0
 11 12  1  0  0  0  0
 11 13  1  0  0  0  0
 11 14  1  0  0  0  0
  9 10  1  0  0  0  0
  9 11  1  0  0  0  0
  9 24  1  0  0  0  0
  7  8  1  0  0  0  0
  7  9  1  0  0  0  0
 28 29  1  0  0  0  0
 28 30  1  0  0  0  0
 28 31  1  0  0  0  0
 26 27  1  0  0  0  0
 26 28  1  0  0  0  0
M  END
$$$$
default_name
  -OEChem-01062215323D

 31 30  0     1  0  0  0  0  0999 V2000
   -3.5895   -3.5013    1.1082 H   0  0  0  0  0  0  0  0  0  0  0  0
   -3.5145   -2.5363    0.6082 C   0  0  0  0  0  0  0  0  0  0  0  0
   -4.2285   -1.8413    1.0452 H   0  0  0  0  0  0  0  0  0  0  0  0
   -3.7155   -2.6583   -0.4538 H   0  0  0  0  0  0  0  0  0  0  0  0
   -2.1155   -1.9963    0.7922 C   0  0  0  0  0  0  0  0  0  0  0  0
   -1.2875   -2.6383    1.4252 O   0  0  0  0  0  0  0  0  0  0  0  0
   -1.8575   -0.8123    0.2402 N   0  0  0  0  0  0  0  0  0  0  0  0
   -2.6005   -0.3333   -0.2478 H   0  0  0  0  0  0  0  0  0  0  0  0
   -0.5675   -0.1203    0.3102 C   0  0  1  0  0  0  0  0  0  0  0  0
   -0.2191   -0.1513    1.3431 H   0  0  0  0  0  0  0  0  0  0  0  0
    0.4424   -0.8724   -0.5819 C   0  0  0  0  0  0  0  0  0  0  0  0
    0.0363   -0.9331   -1.5934 H   0  0  0  0  0  0  0  0  0  0  0  0
    1.3584   -0.2793   -0.6283 H   0  0  0  0  0  0  0  0  0  0  0  0
    0.8144   -2.2935   -0.1207 C   0  0  0  0  0  0  0  0  0  0  0  0
   -0.0918   -2.8780    0.0383 H   0  0  0  0  0  0  0  0  0  0  0  0
    1.7027   -3.0182   -1.1361 C   0  0  0  0  0  0  0  0  0  0  0  0
    2.6076   -2.4368   -1.3182 H   0  0  0  0  0  0  0  0  0  0  0  0
    1.9807   -3.9981   -0.7474 H   0  0  0  0  0  0  0  0  0  0  0  0
    1.1750   -3.1583   -2.0771 H   0  0  0  0  0  0  0  0  0  0  0  0
    1.5715   -2.2245    1.2050 C   0  0  0  0  0  0  0  0  0  0  0  0
    0.9492   -1.7406    1.9579 H   0  0  0  0  0  0  0  0  0  0  0  0
    1.8118   -3.2309    1.5476 H   0  0  0  0  0  0  0  0  0  0  0  0
    2.4942   -1.6564    1.0816 H   0  0  0  0  0  0  0  0  0  0  0  0
   -0.7319    1.3530   -0.1001 C   0  0  0  0  0  0  0  0  0  0  0  0
    0.2563    2.0339   -0.3645 O   0  0  0  0  0  0  0  0  0  0  0  0
   -1.9773    1.8440   -0.1421 N   0  0  0  0  0  0  0  0  0  0  0  0
   -2.7369    1.2214    0.0824 H   0  0  0  0  0  0  0  0  0  0  0  0
   -2.2983    3.2247   -0.4961 C   0  0  0  0  0  0  0  0  0  0  0  0
   -1.9259    3.4443   -1.4992 H   0  0  0  0  0  0  0  0  0  0  0  0
   -3.3778    3.3808   -0.4714 H   0  0  0  0  0  0  0  0  0  0  0  0
   -1.8189    3.9065    0.2081 H   0  0  0  0  0  0  0  0  0  0  0  0
  5  6  2  0  0  0  0
  5  7  1  0  0  0  0
  2  3  1  0  0  0  0
  2  4  1  0  0  0  0
  2  5  1  0  0  0  0
  1  2  1  0  0  0  0
 24 25  2  0  0  0  0
 24 26  1  0  0  0  0
 20 21  1  0  0  0  0
 20 22  1  0  0  0  0
 20 23  1  0  0  0  0
 16 17  1  0  0  0  0
 16 18  1  0  0  0  0
 16 19  1  0  0  0  0
 14 15  1  0  0  0  0
 14 16  1  0  0  0  0
 14 20  1  0  0  0  0
 11 12  1  0  0  0  0
 11 13  1  0  0  0  0
 11 14  1  0  0  0  0
  9 10  1  0  0  0  0
  9 11  1  0  0  0  0
  9 24  1  0  0  0  0
  7  8  1  0  0  0  0
  7  9  1  0  0  0  0
 28 29  1  0  0  0  0
 28 30  1  0  0  0  0
 28 31  1  0  0  0  0
 26 27  1  0  0  0  0
 26 28  1  0  0  0  0
M  END
$$$$
default_name
  -OEChem-01062215323D

 31 30  0     1  0  0  0  0  0999 V2000
   -3.5895   -3.5013    1.1082 H   0  0  0  0  0  0  0  0  0  0  0  0
   -3.5145   -2.5363    0.6082 C   0  0  0  0  0  0  0  0  0  0  0  0
   -4.2285   -1.8413    1.0452 H   0  0  0  0  0  0  0  0  0  0  0  0
   -3.7155   -2.6583   -0.4538 H   0  0  0  0  0  0  0  0  0  0  0  0
   -2.1155   -1.9963    0.7922 C   0  0  0  0  0  0  0  0  0  0  0  0
   -1.2875   -2.6383    1.4252 O   0  0  0  0  0  0  0  0  0  0  0  0
   -1.8575   -0.8123    0.2402 N   0  0  0  0  0  0  0  0  0  0  0  0
   -2.6005   -0.3333   -0.2478 H   0  0  0  0  0  0  0  0  0  0  0  0
   -0.5675   -0.1203    0.3102 C   0  0  1  0  0  0  0  0  0  0  0  0
   -0.2191   -0.1513    1.3431 H   0  0  0  0  0  0  0  0  0  0  0  0
    0.4424   -0.8724   -0.5819 C   0  0  0  0  0  0  0  0  0  0  0  0
    0.0363   -0.9331   -1.5934 H   0  0  0  0  0  0  0  0  0  0  0  0
    1.3584   -0.2793   -0.6283 H   0  0  0  0  0  0  0  0  0  0  0  0
    0.8144   -2.2935   -0.1207 C   0  0  0  0  0  0  0  0  0  0  0  0
   -0.0918   -2.8780    0.0383 H   0  0  0  0  0  0  0  0  0  0  0  0
    1.7027   -3.0182   -1.1361 C   0  0  0  0  0  0  0  0  0  0  0  0
    2.6076   -2.4368   -1.3182 H   0  0  0  0  0  0  0  0  0  0  0  0
    1.9807   -3.9981   -0.7474 H   0  0  0  0  0  0  0  0  0  0  0  0
    1.1750   -3.1583   -2.0771 H   0  0  0  0  0  0  0  0  0  0  0  0
    1.5715   -2.2245    1.2050 C   0  0  0  0  0  0  0  0  0  0  0  0
    0.9492   -1.7406    1.9579 H   0  0  0  0  0  0  0  0  0  0  0  0
    1.8118   -3.2309    1.5476 H   0  0  0  0  0  0  0  0  0  0  0  0
    2.4942   -1.6564    1.0816 H   0  0  0  0  0  0  0  0  0  0  0  0
   -0.7319    1.3530   -0.1001 C   0  0  0  0  0  0  0  0  0  0  0  0
    0.2019    1.9553   -0.6249 O   0  0  0  0  0  0  0  0  0  0  0  0
   -1.9136    1.9321    0.1489 N   0  0  0  0  0  0  0  0  0  0  0  0
   -2.6326    1.3707    0.5765 H   0  0  0  0  0  0  0  0  0  0  0  0
   -2.2214    3.3255   -0.1649 C   0  0  0  0  0  0  0  0  0  0  0  0
   -2.0968    3.4985   -1.2362 H   0  0  0  0  0  0  0  0  0  0  0  0
   -3.2482    3.5599    0.1200 H   0  0  0  0  0  0  0  0  0  0  0  0
   -1.5382    3.9840    0.3739 H   0  0  0  0  0  0  0  0  0  0  0  0
  5  6  2  0  0  0  0
  5  7  1  0  0  0  0
  2  3  1  0  0  0  0
  2  4  1  0  0  0  0
  2  5  1  0  0  0  0
  1  2  1  0  0  0  0
 24 25  2  0  0  0  0
 24 26  1  0  0  0  0
 20 21  1  0  0  0  0
 20 22  1  0  0  0  0
 20 23  1  0  0  0  0
 16 17  1  0  0  0  0
 16 18  1  0  0  0  0
 16 19  1  0  0  0  0
 14 15  1  0  0  0  0
 14 16  1  0  0  0  0
 14 20  1  0  0  0  0
 11 12  1  0  0  0  0
 11 13  1  0  0  0  0
 11 14  1  0  0  0  0
  9 10  1  0  0  0  0
  9 11  1  0  0  0  0
  9 24  1  0  0  0  0
  7  8  1  0  0  0  0
  7  9  1  0  0  0  0
 28 29  1  0  0  0  0
 28 30  1  0  0  0  0
 28 31  1  0  0  0  0
 26 27  1  0  0  0  0
 26 28  1  0  0  0  0
M  END
$$$$
default_name
  -OEChem-01062215323D

 31 30  0     1  0  0  0  0  0999 V2000
   -3.5895   -3.5013    1.1082 H   0  0  0  0  0  0  0  0  0  0  0  0
   -3.5145   -2.5363    0.6082 C   0  0  0  0  0  0  0  0  0  0  0  0
   -4.2285   -1.8413    1.0452 H   0  0  0  0  0  0  0  0  0  0  0  0
   -3.7155   -2.6583   -0.4538 H   0  0  0  0  0  0  0  0  0  0  0  0
   -2.1155   -1.9963    0.7922 C   0  0  0  0  0  0  0  0  0  0  0  0
   -1.2875   -2.6383    1.4252 O   0  0  0  0  0  0  0  0  0  0  0  0
   -1.8575   -0.8123    0.2402 N   0  0  0  0  0  0  0  0  0  0  0  0
   -2.6005   -0.3333   -0.2478 H   0  0  0  0  0  0  0  0  0  0  0  0
   -0.5675   -0.1203    0.3102 C   0  0  1  0  0  0  0  0  0  0  0  0
   -0.2191   -0.1513    1.3431 H   0  0  0  0  0  0  0  0  0  0  0  0
    0.4424   -0.8724   -0.5819 C   0  0  0  0  0  0  0  0  0  0  0  0
    0.0363   -0.9331   -1.5934 H   0  0  0  0  0  0  0  0  0  0  0  0
    1.3584   -0.2793   -0.6283 H   0  0  0  0  0  0  0  0  0  0  0  0
    0.8144   -2.2935   -0.1207 C   0  0  0  0  0  0  0  0  0  0  0  0
   -0.0918   -2.8780    0.0383 H   0  0  0  0  0  0  0  0  0  0  0  0
    1.7027   -3.0182   -1.1361 C   0  0  0  0  0  0  0  0  0  0  0  0
    2.6076   -2.4368   -1.3182 H   0  0  0  0  0  0  0  0  0  0  0  0
    1.9807   -3.9981   -0.7474 H   0  0  0  0  0  0  0  0  0  0  0  0
    1.1750   -3.1583   -2.0771 H   0  0  0  0  0  0  0  0  0  0  0  0
    1.5715   -2.2245    1.2050 C   0  0  0  0  0  0  0  0  0  0  0  0
    0.9492   -1.7406    1.9579 H   0  0  0  0  0  0  0  0  0  0  0  0
    1.8118   -3.2309    1.5476 H   0  0  0  0  0  0  0  0  0  0  0  0
    2.4942   -1.6564    1.0816 H   0  0  0  0  0  0  0  0  0  0  0  0
   -0.7319    1.3530   -0.1001 C   0  0  0  0  0  0  0  0  0  0  0  0
    0.0793    1.8760   -0.8608 O   0  0  0  0  0  0  0  0  0  0  0  0
   -1.7739    2.0209    0.4117 N   0  0  0  0  0  0  0  0  0  0  0  0
   -2.3990    1.5213    1.0238 H   0  0  0  0  0  0  0  0  0  0  0  0
   -2.0580    3.4268    0.1332 C   0  0  0  0  0  0  0  0  0  0  0  0
   -2.1929    3.5699   -0.9413 H   0  0  0  0  0  0  0  0  0  0  0  0
   -2.9640    3.7404    0.6541 H   0  0  0  0  0  0  0  0  0  0  0  0
   -1.2206    4.0441    0.4623 H   0  0  0  0  0  0  0  0  0  0  0  0
  5  6  2  0  0  0  0
  5  7  1  0  0  0  0
  2  3  1  0  0  0  0
  2  4  1  0  0  0  0
  2  5  1  0  0  0  0
  1  2  1  0  0  0  0
 24 25  2  0  0  0  0
 24 26  1  0  0  0  0
 20 21  1  0  0  0  0
 20 22  1  0  0  0  0
 20 23  1  0  0  0  0
 16 17  1  0  0  0  0
 16 18  1  0  0  0  0
 16 19  1  0  0  0  0
 14 15  1  0  0  0  0
 14 16  1  0  0  0  0
 14 20  1  0  0  0  0
 11 12  1  0  0  0  0
 11 13  1  0  0  0  0
 11 14  1  0  0  0  0
  9 10  1  0  0  0  0
  9 11  1  0  0  0  0
  9 24  1  0  0  0  0
  7  8  1  0  0  0  0
  7  9  1  0  0  0  0
 28 29  1  0  0  0  0
 28 30  1  0  0  0  0
 28 31  1  0  0  0  0
 26 27  1  0  0  0  0
 26 28  1  0  0  0  0
M  END
$$$$
default_name
  -OEChem-01062215323D

 31 30  0     1  0  0  0  0  0999 V2000
   -3.5895   -3.5013    1.1082 H   0  0  0  0  0  0  0  0  0  0  0  0
   -3.5145   -2.5363    0.6082 C   0  0  0  0  0  0  0  0  0  0  0  0
   -4.2285   -1.8413    1.0452 H   0  0  0  0  0  0  0  0  0  0  0  0
   -3.7155   -2.6583   -0.4538 H   0  0  0  0  0  0  0  0  0  0  0  0
   -2.1155   -1.9963    0.7922 C   0  0  0  0  0  0  0  0  0  0  0  0
   -1.2875   -2.6383    1.4252 O   0  0  0  0  0  0  0  0  0  0  0  0
   -1.8575   -0.8123    0.2402 N   0  0  0  0  0  0  0  0  0  0  0  0
   -2.6005   -0.3333   -0.2478 H   0  0  0  0  0  0  0  0  0  0  0  0
   -0.5675   -0.1203    0.3102 C   0  0  1  0  0  0  0  0  0  0  0  0
   -0.2191   -0.1513    1.3431 H   0  0  0  0  0  0  0  0  0  0  0  0
    0.4424   -0.8724   -0.5819 C   0  0  0  0  0  0  0  0  0  0  0  0
    0.0363   -0.9331   -1.5934 H   0  0  0  0  0  0  0  0  0  0  0  0
    1.3584   -0.2793   -0.6283 H   0  0  0  0  0  0  0  0  0  0  0  0
    0.8144   -2.2935   -0.1207 C   0  0  0  0  0  0  0  0  0  0  0  0
   -0.0918   -2.8780    0.0383 H   0  0  0  0  0  0  0  0  0  0  0  0
    1.7027   -3.0182   -1.1361 C   0  0  0  0  0  0  0  0  0  0  0  0
    2.6076   -2.4368   -1.3182 H   0  0  0  0  0  0  0  0  0  0  0  0
    1.9807   -3.9981   -0.7474 H   0  0  0  0  0  0  0  0  0  0  0  0
    1.1750   -3.1583   -2.0771 H   0  0  0  0  0  0  0  0  0  0  0  0
    1.5715   -2.2245    1.2050 C   0  0  0  0  0  0  0  0  0  0  0  0
    0.9492   -1.7406    1.9579 H   0  0  0  0  0  0  0  0  0  0  0  0
    1.8118   -3.2309    1.5476 H   0  0  0  0  0  0  0  0  0  0  0  0
    2.4942   -1.6564    1.0816 H   0  0  0  0  0  0  0  0  0  0  0  0
   -0.7319    1.3530   -0.1001 C   0  0  0  0  0  0  0  0  0  0  0  0
   -0.1031    1.8012   -1.0560 O   0  0  0  0  0  0  0  0  0  0  0  0
   -1.5677    2.1043    0.6285 N   0  0  0  0  0  0  0  0  0  0  0  0
   -2.0521    1.6630    1.3938 H   0  0  0  0  0  0  0  0  0  0  0  0
   -1.8193    3.5215    0.3778 C   0  0  0  0  0  0  0  0  0  0  0  0
   -2.2077    3.6537   -0.6345 H   0  0  0  0  0  0  0  0  0  0  0  0
   -2.5446    3.9098    1.0945 H   0  0  0  0  0  0  0  0  0  0  0  0
   -0.8878    4.0826    0.4672 H   0  0  0  0  0  0  0  0  0  0  0  0
  5  6  2  0  0  0  0
  5  7  1  0  0  0  0
  2  3  1  0  0  0  0
  2  4  1  0  0  0  0
  2  5  1  0  0  0  0
  1  2  1  0  0  0  0
 24 25  2  0  0  0  0
 24 26  1  0  0  0  0
 20 21  1  0  0  0  0
 20 22  1  0  0  0  0
 20 23  1  0  0  0  0
 16 17  1  0  0  0  0
 16 18  1  0  0  0  0
 16 19  1  0  0  0  0
 14 15  1  0  0  0  0
 14 16  1  0  0  0  0
 14 20  1  0  0  0  0
 11 12  1  0  0  0  0
 11 13  1  0  0  0  0
 11 14  1  0  0  0  0
  9 10  1  0  0  0  0
  9 11  1  0  0  0  0
  9 24  1  0  0  0  0
  7  8  1  0  0  0  0
  7  9  1  0  0  0  0
 28 29  1  0  0  0  0
 28 30  1  0  0  0  0
 28 31  1  0  0  0  0
 26 27  1  0  0  0  0
 26 28  1  0  0  0  0
M  END
$$$$
default_name
  -OEChem-01062215323D

 31 30  0     1  0  0  0  0  0999 V2000
   -3.5895   -3.5013    1.1082 H   0  0  0  0  0  0  0  0  0  0  0  0
   -3.5145   -2.5363    0.6082 C   0  0  0  0  0  0  0  0  0  0  0  0
   -4.2285   -1.8413    1.0452 H   0  0  0  0  0  0  0  0  0  0  0  0
   -3.7155   -2.6583   -0.4538 H   0  0  0  0  0  0  0  0  0  0  0  0
   -2.1155   -1.9963    0.7922 C   0  0  0  0  0  0  0  0  0  0  0  0
   -1.2875   -2.6383    1.4252 O   0  0  0  0  0  0  0  0  0  0  0  0
   -1.8575   -0.8123    0.2402 N   0  0  0  0  0  0  0  0  0  0  0  0
   -2.6005   -0.3333   -0.2478 H   0  0  0  0  0  0  0  0  0  0  0  0
   -0.5675   -0.1203    0.3102 C   0  0  1  0  0  0  0  0  0  0  0  0
   -0.2191   -0.1513    1.3431 H   0  0  0  0  0  0  0  0  0  0  0  0
    0.4424   -0.8724   -0.5819 C   0  0  0  0  0  0  0  0  0  0  0  0
    0.0363   -0.9331   -1.5934 H   0  0  0  0  0  0  0  0  0  0  0  0
    1.3584   -0.2793   -0.6283 H   0  0  0  0  0  0  0  0  0  0  0  0
    0.8144   -2.2935   -0.1207 C   0  0  0  0  0  0  0  0  0  0  0  0
   -0.0918   -2.8780    0.0383 H   0  0  0  0  0  0  0  0  0  0  0  0
    1.7027   -3.0182   -1.1361 C   0  0  0  0  0  0  0  0  0  0  0  0
    2.6076   -2.4368   -1.3182 H   0  0  0  0  0  0  0  0  0  0  0  0
    1.9807   -3.9981   -0.7474 H   0  0  0  0  0  0  0  0  0  0  0  0
    1.1750   -3.1583   -2.0771 H   0  0  0  0  0  0  0  0  0  0  0  0
    1.5715   -2.2245    1.2050 C   0  0  0  0  0  0  0  0  0  0  0  0
    0.9492   -1.7406    1.9579 H   0  0  0  0  0  0  0  0  0  0  0  0
    1.8118   -3.2309    1.5476 H   0  0  0  0  0  0  0  0  0  0  0  0
    2.4942   -1.6564    1.0816 H   0  0  0  0  0  0  0  0  0  0  0  0
   -0.7319    1.3530   -0.1001 C   0  0  0  0  0  0  0  0  0  0  0  0
   -0.3328    1.7362   -1.1974 O   0  0  0  0  0  0  0  0  0  0  0  0
   -1.3089    2.1766    0.7845 N   0  0  0  0  0  0  0  0  0  0  0  0
   -1.6155    1.7862    1.6612 H   0  0  0  0  0  0  0  0  0  0  0  0
   -1.5216    3.6034    0.5523 C   0  0  0  0  0  0  0  0  0  0  0  0
   -2.1402    3.7441   -0.3369 H   0  0  0  0  0  0  0  0  0  0  0  0
   -2.0187    4.0568    1.4113 H   0  0  0  0  0  0  0  0  0  0  0  0
   -0.5624    4.0970    0.3885 H   0  0  0  0  0  0  0  0  0  0  0  0
  5  6  2  0  0  0  0
  5  7  1  0  0  0  0
  2  3  1  0  0  0  0
  2  4  1  0  0  0  0
  2  5  1  0  0  0  0
  1  2  1  0  0  0  0
 24 25  2  0  0  0  0
 24 26  1  0  0  0  0
 20 21  1  0  0  0  0
 20 22  1  0  0  0  0
 20 23  1  0  0  0  0
 16 17  1  0  0  0  0
 16 18  1  0  0  0  0
 16 19  1  0  0  0  0
 14 15  1  0  0  0  0
 14 16  1  0  0  0  0
 14 20  1  0  0  0  0
 11 12  1  0  0  0  0
 11 13  1  0  0  0  0
 11 14  1  0  0  0  0
  9 10  1  0  0  0  0
  9 11  1  0  0  0  0
  9 24  1  0  0  0  0
  7  8  1  0  0  0  0
  7  9  1  0  0  0  0
 28 29  1  0  0  0  0
 28 30  1  0  0  0  0
 28 31  1  0  0  0  0
 26 27  1  0  0  0  0
 26 28  1  0  0  0  0
M  END
$$$$
default_name
  -OEChem-01062215323D

 31 30  0     1  0  0  0  0  0999 V2000
   -3.5895   -3.5013    1.1082 H   0  0  0  0  0  0  0  0  0  0  0  0
   -3.5145   -2.5363    0.6082 C   0  0  0  0  0  0  0  0  0  0  0  0
   -4.2285   -1.8413    1.0452 H   0  0  0  0  0  0  0  0  0  0  0  0
   -3.7155   -2.6583   -0.4538 H   0  0  0  0  0  0  0  0  0  0  0  0
   -2.1155   -1.9963    0.7922 C   0  0  0  0  0  0  0  0  0  0  0  0
   -1.2875   -2.6383    1.4252 O   0  0  0  0  0  0  0  0  0  0  0  0
   -1.8575   -0.8123    0.2402 N   0  0  0  0  0  0  0  0  0  0  0  0
   -2.6005   -0.3333   -0.2478 H   0  0  0  0  0  0  0  0  0  0  0  0
   -0.5675   -0.1203    0.3102 C   0  0  1  0  0  0  0  0  0  0  0  0
   -0.2191   -0.1513    1.3431 H   0  0  0  0  0  0  0  0  0  0  0  0
    0.4424   -0.8724   -0.5819 C   0  0  0  0  0  0  0  0  0  0  0  0
    0.0363   -0.9331   -1.5934 H   0  0  0  0  0  0  0  0  0  0  0  0
    1.3584   -0.2793   -0.6283 H   0  0  0  0  0  0  0  0  0  0  0  0
    0.8144   -2.2935   -0.1207 C   0  0  0  0  0  0  0  0  0  0  0  0
   -0.0918   -2.8780    0.0383 H   0  0  0  0  0  0  0  0  0  0  0  0
    1.7027   -3.0182   -1.1361 C   0  0  0  0  0  0  0  0  0  0  0  0
    2.6076   -2.4368   -1.3182 H   0  0  0  0  0  0  0  0  0  0  0  0
    1.9807   -3.9981   -0.7474 H   0  0  0  0  0  0  0  0  0  0  0  0
    1.1750   -3.1583   -2.0771 H   0  0  0  0  0  0  0  0  0  0  0  0
    1.5715   -2.2245    1.2050 C   0  0  0  0  0  0  0  0  0  0  0  0
    0.9492   -1.7406    1.9579 H   0  0  0  0  0  0  0  0  0  0  0  0
    1.8118   -3.2309    1.5476 H   0  0  0  0  0  0  0  0  0  0  0  0
    2.4942   -1.6564    1.0816 H   0  0  0  0  0  0  0  0  0  0  0  0
   -0.7319    1.3530   -0.1001 C   0  0  0  0  0  0  0  0  0  0  0  0
   -0.5942    1.6854   -1.2752 O   0  0  0  0  0  0  0  0  0  0  0  0
   -1.0153    2.2329    0.8690 N   0  0  0  0  0  0  0  0  0  0  0  0
   -1.1190    1.8825    1.8079 H   0  0  0  0  0  0  0  0  0  0  0  0
   -1.1851    3.6667    0.6448 C   0  0  0  0  0  0  0  0  0  0  0  0
   -1.9950    3.8350   -0.0686 H   0  0  0  0  0  0  0  0  0  0  0  0
   -1.4219    4.1712    1.5828 H   0  0  0  0  0  0  0  0  0  0  0  0
   -0.2667    4.0863    0.2313 H   0  0  0  0  0  0  0  0  0  0  0  0
  5  6  2  0  0  0  0
  5  7  1  0  0  0  0
  2  3  1  0  0  0  0
  2  4  1  0  0  0  0
  2  5  1  0  0  0  0
  1  2  1  0  0  0  0
 24 25  2  0  0  0  0
 24 26  1  0  0  0  0
 20 21  1  0  0  0  0
 20 22  1  0  0  0  0
 20 23  1  0  0  0  0
 16 17  1  0  0  0  0
 16 18  1  0  0  0  0
 16 19  1  0  0  0  0
 14 15  1  0  0  0  0
 14 16  1  0  0  0  0
 14 20  1  0  0  0  0
 11 12  1  0  0  0  0
 11 13  1  0  0  0  0
 11 14  1  0  0  0  0
  9 10  1  0  0  0  0
  9 11  1  0  0  0  0
  9 24  1  0  0  0  0
  7  8  1  0  0  0  0
  7  9  1  0  0  0  0
 28 29  1  0  0  0  0
 28 30  1  0  0  0  0
 28 31  1  0  0  0  0
 26 27  1  0  0  0  0
 26 28  1  0  0  0  0
M  END
$$$$
default_name
  -OEChem-01062215323D

 31 30  0     1  0  0  0  0  0999 V2000
   -3.5895   -3.5013    1.1082 H   0  0  0  0  0  0  0  0  0  0  0  0
   -3.5145   -2.5363    0.6082 C   0  0  0  0  0  0  0  0  0  0  0  0
   -4.2285   -1.8413    1.0452 H   0  0  0  0  0  0  0  0  0  0  0  0
   -3.7155   -2.6583   -0.4538 H   0  0  0  0  0  0  0  0  0  0  0  0
   -2.1155   -1.9963    0.7922 C   0  0  0  0  0  0  0  0  0  0  0  0
   -1.2875   -2.6383    1.4252 O   0  0  0  0  0  0  0  0  0  0  0  0
   -1.8575   -0.8123    0.2402 N   0  0  0  0  0  0  0  0  0  0  0  0
   -2.6005   -0.3333   -0.2478 H   0  0  0  0  0  0  0  0  0  0  0  0
   -0.5675   -0.1203    0.3102 C   0  0  1  0  0  0  0  0  0  0  0  0
   -0.2191   -0.1513    1.3431 H   0  0  0  0  0  0  0  0  0  0  0  0
    0.4424   -0.8724   -0.5819 C   0  0  0  0  0  0  0  0  0  0  0  0
    0.0363   -0.9331   -1.5934 H   0  0  0  0  0  0  0  0  0  0  0  0
    1.3584   -0.2793   -0.6283 H   0  0  0  0  0  0  0  0  0  0  0  0
    0.8144   -2.2935   -0.1207 C   0  0  0  0  0  0  0  0  0  0  0  0
   -0.0918   -2.8780    0.0383 H   0  0  0  0  0  0  0  0  0  0  0  0
    1.7027   -3.0182   -1.1361 C   0  0  0  0  0  0  0  0  0  0  0  0
    2.6076   -2.4368   -1.3182 H   0  0  0  0  0  0  0  0  0  0  0  0
    1.9807   -3.9981   -0.7474 H   0  0  0  0  0  0  0  0  0  0  0  0
    1.1750   -3.1583   -2.0771 H   0  0  0  0  0  0  0  0  0  0  0  0
    1.5715   -2.2245    1.2050 C   0  0  0  0  0  0  0  0  0  0  0  0
    0.9492   -1.7406    1.9579 H   0  0  0  0  0  0  0  0  0  0  0  0
    1.8118   -3.2309    1.5476 H   0  0  0  0  0  0  0  0  0  0  0  0
    2.4942   -1.6564    1.0816 H   0  0  0  0  0  0  0  0  0  0  0  0
   -0.7319    1.3530   -0.1001 C   0  0  0  0  0  0  0  0  0  0  0  0
   -0.8695    1.6522   -1.2841 O   0  0  0  0  0  0  0  0  0  0  0  0
   -0.7069    2.2694    0.8763 N   0  0  0  0  0  0  0  0  0  0  0  0
   -0.5964    1.9453    1.8238 H   0  0  0  0  0  0  0  0  0  0  0  0
   -0.8328    3.7072    0.6490 C   0  0  0  0  0  0  0  0  0  0  0  0
   -1.7819    3.9202    0.1520 H   0  0  0  0  0  0  0  0  0  0  0  0
   -0.7951    4.2452    1.5974 H   0  0  0  0  0  0  0  0  0  0  0  0
   -0.0207    4.0511    0.0065 H   0  0  0  0  0  0  0  0  0  0  0  0
  5  6  2  0  0  0  0
  5  7  1  0  0  0  0
  2  3  1  0  0  0  0
  2  4  1  0  0  0  0
  2  5  1  0  0  0  0
  1  2  1  0  0  0  0
 24 25  2  0  0  0  0
 24 26  1  0  0  0  0
 20 21  1  0  0  0  0
 20 22  1  0  0  0  0
 20 23  1  0  0  0  0
 16 17  1  0  0  0  0
 16 18  1  0  0  0  0
 16 19  1  0  0  0  0
 14 15  1  0  0  0  0
 14 16  1  0  0  0  0
 14 20  1  0  0  0  0
 11 12  1  0  0  0  0
 11 13  1  0  0  0  0
 11 14  1  0  0  0  0
  9 10  1  0  0  0  0
  9 11  1  0  0  0  0
  9 24  1  0  0  0  0
  7  8  1  0  0  0  0
  7  9  1  0  0  0  0
 28 29  1  0  0  0  0
 28 30  1  0  0  0  0
 28 31  1  0  0  0  0
 26 27  1  0  0  0  0
 26 28  1  0  0  0  0
M  END
$$$$
default_name
  -OEChem-01062215323D

 31 30  0     1  0  0  0  0  0999 V2000
   -3.5895   -3.5013    1.1082 H   0  0  0  0  0  0  0  0  0  0  0  0
   -3.5145   -2.5363    0.6082 C   0  0  0  0  0  0  0  0  0  0  0  0
   -4.2285   -1.8413    1.0452 H   0  0  0  0  0  0  0  0  0  0  0  0
   -3.7155   -2.6583   -0.4538 H   0  0  0  0  0  0  0  0  0  0  0  0
   -2.1155   -1.9963    0.7922 C   0  0  0  0  0  0  0  0  0  0  0  0
   -1.2875   -2.6383    1.4252 O   0  0  0  0  0  0  0  0  0  0  0  0
   -1.8575   -0.8123    0.2402 N   0  0  0  0  0  0  0  0  0  0  0  0
   -2.6005   -0.3333   -0.2478 H   0  0  0  0  0  0  0  0  0  0  0  0
   -0.5675   -0.1203    0.3102 C   0  0  1  0  0  0  0  0  0  0  0  0
   -0.2191   -0.1513    1.3431 H   0  0  0  0  0  0  0  0  0  0  0  0
    0.4424   -0.8724   -0.5819 C   0  0  0  0  0  0  0  0  0  0  0  0
    0.0363   -0.9331   -1.5934 H   0  0  0  0  0  0  0  0  0  0  0  0
    1.3584   -0.2793   -0.6283 H   0  0  0  0  0  0  0  0  0  0  0  0
    0.8144   -2.2935   -0.1207 C   0  0  0  0  0  0  0  0  0  0  0  0
   -0.0918   -2.8780    0.0383 H   0  0  0  0  0  0  0  0  0  0  0  0
    1.7027   -3.0182   -1.1361 C   0  0  0  0  0  0  0  0  0  0  0  0
    2.6076   -2.4368   -1.3182 H   0  0  0  0  0  0  0  0  0  0  0  0
    1.9807   -3.9981   -0.7474 H   0  0  0  0  0  0  0  0  0  0  0  0
    1.1750   -3.1583   -2.0771 H   0  0  0  0  0  0  0  0  0  0  0  0
    1.5715   -2.2245    1.2050 C   0  0  0  0  0  0  0  0  0  0  0  0
    0.9492   -1.7406    1.9579 H   0  0  0  0  0  0  0  0  0  0  0  0
    1.8118   -3.2309    1.5476 H   0  0  0  0  0  0  0  0  0  0  0  0
    2.4942   -1.6564    1.0816 H   0  0  0  0  0  0  0  0  0  0  0  0
   -0.7319    1.3530   -0.1001 C   0  0  0  0  0  0  0  0  0  0  0  0
   -1.1399    1.6389   -1.2235 O   0  0  0  0  0  0  0  0  0  0  0  0
   -0.4047    2.2835    0.8059 N   0  0  0  0  0  0  0  0  0  0  0  0
   -0.0833    1.9703    1.7079 H   0  0  0  0  0  0  0  0  0  0  0  0
   -0.4887    3.7221    0.5646 C   0  0  0  0  0  0  0  0  0  0  0  0
   -1.5155    3.9939    0.3099 H   0  0  0  0  0  0  0  0  0  0  0  0
   -0.1810    4.2738    1.4541 H   0  0  0  0  0  0  0  0  0  0  0  0
    0.1587    3.9940   -0.2706 H   0  0  0  0  0  0  0  0  0  0  0  0
  5  6  2  0  0  0  0
  5  7  1  0  0  0  0
  2  3  1  0  0  0  0
  2  4  1  0  0  0  0
  2  5  1  0  0  0  0
  1  2  1  0  0  0  0
 24 25  2  0  0  0  0
 24 26  1  0  0  0  0
 20 21  1  0  0  0  0
 20 22  1  0  0  0  0
 20 23  1  0  0  0  0
 16 17  1  0  0  0  0
 16 18  1  0  0  0  0
 16 19  1  0  0  0  0
 14 15  1  0  0  0  0
 14 16  1  0  0  0  0
 14 20  1  0  0  0  0
 11 12  1  0  0  0  0
 11 13  1  0  0  0  0
 11 14  1  0  0  0  0
  9 10  1  0  0  0  0
  9 11  1  0  0  0  0
  9 24  1  0  0  0  0
  7  8  1  0  0  0  0
  7  9  1  0  0  0  0
 28 29  1  0  0  0  0
 28 30  1  0  0  0  0
 28 31  1  0  0  0  0
 26 27  1  0  0  0  0
 26 28  1  0  0  0  0
M  END
$$$$
default_name
  -OEChem-01062215323D

 31 30  0     1  0  0  0  0  0999 V2000
   -3.5895   -3.5013    1.1082 H   0  0  0  0  0  0  0  0  0  0  0  0
   -3.5145   -2.5363    0.6082 C   0  0  0  0  0  0  0  0  0  0  0  0
   -4.2285   -1.8413    1.0452 H   0  0  0  0  0  0  0  0  0  0  0  0
   -3.7155   -2.6583   -0.4538 H   0  0  0  0  0  0  0  0  0  0  0  0
   -2.1155   -1.9963    0.7922 C   0  0  0  0  0  0  0  0  0  0  0  0
   -1.2875   -2.6383    1.4252 O   0  0  0  0  0  0  0  0  0  0  0  0
   -1.8575   -0.8123    0.2402 N   0  0  0  0  0  0  0  0  0  0  0  0
   -2.6005   -0.3333   -0.2478 H   0  0  0  0  0  0  0  0  0  0  0  0
   -0.5675   -0.1203    0.3102 C   0  0  1  0  0  0  0  0  0  0  0  0
   -0.2191   -0.1513    1.3431 H   0  0  0  0  0  0  0  0  0  0  0  0
    0.4424   -0.8724   -0.5819 C   0  0  0  0  0  0  0  0  0  0  0  0
    0.0363   -0.9331   -1.5934 H   0  0  0  0  0  0  0  0  0  0  0  0
    1.3584   -0.2793   -0.6283 H   0  0  0  0  0  0  0  0  0  0  0  0
    0.8144   -2.2935   -0.1207 C   0  0  0  0  0  0  0  0  0  0  0  0
   -0.0918   -2.8780    0.0383 H   0  0  0  0  0  0  0  0  0  0  0  0
    1.7027   -3.0182   -1.1361 C   0  0  0  0  0  0  0  0  0  0  0  0
    2.6076   -2.4368   -1.3182 H   0  0  0  0  0  0  0  0  0  0  0  0
    1.9807   -3.9981   -0.7474 H   0  0  0  0  0  0  0  0  0  0  0  0
    1.1750   -3.1583   -2.0771 H   0  0  0  0  0  0  0  0  0  0  0  0
    1.5715   -2.2245    1.2050 C   0  0  0  0  0  0  0  0  0  0  0  0
    0.9492   -1.7406    1.9579 H   0  0  0  0  0  0  0  0  0  0  0  0
    1.8118   -3.2309    1.5476 H   0  0  0  0  0  0  0  0  0  0  0  0
    2.4942   -1.6564    1.0816 H   0  0  0  0  0  0  0  0  0  0  0  0
   -0.7319    1.3530   -0.1001 C   0  0  0  0  0  0  0  0  0  0  0  0
   -1.3870    1.6463   -1.0976 O   0  0  0  0  0  0  0  0  0  0  0  0
   -0.1292    2.2743    0.6626 N   0  0  0  0  0  0  0  0  0  0  0  0
    0.3853    1.9558    1.4681 H   0  0  0  0  0  0  0  0  0  0  0  0
   -0.1762    3.7104    0.3973 C   0  0  0  0  0  0  0  0  0  0  0  0
   -1.2140    4.0511    0.3943 H   0  0  0  0  0  0  0  0  0  0  0  0
    0.3787    4.2551    1.1626 H   0  0  0  0  0  0  0  0  0  0  0  0
    0.2594    3.9187   -0.5812 H   0  0  0  0  0  0  0  0  0  0  0  0
  5  6  2  0  0  0  0
  5  7  1  0  0  0  0
  2  3  1  0  0  0  0
  2  4  1  0  0  0  0
  2  5  1  0  0  0  0
  1  2  1  0  0  0  0
 24 25  2  0  0  0  0
 24 26  1  0  0  0  0
 20 21  1  0  0  0  0
 20 22  1  0  0  0  0
 20 23  1  0  0  0  0
 16 17  1  0  0  0  0
 16 18  1  0  0  0  0
 16 19  1  0  0  0  0
 14 15  1  0  0  0  0
 14 16  1  0  0  0  0
 14 20  1  0  0  0  0
 11 12  1  0  0  0  0
 11 13  1  0  0  0  0
 11 14  1  0  0  0  0
  9 10  1  0  0  0  0
  9 11  1  0  0  0  0
  9 24  1  0  0  0  0
  7  8  1  0  0  0  0
  7  9  1  0  0  0  0
 28 29  1  0  0  0  0
 28 30  1  0  0  0  0
 28 31  1  0  0  0  0
 26 27  1  0  0  0  0
 26 28  1  0  0  0  0
M  END
$$$$
default_name
  -OEChem-01062215323D

 31 30  0     1  0  0  0  0  0999 V2000
   -3.5895   -3.5013    1.1082 H   0  0  0  0  0  0  0  0  0  0  0  0
   -3.5145   -2.5363    0.6082 C   0  0  0  0  0  0  0  0  0  0  0  0
   -4.2285   -1.8413    1.0452 H   0  0  0  0  0  0  0  0  0  0  0  0
   -3.7155   -2.6583   -0.4538 H   0  0  0  0  0  0  0  0  0  0  0  0
   -2.1155   -1.9963    0.7922 C   0  0  0  0  0  0  0  0  0  0  0  0
   -1.2875   -2.6383    1.4252 O   0  0  0  0  0  0  0  0  0  0  0  0
   -1.8575   -0.8123    0.2402 N   0  0  0  0  0  0  0  0  0  0  0  0
   -2.6005   -0.3333   -0.2478 H   0  0  0  0  0  0  0  0  0  0  0  0
   -0.5675   -0.1203    0.3102 C   0  0  1  0  0  0  0  0  0  0  0  0
   -0.2191   -0.1513    1.3431 H   0  0  0  0  0  0  0  0  0  0  0  0
    0.4424   -0.8724   -0.5819 C   0  0  0  0  0  0  0  0  0  0  0  0
    0.0363   -0.9331   -1.5934 H   0  0  0  0  0  0  0  0  0  0  0  0
    1.3584   -0.2793   -0.6283 H   0  0  0  0  0  0  0  0  0  0  0  0
    0.8144   -2.2935   -0.1207 C   0  0  0  0  0  0  0  0  0  0  0  0
   -0.0918   -2.8780    0.0383 H   0  0  0  0  0  0  0  0  0  0  0  0
    1.7027   -3.0182   -1.1361 C   0  0  0  0  0  0  0  0  0  0  0  0
    2.6076   -2.4368   -1.3182 H   0  0  0  0  0  0  0  0  0  0  0  0
    1.9807   -3.9981   -0.7474 H   0  0  0  0  0  0  0  0  0  0  0  0
    1.1750   -3.1583   -2.0771 H   0  0  0  0  0  0  0  0  0  0  0  0
    1.5715   -2.2245    1.2050 C   0  0  0  0  0  0  0  0  0  0  0  0
    0.9492   -1.7406    1.9579 H   0  0  0  0  0  0  0  0  0  0  0  0
    1.8118   -3.2309    1.5476 H   0  0  0  0  0  0  0  0  0  0  0  0
    2.4942   -1.6564    1.0816 H   0  0  0  0  0  0  0  0  0  0  0  0
   -0.7319    1.3530   -0.1001 C   0  0  0  0  0  0  0  0  0  0  0  0
   -1.5939    1.6741   -0.9150 O   0  0  0  0  0  0  0  0  0  0  0  0
    0.1007    2.2425    0.4561 N   0  0  0  0  0  0  0  0  0  0  0  0
    0.7774    1.9028    1.1206 H   0  0  0  0  0  0  0  0  0  0  0  0
    0.0834    3.6729    0.1585 C   0  0  0  0  0  0  0  0  0  0  0  0
   -0.8978    4.0879    0.3996 H   0  0  0  0  0  0  0  0  0  0  0  0
    0.8458    4.1904    0.7428 H   0  0  0  0  0  0  0  0  0  0  0  0
    0.2745    3.8305   -0.9041 H   0  0  0  0  0  0  0  0  0  0  0  0
  5  6  2  0  0  0  0
  5  7  1  0  0  0  0
  2  3  1  0  0  0  0
  2  4  1  0  0  0  0
  2  5  1  0  0  0  0
  1  2  1  0  0  0  0
 24 25  2  0  0  0  0
 24 26  1  0  0  0  0
 20 21  1  0  0  0  0
 20 22  1  0  0  0  0
 20 23  1  0  0  0  0
 16 17  1  0  0  0  0
 16 18  1  0  0  0  0
 16 19  1  0  0  0  0
 14 15  1  0  0  0  0
 14 16  1  0  0  0  0
 14 20  1  0  0  0  0
 11 12  1  0  0  0  0
 11 13  1  0  0  0  0
 11 14  1  0  0  0  0
  9 10  1  0  0  0  0
  9 11  1  0  0  0  0
  9 24  1  0  0  0  0
  7  8  1  0  0  0  0
  7  9  1  0  0  0  0
 28 29  1  0  0  0  0
 28 30  1  0  0  0  0
 28 31  1  0  0  0  0
 26 27  1  0  0  0  0
 26 28  1  0  0  0  0
M  END
$$$$
default_name
  -OEChem-01062215323D

 31 30  0     1  0  0  0  0  0999 V2000
   -3.5895   -3.5013    1.1082 H   0  0  0  0  0  0  0  0  0  0  0  0
   -3.5145   -2.5363    0.6082 C   0  0  0  0  0  0  0  0  0  0  0  0
   -4.2285   -1.8413    1.0452 H   0  0  0  0  0  0  0  0  0  0  0  0
   -3.7155   -2.6583   -0.4538 H   0  0  0  0  0  0  0  0  0  0  0  0
   -2.1155   -1.9963    0.7922 C   0  0  0  0  0  0  0  0  0  0  0  0
   -1.2875   -2.6383    1.4252 O   0  0  0  0  0  0  0  0  0  0  0  0
   -1.8575   -0.8123    0.2402 N   0  0  0  0  0  0  0  0  0  0  0  0
   -2.6005   -0.3333   -0.2478 H   0  0  0  0  0  0  0  0  0  0  0  0
   -0.5675   -0.1203    0.3102 C   0  0  1  0  0  0  0  0  0  0  0  0
   -0.2191   -0.1513    1.3431 H   0  0  0  0  0  0  0  0  0  0  0  0
    0.4424   -0.8724   -0.5819 C   0  0  0  0  0  0  0  0  0  0  0  0
    0.0363   -0.9331   -1.5934 H   0  0  0  0  0  0  0  0  0  0  0  0
    1.3584   -0.2793   -0.6283 H   0  0  0  0  0  0  0  0  0  0  0  0
    0.8144   -2.2935   -0.1207 C   0  0  0  0  0  0  0  0  0  0  0  0
   -0.0918   -2.8780    0.0383 H   0  0  0  0  0  0  0  0  0  0  0  0
    1.7027   -3.0182   -1.1361 C   0  0  0  0  0  0  0  0  0  0  0  0
    2.6076   -2.4368   -1.3182 H   0  0  0  0  0  0  0  0  0  0  0  0
    1.9807   -3.9981   -0.7474 H   0  0  0  0  0  0  0  0  0  0  0  0
    1.1750   -3.1583   -2.0771 H   0  0  0  0  0  0  0  0  0  0  0  0
    1.5715   -2.2245    1.2050 C   0  0  0  0  0  0  0  0  0  0  0  0
    0.9492   -1.7406    1.9579 H   0  0  0  0  0  0  0  0  0  0  0  0
    1.8118   -3.2309    1.5476 H   0  0  0  0  0  0  0  0  0  0  0  0
    2.4942   -1.6564    1.0816 H   0  0  0  0  0  0  0  0  0  0  0  0
   -0.7319    1.3530   -0.1001 C   0  0  0  0  0  0  0  0  0  0  0  0
   -1.7466    1.7203   -0.6880 O   0  0  0  0  0  0  0  0  0  0  0  0
    0.2694    2.1902    0.2005 N   0  0  0  0  0  0  0  0  0  0  0  0
    1.0664    1.8150    0.6893 H   0  0  0  0  0  0  0  0  0  0  0  0
    0.2724    3.6121   -0.1354 C   0  0  0  0  0  0  0  0  0  0  0  0
   -0.5886    4.1017    0.3252 H   0  0  0  0  0  0  0  0  0  0  0  0
    1.1884    4.0840    0.2233 H   0  0  0  0  0  0  0  0  0  0  0  0
    0.2029    3.7353   -1.2173 H   0  0  0  0  0  0  0  0  0  0  0  0
  5  6  2  0  0  0  0
  5  7  1  0  0  0  0
  2  3  1  0  0  0  0
  2  4  1  0  0  0  0
  2  5  1  0  0  0  0
  1  2  1  0  0  0  0
 24 25  2  0  0  0  0
 24 26  1  0  0  0  0
 20 21  1  0  0  0  0
 20 22  1  0  0  0  0
 20 23  1  0  0  0  0
 16 17  1  0  0  0  0
 16 18  1  0  0  0  0
 16 19  1  0  0  0  0
 14 15  1  0  0  0  0
 14 16  1  0  0  0  0
 14 20  1  0  0  0  0
 11 12  1  0  0  0  0
 11 13  1  0  0  0  0
 11 14  1  0  0  0  0
  9 10  1  0  0  0  0
  9 11  1  0  0  0  0
  9 24  1  0  0  0  0
  7  8  1  0  0  0  0
  7  9  1  0  0  0  0
 28 29  1  0  0  0  0
 28 30  1  0  0  0  0
 28 31  1  0  0  0  0
 26 27  1  0  0  0  0
 26 28  1  0  0  0  0
M  END
$$$$
default_name
  -OEChem-01062215323D

 31 30  0     1  0  0  0  0  0999 V2000
   -3.5895   -3.5013    1.1082 H   0  0  0  0  0  0  0  0  0  0  0  0
   -3.5145   -2.5363    0.6082 C   0  0  0  0  0  0  0  0  0  0  0  0
   -4.2285   -1.8413    1.0452 H   0  0  0  0  0  0  0  0  0  0  0  0
   -3.7155   -2.6583   -0.4538 H   0  0  0  0  0  0  0  0  0  0  0  0
   -2.1155   -1.9963    0.7922 C   0  0  0  0  0  0  0  0  0  0  0  0
   -1.2875   -2.6383    1.4252 O   0  0  0  0  0  0  0  0  0  0  0  0
   -1.8575   -0.8123    0.2402 N   0  0  0  0  0  0  0  0  0  0  0  0
   -2.6005   -0.3333   -0.2478 H   0  0  0  0  0  0  0  0  0  0  0  0
   -0.5675   -0.1203    0.3102 C   0  0  1  0  0  0  0  0  0  0  0  0
   -0.0941   -0.3757    1.2588 H   0  0  0  0  0  0  0  0  0  0  0  0
    0.3230   -0.6231   -0.8454 C   0  0  0  0  0  0  0  0  0  0  0  0
   -0.2052   -0.4633   -1.7874 H   0  0  0  0  0  0  0  0  0  0  0  0
    1.2273   -0.0110   -0.8654 H   0  0  0  0  0  0  0  0  0  0  0  0
    0.7466   -2.1015   -0.7697 C   0  0  0  0  0  0  0  0  0  0  0  0
   -0.1340   -2.7307   -0.6403 H   0  0  0  0  0  0  0  0  0  0  0  0
    1.5012   -2.5528   -2.0236 C   0  0  0  0  0  0  0  0  0  0  0  0
    2.3777   -1.9215   -2.1759 H   0  0  0  0  0  0  0  0  0  0  0  0
    1.8234   -3.5877   -1.9056 H   0  0  0  0  0  0  0  0  0  0  0  0
    0.8610   -2.4896   -2.9008 H   0  0  0  0  0  0  0  0  0  0  0  0
    1.6619   -2.3152    0.4353 C   0  0  0  0  0  0  0  0  0  0  0  0
    1.1384   -2.0316    1.3483 H   0  0  0  0  0  0  0  0  0  0  0  0
    1.9409   -3.3664    0.5071 H   0  0  0  0  0  0  0  0  0  0  0  0
    2.5633   -1.7097    0.3344 H   0  0  0  0  0  0  0  0  0  0  0  0
   -0.7787    1.4028    0.2705 C   0  0  0  0  0  0  0  0  0  0  0  0
   -1.9133    1.8662    0.1809 O   0  0  0  0  0  0  0  0  0  0  0  0
    0.3131    2.1764    0.3265 N   0  0  0  0  0  0  0  0  0  0  0  0
    1.2089    1.7220    0.4053 H   0  0  0  0  0  0  0  0  0  0  0  0
    0.2814    3.6365    0.2826 C   0  0  0  0  0  0  0  0  0  0  0  0
   -0.3184    4.0174    1.1123 H   0  0  0  0  0  0  0  0  0  0  0  0
    1.2927    4.0395    0.3556 H   0  0  0  0  0  0  0  0  0  0  0  0
   -0.1722    3.9673   -0.6530 H   0  0  0  0  0  0  0  0  0  0  0  0
  5  6  2  0  0  0  0
  5  7  1  0  0  0  0
  2  3  1  0  0  0  0
  2  4  1  0  0  0  0
  2  5  1  0  0  0  0
  1  2  1  0  0  0  0
 24 25  2  0  0  0  0
 24 26  1  0  0  0  0
 20 21  1  0  0  0  0
 20 22  1  0  0  0  0
 20 23  1  0  0  0  0
 16 17  1  0  0  0  0
 16 18  1  0  0  0  0
 16 19  1  0  0  0  0
 14 15  1  0  0  0  0
 14 16  1  0  0  0  0
 14 20  1  0  0  0  0
 11 12  1  0  0  0  0
 11 13  1  0  0  0  0
 11 14  1  0  0  0  0
  9 10  1  0  0  0  0
  9 11  1  0  0  0  0
  9 24  1  0  0  0  0
  7  8  1  0  0  0  0
  7  9  1  0  0  0  0
 28 29  1  0  0  0  0
 28 30  1  0  0  0  0
 28 31  1  0  0  0  0
 26 27  1  0  0  0  0
 26 28  1  0  0  0  0
M  END
$$$$
default_name
  -OEChem-01062215323D

 31 30  0     1  0  0  0  0  0999 V2000
   -3.5895   -3.5013    1.1082 H   0  0  0  0  0  0  0  0  0  0  0  0
   -3.5145   -2.5363    0.6082 C   0  0  0  0  0  0  0  0  0  0  0  0
   -4.2285   -1.8413    1.0452 H   0  0  0  0  0  0  0  0  0  0  0  0
   -3.7155   -2.6583   -0.4538 H   0  0  0  0  0  0  0  0  0  0  0  0
   -2.1155   -1.9963    0.7922 C   0  0  0  0  0  0  0  0  0  0  0  0
   -1.2875   -2.6383    1.4252 O   0  0  0  0  0  0  0  0  0  0  0  0
   -1.8575   -0.8123    0.2402 N   0  0  0  0  0  0  0  0  0  0  0  0
   -2.6005   -0.3333   -0.2478 H   0  0  0  0  0  0  0  0  0  0  0  0
   -0.5675   -0.1203    0.3102 C   0  0  1  0  0  0  0  0  0  0  0  0
   -0.0941   -0.3757    1.2588 H   0  0  0  0  0  0  0  0  0  0  0  0
    0.3230   -0.6231   -0.8454 C   0  0  0  0  0  0  0  0  0  0  0  0
   -0.2052   -0.4633   -1.7874 H   0  0  0  0  0  0  0  0  0  0  0  0
    1.2273   -0.0110   -0.8654 H   0  0  0  0  0  0  0  0  0  0  0  0
    0.7466   -2.1015   -0.7697 C   0  0  0  0  0  0  0  0  0  0  0  0
   -0.1340   -2.7307   -0.6403 H   0  0  0  0  0  0  0  0  0  0  0  0
    1.5012   -2.5528   -2.0236 C   0  0  0  0  0  0  0  0  0  0  0  0
    2.3777   -1.9215   -2.1759 H   0  0  0  0  0  0  0  0  0  0  0  0
    1.8234   -3.5877   -1.9056 H   0  0  0  0  0  0  0  0  0  0  0  0
    0.8610   -2.4896   -2.9008 H   0  0  0  0  0  0  0  0  0  0  0  0
    1.6619   -2.3152    0.4353 C   0  0  0  0  0  0  0  0  0  0  0  0
    1.1384   -2.0316    1.3483 H   0  0  0  0  0  0  0  0  0  0  0  0
    1.9409   -3.3664    0.5071 H   0  0  0  0  0  0  0  0  0  0  0  0
    2.5633   -1.7097    0.3344 H   0  0  0  0  0  0  0  0  0  0  0  0
   -0.7787    1.4028    0.2705 C   0  0  0  0  0  0  0  0  0  0  0  0
   -1.8974    1.8757    0.4577 O   0  0  0  0  0  0  0  0  0  0  0  0
    0.2926    2.1655    0.0167 N   0  0  0  0  0  0  0  0  0  0  0  0
    1.1776    1.7040   -0.1200 H   0  0  0  0  0  0  0  0  0  0  0  0
    0.2537    3.6234   -0.0707 C   0  0  0  0  0  0  0  0  0  0  0  0
   -0.1126    4.0396    0.8705 H   0  0  0  0  0  0  0  0  0  0  0  0
    1.2507    4.0173   -0.2740 H   0  0  0  0  0  0  0  0  0  0  0  0
   -0.4240    3.9267   -0.8703 H   0  0  0  0  0  0  0  0  0  0  0  0
  5  6  2  0  0  0  0
  5  7  1  0  0  0  0
  2  3  1  0  0  0  0
  2  4  1  0  0  0  0
  2  5  1  0  0  0  0
  1  2  1  0  0  0  0
 24 25  2  0  0  0  0
 24 26  1  0  0  0  0
 20 21  1  0  0  0  0
 20 22  1  0  0  0  0
 20 23  1  0  0  0  0
 16 17  1  0  0  0  0
 16 18  1  0  0  0  0
 16 19  1  0  0  0  0
 14 15  1  0  0  0  0
 14 16  1  0  0  0  0
 14 20  1  0  0  0  0
 11 12  1  0  0  0  0
 11 13  1  0  0  0  0
 11 14  1  0  0  0  0
  9 10  1  0  0  0  0
  9 11  1  0  0  0  0
  9 24  1  0  0  0  0
  7  8  1  0  0  0  0
  7  9  1  0  0  0  0
 28 29  1  0  0  0  0
 28 30  1  0  0  0  0
 28 31  1  0  0  0  0
 26 27  1  0  0  0  0
 26 28  1  0  0  0  0
M  END
$$$$
default_name
  -OEChem-01062215323D

 31 30  0     1  0  0  0  0  0999 V2000
   -3.5895   -3.5013    1.1082 H   0  0  0  0  0  0  0  0  0  0  0  0
   -3.5145   -2.5363    0.6082 C   0  0  0  0  0  0  0  0  0  0  0  0
   -4.2285   -1.8413    1.0452 H   0  0  0  0  0  0  0  0  0  0  0  0
   -3.7155   -2.6583   -0.4538 H   0  0  0  0  0  0  0  0  0  0  0  0
   -2.1155   -1.9963    0.7922 C   0  0  0  0  0  0  0  0  0  0  0  0
   -1.2875   -2.6383    1.4252 O   0  0  0  0  0  0  0  0  0  0  0  0
   -1.8575   -0.8123    0.2402 N   0  0  0  0  0  0  0  0  0  0  0  0
   -2.6005   -0.3333   -0.2478 H   0  0  0  0  0  0  0  0  0  0  0  0
   -0.5675   -0.1203    0.3102 C   0  0  1  0  0  0  0  0  0  0  0  0
   -0.0941   -0.3757    1.2588 H   0  0  0  0  0  0  0  0  0  0  0  0
    0.3230   -0.6231   -0.8454 C   0  0  0  0  0  0  0  0  0  0  0  0
   -0.2052   -0.4633   -1.7874 H   0  0  0  0  0  0  0  0  0  0  0  0
    1.2273   -0.0110   -0.8654 H   0  0  0  0  0  0  0  0  0  0  0  0
    0.7466   -2.1015   -0.7697 C   0  0  0  0  0  0  0  0  0  0  0  0
   -0.1340   -2.7307   -0.6403 H   0  0  0  0  0  0  0  0  0  0  0  0
    1.5012   -2.5528   -2.0236 C   0  0  0  0  0  0  0  0  0  0  0  0
    2.3777   -1.9215   -2.1759 H   0  0  0  0  0  0  0  0  0  0  0  0
    1.8234   -3.5877   -1.9056 H   0  0  0  0  0  0  0  0  0  0  0  0
    0.8610   -2.4896   -2.9008 H   0  0  0  0  0  0  0  0  0  0  0  0
    1.6619   -2.3152    0.4353 C   0  0  0  0  0  0  0  0  0  0  0  0
    1.1384   -2.0316    1.3483 H   0  0  0  0  0  0  0  0  0  0  0  0
    1.9409   -3.3664    0.5071 H   0  0  0  0  0  0  0  0  0  0  0  0
    2.5633   -1.7097    0.3344 H   0  0  0  0  0  0  0  0  0  0  0  0
   -0.7787    1.4028    0.2705 C   0  0  0  0  0  0  0  0  0  0  0  0
   -1.8111    1.8945    0.7206 O   0  0  0  0  0  0  0  0  0  0  0  0
    0.1933    2.1440   -0.2769 N   0  0  0  0  0  0  0  0  0  0  0  0
    1.0127    1.6681   -0.6188 H   0  0  0  0  0  0  0  0  0  0  0  0
    0.1362    3.5984   -0.4044 C   0  0  0  0  0  0  0  0  0  0  0  0
    0.0244    4.0511    0.5834 H   0  0  0  0  0  0  0  0  0  0  0  0
    1.0486    3.9737   -0.8705 H   0  0  0  0  0  0  0  0  0  0  0  0
   -0.7232    3.8814   -1.0142 H   0  0  0  0  0  0  0  0  0  0  0  0
  5  6  2  0  0  0  0
  5  7  1  0  0  0  0
  2  3  1  0  0  0  0
  2  4  1  0  0  0  0
  2  5  1  0  0  0  0
  1  2  1  0  0  0  0
 24 25  2  0  0  0  0
 24 26  1  0  0  0  0
 20 21  1  0  0  0  0
 20 22  1  0  0  0  0
 20 23  1  0  0  0  0
 16 17  1  0  0  0  0
 16 18  1  0  0  0  0
 16 19  1  0  0  0  0
 14 15  1  0  0  0  0
 14 16  1  0  0  0  0
 14 20  1  0  0  0  0
 11 12  1  0  0  0  0
 11 13  1  0  0  0  0
 11 14  1  0  0  0  0
  9 10  1  0  0  0  0
  9 11  1  0  0  0  0
  9 24  1  0  0  0  0
  7  8  1  0  0  0  0
  7  9  1  0  0  0  0
 28 29  1  0  0  0  0
 28 30  1  0  0  0  0
 28 31  1  0  0  0  0
 26 27  1  0  0  0  0
 26 28  1  0  0  0  0
M  END
$$$$
default_name
  -OEChem-01062215323D

 31 30  0     1  0  0  0  0  0999 V2000
   -3.5895   -3.5013    1.1082 H   0  0  0  0  0  0  0  0  0  0  0  0
   -3.5145   -2.5363    0.6082 C   0  0  0  0  0  0  0  0  0  0  0  0
   -4.2285   -1.8413    1.0452 H   0  0  0  0  0  0  0  0  0  0  0  0
   -3.7155   -2.6583   -0.4538 H   0  0  0  0  0  0  0  0  0  0  0  0
   -2.1155   -1.9963    0.7922 C   0  0  0  0  0  0  0  0  0  0  0  0
   -1.2875   -2.6383    1.4252 O   0  0  0  0  0  0  0  0  0  0  0  0
   -1.8575   -0.8123    0.2402 N   0  0  0  0  0  0  0  0  0  0  0  0
   -2.6005   -0.3333   -0.2478 H   0  0  0  0  0  0  0  0  0  0  0  0
   -0.5675   -0.1203    0.3102 C   0  0  1  0  0  0  0  0  0  0  0  0
   -0.0941   -0.3757    1.2588 H   0  0  0  0  0  0  0  0  0  0  0  0
    0.3230   -0.6231   -0.8454 C   0  0  0  0  0  0  0  0  0  0  0  0
   -0.2052   -0.4633   -1.7874 H   0  0  0  0  0  0  0  0  0  0  0  0
    1.2273   -0.0110   -0.8654 H   0  0  0  0  0  0  0  0  0  0  0  0
    0.7466   -2.1015   -0.7697 C   0  0  0  0  0  0  0  0  0  0  0  0
   -0.1340   -2.7307   -0.6403 H   0  0  0  0  0  0  0  0  0  0  0  0
    1.5012   -2.5528   -2.0236 C   0  0  0  0  0  0  0  0  0  0  0  0
    2.3777   -1.9215   -2.1759 H   0  0  0  0  0  0  0  0  0  0  0  0
    1.8234   -3.5877   -1.9056 H   0  0  0  0  0  0  0  0  0  0  0  0
    0.8610   -2.4896   -2.9008 H   0  0  0  0  0  0  0  0  0  0  0  0
    1.6619   -2.3152    0.4353 C   0  0  0  0  0  0  0  0  0  0  0  0
    1.1384   -2.0316    1.3483 H   0  0  0  0  0  0  0  0  0  0  0  0
    1.9409   -3.3664    0.5071 H   0  0  0  0  0  0  0  0  0  0  0  0
    2.5633   -1.7097    0.3344 H   0  0  0  0  0  0  0  0  0  0  0  0
   -0.7787    1.4028    0.2705 C   0  0  0  0  0  0  0  0  0  0  0  0
   -1.6601    1.9215    0.9518 O   0  0  0  0  0  0  0  0  0  0  0  0
    0.0219    2.1136   -0.5342 N   0  0  0  0  0  0  0  0  0  0  0  0
    0.7254    1.6169   -1.0571 H   0  0  0  0  0  0  0  0  0  0  0  0
   -0.0629    3.5632   -0.6958 C   0  0  0  0  0  0  0  0  0  0  0  0
    0.0832    4.0511    0.2705 H   0  0  0  0  0  0  0  0  0  0  0  0
    0.7002    3.9118   -1.3933 H   0  0  0  0  0  0  0  0  0  0  0  0
   -1.0494    3.8346   -1.0750 H   0  0  0  0  0  0  0  0  0  0  0  0
  5  6  2  0  0  0  0
  5  7  1  0  0  0  0
  2  3  1  0  0  0  0
  2  4  1  0  0  0  0
  2  5  1  0  0  0  0
  1  2  1  0  0  0  0
 24 25  2  0  0  0  0
 24 26  1  0  0  0  0
 20 21  1  0  0  0  0
 20 22  1  0  0  0  0
 20 23  1  0  0  0  0
 16 17  1  0  0  0  0
 16 18  1  0  0  0  0
 16 19  1  0  0  0  0
 14 15  1  0  0  0  0
 14 16  1  0  0  0  0
 14 20  1  0  0  0  0
 11 12  1  0  0  0  0
 11 13  1  0  0  0  0
 11 14  1  0  0  0  0
  9 10  1  0  0  0  0
  9 11  1  0  0  0  0
  9 24  1  0  0  0  0
  7  8  1  0  0  0  0
  7  9  1  0  0  0  0
 28 29  1  0  0  0  0
 28 30  1  0  0  0  0
 28 31  1  0  0  0  0
 26 27  1  0  0  0  0
 26 28  1  0  0  0  0
M  END
$$$$
default_name
  -OEChem-01062215323D

 31 30  0     1  0  0  0  0  0999 V2000
   -3.5895   -3.5013    1.1082 H   0  0  0  0  0  0  0  0  0  0  0  0
   -3.5145   -2.5363    0.6082 C   0  0  0  0  0  0  0  0  0  0  0  0
   -4.2285   -1.8413    1.0452 H   0  0  0  0  0  0  0  0  0  0  0  0
   -3.7155   -2.6583   -0.4538 H   0  0  0  0  0  0  0  0  0  0  0  0
   -2.1155   -1.9963    0.7922 C   0  0  0  0  0  0  0  0  0  0  0  0
   -1.2875   -2.6383    1.4252 O   0  0  0  0  0  0  0  0  0  0  0  0
   -1.8575   -0.8123    0.2402 N   0  0  0  0  0  0  0  0  0  0  0  0
   -2.6005   -0.3333   -0.2478 H   0  0  0  0  0  0  0  0  0  0  0  0
   -0.5675   -0.1203    0.3102 C   0  0  1  0  0  0  0  0  0  0  0  0
   -0.0941   -0.3757    1.2588 H   0  0  0  0  0  0  0  0  0  0  0  0
    0.3230   -0.6231   -0.8454 C   0  0  0  0  0  0  0  0  0  0  0  0
   -0.2052   -0.4633   -1.7874 H   0  0  0  0  0  0  0  0  0  0  0  0
    1.2273   -0.0110   -0.8654 H   0  0  0  0  0  0  0  0  0  0  0  0
    0.7466   -2.1015   -0.7697 C   0  0  0  0  0  0  0  0  0  0  0  0
   -0.1340   -2.7307   -0.6403 H   0  0  0  0  0  0  0  0  0  0  0  0
    1.5012   -2.5528   -2.0236 C   0  0  0  0  0  0  0  0  0  0  0  0
    2.3777   -1.9215   -2.1759 H   0  0  0  0  0  0  0  0  0  0  0  0
    1.8234   -3.5877   -1.9056 H   0  0  0  0  0  0  0  0  0  0  0  0
    0.8610   -2.4896   -2.9008 H   0  0  0  0  0  0  0  0  0  0  0  0
    1.6619   -2.3152    0.4353 C   0  0  0  0  0  0  0  0  0  0  0  0
    1.1384   -2.0316    1.3483 H   0  0  0  0  0  0  0  0  0  0  0  0
    1.9409   -3.3664    0.5071 H   0  0  0  0  0  0  0  0  0  0  0  0
    2.5633   -1.7097    0.3344 H   0  0  0  0  0  0  0  0  0  0  0  0
   -0.7787    1.4028    0.2705 C   0  0  0  0  0  0  0  0  0  0  0  0
   -1.4549    1.9547    1.1355 O   0  0  0  0  0  0  0  0  0  0  0  0
   -0.2097    2.0761   -0.7378 N   0  0  0  0  0  0  0  0  0  0  0  0
    0.3351    1.5537   -1.4050 H   0  0  0  0  0  0  0  0  0  0  0  0
   -0.3301    3.5202   -0.9249 C   0  0  0  0  0  0  0  0  0  0  0  0
    0.0598    4.0396   -0.0467 H   0  0  0  0  0  0  0  0  0  0  0  0
    0.2293    3.8357   -1.8069 H   0  0  0  0  0  0  0  0  0  0  0  0
   -1.3803    3.7894   -1.0484 H   0  0  0  0  0  0  0  0  0  0  0  0
  5  6  2  0  0  0  0
  5  7  1  0  0  0  0
  2  3  1  0  0  0  0
  2  4  1  0  0  0  0
  2  5  1  0  0  0  0
  1  2  1  0  0  0  0
 24 25  2  0  0  0  0
 24 26  1  0  0  0  0
 20 21  1  0  0  0  0
 20 22  1  0  0  0  0
 20 23  1  0  0  0  0
 16 17  1  0  0  0  0
 16 18  1  0  0  0  0
 16 19  1  0  0  0  0
 14 15  1  0  0  0  0
 14 16  1  0  0  0  0
 14 20  1  0  0  0  0
 11 12  1  0  0  0  0
 11 13  1  0  0  0  0
 11 14  1  0  0  0  0
  9 10  1  0  0  0  0
  9 11  1  0  0  0  0
  9 24  1  0  0  0  0
  7  8  1  0  0  0  0
  7  9  1  0  0  0  0
 28 29  1  0  0  0  0
 28 30  1  0  0  0  0
 28 31  1  0  0  0  0
 26 27  1  0  0  0  0
 26 28  1  0  0  0  0
M  END
$$$$
default_name
  -OEChem-01062215323D

 31 30  0     1  0  0  0  0  0999 V2000
   -3.5895   -3.5013    1.1082 H   0  0  0  0  0  0  0  0  0  0  0  0
   -3.5145   -2.5363    0.6082 C   0  0  0  0  0  0  0  0  0  0  0  0
   -4.2285   -1.8413    1.0452 H   0  0  0  0  0  0  0  0  0  0  0  0
   -3.7155   -2.6583   -0.4538 H   0  0  0  0  0  0  0  0  0  0  0  0
   -2.1155   -1.9963    0.7922 C   0  0  0  0  0  0  0  0  0  0  0  0
   -1.2875   -2.6383    1.4252 O   0  0  0  0  0  0  0  0  0  0  0  0
   -1.8575   -0.8123    0.2402 N   0  0  0  0  0  0  0  0  0  0  0  0
   -2.6005   -0.3333   -0.2478 H   0  0  0  0  0  0  0  0  0  0  0  0
   -0.5675   -0.1203    0.3102 C   0  0  1  0  0  0  0  0  0  0  0  0
   -0.0941   -0.3757    1.2588 H   0  0  0  0  0  0  0  0  0  0  0  0
    0.3230   -0.6231   -0.8454 C   0  0  0  0  0  0  0  0  0  0  0  0
   -0.2052   -0.4633   -1.7874 H   0  0  0  0  0  0  0  0  0  0  0  0
    1.2273   -0.0110   -0.8654 H   0  0  0  0  0  0  0  0  0  0  0  0
    0.7466   -2.1015   -0.7697 C   0  0  0  0  0  0  0  0  0  0  0  0
   -0.1340   -2.7307   -0.6403 H   0  0  0  0  0  0  0  0  0  0  0  0
    1.5012   -2.5528   -2.0236 C   0  0  0  0  0  0  0  0  0  0  0  0
    2.3777   -1.9215   -2.1759 H   0  0  0  0  0  0  0  0  0  0  0  0
    1.8234   -3.5877   -1.9056 H   0  0  0  0  0  0  0  0  0  0  0  0
    0.8610   -2.4896   -2.9008 H   0  0  0  0  0  0  0  0  0  0  0  0
    1.6619   -2.3152    0.4353 C   0  0  0  0  0  0  0  0  0  0  0  0
    1.1384   -2.0316    1.3483 H   0  0  0  0  0  0  0  0  0  0  0  0
    1.9409   -3.3664    0.5071 H   0  0  0  0  0  0  0  0  0  0  0  0
    2.5633   -1.7097    0.3344 H   0  0  0  0  0  0  0  0  0  0  0  0
   -0.7787    1.4028    0.2705 C   0  0  0  0  0  0  0  0  0  0  0  0
   -1.2094    1.9920    1.2592 O   0  0  0  0  0  0  0  0  0  0  0  0
   -0.4858    2.0343   -0.8738 N   0  0  0  0  0  0  0  0  0  0  0  0
   -0.1314    1.4829   -1.6388 H   0  0  0  0  0  0  0  0  0  0  0  0
   -0.6473    3.4722   -1.0762 C   0  0  0  0  0  0  0  0  0  0  0  0
   -0.0441    4.0174   -0.3467 H   0  0  0  0  0  0  0  0  0  0  0  0
   -0.3321    3.7506   -2.0830 H   0  0  0  0  0  0  0  0  0  0  0  0
   -1.6935    3.7488   -0.9363 H   0  0  0  0  0  0  0  0  0  0  0  0
  5  6  2  0  0  0  0
  5  7  1  0  0  0  0
  2  3  1  0  0  0  0
  2  4  1  0  0  0  0
  2  5  1  0  0  0  0
  1  2  1  0  0  0  0
 24 25  2  0  0  0  0
 24 26  1  0  0  0  0
 20 21  1  0  0  0  0
 20 22  1  0  0  0  0
 20 23  1  0  0  0  0
 16 17  1  0  0  0  0
 16 18  1  0  0  0  0
 16 19  1  0  0  0  0
 14 15  1  0  0  0  0
 14 16  1  0  0  0  0
 14 20  1  0  0  0  0
 11 12  1  0  0  0  0
 11 13  1  0  0  0  0
 11 14  1  0  0  0  0
  9 10  1  0  0  0  0
  9 11  1  0  0  0  0
  9 24  1  0  0  0  0
  7  8  1  0  0  0  0
  7  9  1  0  0  0  0
 28 29  1  0  0  0  0
 28 30  1  0  0  0  0
 28 31  1  0  0  0  0
 26 27  1  0  0  0  0
 26 28  1  0  0  0  0
M  END
$$$$
default_name
  -OEChem-01062215323D

 31 30  0     1  0  0  0  0  0999 V2000
   -3.5895   -3.5013    1.1082 H   0  0  0  0  0  0  0  0  0  0  0  0
   -3.5145   -2.5363    0.6082 C   0  0  0  0  0  0  0  0  0  0  0  0
   -4.2285   -1.8413    1.0452 H   0  0  0  0  0  0  0  0  0  0  0  0
   -3.7155   -2.6583   -0.4538 H   0  0  0  0  0  0  0  0  0  0  0  0
   -2.1155   -1.9963    0.7922 C   0  0  0  0  0  0  0  0  0  0  0  0
   -1.2875   -2.6383    1.4252 O   0  0  0  0  0  0  0  0  0  0  0  0
   -1.8575   -0.8123    0.2402 N   0  0  0  0  0  0  0  0  0  0  0  0
   -2.6005   -0.3333   -0.2478 H   0  0  0  0  0  0  0  0  0  0  0  0
   -0.5675   -0.1203    0.3102 C   0  0  1  0  0  0  0  0  0  0  0  0
   -0.0941   -0.3757    1.2588 H   0  0  0  0  0  0  0  0  0  0  0  0
    0.3230   -0.6231   -0.8454 C   0  0  0  0  0  0  0  0  0  0  0  0
   -0.2052   -0.4633   -1.7874 H   0  0  0  0  0  0  0  0  0  0  0  0
    1.2273   -0.0110   -0.8654 H   0  0  0  0  0  0  0  0  0  0  0  0
    0.7466   -2.1015   -0.7697 C   0  0  0  0  0  0  0  0  0  0  0  0
   -0.1340   -2.7307   -0.6403 H   0  0  0  0  0  0  0  0  0  0  0  0
    1.5012   -2.5528   -2.0236 C   0  0  0  0  0  0  0  0  0  0  0  0
    2.3777   -1.9215   -2.1759 H   0  0  0  0  0  0  0  0  0  0  0  0
    1.8234   -3.5877   -1.9056 H   0  0  0  0  0  0  0  0  0  0  0  0
    0.8610   -2.4896   -2.9008 H   0  0  0  0  0  0  0  0  0  0  0  0
    1.6619   -2.3152    0.4353 C   0  0  0  0  0  0  0  0  0  0  0  0
    1.1384   -2.0316    1.3483 H   0  0  0  0  0  0  0  0  0  0  0  0
    1.9409   -3.3664    0.5071 H   0  0  0  0  0  0  0  0  0  0  0  0
    2.5633   -1.7097    0.3344 H   0  0  0  0  0  0  0  0  0  0  0  0
   -0.7787    1.4028    0.2705 C   0  0  0  0  0  0  0  0  0  0  0  0
   -0.9402    2.0308    1.3143 O   0  0  0  0  0  0  0  0  0  0  0  0
   -0.7877    1.9909   -0.9328 N   0  0  0  0  0  0  0  0  0  0  0  0
   -0.6424    1.4093   -1.7425 H   0  0  0  0  0  0  0  0  0  0  0  0
   -0.9928    3.4227   -1.1394 C   0  0  0  0  0  0  0  0  0  0  0  0
   -0.2216    3.9859   -0.6091 H   0  0  0  0  0  0  0  0  0  0  0  0
   -0.9456    3.6624   -2.2028 H   0  0  0  0  0  0  0  0  0  0  0  0
   -1.9675    3.7158   -0.7463 H   0  0  0  0  0  0  0  0  0  0  0  0
  5  6  2  0  0  0  0
  5  7  1  0  0  0  0
  2  3  1  0  0  0  0
  2  4  1  0  0  0  0
  2  5  1  0  0  0  0
  1  2  1  0  0  0  0
 24 25  2  0  0  0  0
 24 26  1  0  0  0  0
 20 21  1  0  0  0  0
 20 22  1  0  0  0  0
 20 23  1  0  0  0  0
 16 17  1  0  0  0  0
 16 18  1  0  0  0  0
 16 19  1  0  0  0  0
 14 15  1  0  0  0  0
 14 16  1  0  0  0  0
 14 20  1  0  0  0  0
 11 12  1  0  0  0  0
 11 13  1  0  0  0  0
 11 14  1  0  0  0  0
  9 10  1  0  0  0  0
  9 11  1  0  0  0  0
  9 24  1  0  0  0  0
  7  8  1  0  0  0  0
  7  9  1  0  0  0  0
 28 29  1  0  0  0  0
 28 30  1  0  0  0  0
 28 31  1  0  0  0  0
 26 27  1  0  0  0  0
 26 28  1  0  0  0  0
M  END
$$$$
default_name
  -OEChem-01062215323D

 31 30  0     1  0  0  0  0  0999 V2000
   -3.5895   -3.5013    1.1082 H   0  0  0  0  0  0  0  0  0  0  0  0
   -3.5145   -2.5363    0.6082 C   0  0  0  0  0  0  0  0  0  0  0  0
   -4.2285   -1.8413    1.0452 H   0  0  0  0  0  0  0  0  0  0  0  0
   -3.7155   -2.6583   -0.4538 H   0  0  0  0  0  0  0  0  0  0  0  0
   -2.1155   -1.9963    0.7922 C   0  0  0  0  0  0  0  0  0  0  0  0
   -1.2875   -2.6383    1.4252 O   0  0  0  0  0  0  0  0  0  0  0  0
   -1.8575   -0.8123    0.2402 N   0  0  0  0  0  0  0  0  0  0  0  0
   -2.6005   -0.3333   -0.2478 H   0  0  0  0  0  0  0  0  0  0  0  0
   -0.5675   -0.1203    0.3102 C   0  0  1  0  0  0  0  0  0  0  0  0
   -0.0941   -0.3757    1.2588 H   0  0  0  0  0  0  0  0  0  0  0  0
    0.3230   -0.6231   -0.8454 C   0  0  0  0  0  0  0  0  0  0  0  0
   -0.2052   -0.4633   -1.7874 H   0  0  0  0  0  0  0  0  0  0  0  0
    1.2273   -0.0110   -0.8654 H   0  0  0  0  0  0  0  0  0  0  0  0
    0.7466   -2.1015   -0.7697 C   0  0  0  0  0  0  0  0  0  0  0  0
   -0.1340   -2.7307   -0.6403 H   0  0  0  0  0  0  0  0  0  0  0  0
    1.5012   -2.5528   -2.0236 C   0  0  0  0  0  0  0  0  0  0  0  0
    2.3777   -1.9215   -2.1759 H   0  0  0  0  0  0  0  0  0  0  0  0
    1.8234   -3.5877   -1.9056 H   0  0  0  0  0  0  0  0  0  0  0  0
    0.8610   -2.4896   -2.9008 H   0  0  0  0  0  0  0  0  0  0  0  0
    1.6619   -2.3152    0.4353 C   0  0  0  0  0  0  0  0  0  0  0  0
    1.1384   -2.0316    1.3483 H   0  0  0  0  0  0  0  0  0  0  0  0
    1.9409   -3.3664    0.5071 H   0  0  0  0  0  0  0  0  0  0  0  0
    2.5633   -1.7097    0.3344 H   0  0  0  0  0  0  0  0  0  0  0  0
   -0.7787    1.4028    0.2705 C   0  0  0  0  0  0  0  0  0  0  0  0
   -0.6659    2.0684    1.2973 O   0  0  0  0  0  0  0  0  0  0  0  0
   -1.0947    1.9489   -0.9110 N   0  0  0  0  0  0  0  0  0  0  0  0
   -1.1630    1.3379   -1.7091 H   0  0  0  0  0  0  0  0  0  0  0  0
   -1.3430    3.3749   -1.1101 C   0  0  0  0  0  0  0  0  0  0  0  0
   -0.4605    3.9474   -0.8160 H   0  0  0  0  0  0  0  0  0  0  0  0
   -1.5696    3.5770   -2.1581 H   0  0  0  0  0  0  0  0  0  0  0  0
   -2.1838    3.6924   -0.4914 H   0  0  0  0  0  0  0  0  0  0  0  0
  5  6  2  0  0  0  0
  5  7  1  0  0  0  0
  2  3  1  0  0  0  0
  2  4  1  0  0  0  0
  2  5  1  0  0  0  0
  1  2  1  0  0  0  0
 24 25  2  0  0  0  0
 24 26  1  0  0  0  0
 20 21  1  0  0  0  0
 20 22  1  0  0  0  0
 20 23  1  0  0  0  0
 16 17  1  0  0  0  0
 16 18  1  0  0  0  0
 16 19  1  0  0  0  0
 14 15  1  0  0  0  0
 14 16  1  0  0  0  0
 14 20  1  0  0  0  0
 11 12  1  0  0  0  0
 11 13  1  0  0  0  0
 11 14  1  0  0  0  0
  9 10  1  0  0  0  0
  9 11  1  0  0  0  0
  9 24  1  0  0  0  0
  7  8  1  0  0  0  0
  7  9  1  0  0  0  0
 28 29  1  0  0  0  0
 28 30  1  0  0  0  0
 28 31  1  0  0  0  0
 26 27  1  0  0  0  0
 26 28  1  0  0  0  0
M  END
$$$$
default_name
  -OEChem-01062215323D

 31 30  0     1  0  0  0  0  0999 V2000
   -3.5895   -3.5013    1.1082 H   0  0  0  0  0  0  0  0  0  0  0  0
   -3.5145   -2.5363    0.6082 C   0  0  0  0  0  0  0  0  0  0  0  0
   -4.2285   -1.8413    1.0452 H   0  0  0  0  0  0  0  0  0  0  0  0
   -3.7155   -2.6583   -0.4538 H   0  0  0  0  0  0  0  0  0  0  0  0
   -2.1155   -1.9963    0.7922 C   0  0  0  0  0  0  0  0  0  0  0  0
   -1.2875   -2.6383    1.4252 O   0  0  0  0  0  0  0  0  0  0  0  0
   -1.8575   -0.8123    0.2402 N   0  0  0  0  0  0  0  0  0  0  0  0
   -2.6005   -0.3333   -0.2478 H   0  0  0  0  0  0  0  0  0  0  0  0
   -0.5675   -0.1203    0.3102 C   0  0  1  0  0  0  0  0  0  0  0  0
   -0.0941   -0.3757    1.2588 H   0  0  0  0  0  0  0  0  0  0  0  0
    0.3230   -0.6231   -0.8454 C   0  0  0  0  0  0  0  0  0  0  0  0
   -0.2052   -0.4633   -1.7874 H   0  0  0  0  0  0  0  0  0  0  0  0
    1.2273   -0.0110   -0.8654 H   0  0  0  0  0  0  0  0  0  0  0  0
    0.7466   -2.1015   -0.7697 C   0  0  0  0  0  0  0  0  0  0  0  0
   -0.1340   -2.7307   -0.6403 H   0  0  0  0  0  0  0  0  0  0  0  0
    1.5012   -2.5528   -2.0236 C   0  0  0  0  0  0  0  0  0  0  0  0
    2.3777   -1.9215   -2.1759 H   0  0  0  0  0  0  0  0  0  0  0  0
    1.8234   -3.5877   -1.9056 H   0  0  0  0  0  0  0  0  0  0  0  0
    0.8610   -2.4896   -2.9008 H   0  0  0  0  0  0  0  0  0  0  0  0
    1.6619   -2.3152    0.4353 C   0  0  0  0  0  0  0  0  0  0  0  0
    1.1384   -2.0316    1.3483 H   0  0  0  0  0  0  0  0  0  0  0  0
    1.9409   -3.3664    0.5071 H   0  0  0  0  0  0  0  0  0  0  0  0
    2.5633   -1.7097    0.3344 H   0  0  0  0  0  0  0  0  0  0  0  0
   -0.7787    1.4028    0.2705 C   0  0  0  0  0  0  0  0  0  0  0  0
   -0.4050    2.1023    1.2092 O   0  0  0  0  0  0  0  0  0  0  0  0
   -1.3860    1.9111   -0.8097 N   0  0  0  0  0  0  0  0  0  0  0  0
   -1.6579    1.2737   -1.5409 H   0  0  0  0  0  0  0  0  0  0  0  0
   -1.6741    3.3320   -0.9904 C   0  0  0  0  0  0  0  0  0  0  0  0
   -0.7444    3.9044   -0.9532 H   0  0  0  0  0  0  0  0  0  0  0  0
   -2.1614    3.5003   -1.9520 H   0  0  0  0  0  0  0  0  0  0  0  0
   -2.3275    3.6804   -0.1890 H   0  0  0  0  0  0  0  0  0  0  0  0
  5  6  2  0  0  0  0
  5  7  1  0  0  0  0
  2  3  1  0  0  0  0
  2  4  1  0  0  0  0
  2  5  1  0  0  0  0
  1  2  1  0  0  0  0
 24 25  2  0  0  0  0
 24 26  1  0  0  0  0
 20 21  1  0  0  0  0
 20 22  1  0  0  0  0
 20 23  1  0  0  0  0
 16 17  1  0  0  0  0
 16 18  1  0  0  0  0
 16 19  1  0  0  0  0
 14 15  1  0  0  0  0
 14 16  1  0  0  0  0
 14 20  1  0  0  0  0
 11 12  1  0  0  0  0
 11 13  1  0  0  0  0
 11 14  1  0  0  0  0
  9 10  1  0  0  0  0
  9 11  1  0  0  0  0
  9 24  1  0  0  0  0
  7  8  1  0  0  0  0
  7  9  1  0  0  0  0
 28 29  1  0  0  0  0
 28 30  1  0  0  0  0
 28 31  1  0  0  0  0
 26 27  1  0  0  0  0
 26 28  1  0  0  0  0
M  END
$$$$
default_name
  -OEChem-01062215323D

 31 30  0     1  0  0  0  0  0999 V2000
   -3.5895   -3.5013    1.1082 H   0  0  0  0  0  0  0  0  0  0  0  0
   -3.5145   -2.5363    0.6082 C   0  0  0  0  0  0  0  0  0  0  0  0
   -4.2285   -1.8413    1.0452 H   0  0  0  0  0  0  0  0  0  0  0  0
   -3.7155   -2.6583   -0.4538 H   0  0  0  0  0  0  0  0  0  0  0  0
   -2.1155   -1.9963    0.7922 C   0  0  0  0  0  0  0  0  0  0  0  0
   -1.2875   -2.6383    1.4252 O   0  0  0  0  0  0  0  0  0  0  0  0
   -1.8575   -0.8123    0.2402 N   0  0  0  0  0  0  0  0  0  0  0  0
   -2.6005   -0.3333   -0.2478 H   0  0  0  0  0  0  0  0  0  0  0  0
   -0.5675   -0.1203    0.3102 C   0  0  1  0  0  0  0  0  0  0  0  0
   -0.0941   -0.3757    1.2588 H   0  0  0  0  0  0  0  0  0  0  0  0
    0.3230   -0.6231   -0.8454 C   0  0  0  0  0  0  0  0  0  0  0  0
   -0.2052   -0.4633   -1.7874 H   0  0  0  0  0  0  0  0  0  0  0  0
    1.2273   -0.0110   -0.8654 H   0  0  0  0  0  0  0  0  0  0  0  0
    0.7466   -2.1015   -0.7697 C   0  0  0  0  0  0  0  0  0  0  0  0
   -0.1340   -2.7307   -0.6403 H   0  0  0  0  0  0  0  0  0  0  0  0
    1.5012   -2.5528   -2.0236 C   0  0  0  0  0  0  0  0  0  0  0  0
    2.3777   -1.9215   -2.1759 H   0  0  0  0  0  0  0  0  0  0  0  0
    1.8234   -3.5877   -1.9056 H   0  0  0  0  0  0  0  0  0  0  0  0
    0.8610   -2.4896   -2.9008 H   0  0  0  0  0  0  0  0  0  0  0  0
    1.6619   -2.3152    0.4353 C   0  0  0  0  0  0  0  0  0  0  0  0
    1.1384   -2.0316    1.3483 H   0  0  0  0  0  0  0  0  0  0  0  0
    1.9409   -3.3664    0.5071 H   0  0  0  0  0  0  0  0  0  0  0  0
    2.5633   -1.7097    0.3344 H   0  0  0  0  0  0  0  0  0  0  0  0
   -0.7787    1.4028    0.2705 C   0  0  0  0  0  0  0  0  0  0  0  0
   -0.1754    2.1301    1.0560 O   0  0  0  0  0  0  0  0  0  0  0  0
   -1.6416    1.8802   -0.6359 N   0  0  0  0  0  0  0  0  0  0  0  0
   -2.0932    1.2209   -1.2493 H   0  0  0  0  0  0  0  0  0  0  0  0
   -1.9635    3.2972   -0.7884 C   0  0  0  0  0  0  0  0  0  0  0  0
   -1.0542    3.8599   -1.0114 H   0  0  0  0  0  0  0  0  0  0  0  0
   -2.6807    3.4374   -1.5986 H   0  0  0  0  0  0  0  0  0  0  0  0
   -2.3888    3.6805    0.1404 H   0  0  0  0  0  0  0  0  0  0  0  0
  5  6  2  0  0  0  0
  5  7  1  0  0  0  0
  2  3  1  0  0  0  0
  2  4  1  0  0  0  0
  2  5  1  0  0  0  0
  1  2  1  0  0  0  0
 24 25  2  0  0  0  0
 24 26  1  0  0  0  0
 20 21  1  0  0  0  0
 20 22  1  0  0  0  0
 20 23  1  0  0  0  0
 16 17  1  0  0  0  0
 16 18  1  0  0  0  0
 16 19  1  0  0  0  0
 14 15  1  0  0  0  0
 14 16  1  0  0  0  0
 14 20  1  0  0  0  0
 11 12  1  0  0  0  0
 11 13  1  0  0  0  0
 11 14  1  0  0  0  0
  9 10  1  0  0  0  0
  9 11  1  0  0  0  0
  9 24  1  0  0  0  0
  7  8  1  0  0  0  0
  7  9  1  0  0  0  0
 28 29  1  0  0  0  0
 28 30  1  0  0  0  0
 28 31  1  0  0  0  0
 26 27  1  0  0  0  0
 26 28  1  0  0  0  0
M  END
$$$$
default_name
  -OEChem-01062215323D

 31 30  0     1  0  0  0  0  0999 V2000
   -3.5895   -3.5013    1.1082 H   0  0  0  0  0  0  0  0  0  0  0  0
   -3.5145   -2.5363    0.6082 C   0  0  0  0  0  0  0  0  0  0  0  0
   -4.2285   -1.8413    1.0452 H   0  0  0  0  0  0  0  0  0  0  0  0
   -3.7155   -2.6583   -0.4538 H   0  0  0  0  0  0  0  0  0  0  0  0
   -2.1155   -1.9963    0.7922 C   0  0  0  0  0  0  0  0  0  0  0  0
   -1.2875   -2.6383    1.4252 O   0  0  0  0  0  0  0  0  0  0  0  0
   -1.8575   -0.8123    0.2402 N   0  0  0  0  0  0  0  0  0  0  0  0
   -2.6005   -0.3333   -0.2478 H   0  0  0  0  0  0  0  0  0  0  0  0
   -0.5675   -0.1203    0.3102 C   0  0  1  0  0  0  0  0  0  0  0  0
   -0.0941   -0.3757    1.2588 H   0  0  0  0  0  0  0  0  0  0  0  0
    0.3230   -0.6231   -0.8454 C   0  0  0  0  0  0  0  0  0  0  0  0
   -0.2052   -0.4633   -1.7874 H   0  0  0  0  0  0  0  0  0  0  0  0
    1.2273   -0.0110   -0.8654 H   0  0  0  0  0  0  0  0  0  0  0  0
    0.7466   -2.1015   -0.7697 C   0  0  0  0  0  0  0  0  0  0  0  0
   -0.1340   -2.7307   -0.6403 H   0  0  0  0  0  0  0  0  0  0  0  0
    1.5012   -2.5528   -2.0236 C   0  0  0  0  0  0  0  0  0  0  0  0
    2.3777   -1.9215   -2.1759 H   0  0  0  0  0  0  0  0  0  0  0  0
    1.8234   -3.5877   -1.9056 H   0  0  0  0  0  0  0  0  0  0  0  0
    0.8610   -2.4896   -2.9008 H   0  0  0  0  0  0  0  0  0  0  0  0
    1.6619   -2.3152    0.4353 C   0  0  0  0  0  0  0  0  0  0  0  0
    1.1384   -2.0316    1.3483 H   0  0  0  0  0  0  0  0  0  0  0  0
    1.9409   -3.3664    0.5071 H   0  0  0  0  0  0  0  0  0  0  0  0
    2.5633   -1.7097    0.3344 H   0  0  0  0  0  0  0  0  0  0  0  0
   -0.7787    1.4028    0.2705 C   0  0  0  0  0  0  0  0  0  0  0  0
    0.0073    2.1501    0.8482 O   0  0  0  0  0  0  0  0  0  0  0  0
   -1.8441    1.8582   -0.4014 N   0  0  0  0  0  0  0  0  0  0  0  0
   -2.4393    1.1832   -0.8542 H   0  0  0  0  0  0  0  0  0  0  0  0
   -2.1915    3.2726   -0.5179 C   0  0  0  0  0  0  0  0  0  0  0  0
   -1.3687    3.8170   -0.9867 H   0  0  0  0  0  0  0  0  0  0  0  0
   -3.0922    3.3928   -1.1218 H   0  0  0  0  0  0  0  0  0  0  0  0
   -2.3637    3.6927    0.4743 H   0  0  0  0  0  0  0  0  0  0  0  0
  5  6  2  0  0  0  0
  5  7  1  0  0  0  0
  2  3  1  0  0  0  0
  2  4  1  0  0  0  0
  2  5  1  0  0  0  0
  1  2  1  0  0  0  0
 24 25  2  0  0  0  0
 24 26  1  0  0  0  0
 20 21  1  0  0  0  0
 20 22  1  0  0  0  0
 20 23  1  0  0  0  0
 16 17  1  0  0  0  0
 16 18  1  0  0  0  0
 16 19  1  0  0  0  0
 14 15  1  0  0  0  0
 14 16  1  0  0  0  0
 14 20  1  0  0  0  0
 11 12  1  0  0  0  0
 11 13  1  0  0  0  0
 11 14  1  0  0  0  0
  9 10  1  0  0  0  0
  9 11  1  0  0  0  0
  9 24  1  0  0  0  0
  7  8  1  0  0  0  0
  7  9  1  0  0  0  0
 28 29  1  0  0  0  0
 28 30  1  0  0  0  0
 28 31  1  0  0  0  0
 26 27  1  0  0  0  0
 26 28  1  0  0  0  0
M  END
$$$$
default_name
  -OEChem-01062215323D

 31 30  0     1  0  0  0  0  0999 V2000
   -3.5895   -3.5013    1.1082 H   0  0  0  0  0  0  0  0  0  0  0  0
   -3.5145   -2.5363    0.6082 C   0  0  0  0  0  0  0  0  0  0  0  0
   -4.2285   -1.8413    1.0452 H   0  0  0  0  0  0  0  0  0  0  0  0
   -3.7155   -2.6583   -0.4538 H   0  0  0  0  0  0  0  0  0  0  0  0
   -2.1155   -1.9963    0.7922 C   0  0  0  0  0  0  0  0  0  0  0  0
   -1.2875   -2.6383    1.4252 O   0  0  0  0  0  0  0  0  0  0  0  0
   -1.8575   -0.8123    0.2402 N   0  0  0  0  0  0  0  0  0  0  0  0
   -2.6005   -0.3333   -0.2478 H   0  0  0  0  0  0  0  0  0  0  0  0
   -0.5675   -0.1203    0.3102 C   0  0  1  0  0  0  0  0  0  0  0  0
   -0.0941   -0.3757    1.2588 H   0  0  0  0  0  0  0  0  0  0  0  0
    0.3230   -0.6231   -0.8454 C   0  0  0  0  0  0  0  0  0  0  0  0
   -0.2052   -0.4633   -1.7874 H   0  0  0  0  0  0  0  0  0  0  0  0
    1.2273   -0.0110   -0.8654 H   0  0  0  0  0  0  0  0  0  0  0  0
    0.7466   -2.1015   -0.7697 C   0  0  0  0  0  0  0  0  0  0  0  0
   -0.1340   -2.7307   -0.6403 H   0  0  0  0  0  0  0  0  0  0  0  0
    1.5012   -2.5528   -2.0236 C   0  0  0  0  0  0  0  0  0  0  0  0
    2.3777   -1.9215   -2.1759 H   0  0  0  0  0  0  0  0  0  0  0  0
    1.8234   -3.5877   -1.9056 H   0  0  0  0  0  0  0  0  0  0  0  0
    0.8610   -2.4896   -2.9008 H   0  0  0  0  0  0  0  0  0  0  0  0
    1.6619   -2.3152    0.4353 C   0  0  0  0  0  0  0  0  0  0  0  0
    1.1384   -2.0316    1.3483 H   0  0  0  0  0  0  0  0  0  0  0  0
    1.9409   -3.3664    0.5071 H   0  0  0  0  0  0  0  0  0  0  0  0
    2.5633   -1.7097    0.3344 H   0  0  0  0  0  0  0  0  0  0  0  0
   -0.7787    1.4028    0.2705 C   0  0  0  0  0  0  0  0  0  0  0  0
    0.1307    2.1607    0.6000 O   0  0  0  0  0  0  0  0  0  0  0  0
   -1.9798    1.8466   -0.1221 N   0  0  0  0  0  0  0  0  0  0  0  0
   -2.6726    1.1631   -0.3826 H   0  0  0  0  0  0  0  0  0  0  0  0
   -2.3425    3.2600   -0.1972 C   0  0  0  0  0  0  0  0  0  0  0  0
   -1.6663    3.7784   -0.8807 H   0  0  0  0  0  0  0  0  0  0  0  0
   -3.3677    3.3693   -0.5543 H   0  0  0  0  0  0  0  0  0  0  0  0
   -2.2537    3.7161    0.7900 H   0  0  0  0  0  0  0  0  0  0  0  0
  5  6  2  0  0  0  0
  5  7  1  0  0  0  0
  2  3  1  0  0  0  0
  2  4  1  0  0  0  0
  2  5  1  0  0  0  0
  1  2  1  0  0  0  0
 24 25  2  0  0  0  0
 24 26  1  0  0  0  0
 20 21  1  0  0  0  0
 20 22  1  0  0  0  0
 20 23  1  0  0  0  0
 16 17  1  0  0  0  0
 16 18  1  0  0  0  0
 16 19  1  0  0  0  0
 14 15  1  0  0  0  0
 14 16  1  0  0  0  0
 14 20  1  0  0  0  0
 11 12  1  0  0  0  0
 11 13  1  0  0  0  0
 11 14  1  0  0  0  0
  9 10  1  0  0  0  0
  9 11  1  0  0  0  0
  9 24  1  0  0  0  0
  7  8  1  0  0  0  0
  7  9  1  0  0  0  0
 28 29  1  0  0  0  0
 28 30  1  0  0  0  0
 28 31  1  0  0  0  0
 26 27  1  0  0  0  0
 26 28  1  0  0  0  0
M  END
$$$$
default_name
  -OEChem-01062215323D

 31 30  0     1  0  0  0  0  0999 V2000
   -3.5895   -3.5013    1.1082 H   0  0  0  0  0  0  0  0  0  0  0  0
   -3.5145   -2.5363    0.6082 C   0  0  0  0  0  0  0  0  0  0  0  0
   -4.2285   -1.8413    1.0452 H   0  0  0  0  0  0  0  0  0  0  0  0
   -3.7155   -2.6583   -0.4538 H   0  0  0  0  0  0  0  0  0  0  0  0
   -2.1155   -1.9963    0.7922 C   0  0  0  0  0  0  0  0  0  0  0  0
   -1.2875   -2.6383    1.4252 O   0  0  0  0  0  0  0  0  0  0  0  0
   -1.8575   -0.8123    0.2402 N   0  0  0  0  0  0  0  0  0  0  0  0
   -2.6005   -0.3333   -0.2478 H   0  0  0  0  0  0  0  0  0  0  0  0
   -0.5675   -0.1203    0.3102 C   0  0  1  0  0  0  0  0  0  0  0  0
   -0.0941   -0.3757    1.2588 H   0  0  0  0  0  0  0  0  0  0  0  0
    0.3230   -0.6231   -0.8454 C   0  0  0  0  0  0  0  0  0  0  0  0
   -0.2052   -0.4633   -1.7874 H   0  0  0  0  0  0  0  0  0  0  0  0
    1.2273   -0.0110   -0.8654 H   0  0  0  0  0  0  0  0  0  0  0  0
    0.7466   -2.1015   -0.7697 C   0  0  0  0  0  0  0  0  0  0  0  0
   -0.1340   -2.7307   -0.6403 H   0  0  0  0  0  0  0  0  0  0  0  0
    1.5012   -2.5528   -2.0236 C   0  0  0  0  0  0  0  0  0  0  0  0
    2.3777   -1.9215   -2.1759 H   0  0  0  0  0  0  0  0  0  0  0  0
    1.8234   -3.5877   -1.9056 H   0  0  0  0  0  0  0  0  0  0  0  0
    0.8610   -2.4896   -2.9008 H   0  0  0  0  0  0  0  0  0  0  0  0
    1.6619   -2.3152    0.4353 C   0  0  0  0  0  0  0  0  0  0  0  0
    1.1384   -2.0316    1.3483 H   0  0  0  0  0  0  0  0  0  0  0  0
    1.9409   -3.3664    0.5071 H   0  0  0  0  0  0  0  0  0  0  0  0
    2.5633   -1.7097    0.3344 H   0  0  0  0  0  0  0  0  0  0  0  0
   -0.7787    1.4028    0.2705 C   0  0  0  0  0  0  0  0  0  0  0  0
    0.1864    2.1613    0.3282 O   0  0  0  0  0  0  0  0  0  0  0  0
   -2.0394    1.8463    0.1827 N   0  0  0  0  0  0  0  0  0  0  0  0
   -2.7772    1.1620    0.1335 H   0  0  0  0  0  0  0  0  0  0  0  0
   -2.4064    3.2602    0.1516 C   0  0  0  0  0  0  0  0  0  0  0  0
   -1.9269    3.7470   -0.7007 H   0  0  0  0  0  0  0  0  0  0  0  0
   -3.4886    3.3687    0.0654 H   0  0  0  0  0  0  0  0  0  0  0  0
   -2.0665    3.7493    1.0659 H   0  0  0  0  0  0  0  0  0  0  0  0
  5  6  2  0  0  0  0
  5  7  1  0  0  0  0
  2  3  1  0  0  0  0
  2  4  1  0  0  0  0
  2  5  1  0  0  0  0
  1  2  1  0  0  0  0
 24 25  2  0  0  0  0
 24 26  1  0  0  0  0
 20 21  1  0  0  0  0
 20 22  1  0  0  0  0
 20 23  1  0  0  0  0
 16 17  1  0  0  0  0
 16 18  1  0  0  0  0
 16 19  1  0  0  0  0
 14 15  1  0  0  0  0
 14 16  1  0  0  0  0
 14 20  1  0  0  0  0
 11 12  1  0  0  0  0
 11 13  1  0  0  0  0
 11 14  1  0  0  0  0
  9 10  1  0  0  0  0
  9 11  1  0  0  0  0
  9 24  1  0  0  0  0
  7  8  1  0  0  0  0
  7  9  1  0  0  0  0
 28 29  1  0  0  0  0
 28 30  1  0  0  0  0
 28 31  1  0  0  0  0
 26 27  1  0  0  0  0
 26 28  1  0  0  0  0
M  END
$$$$
default_name
  -OEChem-01062215323D

 31 30  0     1  0  0  0  0  0999 V2000
   -3.5895   -3.5013    1.1082 H   0  0  0  0  0  0  0  0  0  0  0  0
   -3.5145   -2.5363    0.6082 C   0  0  0  0  0  0  0  0  0  0  0  0
   -4.2285   -1.8413    1.0452 H   0  0  0  0  0  0  0  0  0  0  0  0
   -3.7155   -2.6583   -0.4538 H   0  0  0  0  0  0  0  0  0  0  0  0
   -2.1155   -1.9963    0.7922 C   0  0  0  0  0  0  0  0  0  0  0  0
   -1.2875   -2.6383    1.4252 O   0  0  0  0  0  0  0  0  0  0  0  0
   -1.8575   -0.8123    0.2402 N   0  0  0  0  0  0  0  0  0  0  0  0
   -2.6005   -0.3333   -0.2478 H   0  0  0  0  0  0  0  0  0  0  0  0
   -0.5675   -0.1203    0.3102 C   0  0  1  0  0  0  0  0  0  0  0  0
   -0.0941   -0.3757    1.2588 H   0  0  0  0  0  0  0  0  0  0  0  0
    0.3230   -0.6231   -0.8454 C   0  0  0  0  0  0  0  0  0  0  0  0
   -0.2052   -0.4633   -1.7874 H   0  0  0  0  0  0  0  0  0  0  0  0
    1.2273   -0.0110   -0.8654 H   0  0  0  0  0  0  0  0  0  0  0  0
    0.7466   -2.1015   -0.7697 C   0  0  0  0  0  0  0  0  0  0  0  0
   -0.1340   -2.7307   -0.6403 H   0  0  0  0  0  0  0  0  0  0  0  0
    1.5012   -2.5528   -2.0236 C   0  0  0  0  0  0  0  0  0  0  0  0
    2.3777   -1.9215   -2.1759 H   0  0  0  0  0  0  0  0  0  0  0  0
    1.8234   -3.5877   -1.9056 H   0  0  0  0  0  0  0  0  0  0  0  0
    0.8610   -2.4896   -2.9008 H   0  0  0  0  0  0  0  0  0  0  0  0
    1.6619   -2.3152    0.4353 C   0  0  0  0  0  0  0  0  0  0  0  0
    1.1384   -2.0316    1.3483 H   0  0  0  0  0  0  0  0  0  0  0  0
    1.9409   -3.3664    0.5071 H   0  0  0  0  0  0  0  0  0  0  0  0
    2.5633   -1.7097    0.3344 H   0  0  0  0  0  0  0  0  0  0  0  0
   -0.7787    1.4028    0.2705 C   0  0  0  0  0  0  0  0  0  0  0  0
    0.1705    2.1519    0.0514 O   0  0  0  0  0  0  0  0  0  0  0  0
   -2.0189    1.8572    0.4925 N   0  0  0  0  0  0  0  0  0  0  0  0
   -2.7460    1.1801    0.6589 H   0  0  0  0  0  0  0  0  0  0  0  0
   -2.3786    3.2733    0.5050 C   0  0  0  0  0  0  0  0  0  0  0  0
   -2.1328    3.7247   -0.4588 H   0  0  0  0  0  0  0  0  0  0  0  0
   -3.4466    3.3910    0.6949 H   0  0  0  0  0  0  0  0  0  0  0  0
   -1.8147    3.7899    1.2832 H   0  0  0  0  0  0  0  0  0  0  0  0
  5  6  2  0  0  0  0
  5  7  1  0  0  0  0
  2  3  1  0  0  0  0
  2  4  1  0  0  0  0
  2  5  1  0  0  0  0
  1  2  1  0  0  0  0
 24 25  2  0  0  0  0
 24 26  1  0  0  0  0
 20 21  1  0  0  0  0
 20 22  1  0  0  0  0
 20 23  1  0  0  0  0
 16 17  1  0  0  0  0
 16 18  1  0  0  0  0
 16 19  1  0  0  0  0
 14 15  1  0  0  0  0
 14 16  1  0  0  0  0
 14 20  1  0  0  0  0
 11 12  1  0  0  0  0
 11 13  1  0  0  0  0
 11 14  1  0  0  0  0
  9 10  1  0  0  0  0
  9 11  1  0  0  0  0
  9 24  1  0  0  0  0
  7  8  1  0  0  0  0
  7  9  1  0  0  0  0
 28 29  1  0  0  0  0
 28 30  1  0  0  0  0
 28 31  1  0  0  0  0
 26 27  1  0  0  0  0
 26 28  1  0  0  0  0
M  END
$$$$
default_name
  -OEChem-01062215323D

 31 30  0     1  0  0  0  0  0999 V2000
   -3.5895   -3.5013    1.1082 H   0  0  0  0  0  0  0  0  0  0  0  0
   -3.5145   -2.5363    0.6082 C   0  0  0  0  0  0  0  0  0  0  0  0
   -4.2285   -1.8413    1.0452 H   0  0  0  0  0  0  0  0  0  0  0  0
   -3.7155   -2.6583   -0.4538 H   0  0  0  0  0  0  0  0  0  0  0  0
   -2.1155   -1.9963    0.7922 C   0  0  0  0  0  0  0  0  0  0  0  0
   -1.2875   -2.6383    1.4252 O   0  0  0  0  0  0  0  0  0  0  0  0
   -1.8575   -0.8123    0.2402 N   0  0  0  0  0  0  0  0  0  0  0  0
   -2.6005   -0.3333   -0.2478 H   0  0  0  0  0  0  0  0  0  0  0  0
   -0.5675   -0.1203    0.3102 C   0  0  1  0  0  0  0  0  0  0  0  0
   -0.0941   -0.3757    1.2588 H   0  0  0  0  0  0  0  0  0  0  0  0
    0.3230   -0.6231   -0.8454 C   0  0  0  0  0  0  0  0  0  0  0  0
   -0.2052   -0.4633   -1.7874 H   0  0  0  0  0  0  0  0  0  0  0  0
    1.2273   -0.0110   -0.8654 H   0  0  0  0  0  0  0  0  0  0  0  0
    0.7466   -2.1015   -0.7697 C   0  0  0  0  0  0  0  0  0  0  0  0
   -0.1340   -2.7307   -0.6403 H   0  0  0  0  0  0  0  0  0  0  0  0
    1.5012   -2.5528   -2.0236 C   0  0  0  0  0  0  0  0  0  0  0  0
    2.3777   -1.9215   -2.1759 H   0  0  0  0  0  0  0  0  0  0  0  0
    1.8234   -3.5877   -1.9056 H   0  0  0  0  0  0  0  0  0  0  0  0
    0.8610   -2.4896   -2.9008 H   0  0  0  0  0  0  0  0  0  0  0  0
    1.6619   -2.3152    0.4353 C   0  0  0  0  0  0  0  0  0  0  0  0
    1.1384   -2.0316    1.3483 H   0  0  0  0  0  0  0  0  0  0  0  0
    1.9409   -3.3664    0.5071 H   0  0  0  0  0  0  0  0  0  0  0  0
    2.5633   -1.7097    0.3344 H   0  0  0  0  0  0  0  0  0  0  0  0
   -0.7787    1.4028    0.2705 C   0  0  0  0  0  0  0  0  0  0  0  0
    0.0841    2.1331   -0.2116 O   0  0  0  0  0  0  0  0  0  0  0  0
   -1.9196    1.8787    0.7861 N   0  0  0  0  0  0  0  0  0  0  0  0
   -2.5811    1.2159    1.1577 H   0  0  0  0  0  0  0  0  0  0  0  0
   -2.2612    3.2983    0.8387 C   0  0  0  0  0  0  0  0  0  0  0  0
   -2.2697    3.7132   -0.1717 H   0  0  0  0  0  0  0  0  0  0  0  0
   -3.2445    3.4346    1.2914 H   0  0  0  0  0  0  0  0  0  0  0  0
   -1.5155    3.8351    1.4271 H   0  0  0  0  0  0  0  0  0  0  0  0
  5  6  2  0  0  0  0
  5  7  1  0  0  0  0
  2  3  1  0  0  0  0
  2  4  1  0  0  0  0
  2  5  1  0  0  0  0
  1  2  1  0  0  0  0
 24 25  2  0  0  0  0
 24 26  1  0  0  0  0
 20 21  1  0  0  0  0
 20 22  1  0  0  0  0
 20 23  1  0  0  0  0
 16 17  1  0  0  0  0
 16 18  1  0  0  0  0
 16 19  1  0  0  0  0
 14 15  1  0  0  0  0
 14 16  1  0  0  0  0
 14 20  1  0  0  0  0
 11 12  1  0  0  0  0
 11 13  1  0  0  0  0
 11 14  1  0  0  0  0
  9 10  1  0  0  0  0
  9 11  1  0  0  0  0
  9 24  1  0  0  0  0
  7  8  1  0  0  0  0
  7  9  1  0  0  0  0
 28 29  1  0  0  0  0
 28 30  1  0  0  0  0
 28 31  1  0  0  0  0
 26 27  1  0  0  0  0
 26 28  1  0  0  0  0
M  END
$$$$
default_name
  -OEChem-01062215323D

 31 30  0     1  0  0  0  0  0999 V2000
   -3.5895   -3.5013    1.1082 H   0  0  0  0  0  0  0  0  0  0  0  0
   -3.5145   -2.5363    0.6082 C   0  0  0  0  0  0  0  0  0  0  0  0
   -4.2285   -1.8413    1.0452 H   0  0  0  0  0  0  0  0  0  0  0  0
   -3.7155   -2.6583   -0.4538 H   0  0  0  0  0  0  0  0  0  0  0  0
   -2.1155   -1.9963    0.7922 C   0  0  0  0  0  0  0  0  0  0  0  0
   -1.2875   -2.6383    1.4252 O   0  0  0  0  0  0  0  0  0  0  0  0
   -1.8575   -0.8123    0.2402 N   0  0  0  0  0  0  0  0  0  0  0  0
   -2.6005   -0.3333   -0.2478 H   0  0  0  0  0  0  0  0  0  0  0  0
   -0.5675   -0.1203    0.3102 C   0  0  1  0  0  0  0  0  0  0  0  0
   -0.0941   -0.3757    1.2588 H   0  0  0  0  0  0  0  0  0  0  0  0
    0.3230   -0.6231   -0.8454 C   0  0  0  0  0  0  0  0  0  0  0  0
   -0.2052   -0.4633   -1.7874 H   0  0  0  0  0  0  0  0  0  0  0  0
    1.2273   -0.0110   -0.8654 H   0  0  0  0  0  0  0  0  0  0  0  0
    0.7466   -2.1015   -0.7697 C   0  0  0  0  0  0  0  0  0  0  0  0
   -0.1340   -2.7307   -0.6403 H   0  0  0  0  0  0  0  0  0  0  0  0
    1.5012   -2.5528   -2.0236 C   0  0  0  0  0  0  0  0  0  0  0  0
    2.3777   -1.9215   -2.1759 H   0  0  0  0  0  0  0  0  0  0  0  0
    1.8234   -3.5877   -1.9056 H   0  0  0  0  0  0  0  0  0  0  0  0
    0.8610   -2.4896   -2.9008 H   0  0  0  0  0  0  0  0  0  0  0  0
    1.6619   -2.3152    0.4353 C   0  0  0  0  0  0  0  0  0  0  0  0
    1.1384   -2.0316    1.3483 H   0  0  0  0  0  0  0  0  0  0  0  0
    1.9409   -3.3664    0.5071 H   0  0  0  0  0  0  0  0  0  0  0  0
    2.5633   -1.7097    0.3344 H   0  0  0  0  0  0  0  0  0  0  0  0
   -0.7787    1.4028    0.2705 C   0  0  0  0  0  0  0  0  0  0  0  0
   -0.0668    2.1061   -0.4428 O   0  0  0  0  0  0  0  0  0  0  0  0
   -1.7482    1.9091    1.0434 N   0  0  0  0  0  0  0  0  0  0  0  0
   -2.2937    1.2672    1.5960 H   0  0  0  0  0  0  0  0  0  0  0  0
   -2.0621    3.3335    1.1300 C   0  0  0  0  0  0  0  0  0  0  0  0
   -2.3285    3.7132    0.1411 H   0  0  0  0  0  0  0  0  0  0  0  0
   -2.8961    3.4965    1.8143 H   0  0  0  0  0  0  0  0  0  0  0  0
   -1.1893    3.8820    1.4879 H   0  0  0  0  0  0  0  0  0  0  0  0
  5  6  2  0  0  0  0
  5  7  1  0  0  0  0
  2  3  1  0  0  0  0
  2  4  1  0  0  0  0
  2  5  1  0  0  0  0
  1  2  1  0  0  0  0
 24 25  2  0  0  0  0
 24 26  1  0  0  0  0
 20 21  1  0  0  0  0
 20 22  1  0  0  0  0
 20 23  1  0  0  0  0
 16 17  1  0  0  0  0
 16 18  1  0  0  0  0
 16 19  1  0  0  0  0
 14 15  1  0  0  0  0
 14 16  1  0  0  0  0
 14 20  1  0  0  0  0
 11 12  1  0  0  0  0
 11 13  1  0  0  0  0
 11 14  1  0  0  0  0
  9 10  1  0  0  0  0
  9 11  1  0  0  0  0
  9 24  1  0  0  0  0
  7  8  1  0  0  0  0
  7  9  1  0  0  0  0
 28 29  1  0  0  0  0
 28 30  1  0  0  0  0
 28 31  1  0  0  0  0
 26 27  1  0  0  0  0
 26 28  1  0  0  0  0
M  END
$$$$
default_name
  -OEChem-01062215323D

 31 30  0     1  0  0  0  0  0999 V2000
   -3.5895   -3.5013    1.1082 H   0  0  0  0  0  0  0  0  0  0  0  0
   -3.5145   -2.5363    0.6082 C   0  0  0  0  0  0  0  0  0  0  0  0
   -4.2285   -1.8413    1.0452 H   0  0  0  0  0  0  0  0  0  0  0  0
   -3.7155   -2.6583   -0.4538 H   0  0  0  0  0  0  0  0  0  0  0  0
   -2.1155   -1.9963    0.7922 C   0  0  0  0  0  0  0  0  0  0  0  0
   -1.2875   -2.6383    1.4252 O   0  0  0  0  0  0  0  0  0  0  0  0
   -1.8575   -0.8123    0.2402 N   0  0  0  0  0  0  0  0  0  0  0  0
   -2.6005   -0.3333   -0.2478 H   0  0  0  0  0  0  0  0  0  0  0  0
   -0.5675   -0.1203    0.3102 C   0  0  1  0  0  0  0  0  0  0  0  0
   -0.0941   -0.3757    1.2588 H   0  0  0  0  0  0  0  0  0  0  0  0
    0.3230   -0.6231   -0.8454 C   0  0  0  0  0  0  0  0  0  0  0  0
   -0.2052   -0.4633   -1.7874 H   0  0  0  0  0  0  0  0  0  0  0  0
    1.2273   -0.0110   -0.8654 H   0  0  0  0  0  0  0  0  0  0  0  0
    0.7466   -2.1015   -0.7697 C   0  0  0  0  0  0  0  0  0  0  0  0
   -0.1340   -2.7307   -0.6403 H   0  0  0  0  0  0  0  0  0  0  0  0
    1.5012   -2.5528   -2.0236 C   0  0  0  0  0  0  0  0  0  0  0  0
    2.3777   -1.9215   -2.1759 H   0  0  0  0  0  0  0  0  0  0  0  0
    1.8234   -3.5877   -1.9056 H   0  0  0  0  0  0  0  0  0  0  0  0
    0.8610   -2.4896   -2.9008 H   0  0  0  0  0  0  0  0  0  0  0  0
    1.6619   -2.3152    0.4353 C   0  0  0  0  0  0  0  0  0  0  0  0
    1.1384   -2.0316    1.3483 H   0  0  0  0  0  0  0  0  0  0  0  0
    1.9409   -3.3664    0.5071 H   0  0  0  0  0  0  0  0  0  0  0  0
    2.5633   -1.7097    0.3344 H   0  0  0  0  0  0  0  0  0  0  0  0
   -0.7787    1.4028    0.2705 C   0  0  0  0  0  0  0  0  0  0  0  0
   -0.2721    2.0729   -0.6265 O   0  0  0  0  0  0  0  0  0  0  0  0
   -1.5166    1.9466    1.2470 N   0  0  0  0  0  0  0  0  0  0  0  0
   -1.9035    1.3304    1.9439 H   0  0  0  0  0  0  0  0  0  0  0  0
   -1.7948    3.3765    1.3592 C   0  0  0  0  0  0  0  0  0  0  0  0
   -2.3052    3.7247    0.4584 H   0  0  0  0  0  0  0  0  0  0  0  0
   -2.4252    3.5726    2.2279 H   0  0  0  0  0  0  0  0  0  0  0  0
   -0.8584    3.9272    1.4613 H   0  0  0  0  0  0  0  0  0  0  0  0
  5  6  2  0  0  0  0
  5  7  1  0  0  0  0
  2  3  1  0  0  0  0
  2  4  1  0  0  0  0
  2  5  1  0  0  0  0
  1  2  1  0  0  0  0
 24 25  2  0  0  0  0
 24 26  1  0  0  0  0
 20 21  1  0  0  0  0
 20 22  1  0  0  0  0
 20 23  1  0  0  0  0
 16 17  1  0  0  0  0
 16 18  1  0  0  0  0
 16 19  1  0  0  0  0
 14 15  1  0  0  0  0
 14 16  1  0  0  0  0
 14 20  1  0  0  0  0
 11 12  1  0  0  0  0
 11 13  1  0  0  0  0
 11 14  1  0  0  0  0
  9 10  1  0  0  0  0
  9 11  1  0  0  0  0
  9 24  1  0  0  0  0
  7  8  1  0  0  0  0
  7  9  1  0  0  0  0
 28 29  1  0  0  0  0
 28 30  1  0  0  0  0
 28 31  1  0  0  0  0
 26 27  1  0  0  0  0
 26 28  1  0  0  0  0
M  END
$$$$
default_name
  -OEChem-01062215323D

 31 30  0     1  0  0  0  0  0999 V2000
   -3.5895   -3.5013    1.1082 H   0  0  0  0  0  0  0  0  0  0  0  0
   -3.5145   -2.5363    0.6082 C   0  0  0  0  0  0  0  0  0  0  0  0
   -4.2285   -1.8413    1.0452 H   0  0  0  0  0  0  0  0  0  0  0  0
   -3.7155   -2.6583   -0.4538 H   0  0  0  0  0  0  0  0  0  0  0  0
   -2.1155   -1.9963    0.7922 C   0  0  0  0  0  0  0  0  0  0  0  0
   -1.2875   -2.6383    1.4252 O   0  0  0  0  0  0  0  0  0  0  0  0
   -1.8575   -0.8123    0.2402 N   0  0  0  0  0  0  0  0  0  0  0  0
   -2.6005   -0.3333   -0.2478 H   0  0  0  0  0  0  0  0  0  0  0  0
   -0.5675   -0.1203    0.3102 C   0  0  1  0  0  0  0  0  0  0  0  0
   -0.0941   -0.3757    1.2588 H   0  0  0  0  0  0  0  0  0  0  0  0
    0.3230   -0.6231   -0.8454 C   0  0  0  0  0  0  0  0  0  0  0  0
   -0.2052   -0.4633   -1.7874 H   0  0  0  0  0  0  0  0  0  0  0  0
    1.2273   -0.0110   -0.8654 H   0  0  0  0  0  0  0  0  0  0  0  0
    0.7466   -2.1015   -0.7697 C   0  0  0  0  0  0  0  0  0  0  0  0
   -0.1340   -2.7307   -0.6403 H   0  0  0  0  0  0  0  0  0  0  0  0
    1.5012   -2.5528   -2.0236 C   0  0  0  0  0  0  0  0  0  0  0  0
    2.3777   -1.9215   -2.1759 H   0  0  0  0  0  0  0  0  0  0  0  0
    1.8234   -3.5877   -1.9056 H   0  0  0  0  0  0  0  0  0  0  0  0
    0.8610   -2.4896   -2.9008 H   0  0  0  0  0  0  0  0  0  0  0  0
    1.6619   -2.3152    0.4353 C   0  0  0  0  0  0  0  0  0  0  0  0
    1.1384   -2.0316    1.3483 H   0  0  0  0  0  0  0  0  0  0  0  0
    1.9409   -3.3664    0.5071 H   0  0  0  0  0  0  0  0  0  0  0  0
    2.5633   -1.7097    0.3344 H   0  0  0  0  0  0  0  0  0  0  0  0
   -0.7787    1.4028    0.2705 C   0  0  0  0  0  0  0  0  0  0  0  0
   -0.5176    2.0356   -0.7501 O   0  0  0  0  0  0  0  0  0  0  0  0
   -1.2404    1.9884    1.3830 N   0  0  0  0  0  0  0  0  0  0  0  0
   -1.4370    1.4012    2.1776 H   0  0  0  0  0  0  0  0  0  0  0  0
   -1.4777    3.4245    1.5105 C   0  0  0  0  0  0  0  0  0  0  0  0
   -2.2012    3.7470    0.7584 H   0  0  0  0  0  0  0  0  0  0  0  0
   -1.8639    3.6577    2.5039 H   0  0  0  0  0  0  0  0  0  0  0  0
   -0.5452    3.9677    1.3492 H   0  0  0  0  0  0  0  0  0  0  0  0
  5  6  2  0  0  0  0
  5  7  1  0  0  0  0
  2  3  1  0  0  0  0
  2  4  1  0  0  0  0
  2  5  1  0  0  0  0
  1  2  1  0  0  0  0
 24 25  2  0  0  0  0
 24 26  1  0  0  0  0
 20 21  1  0  0  0  0
 20 22  1  0  0  0  0
 20 23  1  0  0  0  0
 16 17  1  0  0  0  0
 16 18  1  0  0  0  0
 16 19  1  0  0  0  0
 14 15  1  0  0  0  0
 14 16  1  0  0  0  0
 14 20  1  0  0  0  0
 11 12  1  0  0  0  0
 11 13  1  0  0  0  0
 11 14  1  0  0  0  0
  9 10  1  0  0  0  0
  9 11  1  0  0  0  0
  9 24  1  0  0  0  0
  7  8  1  0  0  0  0
  7  9  1  0  0  0  0
 28 29  1  0  0  0  0
 28 30  1  0  0  0  0
 28 31  1  0  0  0  0
 26 27  1  0  0  0  0
 26 28  1  0  0  0  0
M  END
$$$$
default_name
  -OEChem-01062215323D

 31 30  0     1  0  0  0  0  0999 V2000
   -3.5895   -3.5013    1.1082 H   0  0  0  0  0  0  0  0  0  0  0  0
   -3.5145   -2.5363    0.6082 C   0  0  0  0  0  0  0  0  0  0  0  0
   -4.2285   -1.8413    1.0452 H   0  0  0  0  0  0  0  0  0  0  0  0
   -3.7155   -2.6583   -0.4538 H   0  0  0  0  0  0  0  0  0  0  0  0
   -2.1155   -1.9963    0.7922 C   0  0  0  0  0  0  0  0  0  0  0  0
   -1.2875   -2.6383    1.4252 O   0  0  0  0  0  0  0  0  0  0  0  0
   -1.8575   -0.8123    0.2402 N   0  0  0  0  0  0  0  0  0  0  0  0
   -2.6005   -0.3333   -0.2478 H   0  0  0  0  0  0  0  0  0  0  0  0
   -0.5675   -0.1203    0.3102 C   0  0  1  0  0  0  0  0  0  0  0  0
   -0.0941   -0.3757    1.2588 H   0  0  0  0  0  0  0  0  0  0  0  0
    0.3230   -0.6231   -0.8454 C   0  0  0  0  0  0  0  0  0  0  0  0
   -0.2052   -0.4633   -1.7874 H   0  0  0  0  0  0  0  0  0  0  0  0
    1.2273   -0.0110   -0.8654 H   0  0  0  0  0  0  0  0  0  0  0  0
    0.7466   -2.1015   -0.7697 C   0  0  0  0  0  0  0  0  0  0  0  0
   -0.1340   -2.7307   -0.6403 H   0  0  0  0  0  0  0  0  0  0  0  0
    1.5012   -2.5528   -2.0236 C   0  0  0  0  0  0  0  0  0  0  0  0
    2.3777   -1.9215   -2.1759 H   0  0  0  0  0  0  0  0  0  0  0  0
    1.8234   -3.5877   -1.9056 H   0  0  0  0  0  0  0  0  0  0  0  0
    0.8610   -2.4896   -2.9008 H   0  0  0  0  0  0  0  0  0  0  0  0
    1.6619   -2.3152    0.4353 C   0  0  0  0  0  0  0  0  0  0  0  0
    1.1384   -2.0316    1.3483 H   0  0  0  0  0  0  0  0  0  0  0  0
    1.9409   -3.3664    0.5071 H   0  0  0  0  0  0  0  0  0  0  0  0
    2.5633   -1.7097    0.3344 H   0  0  0  0  0  0  0  0  0  0  0  0
   -0.7787    1.4028    0.2705 C   0  0  0  0  0  0  0  0  0  0  0  0
   -0.7867    1.9968   -0.8053 O   0  0  0  0  0  0  0  0  0  0  0  0
   -0.9386    2.0319    1.4420 N   0  0  0  0  0  0  0  0  0  0  0  0
   -0.9260    1.4748    2.2814 H   0  0  0  0  0  0  0  0  0  0  0  0
   -1.1322    3.4740    1.5737 C   0  0  0  0  0  0  0  0  0  0  0  0
   -2.0237    3.7784    1.0208 H   0  0  0  0  0  0  0  0  0  0  0  0
   -1.2503    3.7459    2.6237 H   0  0  0  0  0  0  0  0  0  0  0  0
   -0.2712    4.0008    1.1593 H   0  0  0  0  0  0  0  0  0  0  0  0
  5  6  2  0  0  0  0
  5  7  1  0  0  0  0
  2  3  1  0  0  0  0
  2  4  1  0  0  0  0
  2  5  1  0  0  0  0
  1  2  1  0  0  0  0
 24 25  2  0  0  0  0
 24 26  1  0  0  0  0
 20 21  1  0  0  0  0
 20 22  1  0  0  0  0
 20 23  1  0  0  0  0
 16 17  1  0  0  0  0
 16 18  1  0  0  0  0
 16 19  1  0  0  0  0
 14 15  1  0  0  0  0
 14 16  1  0  0  0  0
 14 20  1  0  0  0  0
 11 12  1  0  0  0  0
 11 13  1  0  0  0  0
 11 14  1  0  0  0  0
  9 10  1  0  0  0  0
  9 11  1  0  0  0  0
  9 24  1  0  0  0  0
  7  8  1  0  0  0  0
  7  9  1  0  0  0  0
 28 29  1  0  0  0  0
 28 30  1  0  0  0  0
 28 31  1  0  0  0  0
 26 27  1  0  0  0  0
 26 28  1  0  0  0  0
M  END
$$$$
default_name
  -OEChem-01062215323D

 31 30  0     1  0  0  0  0  0999 V2000
   -3.5895   -3.5013    1.1082 H   0  0  0  0  0  0  0  0  0  0  0  0
   -3.5145   -2.5363    0.6082 C   0  0  0  0  0  0  0  0  0  0  0  0
   -4.2285   -1.8413    1.0452 H   0  0  0  0  0  0  0  0  0  0  0  0
   -3.7155   -2.6583   -0.4538 H   0  0  0  0  0  0  0  0  0  0  0  0
   -2.1155   -1.9963    0.7922 C   0  0  0  0  0  0  0  0  0  0  0  0
   -1.2875   -2.6383    1.4252 O   0  0  0  0  0  0  0  0  0  0  0  0
   -1.8575   -0.8123    0.2402 N   0  0  0  0  0  0  0  0  0  0  0  0
   -2.6005   -0.3333   -0.2478 H   0  0  0  0  0  0  0  0  0  0  0  0
   -0.5675   -0.1203    0.3102 C   0  0  1  0  0  0  0  0  0  0  0  0
   -0.0941   -0.3757    1.2588 H   0  0  0  0  0  0  0  0  0  0  0  0
    0.3230   -0.6231   -0.8454 C   0  0  0  0  0  0  0  0  0  0  0  0
   -0.2052   -0.4633   -1.7874 H   0  0  0  0  0  0  0  0  0  0  0  0
    1.2273   -0.0110   -0.8654 H   0  0  0  0  0  0  0  0  0  0  0  0
    0.7466   -2.1015   -0.7697 C   0  0  0  0  0  0  0  0  0  0  0  0
   -0.1340   -2.7307   -0.6403 H   0  0  0  0  0  0  0  0  0  0  0  0
    1.5012   -2.5528   -2.0236 C   0  0  0  0  0  0  0  0  0  0  0  0
    2.3777   -1.9215   -2.1759 H   0  0  0  0  0  0  0  0  0  0  0  0
    1.8234   -3.5877   -1.9056 H   0  0  0  0  0  0  0  0  0  0  0  0
    0.8610   -2.4896   -2.9008 H   0  0  0  0  0  0  0  0  0  0  0  0
    1.6619   -2.3152    0.4353 C   0  0  0  0  0  0  0  0  0  0  0  0
    1.1384   -2.0316    1.3483 H   0  0  0  0  0  0  0  0  0  0  0  0
    1.9409   -3.3664    0.5071 H   0  0  0  0  0  0  0  0  0  0  0  0
    2.5633   -1.7097    0.3344 H   0  0  0  0  0  0  0  0  0  0  0  0
   -0.7787    1.4028    0.2705 C   0  0  0  0  0  0  0  0  0  0  0  0
   -1.0611    1.9592   -0.7882 O   0  0  0  0  0  0  0  0  0  0  0  0
   -0.6316    2.0739    1.4202 N   0  0  0  0  0  0  0  0  0  0  0  0
   -0.4053    1.5462    2.2480 H   0  0  0  0  0  0  0  0  0  0  0  0
   -0.7820    3.5219    1.5444 C   0  0  0  0  0  0  0  0  0  0  0  0
   -1.7849    3.8170    1.2276 H   0  0  0  0  0  0  0  0  0  0  0  0
   -0.6264    3.8313    2.5791 H   0  0  0  0  0  0  0  0  0  0  0  0
   -0.0549    4.0241    0.9043 H   0  0  0  0  0  0  0  0  0  0  0  0
  5  6  2  0  0  0  0
  5  7  1  0  0  0  0
  2  3  1  0  0  0  0
  2  4  1  0  0  0  0
  2  5  1  0  0  0  0
  1  2  1  0  0  0  0
 24 25  2  0  0  0  0
 24 26  1  0  0  0  0
 20 21  1  0  0  0  0
 20 22  1  0  0  0  0
 20 23  1  0  0  0  0
 16 17  1  0  0  0  0
 16 18  1  0  0  0  0
 16 19  1  0  0  0  0
 14 15  1  0  0  0  0
 14 16  1  0  0  0  0
 14 20  1  0  0  0  0
 11 12  1  0  0  0  0
 11 13  1  0  0  0  0
 11 14  1  0  0  0  0
  9 10  1  0  0  0  0
  9 11  1  0  0  0  0
  9 24  1  0  0  0  0
  7  8  1  0  0  0  0
  7  9  1  0  0  0  0
 28 29  1  0  0  0  0
 28 30  1  0  0  0  0
 28 31  1  0  0  0  0
 26 27  1  0  0  0  0
 26 28  1  0  0  0  0
M  END
$$$$
default_name
  -OEChem-01062215323D

 31 30  0     1  0  0  0  0  0999 V2000
   -3.5895   -3.5013    1.1082 H   0  0  0  0  0  0  0  0  0  0  0  0
   -3.5145   -2.5363    0.6082 C   0  0  0  0  0  0  0  0  0  0  0  0
   -4.2285   -1.8413    1.0452 H   0  0  0  0  0  0  0  0  0  0  0  0
   -3.7155   -2.6583   -0.4538 H   0  0  0  0  0  0  0  0  0  0  0  0
   -2.1155   -1.9963    0.7922 C   0  0  0  0  0  0  0  0  0  0  0  0
   -1.2875   -2.6383    1.4252 O   0  0  0  0  0  0  0  0  0  0  0  0
   -1.8575   -0.8123    0.2402 N   0  0  0  0  0  0  0  0  0  0  0  0
   -2.6005   -0.3333   -0.2478 H   0  0  0  0  0  0  0  0  0  0  0  0
   -0.5675   -0.1203    0.3102 C   0  0  1  0  0  0  0  0  0  0  0  0
   -0.0941   -0.3757    1.2588 H   0  0  0  0  0  0  0  0  0  0  0  0
    0.3230   -0.6231   -0.8454 C   0  0  0  0  0  0  0  0  0  0  0  0
   -0.2052   -0.4633   -1.7874 H   0  0  0  0  0  0  0  0  0  0  0  0
    1.2273   -0.0110   -0.8654 H   0  0  0  0  0  0  0  0  0  0  0  0
    0.7466   -2.1015   -0.7697 C   0  0  0  0  0  0  0  0  0  0  0  0
   -0.1340   -2.7307   -0.6403 H   0  0  0  0  0  0  0  0  0  0  0  0
    1.5012   -2.5528   -2.0236 C   0  0  0  0  0  0  0  0  0  0  0  0
    2.3777   -1.9215   -2.1759 H   0  0  0  0  0  0  0  0  0  0  0  0
    1.8234   -3.5877   -1.9056 H   0  0  0  0  0  0  0  0  0  0  0  0
    0.8610   -2.4896   -2.9008 H   0  0  0  0  0  0  0  0  0  0  0  0
    1.6619   -2.3152    0.4353 C   0  0  0  0  0  0  0  0  0  0  0  0
    1.1384   -2.0316    1.3483 H   0  0  0  0  0  0  0  0  0  0  0  0
    1.9409   -3.3664    0.5071 H   0  0  0  0  0  0  0  0  0  0  0  0
    2.5633   -1.7097    0.3344 H   0  0  0  0  0  0  0  0  0  0  0  0
   -0.7787    1.4028    0.2705 C   0  0  0  0  0  0  0  0  0  0  0  0
   -1.3219    1.9253   -0.7001 O   0  0  0  0  0  0  0  0  0  0  0  0
   -0.3403    2.1116    1.3189 N   0  0  0  0  0  0  0  0  0  0  0  0
    0.0895    1.6104    2.0798 H   0  0  0  0  0  0  0  0  0  0  0  0
   -0.4509    3.5647    1.4247 C   0  0  0  0  0  0  0  0  0  0  0  0
   -1.5009    3.8599    1.3649 H   0  0  0  0  0  0  0  0  0  0  0  0
   -0.0346    3.9080    2.3730 H   0  0  0  0  0  0  0  0  0  0  0  0
    0.0888    4.0362    0.6019 H   0  0  0  0  0  0  0  0  0  0  0  0
  5  6  2  0  0  0  0
  5  7  1  0  0  0  0
  2  3  1  0  0  0  0
  2  4  1  0  0  0  0
  2  5  1  0  0  0  0
  1  2  1  0  0  0  0
 24 25  2  0  0  0  0
 24 26  1  0  0  0  0
 20 21  1  0  0  0  0
 20 22  1  0  0  0  0
 20 23  1  0  0  0  0
 16 17  1  0  0  0  0
 16 18  1  0  0  0  0
 16 19  1  0  0  0  0
 14 15  1  0  0  0  0
 14 16  1  0  0  0  0
 14 20  1  0  0  0  0
 11 12  1  0  0  0  0
 11 13  1  0  0  0  0
 11 14  1  0  0  0  0
  9 10  1  0  0  0  0
  9 11  1  0  0  0  0
  9 24  1  0  0  0  0
  7  8  1  0  0  0  0
  7  9  1  0  0  0  0
 28 29  1  0  0  0  0
 28 30  1  0  0  0  0
 28 31  1  0  0  0  0
 26 27  1  0  0  0  0
 26 28  1  0  0  0  0
M  END
$$$$
default_name
  -OEChem-01062215323D

 31 30  0     1  0  0  0  0  0999 V2000
   -3.5895   -3.5013    1.1082 H   0  0  0  0  0  0  0  0  0  0  0  0
   -3.5145   -2.5363    0.6082 C   0  0  0  0  0  0  0  0  0  0  0  0
   -4.2285   -1.8413    1.0452 H   0  0  0  0  0  0  0  0  0  0  0  0
   -3.7155   -2.6583   -0.4538 H   0  0  0  0  0  0  0  0  0  0  0  0
   -2.1155   -1.9963    0.7922 C   0  0  0  0  0  0  0  0  0  0  0  0
   -1.2875   -2.6383    1.4252 O   0  0  0  0  0  0  0  0  0  0  0  0
   -1.8575   -0.8123    0.2402 N   0  0  0  0  0  0  0  0  0  0  0  0
   -2.6005   -0.3333   -0.2478 H   0  0  0  0  0  0  0  0  0  0  0  0
   -0.5675   -0.1203    0.3102 C   0  0  1  0  0  0  0  0  0  0  0  0
   -0.0941   -0.3757    1.2588 H   0  0  0  0  0  0  0  0  0  0  0  0
    0.3230   -0.6231   -0.8454 C   0  0  0  0  0  0  0  0  0  0  0  0
   -0.2052   -0.4633   -1.7874 H   0  0  0  0  0  0  0  0  0  0  0  0
    1.2273   -0.0110   -0.8654 H   0  0  0  0  0  0  0  0  0  0  0  0
    0.7466   -2.1015   -0.7697 C   0  0  0  0  0  0  0  0  0  0  0  0
   -0.1340   -2.7307   -0.6403 H   0  0  0  0  0  0  0  0  0  0  0  0
    1.5012   -2.5528   -2.0236 C   0  0  0  0  0  0  0  0  0  0  0  0
    2.3777   -1.9215   -2.1759 H   0  0  0  0  0  0  0  0  0  0  0  0
    1.8234   -3.5877   -1.9056 H   0  0  0  0  0  0  0  0  0  0  0  0
    0.8610   -2.4896   -2.9008 H   0  0  0  0  0  0  0  0  0  0  0  0
    1.6619   -2.3152    0.4353 C   0  0  0  0  0  0  0  0  0  0  0  0
    1.1384   -2.0316    1.3483 H   0  0  0  0  0  0  0  0  0  0  0  0
    1.9409   -3.3664    0.5071 H   0  0  0  0  0  0  0  0  0  0  0  0
    2.5633   -1.7097    0.3344 H   0  0  0  0  0  0  0  0  0  0  0  0
   -0.7787    1.4028    0.2705 C   0  0  0  0  0  0  0  0  0  0  0  0
   -1.5516    1.8975   -0.5470 O   0  0  0  0  0  0  0  0  0  0  0  0
   -0.0847    2.1426    1.1450 N   0  0  0  0  0  0  0  0  0  0  0  0
    0.5248    1.6632    1.7882 H   0  0  0  0  0  0  0  0  0  0  0  0
   -0.1615    3.5996    1.2227 C   0  0  0  0  0  0  0  0  0  0  0  0
   -1.1911    3.9044    1.4231 H   0  0  0  0  0  0  0  0  0  0  0  0
    0.4848    3.9708    2.0195 H   0  0  0  0  0  0  0  0  0  0  0  0
    0.1501    4.0361    0.2725 H   0  0  0  0  0  0  0  0  0  0  0  0
  5  6  2  0  0  0  0
  5  7  1  0  0  0  0
  2  3  1  0  0  0  0
  2  4  1  0  0  0  0
  2  5  1  0  0  0  0
  1  2  1  0  0  0  0
 24 25  2  0  0  0  0
 24 26  1  0  0  0  0
 20 21  1  0  0  0  0
 20 22  1  0  0  0  0
 20 23  1  0  0  0  0
 16 17  1  0  0  0  0
 16 18  1  0  0  0  0
 16 19  1  0  0  0  0
 14 15  1  0  0  0  0
 14 16  1  0  0  0  0
 14 20  1  0  0  0  0
 11 12  1  0  0  0  0
 11 13  1  0  0  0  0
 11 14  1  0  0  0  0
  9 10  1  0  0  0  0
  9 11  1  0  0  0  0
  9 24  1  0  0  0  0
  7  8  1  0  0  0  0
  7  9  1  0  0  0  0
 28 29  1  0  0  0  0
 28 30  1  0  0  0  0
 28 31  1  0  0  0  0
 26 27  1  0  0  0  0
 26 28  1  0  0  0  0
M  END
$$$$
default_name
  -OEChem-01062215323D

 31 30  0     1  0  0  0  0  0999 V2000
   -3.5895   -3.5013    1.1082 H   0  0  0  0  0  0  0  0  0  0  0  0
   -3.5145   -2.5363    0.6082 C   0  0  0  0  0  0  0  0  0  0  0  0
   -4.2285   -1.8413    1.0452 H   0  0  0  0  0  0  0  0  0  0  0  0
   -3.7155   -2.6583   -0.4538 H   0  0  0  0  0  0  0  0  0  0  0  0
   -2.1155   -1.9963    0.7922 C   0  0  0  0  0  0  0  0  0  0  0  0
   -1.2875   -2.6383    1.4252 O   0  0  0  0  0  0  0  0  0  0  0  0
   -1.8575   -0.8123    0.2402 N   0  0  0  0  0  0  0  0  0  0  0  0
   -2.6005   -0.3333   -0.2478 H   0  0  0  0  0  0  0  0  0  0  0  0
   -0.5675   -0.1203    0.3102 C   0  0  1  0  0  0  0  0  0  0  0  0
   -0.0941   -0.3757    1.2588 H   0  0  0  0  0  0  0  0  0  0  0  0
    0.3230   -0.6231   -0.8454 C   0  0  0  0  0  0  0  0  0  0  0  0
   -0.2052   -0.4633   -1.7874 H   0  0  0  0  0  0  0  0  0  0  0  0
    1.2273   -0.0110   -0.8654 H   0  0  0  0  0  0  0  0  0  0  0  0
    0.7466   -2.1015   -0.7697 C   0  0  0  0  0  0  0  0  0  0  0  0
   -0.1340   -2.7307   -0.6403 H   0  0  0  0  0  0  0  0  0  0  0  0
    1.5012   -2.5528   -2.0236 C   0  0  0  0  0  0  0  0  0  0  0  0
    2.3777   -1.9215   -2.1759 H   0  0  0  0  0  0  0  0  0  0  0  0
    1.8234   -3.5877   -1.9056 H   0  0  0  0  0  0  0  0  0  0  0  0
    0.8610   -2.4896   -2.9008 H   0  0  0  0  0  0  0  0  0  0  0  0
    1.6619   -2.3152    0.4353 C   0  0  0  0  0  0  0  0  0  0  0  0
    1.1384   -2.0316    1.3483 H   0  0  0  0  0  0  0  0  0  0  0  0
    1.9409   -3.3664    0.5071 H   0  0  0  0  0  0  0  0  0  0  0  0
    2.5633   -1.7097    0.3344 H   0  0  0  0  0  0  0  0  0  0  0  0
   -0.7787    1.4028    0.2705 C   0  0  0  0  0  0  0  0  0  0  0  0
   -1.7343    1.8775   -0.3392 O   0  0  0  0  0  0  0  0  0  0  0  0
    0.1178    2.1645    0.9105 N   0  0  0  0  0  0  0  0  0  0  0  0
    0.8709    1.7009    1.3931 H   0  0  0  0  0  0  0  0  0  0  0  0
    0.0665    3.6241    0.9521 C   0  0  0  0  0  0  0  0  0  0  0  0
   -0.8767    3.9474    1.3984 H   0  0  0  0  0  0  0  0  0  0  0  0
    0.8962    4.0155    1.5428 H   0  0  0  0  0  0  0  0  0  0  0  0
    0.1250    4.0239   -0.0614 H   0  0  0  0  0  0  0  0  0  0  0  0
  5  6  2  0  0  0  0
  5  7  1  0  0  0  0
  2  3  1  0  0  0  0
  2  4  1  0  0  0  0
  2  5  1  0  0  0  0
  1  2  1  0  0  0  0
 24 25  2  0  0  0  0
 24 26  1  0  0  0  0
 20 21  1  0  0  0  0
 20 22  1  0  0  0  0
 20 23  1  0  0  0  0
 16 17  1  0  0  0  0
 16 18  1  0  0  0  0
 16 19  1  0  0  0  0
 14 15  1  0  0  0  0
 14 16  1  0  0  0  0
 14 20  1  0  0  0  0
 11 12  1  0  0  0  0
 11 13  1  0  0  0  0
 11 14  1  0  0  0  0
  9 10  1  0  0  0  0
  9 11  1  0  0  0  0
  9 24  1  0  0  0  0
  7  8  1  0  0  0  0
  7  9  1  0  0  0  0
 28 29  1  0  0  0  0
 28 30  1  0  0  0  0
 28 31  1  0  0  0  0
 26 27  1  0  0  0  0
 26 28  1  0  0  0  0
M  END
$$$$
default_name
  -OEChem-01062215323D

 31 30  0     1  0  0  0  0  0999 V2000
   -3.5895   -3.5013    1.1082 H   0  0  0  0  0  0  0  0  0  0  0  0
   -3.5145   -2.5363    0.6082 C   0  0  0  0  0  0  0  0  0  0  0  0
   -4.2285   -1.8413    1.0452 H   0  0  0  0  0  0  0  0  0  0  0  0
   -3.7155   -2.6583   -0.4538 H   0  0  0  0  0  0  0  0  0  0  0  0
   -2.1155   -1.9963    0.7922 C   0  0  0  0  0  0  0  0  0  0  0  0
   -1.2875   -2.6383    1.4252 O   0  0  0  0  0  0  0  0  0  0  0  0
   -1.8575   -0.8123    0.2402 N   0  0  0  0  0  0  0  0  0  0  0  0
   -2.6005   -0.3333   -0.2478 H   0  0  0  0  0  0  0  0  0  0  0  0
   -0.5675   -0.1203    0.3102 C   0  0  1  0  0  0  0  0  0  0  0  0
   -0.0941   -0.3757    1.2588 H   0  0  0  0  0  0  0  0  0  0  0  0
    0.3230   -0.6231   -0.8454 C   0  0  0  0  0  0  0  0  0  0  0  0
   -0.2052   -0.4633   -1.7874 H   0  0  0  0  0  0  0  0  0  0  0  0
    1.2273   -0.0110   -0.8654 H   0  0  0  0  0  0  0  0  0  0  0  0
    0.7466   -2.1015   -0.7697 C   0  0  0  0  0  0  0  0  0  0  0  0
   -0.1340   -2.7307   -0.6403 H   0  0  0  0  0  0  0  0  0  0  0  0
    1.5012   -2.5528   -2.0236 C   0  0  0  0  0  0  0  0  0  0  0  0
    2.3777   -1.9215   -2.1759 H   0  0  0  0  0  0  0  0  0  0  0  0
    1.8234   -3.5877   -1.9056 H   0  0  0  0  0  0  0  0  0  0  0  0
    0.8610   -2.4896   -2.9008 H   0  0  0  0  0  0  0  0  0  0  0  0
    1.6619   -2.3152    0.4353 C   0  0  0  0  0  0  0  0  0  0  0  0
    1.1384   -2.0316    1.3483 H   0  0  0  0  0  0  0  0  0  0  0  0
    1.9409   -3.3664    0.5071 H   0  0  0  0  0  0  0  0  0  0  0  0
    2.5633   -1.7097    0.3344 H   0  0  0  0  0  0  0  0  0  0  0  0
   -0.7787    1.4028    0.2705 C   0  0  0  0  0  0  0  0  0  0  0  0
   -1.8577    1.8669   -0.0909 O   0  0  0  0  0  0  0  0  0  0  0  0
    0.2535    2.1761    0.6313 N   0  0  0  0  0  0  0  0  0  0  0  0
    1.1042    1.7210    0.9214 H   0  0  0  0  0  0  0  0  0  0  0  0
    0.2176    3.6367    0.6315 C   0  0  0  0  0  0  0  0  0  0  0  0
   -0.5790    3.9859    1.2924 H   0  0  0  0  0  0  0  0  0  0  0  0
    1.1718    4.0389    0.9752 H   0  0  0  0  0  0  0  0  0  0  0  0
    0.0150    4.0004   -0.3771 H   0  0  0  0  0  0  0  0  0  0  0  0
  5  6  2  0  0  0  0
  5  7  1  0  0  0  0
  2  3  1  0  0  0  0
  2  4  1  0  0  0  0
  2  5  1  0  0  0  0
  1  2  1  0  0  0  0
 24 25  2  0  0  0  0
 24 26  1  0  0  0  0
 20 21  1  0  0  0  0
 20 22  1  0  0  0  0
 20 23  1  0  0  0  0
 16 17  1  0  0  0  0
 16 18  1  0  0  0  0
 16 19  1  0  0  0  0
 14 15  1  0  0  0  0
 14 16  1  0  0  0  0
 14 20  1  0  0  0  0
 11 12  1  0  0  0  0
 11 13  1  0  0  0  0
 11 14  1  0  0  0  0
  9 10  1  0  0  0  0
  9 11  1  0  0  0  0
  9 24  1  0  0  0  0
  7  8  1  0  0  0  0
  7  9  1  0  0  0  0
 28 29  1  0  0  0  0
 28 30  1  0  0  0  0
 28 31  1  0  0  0  0
 26 27  1  0  0  0  0
 26 28  1  0  0  0  0
M  END
$$$$
default_name
  -OEChem-01062215323D

 31 30  0     1  0  0  0  0  0999 V2000
   -3.5895   -3.5013    1.1082 H   0  0  0  0  0  0  0  0  0  0  0  0
   -3.5145   -2.5363    0.6082 C   0  0  0  0  0  0  0  0  0  0  0  0
   -4.2285   -1.8413    1.0452 H   0  0  0  0  0  0  0  0  0  0  0  0
   -3.7155   -2.6583   -0.4538 H   0  0  0  0  0  0  0  0  0  0  0  0
   -2.1155   -1.9963    0.7922 C   0  0  0  0  0  0  0  0  0  0  0  0
   -1.2875   -2.6383    1.4252 O   0  0  0  0  0  0  0  0  0  0  0  0
   -1.8575   -0.8123    0.2402 N   0  0  0  0  0  0  0  0  0  0  0  0
   -2.6005   -0.3333   -0.2478 H   0  0  0  0  0  0  0  0  0  0  0  0
   -0.5675   -0.1203    0.3102 C   0  0  1  0  0  0  0  0  0  0  0  0
    0.0191   -0.5718    1.1110 H   0  0  0  0  0  0  0  0  0  0  0  0
    0.1724   -0.3238   -1.0286 C   0  0  0  0  0  0  0  0  0  0  0  0
   -0.4679    0.0316   -1.8383 H   0  0  0  0  0  0  0  0  0  0  0  0
    1.0684    0.3006   -1.0172 H   0  0  0  0  0  0  0  0  0  0  0  0
    0.5995   -1.7690   -1.3446 C   0  0  0  0  0  0  0  0  0  0  0  0
   -0.2596   -2.4342   -1.2570 H   0  0  0  0  0  0  0  0  0  0  0  0
    1.1924   -1.9037   -2.7501 C   0  0  0  0  0  0  0  0  0  0  0  0
    2.0445   -1.2313   -2.8588 H   0  0  0  0  0  0  0  0  0  0  0  0
    1.5249   -2.9294   -2.9116 H   0  0  0  0  0  0  0  0  0  0  0  0
    0.4488   -1.6600   -3.5058 H   0  0  0  0  0  0  0  0  0  0  0  0
    1.6563   -2.2264   -0.3399 C   0  0  0  0  0  0  0  0  0  0  0  0
    1.2502   -2.1715    0.6701 H   0  0  0  0  0  0  0  0  0  0  0  0
    1.9402   -3.2587   -0.5445 H   0  0  0  0  0  0  0  0  0  0  0  0
    2.5394   -1.5900   -0.4078 H   0  0  0  0  0  0  0  0  0  0  0  0
   -0.7793    1.3659    0.6455 C   0  0  0  0  0  0  0  0  0  0  0  0
   -1.9154    1.8073    0.8019 O   0  0  0  0  0  0  0  0  0  0  0  0
    0.3125    2.1353    0.7445 N   0  0  0  0  0  0  0  0  0  0  0  0
    1.2103    1.6988    0.6087 H   0  0  0  0  0  0  0  0  0  0  0  0
    0.2783    3.5658    1.0398 C   0  0  0  0  0  0  0  0  0  0  0  0
   -0.2137    3.7323    2.0008 H   0  0  0  0  0  0  0  0  0  0  0  0
    1.2915    3.9684    1.0803 H   0  0  0  0  0  0  0  0  0  0  0  0
   -0.2870    4.0882    0.2664 H   0  0  0  0  0  0  0  0  0  0  0  0
  5  6  2  0  0  0  0
  5  7  1  0  0  0  0
  2  3  1  0  0  0  0
  2  4  1  0  0  0  0
  2  5  1  0  0  0  0
  1  2  1  0  0  0  0
 24 25  2  0  0  0  0
 24 26  1  0  0  0  0
 20 21  1  0  0  0  0
 20 22  1  0  0  0  0
 20 23  1  0  0  0  0
 16 17  1  0  0  0  0
 16 18  1  0  0  0  0
 16 19  1  0  0  0  0
 14 15  1  0  0  0  0
 14 16  1  0  0  0  0
 14 20  1  0  0  0  0
 11 12  1  0  0  0  0
 11 13  1  0  0  0  0
 11 14  1  0  0  0  0
  9 10  1  0  0  0  0
  9 11  1  0  0  0  0
  9 24  1  0  0  0  0
  7  8  1  0  0  0  0
  7  9  1  0  0  0  0
 28 29  1  0  0  0  0
 28 30  1  0  0  0  0
 28 31  1  0  0  0  0
 26 27  1  0  0  0  0
 26 28  1  0  0  0  0
M  END
$$$$
default_name
  -OEChem-01062215323D

 31 30  0     1  0  0  0  0  0999 V2000
   -3.5895   -3.5013    1.1082 H   0  0  0  0  0  0  0  0  0  0  0  0
   -3.5145   -2.5363    0.6082 C   0  0  0  0  0  0  0  0  0  0  0  0
   -4.2285   -1.8413    1.0452 H   0  0  0  0  0  0  0  0  0  0  0  0
   -3.7155   -2.6583   -0.4538 H   0  0  0  0  0  0  0  0  0  0  0  0
   -2.1155   -1.9963    0.7922 C   0  0  0  0  0  0  0  0  0  0  0  0
   -1.2875   -2.6383    1.4252 O   0  0  0  0  0  0  0  0  0  0  0  0
   -1.8575   -0.8123    0.2402 N   0  0  0  0  0  0  0  0  0  0  0  0
   -2.6005   -0.3333   -0.2478 H   0  0  0  0  0  0  0  0  0  0  0  0
   -0.5675   -0.1203    0.3102 C   0  0  1  0  0  0  0  0  0  0  0  0
    0.0191   -0.5718    1.1110 H   0  0  0  0  0  0  0  0  0  0  0  0
    0.1724   -0.3238   -1.0286 C   0  0  0  0  0  0  0  0  0  0  0  0
   -0.4679    0.0316   -1.8383 H   0  0  0  0  0  0  0  0  0  0  0  0
    1.0684    0.3006   -1.0172 H   0  0  0  0  0  0  0  0  0  0  0  0
    0.5995   -1.7690   -1.3446 C   0  0  0  0  0  0  0  0  0  0  0  0
   -0.2596   -2.4342   -1.2570 H   0  0  0  0  0  0  0  0  0  0  0  0
    1.1924   -1.9037   -2.7501 C   0  0  0  0  0  0  0  0  0  0  0  0
    2.0445   -1.2313   -2.8588 H   0  0  0  0  0  0  0  0  0  0  0  0
    1.5249   -2.9294   -2.9116 H   0  0  0  0  0  0  0  0  0  0  0  0
    0.4488   -1.6600   -3.5058 H   0  0  0  0  0  0  0  0  0  0  0  0
    1.6563   -2.2264   -0.3399 C   0  0  0  0  0  0  0  0  0  0  0  0
    1.2502   -2.1715    0.6701 H   0  0  0  0  0  0  0  0  0  0  0  0
    1.9402   -3.2587   -0.5445 H   0  0  0  0  0  0  0  0  0  0  0  0
    2.5394   -1.5900   -0.4078 H   0  0  0  0  0  0  0  0  0  0  0  0
   -0.7793    1.3659    0.6455 C   0  0  0  0  0  0  0  0  0  0  0  0
   -1.8654    1.7540    1.0695 O   0  0  0  0  0  0  0  0  0  0  0  0
    0.2538    2.1944    0.4453 N   0  0  0  0  0  0  0  0  0  0  0  0
    1.1143    1.7997    0.1009 H   0  0  0  0  0  0  0  0  0  0  0  0
    0.2070    3.6326    0.6988 C   0  0  0  0  0  0  0  0  0  0  0  0
   -0.0393    3.8143    1.7474 H   0  0  0  0  0  0  0  0  0  0  0  0
    1.1719    4.0886    0.4721 H   0  0  0  0  0  0  0  0  0  0  0  0
   -0.5638    4.0913    0.0776 H   0  0  0  0  0  0  0  0  0  0  0  0
  5  6  2  0  0  0  0
  5  7  1  0  0  0  0
  2  3  1  0  0  0  0
  2  4  1  0  0  0  0
  2  5  1  0  0  0  0
  1  2  1  0  0  0  0
 24 25  2  0  0  0  0
 24 26  1  0  0  0  0
 20 21  1  0  0  0  0
 20 22  1  0  0  0  0
 20 23  1  0  0  0  0
 16 17  1  0  0  0  0
 16 18  1  0  0  0  0
 16 19  1  0  0  0  0
 14 15  1  0  0  0  0
 14 16  1  0  0  0  0
 14 20  1  0  0  0  0
 11 12  1  0  0  0  0
 11 13  1  0  0  0  0
 11 14  1  0  0  0  0
  9 10  1  0  0  0  0
  9 11  1  0  0  0  0
  9 24  1  0  0  0  0
  7  8  1  0  0  0  0
  7  9  1  0  0  0  0
 28 29  1  0  0  0  0
 28 30  1  0  0  0  0
 28 31  1  0  0  0  0
 26 27  1  0  0  0  0
 26 28  1  0  0  0  0
M  END
$$$$
default_name
  -OEChem-01062215323D

 31 30  0     1  0  0  0  0  0999 V2000
   -3.5895   -3.5013    1.1082 H   0  0  0  0  0  0  0  0  0  0  0  0
   -3.5145   -2.5363    0.6082 C   0  0  0  0  0  0  0  0  0  0  0  0
   -4.2285   -1.8413    1.0452 H   0  0  0  0  0  0  0  0  0  0  0  0
   -3.7155   -2.6583   -0.4538 H   0  0  0  0  0  0  0  0  0  0  0  0
   -2.1155   -1.9963    0.7922 C   0  0  0  0  0  0  0  0  0  0  0  0
   -1.2875   -2.6383    1.4252 O   0  0  0  0  0  0  0  0  0  0  0  0
   -1.8575   -0.8123    0.2402 N   0  0  0  0  0  0  0  0  0  0  0  0
   -2.6005   -0.3333   -0.2478 H   0  0  0  0  0  0  0  0  0  0  0  0
   -0.5675   -0.1203    0.3102 C   0  0  1  0  0  0  0  0  0  0  0  0
    0.0191   -0.5718    1.1110 H   0  0  0  0  0  0  0  0  0  0  0  0
    0.1724   -0.3238   -1.0286 C   0  0  0  0  0  0  0  0  0  0  0  0
   -0.4679    0.0316   -1.8383 H   0  0  0  0  0  0  0  0  0  0  0  0
    1.0684    0.3006   -1.0172 H   0  0  0  0  0  0  0  0  0  0  0  0
    0.5995   -1.7690   -1.3446 C   0  0  0  0  0  0  0  0  0  0  0  0
   -0.2596   -2.4342   -1.2570 H   0  0  0  0  0  0  0  0  0  0  0  0
    1.1924   -1.9037   -2.7501 C   0  0  0  0  0  0  0  0  0  0  0  0
    2.0445   -1.2313   -2.8588 H   0  0  0  0  0  0  0  0  0  0  0  0
    1.5249   -2.9294   -2.9116 H   0  0  0  0  0  0  0  0  0  0  0  0
    0.4488   -1.6600   -3.5058 H   0  0  0  0  0  0  0  0  0  0  0  0
    1.6563   -2.2264   -0.3399 C   0  0  0  0  0  0  0  0  0  0  0  0
    1.2502   -2.1715    0.6701 H   0  0  0  0  0  0  0  0  0  0  0  0
    1.9402   -3.2587   -0.5445 H   0  0  0  0  0  0  0  0  0  0  0  0
    2.5394   -1.5900   -0.4078 H   0  0  0  0  0  0  0  0  0  0  0  0
   -0.7793    1.3659    0.6455 C   0  0  0  0  0  0  0  0  0  0  0  0
   -1.7471    1.7150    1.3174 O   0  0  0  0  0  0  0  0  0  0  0  0
    0.1189    2.2376    0.1688 N   0  0  0  0  0  0  0  0  0  0  0  0
    0.8890    1.8736   -0.3693 H   0  0  0  0  0  0  0  0  0  0  0  0
    0.0492    3.6809    0.3849 C   0  0  0  0  0  0  0  0  0  0  0  0
    0.0612    3.8943    1.4561 H   0  0  0  0  0  0  0  0  0  0  0  0
    0.8976    4.1762   -0.0897 H   0  0  0  0  0  0  0  0  0  0  0  0
   -0.8786    4.0720   -0.0357 H   0  0  0  0  0  0  0  0  0  0  0  0
  5  6  2  0  0  0  0
  5  7  1  0  0  0  0
  2  3  1  0  0  0  0
  2  4  1  0  0  0  0
  2  5  1  0  0  0  0
  1  2  1  0  0  0  0
 24 25  2  0  0  0  0
 24 26  1  0  0  0  0
 20 21  1  0  0  0  0
 20 22  1  0  0  0  0
 20 23  1  0  0  0  0
 16 17  1  0  0  0  0
 16 18  1  0  0  0  0
 16 19  1  0  0  0  0
 14 15  1  0  0  0  0
 14 16  1  0  0  0  0
 14 20  1  0  0  0  0
 11 12  1  0  0  0  0
 11 13  1  0  0  0  0
 11 14  1  0  0  0  0
  9 10  1  0  0  0  0
  9 11  1  0  0  0  0
  9 24  1  0  0  0  0
  7  8  1  0  0  0  0
  7  9  1  0  0  0  0
 28 29  1  0  0  0  0
 28 30  1  0  0  0  0
 28 31  1  0  0  0  0
 26 27  1  0  0  0  0
 26 28  1  0  0  0  0
M  END
$$$$
default_name
  -OEChem-01062215323D

 31 30  0     1  0  0  0  0  0999 V2000
   -3.5895   -3.5013    1.1082 H   0  0  0  0  0  0  0  0  0  0  0  0
   -3.5145   -2.5363    0.6082 C   0  0  0  0  0  0  0  0  0  0  0  0
   -4.2285   -1.8413    1.0452 H   0  0  0  0  0  0  0  0  0  0  0  0
   -3.7155   -2.6583   -0.4538 H   0  0  0  0  0  0  0  0  0  0  0  0
   -2.1155   -1.9963    0.7922 C   0  0  0  0  0  0  0  0  0  0  0  0
   -1.2875   -2.6383    1.4252 O   0  0  0  0  0  0  0  0  0  0  0  0
   -1.8575   -0.8123    0.2402 N   0  0  0  0  0  0  0  0  0  0  0  0
   -2.6005   -0.3333   -0.2478 H   0  0  0  0  0  0  0  0  0  0  0  0
   -0.5675   -0.1203    0.3102 C   0  0  1  0  0  0  0  0  0  0  0  0
    0.0191   -0.5718    1.1110 H   0  0  0  0  0  0  0  0  0  0  0  0
    0.1724   -0.3238   -1.0286 C   0  0  0  0  0  0  0  0  0  0  0  0
   -0.4679    0.0316   -1.8383 H   0  0  0  0  0  0  0  0  0  0  0  0
    1.0684    0.3006   -1.0172 H   0  0  0  0  0  0  0  0  0  0  0  0
    0.5995   -1.7690   -1.3446 C   0  0  0  0  0  0  0  0  0  0  0  0
   -0.2596   -2.4342   -1.2570 H   0  0  0  0  0  0  0  0  0  0  0  0
    1.1924   -1.9037   -2.7501 C   0  0  0  0  0  0  0  0  0  0  0  0
    2.0445   -1.2313   -2.8588 H   0  0  0  0  0  0  0  0  0  0  0  0
    1.5249   -2.9294   -2.9116 H   0  0  0  0  0  0  0  0  0  0  0  0
    0.4488   -1.6600   -3.5058 H   0  0  0  0  0  0  0  0  0  0  0  0
    1.6563   -2.2264   -0.3399 C   0  0  0  0  0  0  0  0  0  0  0  0
    1.2502   -2.1715    0.6701 H   0  0  0  0  0  0  0  0  0  0  0  0
    1.9402   -3.2587   -0.5445 H   0  0  0  0  0  0  0  0  0  0  0  0
    2.5394   -1.5900   -0.4078 H   0  0  0  0  0  0  0  0  0  0  0  0
   -0.7793    1.3659    0.6455 C   0  0  0  0  0  0  0  0  0  0  0  0
   -1.5687    1.6927    1.5287 O   0  0  0  0  0  0  0  0  0  0  0  0
   -0.0830    2.2618   -0.0661 N   0  0  0  0  0  0  0  0  0  0  0  0
    0.5495    1.9156   -0.7697 H   0  0  0  0  0  0  0  0  0  0  0  0
   -0.1845    3.7075    0.1195 C   0  0  0  0  0  0  0  0  0  0  0  0
    0.0808    3.9669    1.1468 H   0  0  0  0  0  0  0  0  0  0  0  0
    0.4871    4.2254   -0.5669 H   0  0  0  0  0  0  0  0  0  0  0  0
   -1.2098    4.0316   -0.0657 H   0  0  0  0  0  0  0  0  0  0  0  0
  5  6  2  0  0  0  0
  5  7  1  0  0  0  0
  2  3  1  0  0  0  0
  2  4  1  0  0  0  0
  2  5  1  0  0  0  0
  1  2  1  0  0  0  0
 24 25  2  0  0  0  0
 24 26  1  0  0  0  0
 20 21  1  0  0  0  0
 20 22  1  0  0  0  0
 20 23  1  0  0  0  0
 16 17  1  0  0  0  0
 16 18  1  0  0  0  0
 16 19  1  0  0  0  0
 14 15  1  0  0  0  0
 14 16  1  0  0  0  0
 14 20  1  0  0  0  0
 11 12  1  0  0  0  0
 11 13  1  0  0  0  0
 11 14  1  0  0  0  0
  9 10  1  0  0  0  0
  9 11  1  0  0  0  0
  9 24  1  0  0  0  0
  7  8  1  0  0  0  0
  7  9  1  0  0  0  0
 28 29  1  0  0  0  0
 28 30  1  0  0  0  0
 28 31  1  0  0  0  0
 26 27  1  0  0  0  0
 26 28  1  0  0  0  0
M  END
$$$$
default_name
  -OEChem-01062215323D

 31 30  0     1  0  0  0  0  0999 V2000
   -3.5895   -3.5013    1.1082 H   0  0  0  0  0  0  0  0  0  0  0  0
   -3.5145   -2.5363    0.6082 C   0  0  0  0  0  0  0  0  0  0  0  0
   -4.2285   -1.8413    1.0452 H   0  0  0  0  0  0  0  0  0  0  0  0
   -3.7155   -2.6583   -0.4538 H   0  0  0  0  0  0  0  0  0  0  0  0
   -2.1155   -1.9963    0.7922 C   0  0  0  0  0  0  0  0  0  0  0  0
   -1.2875   -2.6383    1.4252 O   0  0  0  0  0  0  0  0  0  0  0  0
   -1.8575   -0.8123    0.2402 N   0  0  0  0  0  0  0  0  0  0  0  0
   -2.6005   -0.3333   -0.2478 H   0  0  0  0  0  0  0  0  0  0  0  0
   -0.5675   -0.1203    0.3102 C   0  0  1  0  0  0  0  0  0  0  0  0
    0.0191   -0.5718    1.1110 H   0  0  0  0  0  0  0  0  0  0  0  0
    0.1724   -0.3238   -1.0286 C   0  0  0  0  0  0  0  0  0  0  0  0
   -0.4679    0.0316   -1.8383 H   0  0  0  0  0  0  0  0  0  0  0  0
    1.0684    0.3006   -1.0172 H   0  0  0  0  0  0  0  0  0  0  0  0
    0.5995   -1.7690   -1.3446 C   0  0  0  0  0  0  0  0  0  0  0  0
   -0.2596   -2.4342   -1.2570 H   0  0  0  0  0  0  0  0  0  0  0  0
    1.1924   -1.9037   -2.7501 C   0  0  0  0  0  0  0  0  0  0  0  0
    2.0445   -1.2313   -2.8588 H   0  0  0  0  0  0  0  0  0  0  0  0
    1.5249   -2.9294   -2.9116 H   0  0  0  0  0  0  0  0  0  0  0  0
    0.4488   -1.6600   -3.5058 H   0  0  0  0  0  0  0  0  0  0  0  0
    1.6563   -2.2264   -0.3399 C   0  0  0  0  0  0  0  0  0  0  0  0
    1.2502   -2.1715    0.6701 H   0  0  0  0  0  0  0  0  0  0  0  0
    1.9402   -3.2587   -0.5445 H   0  0  0  0  0  0  0  0  0  0  0  0
    2.5394   -1.5900   -0.4078 H   0  0  0  0  0  0  0  0  0  0  0  0
   -0.7793    1.3659    0.6455 C   0  0  0  0  0  0  0  0  0  0  0  0
   -1.3423    1.6888    1.6890 O   0  0  0  0  0  0  0  0  0  0  0  0
   -0.3380    2.2654   -0.2433 N   0  0  0  0  0  0  0  0  0  0  0  0
    0.1192    1.9227   -1.0731 H   0  0  0  0  0  0  0  0  0  0  0  0
   -0.4781    3.7105   -0.0794 C   0  0  0  0  0  0  0  0  0  0  0  0
    0.0184    4.0271    0.8406 H   0  0  0  0  0  0  0  0  0  0  0  0
   -0.0315    4.2327   -0.9269 H   0  0  0  0  0  0  0  0  0  0  0  0
   -1.5350    3.9727   -0.0104 H   0  0  0  0  0  0  0  0  0  0  0  0
  5  6  2  0  0  0  0
  5  7  1  0  0  0  0
  2  3  1  0  0  0  0
  2  4  1  0  0  0  0
  2  5  1  0  0  0  0
  1  2  1  0  0  0  0
 24 25  2  0  0  0  0
 24 26  1  0  0  0  0
 20 21  1  0  0  0  0
 20 22  1  0  0  0  0
 20 23  1  0  0  0  0
 16 17  1  0  0  0  0
 16 18  1  0  0  0  0
 16 19  1  0  0  0  0
 14 15  1  0  0  0  0
 14 16  1  0  0  0  0
 14 20  1  0  0  0  0
 11 12  1  0  0  0  0
 11 13  1  0  0  0  0
 11 14  1  0  0  0  0
  9 10  1  0  0  0  0
  9 11  1  0  0  0  0
  9 24  1  0  0  0  0
  7  8  1  0  0  0  0
  7  9  1  0  0  0  0
 28 29  1  0  0  0  0
 28 30  1  0  0  0  0
 28 31  1  0  0  0  0
 26 27  1  0  0  0  0
 26 28  1  0  0  0  0
M  END
$$$$
default_name
  -OEChem-01062215323D

 31 30  0     1  0  0  0  0  0999 V2000
   -3.5895   -3.5013    1.1082 H   0  0  0  0  0  0  0  0  0  0  0  0
   -3.5145   -2.5363    0.6082 C   0  0  0  0  0  0  0  0  0  0  0  0
   -4.2285   -1.8413    1.0452 H   0  0  0  0  0  0  0  0  0  0  0  0
   -3.7155   -2.6583   -0.4538 H   0  0  0  0  0  0  0  0  0  0  0  0
   -2.1155   -1.9963    0.7922 C   0  0  0  0  0  0  0  0  0  0  0  0
   -1.2875   -2.6383    1.4252 O   0  0  0  0  0  0  0  0  0  0  0  0
   -1.8575   -0.8123    0.2402 N   0  0  0  0  0  0  0  0  0  0  0  0
   -2.6005   -0.3333   -0.2478 H   0  0  0  0  0  0  0  0  0  0  0  0
   -0.5675   -0.1203    0.3102 C   0  0  1  0  0  0  0  0  0  0  0  0
    0.0191   -0.5718    1.1110 H   0  0  0  0  0  0  0  0  0  0  0  0
    0.1724   -0.3238   -1.0286 C   0  0  0  0  0  0  0  0  0  0  0  0
   -0.4679    0.0316   -1.8383 H   0  0  0  0  0  0  0  0  0  0  0  0
    1.0684    0.3006   -1.0172 H   0  0  0  0  0  0  0  0  0  0  0  0
    0.5995   -1.7690   -1.3446 C   0  0  0  0  0  0  0  0  0  0  0  0
   -0.2596   -2.4342   -1.2570 H   0  0  0  0  0  0  0  0  0  0  0  0
    1.1924   -1.9037   -2.7501 C   0  0  0  0  0  0  0  0  0  0  0  0
    2.0445   -1.2313   -2.8588 H   0  0  0  0  0  0  0  0  0  0  0  0
    1.5249   -2.9294   -2.9116 H   0  0  0  0  0  0  0  0  0  0  0  0
    0.4488   -1.6600   -3.5058 H   0  0  0  0  0  0  0  0  0  0  0  0
    1.6563   -2.2264   -0.3399 C   0  0  0  0  0  0  0  0  0  0  0  0
    1.2502   -2.1715    0.6701 H   0  0  0  0  0  0  0  0  0  0  0  0
    1.9402   -3.2587   -0.5445 H   0  0  0  0  0  0  0  0  0  0  0  0
    2.5394   -1.5900   -0.4078 H   0  0  0  0  0  0  0  0  0  0  0  0
   -0.7793    1.3659    0.6455 C   0  0  0  0  0  0  0  0  0  0  0  0
   -1.0833    1.7036    1.7873 O   0  0  0  0  0  0  0  0  0  0  0  0
   -0.6290    2.2482   -0.3509 N   0  0  0  0  0  0  0  0  0  0  0  0
   -0.3728    1.8945   -1.2587 H   0  0  0  0  0  0  0  0  0  0  0  0
   -0.8116    3.6898   -0.1983 C   0  0  0  0  0  0  0  0  0  0  0  0
   -0.1219    4.0709    0.5582 H   0  0  0  0  0  0  0  0  0  0  0  0
   -0.6228    4.1977   -1.1452 H   0  0  0  0  0  0  0  0  0  0  0  0
   -1.8320    3.8995    0.1265 H   0  0  0  0  0  0  0  0  0  0  0  0
  5  6  2  0  0  0  0
  5  7  1  0  0  0  0
  2  3  1  0  0  0  0
  2  4  1  0  0  0  0
  2  5  1  0  0  0  0
  1  2  1  0  0  0  0
 24 25  2  0  0  0  0
 24 26  1  0  0  0  0
 20 21  1  0  0  0  0
 20 22  1  0  0  0  0
 20 23  1  0  0  0  0
 16 17  1  0  0  0  0
 16 18  1  0  0  0  0
 16 19  1  0  0  0  0
 14 15  1  0  0  0  0
 14 16  1  0  0  0  0
 14 20  1  0  0  0  0
 11 12  1  0  0  0  0
 11 13  1  0  0  0  0
 11 14  1  0  0  0  0
  9 10  1  0  0  0  0
  9 11  1  0  0  0  0
  9 24  1  0  0  0  0
  7  8  1  0  0  0  0
  7  9  1  0  0  0  0
 28 29  1  0  0  0  0
 28 30  1  0  0  0  0
 28 31  1  0  0  0  0
 26 27  1  0  0  0  0
 26 28  1  0  0  0  0
M  END
$$$$
default_name
  -OEChem-01062215323D

 31 30  0     1  0  0  0  0  0999 V2000
   -3.5895   -3.5013    1.1082 H   0  0  0  0  0  0  0  0  0  0  0  0
   -3.5145   -2.5363    0.6082 C   0  0  0  0  0  0  0  0  0  0  0  0
   -4.2285   -1.8413    1.0452 H   0  0  0  0  0  0  0  0  0  0  0  0
   -3.7155   -2.6583   -0.4538 H   0  0  0  0  0  0  0  0  0  0  0  0
   -2.1155   -1.9963    0.7922 C   0  0  0  0  0  0  0  0  0  0  0  0
   -1.2875   -2.6383    1.4252 O   0  0  0  0  0  0  0  0  0  0  0  0
   -1.8575   -0.8123    0.2402 N   0  0  0  0  0  0  0  0  0  0  0  0
   -2.6005   -0.3333   -0.2478 H   0  0  0  0  0  0  0  0  0  0  0  0
   -0.5675   -0.1203    0.3102 C   0  0  1  0  0  0  0  0  0  0  0  0
    0.0191   -0.5718    1.1110 H   0  0  0  0  0  0  0  0  0  0  0  0
    0.1724   -0.3238   -1.0286 C   0  0  0  0  0  0  0  0  0  0  0  0
   -0.4679    0.0316   -1.8383 H   0  0  0  0  0  0  0  0  0  0  0  0
    1.0684    0.3006   -1.0172 H   0  0  0  0  0  0  0  0  0  0  0  0
    0.5995   -1.7690   -1.3446 C   0  0  0  0  0  0  0  0  0  0  0  0
   -0.2596   -2.4342   -1.2570 H   0  0  0  0  0  0  0  0  0  0  0  0
    1.1924   -1.9037   -2.7501 C   0  0  0  0  0  0  0  0  0  0  0  0
    2.0445   -1.2313   -2.8588 H   0  0  0  0  0  0  0  0  0  0  0  0
    1.5249   -2.9294   -2.9116 H   0  0  0  0  0  0  0  0  0  0  0  0
    0.4488   -1.6600   -3.5058 H   0  0  0  0  0  0  0  0  0  0  0  0
    1.6563   -2.2264   -0.3399 C   0  0  0  0  0  0  0  0  0  0  0  0
    1.2502   -2.1715    0.6701 H   0  0  0  0  0  0  0  0  0  0  0  0
    1.9402   -3.2587   -0.5445 H   0  0  0  0  0  0  0  0  0  0  0  0
    2.5394   -1.5900   -0.4078 H   0  0  0  0  0  0  0  0  0  0  0  0
   -0.7793    1.3659    0.6455 C   0  0  0  0  0  0  0  0  0  0  0  0
   -0.8094    1.7359    1.8169 O   0  0  0  0  0  0  0  0  0  0  0  0
   -0.9359    2.2113   -0.3814 N   0  0  0  0  0  0  0  0  0  0  0  0
   -0.8928    1.8328   -1.3140 H   0  0  0  0  0  0  0  0  0  0  0  0
   -1.1623    3.6467   -0.2289 C   0  0  0  0  0  0  0  0  0  0  0  0
   -0.3305    4.0951    0.3190 H   0  0  0  0  0  0  0  0  0  0  0  0
   -1.2466    4.1227   -1.2070 H   0  0  0  0  0  0  0  0  0  0  0  0
   -2.0805    3.8170    0.3355 H   0  0  0  0  0  0  0  0  0  0  0  0
  5  6  2  0  0  0  0
  5  7  1  0  0  0  0
  2  3  1  0  0  0  0
  2  4  1  0  0  0  0
  2  5  1  0  0  0  0
  1  2  1  0  0  0  0
 24 25  2  0  0  0  0
 24 26  1  0  0  0  0
 20 21  1  0  0  0  0
 20 22  1  0  0  0  0
 20 23  1  0  0  0  0
 16 17  1  0  0  0  0
 16 18  1  0  0  0  0
 16 19  1  0  0  0  0
 14 15  1  0  0  0  0
 14 16  1  0  0  0  0
 14 20  1  0  0  0  0
 11 12  1  0  0  0  0
 11 13  1  0  0  0  0
 11 14  1  0  0  0  0
  9 10  1  0  0  0  0
  9 11  1  0  0  0  0
  9 24  1  0  0  0  0
  7  8  1  0  0  0  0
  7  9  1  0  0  0  0
 28 29  1  0  0  0  0
 28 30  1  0  0  0  0
 28 31  1  0  0  0  0
 26 27  1  0  0  0  0
 26 28  1  0  0  0  0
M  END
$$$$
default_name
  -OEChem-01062215323D

 31 30  0     1  0  0  0  0  0999 V2000
   -3.5895   -3.5013    1.1082 H   0  0  0  0  0  0  0  0  0  0  0  0
   -3.5145   -2.5363    0.6082 C   0  0  0  0  0  0  0  0  0  0  0  0
   -4.2285   -1.8413    1.0452 H   0  0  0  0  0  0  0  0  0  0  0  0
   -3.7155   -2.6583   -0.4538 H   0  0  0  0  0  0  0  0  0  0  0  0
   -2.1155   -1.9963    0.7922 C   0  0  0  0  0  0  0  0  0  0  0  0
   -1.2875   -2.6383    1.4252 O   0  0  0  0  0  0  0  0  0  0  0  0
   -1.8575   -0.8123    0.2402 N   0  0  0  0  0  0  0  0  0  0  0  0
   -2.6005   -0.3333   -0.2478 H   0  0  0  0  0  0  0  0  0  0  0  0
   -0.5675   -0.1203    0.3102 C   0  0  1  0  0  0  0  0  0  0  0  0
    0.0191   -0.5718    1.1110 H   0  0  0  0  0  0  0  0  0  0  0  0
    0.1724   -0.3238   -1.0286 C   0  0  0  0  0  0  0  0  0  0  0  0
   -0.4679    0.0316   -1.8383 H   0  0  0  0  0  0  0  0  0  0  0  0
    1.0684    0.3006   -1.0172 H   0  0  0  0  0  0  0  0  0  0  0  0
    0.5995   -1.7690   -1.3446 C   0  0  0  0  0  0  0  0  0  0  0  0
   -0.2596   -2.4342   -1.2570 H   0  0  0  0  0  0  0  0  0  0  0  0
    1.1924   -1.9037   -2.7501 C   0  0  0  0  0  0  0  0  0  0  0  0
    2.0445   -1.2313   -2.8588 H   0  0  0  0  0  0  0  0  0  0  0  0
    1.5249   -2.9294   -2.9116 H   0  0  0  0  0  0  0  0  0  0  0  0
    0.4488   -1.6600   -3.5058 H   0  0  0  0  0  0  0  0  0  0  0  0
    1.6563   -2.2264   -0.3399 C   0  0  0  0  0  0  0  0  0  0  0  0
    1.2502   -2.1715    0.6701 H   0  0  0  0  0  0  0  0  0  0  0  0
    1.9402   -3.2587   -0.5445 H   0  0  0  0  0  0  0  0  0  0  0  0
    2.5394   -1.5900   -0.4078 H   0  0  0  0  0  0  0  0  0  0  0  0
   -0.7793    1.3659    0.6455 C   0  0  0  0  0  0  0  0  0  0  0  0
   -0.5392    1.7837    1.7759 O   0  0  0  0  0  0  0  0  0  0  0  0
   -1.2379    2.1573   -0.3328 N   0  0  0  0  0  0  0  0  0  0  0  0
   -1.4055    1.7420   -1.2352 H   0  0  0  0  0  0  0  0  0  0  0  0
   -1.5063    3.5842   -0.1693 C   0  0  0  0  0  0  0  0  0  0  0  0
   -0.5932    4.0982    0.1392 H   0  0  0  0  0  0  0  0  0  0  0  0
   -1.8604    4.0129   -1.1080 H   0  0  0  0  0  0  0  0  0  0  0  0
   -2.2636    3.7306    0.6026 H   0  0  0  0  0  0  0  0  0  0  0  0
  5  6  2  0  0  0  0
  5  7  1  0  0  0  0
  2  3  1  0  0  0  0
  2  4  1  0  0  0  0
  2  5  1  0  0  0  0
  1  2  1  0  0  0  0
 24 25  2  0  0  0  0
 24 26  1  0  0  0  0
 20 21  1  0  0  0  0
 20 22  1  0  0  0  0
 20 23  1  0  0  0  0
 16 17  1  0  0  0  0
 16 18  1  0  0  0  0
 16 19  1  0  0  0  0
 14 15  1  0  0  0  0
 14 16  1  0  0  0  0
 14 20  1  0  0  0  0
 11 12  1  0  0  0  0
 11 13  1  0  0  0  0
 11 14  1  0  0  0  0
  9 10  1  0  0  0  0
  9 11  1  0  0  0  0
  9 24  1  0  0  0  0
  7  8  1  0  0  0  0
  7  9  1  0  0  0  0
 28 29  1  0  0  0  0
 28 30  1  0  0  0  0
 28 31  1  0  0  0  0
 26 27  1  0  0  0  0
 26 28  1  0  0  0  0
M  END
$$$$
default_name
  -OEChem-01062215323D

 31 30  0     1  0  0  0  0  0999 V2000
   -3.5895   -3.5013    1.1082 H   0  0  0  0  0  0  0  0  0  0  0  0
   -3.5145   -2.5363    0.6082 C   0  0  0  0  0  0  0  0  0  0  0  0
   -4.2285   -1.8413    1.0452 H   0  0  0  0  0  0  0  0  0  0  0  0
   -3.7155   -2.6583   -0.4538 H   0  0  0  0  0  0  0  0  0  0  0  0
   -2.1155   -1.9963    0.7922 C   0  0  0  0  0  0  0  0  0  0  0  0
   -1.2875   -2.6383    1.4252 O   0  0  0  0  0  0  0  0  0  0  0  0
   -1.8575   -0.8123    0.2402 N   0  0  0  0  0  0  0  0  0  0  0  0
   -2.6005   -0.3333   -0.2478 H   0  0  0  0  0  0  0  0  0  0  0  0
   -0.5675   -0.1203    0.3102 C   0  0  1  0  0  0  0  0  0  0  0  0
    0.0191   -0.5718    1.1110 H   0  0  0  0  0  0  0  0  0  0  0  0
    0.1724   -0.3238   -1.0286 C   0  0  0  0  0  0  0  0  0  0  0  0
   -0.4679    0.0316   -1.8383 H   0  0  0  0  0  0  0  0  0  0  0  0
    1.0684    0.3006   -1.0172 H   0  0  0  0  0  0  0  0  0  0  0  0
    0.5995   -1.7690   -1.3446 C   0  0  0  0  0  0  0  0  0  0  0  0
   -0.2596   -2.4342   -1.2570 H   0  0  0  0  0  0  0  0  0  0  0  0
    1.1924   -1.9037   -2.7501 C   0  0  0  0  0  0  0  0  0  0  0  0
    2.0445   -1.2313   -2.8588 H   0  0  0  0  0  0  0  0  0  0  0  0
    1.5249   -2.9294   -2.9116 H   0  0  0  0  0  0  0  0  0  0  0  0
    0.4488   -1.6600   -3.5058 H   0  0  0  0  0  0  0  0  0  0  0  0
    1.6563   -2.2264   -0.3399 C   0  0  0  0  0  0  0  0  0  0  0  0
    1.2502   -2.1715    0.6701 H   0  0  0  0  0  0  0  0  0  0  0  0
    1.9402   -3.2587   -0.5445 H   0  0  0  0  0  0  0  0  0  0  0  0
    2.5394   -1.5900   -0.4078 H   0  0  0  0  0  0  0  0  0  0  0  0
   -0.7793    1.3659    0.6455 C   0  0  0  0  0  0  0  0  0  0  0  0
   -0.2911    1.8436    1.6671 O   0  0  0  0  0  0  0  0  0  0  0  0
   -1.5145    2.0899   -0.2084 N   0  0  0  0  0  0  0  0  0  0  0  0
   -1.8759    1.6281   -1.0276 H   0  0  0  0  0  0  0  0  0  0  0  0
   -1.8202    3.5066   -0.0234 C   0  0  0  0  0  0  0  0  0  0  0  0
   -0.8920    4.0800    0.0311 H   0  0  0  0  0  0  0  0  0  0  0  0
   -2.4223    3.8757   -0.8550 H   0  0  0  0  0  0  0  0  0  0  0  0
   -2.3688    3.6464    0.9093 H   0  0  0  0  0  0  0  0  0  0  0  0
  5  6  2  0  0  0  0
  5  7  1  0  0  0  0
  2  3  1  0  0  0  0
  2  4  1  0  0  0  0
  2  5  1  0  0  0  0
  1  2  1  0  0  0  0
 24 25  2  0  0  0  0
 24 26  1  0  0  0  0
 20 21  1  0  0  0  0
 20 22  1  0  0  0  0
 20 23  1  0  0  0  0
 16 17  1  0  0  0  0
 16 18  1  0  0  0  0
 16 19  1  0  0  0  0
 14 15  1  0  0  0  0
 14 16  1  0  0  0  0
 14 20  1  0  0  0  0
 11 12  1  0  0  0  0
 11 13  1  0  0  0  0
 11 14  1  0  0  0  0
  9 10  1  0  0  0  0
  9 11  1  0  0  0  0
  9 24  1  0  0  0  0
  7  8  1  0  0  0  0
  7  9  1  0  0  0  0
 28 29  1  0  0  0  0
 28 30  1  0  0  0  0
 28 31  1  0  0  0  0
 26 27  1  0  0  0  0
 26 28  1  0  0  0  0
M  END
$$$$
default_name
  -OEChem-01062215323D

 31 30  0     1  0  0  0  0  0999 V2000
   -3.5895   -3.5013    1.1082 H   0  0  0  0  0  0  0  0  0  0  0  0
   -3.5145   -2.5363    0.6082 C   0  0  0  0  0  0  0  0  0  0  0  0
   -4.2285   -1.8413    1.0452 H   0  0  0  0  0  0  0  0  0  0  0  0
   -3.7155   -2.6583   -0.4538 H   0  0  0  0  0  0  0  0  0  0  0  0
   -2.1155   -1.9963    0.7922 C   0  0  0  0  0  0  0  0  0  0  0  0
   -1.2875   -2.6383    1.4252 O   0  0  0  0  0  0  0  0  0  0  0  0
   -1.8575   -0.8123    0.2402 N   0  0  0  0  0  0  0  0  0  0  0  0
   -2.6005   -0.3333   -0.2478 H   0  0  0  0  0  0  0  0  0  0  0  0
   -0.5675   -0.1203    0.3102 C   0  0  1  0  0  0  0  0  0  0  0  0
    0.0191   -0.5718    1.1110 H   0  0  0  0  0  0  0  0  0  0  0  0
    0.1724   -0.3238   -1.0286 C   0  0  0  0  0  0  0  0  0  0  0  0
   -0.4679    0.0316   -1.8383 H   0  0  0  0  0  0  0  0  0  0  0  0
    1.0684    0.3006   -1.0172 H   0  0  0  0  0  0  0  0  0  0  0  0
    0.5995   -1.7690   -1.3446 C   0  0  0  0  0  0  0  0  0  0  0  0
   -0.2596   -2.4342   -1.2570 H   0  0  0  0  0  0  0  0  0  0  0  0
    1.1924   -1.9037   -2.7501 C   0  0  0  0  0  0  0  0  0  0  0  0
    2.0445   -1.2313   -2.8588 H   0  0  0  0  0  0  0  0  0  0  0  0
    1.5249   -2.9294   -2.9116 H   0  0  0  0  0  0  0  0  0  0  0  0
    0.4488   -1.6600   -3.5058 H   0  0  0  0  0  0  0  0  0  0  0  0
    1.6563   -2.2264   -0.3399 C   0  0  0  0  0  0  0  0  0  0  0  0
    1.2502   -2.1715    0.6701 H   0  0  0  0  0  0  0  0  0  0  0  0
    1.9402   -3.2587   -0.5445 H   0  0  0  0  0  0  0  0  0  0  0  0
    2.5394   -1.5900   -0.4078 H   0  0  0  0  0  0  0  0  0  0  0  0
   -0.7793    1.3659    0.6455 C   0  0  0  0  0  0  0  0  0  0  0  0
   -0.0821    1.9116    1.4977 O   0  0  0  0  0  0  0  0  0  0  0  0
   -1.7467    2.0135   -0.0167 N   0  0  0  0  0  0  0  0  0  0  0  0
   -2.2719    1.4990   -0.7055 H   0  0  0  0  0  0  0  0  0  0  0  0
   -2.0824    3.4191    0.1987 C   0  0  0  0  0  0  0  0  0  0  0  0
   -1.2067    4.0417    0.0021 H   0  0  0  0  0  0  0  0  0  0  0  0
   -2.8941    3.7206   -0.4652 H   0  0  0  0  0  0  0  0  0  0  0  0
   -2.3890    3.5701    1.2350 H   0  0  0  0  0  0  0  0  0  0  0  0
  5  6  2  0  0  0  0
  5  7  1  0  0  0  0
  2  3  1  0  0  0  0
  2  4  1  0  0  0  0
  2  5  1  0  0  0  0
  1  2  1  0  0  0  0
 24 25  2  0  0  0  0
 24 26  1  0  0  0  0
 20 21  1  0  0  0  0
 20 22  1  0  0  0  0
 20 23  1  0  0  0  0
 16 17  1  0  0  0  0
 16 18  1  0  0  0  0
 16 19  1  0  0  0  0
 14 15  1  0  0  0  0
 14 16  1  0  0  0  0
 14 20  1  0  0  0  0
 11 12  1  0  0  0  0
 11 13  1  0  0  0  0
 11 14  1  0  0  0  0
  9 10  1  0  0  0  0
  9 11  1  0  0  0  0
  9 24  1  0  0  0  0
  7  8  1  0  0  0  0
  7  9  1  0  0  0  0
 28 29  1  0  0  0  0
 28 30  1  0  0  0  0
 28 31  1  0  0  0  0
 26 27  1  0  0  0  0
 26 28  1  0  0  0  0
M  END
$$$$
default_name
  -OEChem-01062215323D

 31 30  0     1  0  0  0  0  0999 V2000
   -3.5895   -3.5013    1.1082 H   0  0  0  0  0  0  0  0  0  0  0  0
   -3.5145   -2.5363    0.6082 C   0  0  0  0  0  0  0  0  0  0  0  0
   -4.2285   -1.8413    1.0452 H   0  0  0  0  0  0  0  0  0  0  0  0
   -3.7155   -2.6583   -0.4538 H   0  0  0  0  0  0  0  0  0  0  0  0
   -2.1155   -1.9963    0.7922 C   0  0  0  0  0  0  0  0  0  0  0  0
   -1.2875   -2.6383    1.4252 O   0  0  0  0  0  0  0  0  0  0  0  0
   -1.8575   -0.8123    0.2402 N   0  0  0  0  0  0  0  0  0  0  0  0
   -2.6005   -0.3333   -0.2478 H   0  0  0  0  0  0  0  0  0  0  0  0
   -0.5675   -0.1203    0.3102 C   0  0  1  0  0  0  0  0  0  0  0  0
    0.0191   -0.5718    1.1110 H   0  0  0  0  0  0  0  0  0  0  0  0
    0.1724   -0.3238   -1.0286 C   0  0  0  0  0  0  0  0  0  0  0  0
   -0.4679    0.0316   -1.8383 H   0  0  0  0  0  0  0  0  0  0  0  0
    1.0684    0.3006   -1.0172 H   0  0  0  0  0  0  0  0  0  0  0  0
    0.5995   -1.7690   -1.3446 C   0  0  0  0  0  0  0  0  0  0  0  0
   -0.2596   -2.4342   -1.2570 H   0  0  0  0  0  0  0  0  0  0  0  0
    1.1924   -1.9037   -2.7501 C   0  0  0  0  0  0  0  0  0  0  0  0
    2.0445   -1.2313   -2.8588 H   0  0  0  0  0  0  0  0  0  0  0  0
    1.5249   -2.9294   -2.9116 H   0  0  0  0  0  0  0  0  0  0  0  0
    0.4488   -1.6600   -3.5058 H   0  0  0  0  0  0  0  0  0  0  0  0
    1.6563   -2.2264   -0.3399 C   0  0  0  0  0  0  0  0  0  0  0  0
    1.2502   -2.1715    0.6701 H   0  0  0  0  0  0  0  0  0  0  0  0
    1.9402   -3.2587   -0.5445 H   0  0  0  0  0  0  0  0  0  0  0  0
    2.5394   -1.5900   -0.4078 H   0  0  0  0  0  0  0  0  0  0  0  0
   -0.7793    1.3659    0.6455 C   0  0  0  0  0  0  0  0  0  0  0  0
    0.0735    1.9830    1.2795 O   0  0  0  0  0  0  0  0  0  0  0  0
   -1.9187    1.9335    0.2293 N   0  0  0  0  0  0  0  0  0  0  0  0
   -2.5665    1.3634   -0.2906 H   0  0  0  0  0  0  0  0  0  0  0  0
   -2.2753    3.3277    0.4820 C   0  0  0  0  0  0  0  0  0  0  0  0
   -1.5158    3.9859    0.0542 H   0  0  0  0  0  0  0  0  0  0  0  0
   -3.2435    3.5579    0.0348 H   0  0  0  0  0  0  0  0  0  0  0  0
   -2.3227    3.5068    1.5573 H   0  0  0  0  0  0  0  0  0  0  0  0
  5  6  2  0  0  0  0
  5  7  1  0  0  0  0
  2  3  1  0  0  0  0
  2  4  1  0  0  0  0
  2  5  1  0  0  0  0
  1  2  1  0  0  0  0
 24 25  2  0  0  0  0
 24 26  1  0  0  0  0
 20 21  1  0  0  0  0
 20 22  1  0  0  0  0
 20 23  1  0  0  0  0
 16 17  1  0  0  0  0
 16 18  1  0  0  0  0
 16 19  1  0  0  0  0
 14 15  1  0  0  0  0
 14 16  1  0  0  0  0
 14 20  1  0  0  0  0
 11 12  1  0  0  0  0
 11 13  1  0  0  0  0
 11 14  1  0  0  0  0
  9 10  1  0  0  0  0
  9 11  1  0  0  0  0
  9 24  1  0  0  0  0
  7  8  1  0  0  0  0
  7  9  1  0  0  0  0
 28 29  1  0  0  0  0
 28 30  1  0  0  0  0
 28 31  1  0  0  0  0
 26 27  1  0  0  0  0
 26 28  1  0  0  0  0
M  END
$$$$
default_name
  -OEChem-01062215323D

 31 30  0     1  0  0  0  0  0999 V2000
   -3.5895   -3.5013    1.1082 H   0  0  0  0  0  0  0  0  0  0  0  0
   -3.5145   -2.5363    0.6082 C   0  0  0  0  0  0  0  0  0  0  0  0
   -4.2285   -1.8413    1.0452 H   0  0  0  0  0  0  0  0  0  0  0  0
   -3.7155   -2.6583   -0.4538 H   0  0  0  0  0  0  0  0  0  0  0  0
   -2.1155   -1.9963    0.7922 C   0  0  0  0  0  0  0  0  0  0  0  0
   -1.2875   -2.6383    1.4252 O   0  0  0  0  0  0  0  0  0  0  0  0
   -1.8575   -0.8123    0.2402 N   0  0  0  0  0  0  0  0  0  0  0  0
   -2.6005   -0.3333   -0.2478 H   0  0  0  0  0  0  0  0  0  0  0  0
   -0.5675   -0.1203    0.3102 C   0  0  1  0  0  0  0  0  0  0  0  0
    0.0191   -0.5718    1.1110 H   0  0  0  0  0  0  0  0  0  0  0  0
    0.1724   -0.3238   -1.0286 C   0  0  0  0  0  0  0  0  0  0  0  0
   -0.4679    0.0316   -1.8383 H   0  0  0  0  0  0  0  0  0  0  0  0
    1.0684    0.3006   -1.0172 H   0  0  0  0  0  0  0  0  0  0  0  0
    0.5995   -1.7690   -1.3446 C   0  0  0  0  0  0  0  0  0  0  0  0
   -0.2596   -2.4342   -1.2570 H   0  0  0  0  0  0  0  0  0  0  0  0
    1.1924   -1.9037   -2.7501 C   0  0  0  0  0  0  0  0  0  0  0  0
    2.0445   -1.2313   -2.8588 H   0  0  0  0  0  0  0  0  0  0  0  0
    1.5249   -2.9294   -2.9116 H   0  0  0  0  0  0  0  0  0  0  0  0
    0.4488   -1.6600   -3.5058 H   0  0  0  0  0  0  0  0  0  0  0  0
    1.6563   -2.2264   -0.3399 C   0  0  0  0  0  0  0  0  0  0  0  0
    1.2502   -2.1715    0.6701 H   0  0  0  0  0  0  0  0  0  0  0  0
    1.9402   -3.2587   -0.5445 H   0  0  0  0  0  0  0  0  0  0  0  0
    2.5394   -1.5900   -0.4078 H   0  0  0  0  0  0  0  0  0  0  0  0
   -0.7793    1.3659    0.6455 C   0  0  0  0  0  0  0  0  0  0  0  0
    0.1653    2.0530    1.0272 O   0  0  0  0  0  0  0  0  0  0  0  0
   -2.0189    1.8553    0.5127 N   0  0  0  0  0  0  0  0  0  0  0  0
   -2.7398    1.2306    0.1886 H   0  0  0  0  0  0  0  0  0  0  0  0
   -2.3856    3.2386    0.8071 C   0  0  0  0  0  0  0  0  0  0  0  0
   -1.7981    3.9164    0.1837 H   0  0  0  0  0  0  0  0  0  0  0  0
   -3.4468    3.3989    0.6110 H   0  0  0  0  0  0  0  0  0  0  0  0
   -2.1745    3.4609    1.8543 H   0  0  0  0  0  0  0  0  0  0  0  0
  5  6  2  0  0  0  0
  5  7  1  0  0  0  0
  2  3  1  0  0  0  0
  2  4  1  0  0  0  0
  2  5  1  0  0  0  0
  1  2  1  0  0  0  0
 24 25  2  0  0  0  0
 24 26  1  0  0  0  0
 20 21  1  0  0  0  0
 20 22  1  0  0  0  0
 20 23  1  0  0  0  0
 16 17  1  0  0  0  0
 16 18  1  0  0  0  0
 16 19  1  0  0  0  0
 14 15  1  0  0  0  0
 14 16  1  0  0  0  0
 14 20  1  0  0  0  0
 11 12  1  0  0  0  0
 11 13  1  0  0  0  0
 11 14  1  0  0  0  0
  9 10  1  0  0  0  0
  9 11  1  0  0  0  0
  9 24  1  0  0  0  0
  7  8  1  0  0  0  0
  7  9  1  0  0  0  0
 28 29  1  0  0  0  0
 28 30  1  0  0  0  0
 28 31  1  0  0  0  0
 26 27  1  0  0  0  0
 26 28  1  0  0  0  0
M  END
$$$$
default_name
  -OEChem-01062215323D

 31 30  0     1  0  0  0  0  0999 V2000
   -3.5895   -3.5013    1.1082 H   0  0  0  0  0  0  0  0  0  0  0  0
   -3.5145   -2.5363    0.6082 C   0  0  0  0  0  0  0  0  0  0  0  0
   -4.2285   -1.8413    1.0452 H   0  0  0  0  0  0  0  0  0  0  0  0
   -3.7155   -2.6583   -0.4538 H   0  0  0  0  0  0  0  0  0  0  0  0
   -2.1155   -1.9963    0.7922 C   0  0  0  0  0  0  0  0  0  0  0  0
   -1.2875   -2.6383    1.4252 O   0  0  0  0  0  0  0  0  0  0  0  0
   -1.8575   -0.8123    0.2402 N   0  0  0  0  0  0  0  0  0  0  0  0
   -2.6005   -0.3333   -0.2478 H   0  0  0  0  0  0  0  0  0  0  0  0
   -0.5675   -0.1203    0.3102 C   0  0  1  0  0  0  0  0  0  0  0  0
    0.0191   -0.5718    1.1110 H   0  0  0  0  0  0  0  0  0  0  0  0
    0.1724   -0.3238   -1.0286 C   0  0  0  0  0  0  0  0  0  0  0  0
   -0.4679    0.0316   -1.8383 H   0  0  0  0  0  0  0  0  0  0  0  0
    1.0684    0.3006   -1.0172 H   0  0  0  0  0  0  0  0  0  0  0  0
    0.5995   -1.7690   -1.3446 C   0  0  0  0  0  0  0  0  0  0  0  0
   -0.2596   -2.4342   -1.2570 H   0  0  0  0  0  0  0  0  0  0  0  0
    1.1924   -1.9037   -2.7501 C   0  0  0  0  0  0  0  0  0  0  0  0
    2.0445   -1.2313   -2.8588 H   0  0  0  0  0  0  0  0  0  0  0  0
    1.5249   -2.9294   -2.9116 H   0  0  0  0  0  0  0  0  0  0  0  0
    0.4488   -1.6600   -3.5058 H   0  0  0  0  0  0  0  0  0  0  0  0
    1.6563   -2.2264   -0.3399 C   0  0  0  0  0  0  0  0  0  0  0  0
    1.2502   -2.1715    0.6701 H   0  0  0  0  0  0  0  0  0  0  0  0
    1.9402   -3.2587   -0.5445 H   0  0  0  0  0  0  0  0  0  0  0  0
    2.5394   -1.5900   -0.4078 H   0  0  0  0  0  0  0  0  0  0  0  0
   -0.7793    1.3659    0.6455 C   0  0  0  0  0  0  0  0  0  0  0  0
    0.1869    2.1168    0.7581 O   0  0  0  0  0  0  0  0  0  0  0  0
   -2.0404    1.7841    0.8144 N   0  0  0  0  0  0  0  0  0  0  0  0
   -2.7798    1.1096    0.6995 H   0  0  0  0  0  0  0  0  0  0  0  0
   -2.4058    3.1579    1.1518 C   0  0  0  0  0  0  0  0  0  0  0  0
   -2.0345    3.8380    0.3819 H   0  0  0  0  0  0  0  0  0  0  0  0
   -3.4902    3.2545    1.2240 H   0  0  0  0  0  0  0  0  0  0  0  0
   -1.9546    3.4355    2.1058 H   0  0  0  0  0  0  0  0  0  0  0  0
  5  6  2  0  0  0  0
  5  7  1  0  0  0  0
  2  3  1  0  0  0  0
  2  4  1  0  0  0  0
  2  5  1  0  0  0  0
  1  2  1  0  0  0  0
 24 25  2  0  0  0  0
 24 26  1  0  0  0  0
 20 21  1  0  0  0  0
 20 22  1  0  0  0  0
 20 23  1  0  0  0  0
 16 17  1  0  0  0  0
 16 18  1  0  0  0  0
 16 19  1  0  0  0  0
 14 15  1  0  0  0  0
 14 16  1  0  0  0  0
 14 20  1  0  0  0  0
 11 12  1  0  0  0  0
 11 13  1  0  0  0  0
 11 14  1  0  0  0  0
  9 10  1  0  0  0  0
  9 11  1  0  0  0  0
  9 24  1  0  0  0  0
  7  8  1  0  0  0  0
  7  9  1  0  0  0  0
 28 29  1  0  0  0  0
 28 30  1  0  0  0  0
 28 31  1  0  0  0  0
 26 27  1  0  0  0  0
 26 28  1  0  0  0  0
M  END
$$$$
default_name
  -OEChem-01062215323D

 31 30  0     1  0  0  0  0  0999 V2000
   -3.5895   -3.5013    1.1082 H   0  0  0  0  0  0  0  0  0  0  0  0
   -3.5145   -2.5363    0.6082 C   0  0  0  0  0  0  0  0  0  0  0  0
   -4.2285   -1.8413    1.0452 H   0  0  0  0  0  0  0  0  0  0  0  0
   -3.7155   -2.6583   -0.4538 H   0  0  0  0  0  0  0  0  0  0  0  0
   -2.1155   -1.9963    0.7922 C   0  0  0  0  0  0  0  0  0  0  0  0
   -1.2875   -2.6383    1.4252 O   0  0  0  0  0  0  0  0  0  0  0  0
   -1.8575   -0.8123    0.2402 N   0  0  0  0  0  0  0  0  0  0  0  0
   -2.6005   -0.3333   -0.2478 H   0  0  0  0  0  0  0  0  0  0  0  0
   -0.5675   -0.1203    0.3102 C   0  0  1  0  0  0  0  0  0  0  0  0
    0.0191   -0.5718    1.1110 H   0  0  0  0  0  0  0  0  0  0  0  0
    0.1724   -0.3238   -1.0286 C   0  0  0  0  0  0  0  0  0  0  0  0
   -0.4679    0.0316   -1.8383 H   0  0  0  0  0  0  0  0  0  0  0  0
    1.0684    0.3006   -1.0172 H   0  0  0  0  0  0  0  0  0  0  0  0
    0.5995   -1.7690   -1.3446 C   0  0  0  0  0  0  0  0  0  0  0  0
   -0.2596   -2.4342   -1.2570 H   0  0  0  0  0  0  0  0  0  0  0  0
    1.1924   -1.9037   -2.7501 C   0  0  0  0  0  0  0  0  0  0  0  0
    2.0445   -1.2313   -2.8588 H   0  0  0  0  0  0  0  0  0  0  0  0
    1.5249   -2.9294   -2.9116 H   0  0  0  0  0  0  0  0  0  0  0  0
    0.4488   -1.6600   -3.5058 H   0  0  0  0  0  0  0  0  0  0  0  0
    1.6563   -2.2264   -0.3399 C   0  0  0  0  0  0  0  0  0  0  0  0
    1.2502   -2.1715    0.6701 H   0  0  0  0  0  0  0  0  0  0  0  0
    1.9402   -3.2587   -0.5445 H   0  0  0  0  0  0  0  0  0  0  0  0
    2.5394   -1.5900   -0.4078 H   0  0  0  0  0  0  0  0  0  0  0  0
   -0.7793    1.3659    0.6455 C   0  0  0  0  0  0  0  0  0  0  0  0
    0.1369    2.1701    0.4905 O   0  0  0  0  0  0  0  0  0  0  0  0
   -1.9816    1.7250    1.1136 N   0  0  0  0  0  0  0  0  0  0  0  0
   -2.6838    1.0087    1.2074 H   0  0  0  0  0  0  0  0  0  0  0  0
   -2.3345    3.0912    1.4928 C   0  0  0  0  0  0  0  0  0  0  0  0
   -2.2089    3.7560    0.6353 H   0  0  0  0  0  0  0  0  0  0  0  0
   -3.3706    3.1343    1.8322 H   0  0  0  0  0  0  0  0  0  0  0  0
   -1.6778    3.4324    2.2946 H   0  0  0  0  0  0  0  0  0  0  0  0
  5  6  2  0  0  0  0
  5  7  1  0  0  0  0
  2  3  1  0  0  0  0
  2  4  1  0  0  0  0
  2  5  1  0  0  0  0
  1  2  1  0  0  0  0
 24 25  2  0  0  0  0
 24 26  1  0  0  0  0
 20 21  1  0  0  0  0
 20 22  1  0  0  0  0
 20 23  1  0  0  0  0
 16 17  1  0  0  0  0
 16 18  1  0  0  0  0
 16 19  1  0  0  0  0
 14 15  1  0  0  0  0
 14 16  1  0  0  0  0
 14 20  1  0  0  0  0
 11 12  1  0  0  0  0
 11 13  1  0  0  0  0
 11 14  1  0  0  0  0
  9 10  1  0  0  0  0
  9 11  1  0  0  0  0
  9 24  1  0  0  0  0
  7  8  1  0  0  0  0
  7  9  1  0  0  0  0
 28 29  1  0  0  0  0
 28 30  1  0  0  0  0
 28 31  1  0  0  0  0
 26 27  1  0  0  0  0
 26 28  1  0  0  0  0
M  END
$$$$
default_name
  -OEChem-01062215323D

 31 30  0     1  0  0  0  0  0999 V2000
   -3.5895   -3.5013    1.1082 H   0  0  0  0  0  0  0  0  0  0  0  0
   -3.5145   -2.5363    0.6082 C   0  0  0  0  0  0  0  0  0  0  0  0
   -4.2285   -1.8413    1.0452 H   0  0  0  0  0  0  0  0  0  0  0  0
   -3.7155   -2.6583   -0.4538 H   0  0  0  0  0  0  0  0  0  0  0  0
   -2.1155   -1.9963    0.7922 C   0  0  0  0  0  0  0  0  0  0  0  0
   -1.2875   -2.6383    1.4252 O   0  0  0  0  0  0  0  0  0  0  0  0
   -1.8575   -0.8123    0.2402 N   0  0  0  0  0  0  0  0  0  0  0  0
   -2.6005   -0.3333   -0.2478 H   0  0  0  0  0  0  0  0  0  0  0  0
   -0.5675   -0.1203    0.3102 C   0  0  1  0  0  0  0  0  0  0  0  0
    0.0191   -0.5718    1.1110 H   0  0  0  0  0  0  0  0  0  0  0  0
    0.1724   -0.3238   -1.0286 C   0  0  0  0  0  0  0  0  0  0  0  0
   -0.4679    0.0316   -1.8383 H   0  0  0  0  0  0  0  0  0  0  0  0
    1.0684    0.3006   -1.0172 H   0  0  0  0  0  0  0  0  0  0  0  0
    0.5995   -1.7690   -1.3446 C   0  0  0  0  0  0  0  0  0  0  0  0
   -0.2596   -2.4342   -1.2570 H   0  0  0  0  0  0  0  0  0  0  0  0
    1.1924   -1.9037   -2.7501 C   0  0  0  0  0  0  0  0  0  0  0  0
    2.0445   -1.2313   -2.8588 H   0  0  0  0  0  0  0  0  0  0  0  0
    1.5249   -2.9294   -2.9116 H   0  0  0  0  0  0  0  0  0  0  0  0
    0.4488   -1.6600   -3.5058 H   0  0  0  0  0  0  0  0  0  0  0  0
    1.6563   -2.2264   -0.3399 C   0  0  0  0  0  0  0  0  0  0  0  0
    1.2502   -2.1715    0.6701 H   0  0  0  0  0  0  0  0  0  0  0  0
    1.9402   -3.2587   -0.5445 H   0  0  0  0  0  0  0  0  0  0  0  0
    2.5394   -1.5900   -0.4078 H   0  0  0  0  0  0  0  0  0  0  0  0
   -0.7793    1.3659    0.6455 C   0  0  0  0  0  0  0  0  0  0  0  0
    0.0186    2.2092    0.2426 O   0  0  0  0  0  0  0  0  0  0  0  0
   -1.8467    1.6818    1.3901 N   0  0  0  0  0  0  0  0  0  0  0  0
   -2.4584    0.9347    1.6775 H   0  0  0  0  0  0  0  0  0  0  0  0
   -2.1767    3.0428    1.8067 C   0  0  0  0  0  0  0  0  0  0  0  0
   -2.3093    3.6760    0.9265 H   0  0  0  0  0  0  0  0  0  0  0  0
   -3.0962    3.0466    2.3940 H   0  0  0  0  0  0  0  0  0  0  0  0
   -1.3630    3.4517    2.4078 H   0  0  0  0  0  0  0  0  0  0  0  0
  5  6  2  0  0  0  0
  5  7  1  0  0  0  0
  2  3  1  0  0  0  0
  2  4  1  0  0  0  0
  2  5  1  0  0  0  0
  1  2  1  0  0  0  0
 24 25  2  0  0  0  0
 24 26  1  0  0  0  0
 20 21  1  0  0  0  0
 20 22  1  0  0  0  0
 20 23  1  0  0  0  0
 16 17  1  0  0  0  0
 16 18  1  0  0  0  0
 16 19  1  0  0  0  0
 14 15  1  0  0  0  0
 14 16  1  0  0  0  0
 14 20  1  0  0  0  0
 11 12  1  0  0  0  0
 11 13  1  0  0  0  0
 11 14  1  0  0  0  0
  9 10  1  0  0  0  0
  9 11  1  0  0  0  0
  9 24  1  0  0  0  0
  7  8  1  0  0  0  0
  7  9  1  0  0  0  0
 28 29  1  0  0  0  0
 28 30  1  0  0  0  0
 28 31  1  0  0  0  0
 26 27  1  0  0  0  0
 26 28  1  0  0  0  0
M  END
$$$$
default_name
  -OEChem-01062215323D

 31 30  0     1  0  0  0  0  0999 V2000
   -3.5895   -3.5013    1.1082 H   0  0  0  0  0  0  0  0  0  0  0  0
   -3.5145   -2.5363    0.6082 C   0  0  0  0  0  0  0  0  0  0  0  0
   -4.2285   -1.8413    1.0452 H   0  0  0  0  0  0  0  0  0  0  0  0
   -3.7155   -2.6583   -0.4538 H   0  0  0  0  0  0  0  0  0  0  0  0
   -2.1155   -1.9963    0.7922 C   0  0  0  0  0  0  0  0  0  0  0  0
   -1.2875   -2.6383    1.4252 O   0  0  0  0  0  0  0  0  0  0  0  0
   -1.8575   -0.8123    0.2402 N   0  0  0  0  0  0  0  0  0  0  0  0
   -2.6005   -0.3333   -0.2478 H   0  0  0  0  0  0  0  0  0  0  0  0
   -0.5675   -0.1203    0.3102 C   0  0  1  0  0  0  0  0  0  0  0  0
    0.0191   -0.5718    1.1110 H   0  0  0  0  0  0  0  0  0  0  0  0
    0.1724   -0.3238   -1.0286 C   0  0  0  0  0  0  0  0  0  0  0  0
   -0.4679    0.0316   -1.8383 H   0  0  0  0  0  0  0  0  0  0  0  0
    1.0684    0.3006   -1.0172 H   0  0  0  0  0  0  0  0  0  0  0  0
    0.5995   -1.7690   -1.3446 C   0  0  0  0  0  0  0  0  0  0  0  0
   -0.2596   -2.4342   -1.2570 H   0  0  0  0  0  0  0  0  0  0  0  0
    1.1924   -1.9037   -2.7501 C   0  0  0  0  0  0  0  0  0  0  0  0
    2.0445   -1.2313   -2.8588 H   0  0  0  0  0  0  0  0  0  0  0  0
    1.5249   -2.9294   -2.9116 H   0  0  0  0  0  0  0  0  0  0  0  0
    0.4488   -1.6600   -3.5058 H   0  0  0  0  0  0  0  0  0  0  0  0
    1.6563   -2.2264   -0.3399 C   0  0  0  0  0  0  0  0  0  0  0  0
    1.2502   -2.1715    0.6701 H   0  0  0  0  0  0  0  0  0  0  0  0
    1.9402   -3.2587   -0.5445 H   0  0  0  0  0  0  0  0  0  0  0  0
    2.5394   -1.5900   -0.4078 H   0  0  0  0  0  0  0  0  0  0  0  0
   -0.7793    1.3659    0.6455 C   0  0  0  0  0  0  0  0  0  0  0  0
   -0.1598    2.2314    0.0313 O   0  0  0  0  0  0  0  0  0  0  0  0
   -1.6449    1.6576    1.6250 N   0  0  0  0  0  0  0  0  0  0  0  0
   -2.1190    0.8928    2.0779 H   0  0  0  0  0  0  0  0  0  0  0  0
   -1.9430    3.0163    2.0722 C   0  0  0  0  0  0  0  0  0  0  0  0
   -2.3290    3.6034    1.2358 H   0  0  0  0  0  0  0  0  0  0  0  0
   -2.6858    2.9975    2.8711 H   0  0  0  0  0  0  0  0  0  0  0  0
   -1.0317    3.4921    2.4378 H   0  0  0  0  0  0  0  0  0  0  0  0
  5  6  2  0  0  0  0
  5  7  1  0  0  0  0
  2  3  1  0  0  0  0
  2  4  1  0  0  0  0
  2  5  1  0  0  0  0
  1  2  1  0  0  0  0
 24 25  2  0  0  0  0
 24 26  1  0  0  0  0
 20 21  1  0  0  0  0
 20 22  1  0  0  0  0
 20 23  1  0  0  0  0
 16 17  1  0  0  0  0
 16 18  1  0  0  0  0
 16 19  1  0  0  0  0
 14 15  1  0  0  0  0
 14 16  1  0  0  0  0
 14 20  1  0  0  0  0
 11 12  1  0  0  0  0
 11 13  1  0  0  0  0
 11 14  1  0  0  0  0
  9 10  1  0  0  0  0
  9 11  1  0  0  0  0
  9 24  1  0  0  0  0
  7  8  1  0  0  0  0
  7  9  1  0  0  0  0
 28 29  1  0  0  0  0
 28 30  1  0  0  0  0
 28 31  1  0  0  0  0
 26 27  1  0  0  0  0
 26 28  1  0  0  0  0
M  END
$$$$
default_name
  -OEChem-01062215323D

 31 30  0     1  0  0  0  0  0999 V2000
   -3.5895   -3.5013    1.1082 H   0  0  0  0  0  0  0  0  0  0  0  0
   -3.5145   -2.5363    0.6082 C   0  0  0  0  0  0  0  0  0  0  0  0
   -4.2285   -1.8413    1.0452 H   0  0  0  0  0  0  0  0  0  0  0  0
   -3.7155   -2.6583   -0.4538 H   0  0  0  0  0  0  0  0  0  0  0  0
   -2.1155   -1.9963    0.7922 C   0  0  0  0  0  0  0  0  0  0  0  0
   -1.2875   -2.6383    1.4252 O   0  0  0  0  0  0  0  0  0  0  0  0
   -1.8575   -0.8123    0.2402 N   0  0  0  0  0  0  0  0  0  0  0  0
   -2.6005   -0.3333   -0.2478 H   0  0  0  0  0  0  0  0  0  0  0  0
   -0.5675   -0.1203    0.3102 C   0  0  1  0  0  0  0  0  0  0  0  0
    0.0191   -0.5718    1.1110 H   0  0  0  0  0  0  0  0  0  0  0  0
    0.1724   -0.3238   -1.0286 C   0  0  0  0  0  0  0  0  0  0  0  0
   -0.4679    0.0316   -1.8383 H   0  0  0  0  0  0  0  0  0  0  0  0
    1.0684    0.3006   -1.0172 H   0  0  0  0  0  0  0  0  0  0  0  0
    0.5995   -1.7690   -1.3446 C   0  0  0  0  0  0  0  0  0  0  0  0
   -0.2596   -2.4342   -1.2570 H   0  0  0  0  0  0  0  0  0  0  0  0
    1.1924   -1.9037   -2.7501 C   0  0  0  0  0  0  0  0  0  0  0  0
    2.0445   -1.2313   -2.8588 H   0  0  0  0  0  0  0  0  0  0  0  0
    1.5249   -2.9294   -2.9116 H   0  0  0  0  0  0  0  0  0  0  0  0
    0.4488   -1.6600   -3.5058 H   0  0  0  0  0  0  0  0  0  0  0  0
    1.6563   -2.2264   -0.3399 C   0  0  0  0  0  0  0  0  0  0  0  0
    1.2502   -2.1715    0.6701 H   0  0  0  0  0  0  0  0  0  0  0  0
    1.9402   -3.2587   -0.5445 H   0  0  0  0  0  0  0  0  0  0  0  0
    2.5394   -1.5900   -0.4078 H   0  0  0  0  0  0  0  0  0  0  0  0
   -0.7793    1.3659    0.6455 C   0  0  0  0  0  0  0  0  0  0  0  0
   -0.3862    2.2353   -0.1290 O   0  0  0  0  0  0  0  0  0  0  0  0
   -1.3898    1.6540    1.8022 N   0  0  0  0  0  0  0  0  0  0  0  0
   -1.6886    0.8856    2.3813 H   0  0  0  0  0  0  0  0  0  0  0  0
   -1.6494    3.0132    2.2711 C   0  0  0  0  0  0  0  0  0  0  0  0
   -2.2666    3.5432    1.5421 H   0  0  0  0  0  0  0  0  0  0  0  0
   -2.1672    2.9901    3.2312 H   0  0  0  0  0  0  0  0  0  0  0  0
   -0.7065    3.5509    2.3825 H   0  0  0  0  0  0  0  0  0  0  0  0
  5  6  2  0  0  0  0
  5  7  1  0  0  0  0
  2  3  1  0  0  0  0
  2  4  1  0  0  0  0
  2  5  1  0  0  0  0
  1  2  1  0  0  0  0
 24 25  2  0  0  0  0
 24 26  1  0  0  0  0
 20 21  1  0  0  0  0
 20 22  1  0  0  0  0
 20 23  1  0  0  0  0
 16 17  1  0  0  0  0
 16 18  1  0  0  0  0
 16 19  1  0  0  0  0
 14 15  1  0  0  0  0
 14 16  1  0  0  0  0
 14 20  1  0  0  0  0
 11 12  1  0  0  0  0
 11 13  1  0  0  0  0
 11 14  1  0  0  0  0
  9 10  1  0  0  0  0
  9 11  1  0  0  0  0
  9 24  1  0  0  0  0
  7  8  1  0  0  0  0
  7  9  1  0  0  0  0
 28 29  1  0  0  0  0
 28 30  1  0  0  0  0
 28 31  1  0  0  0  0
 26 27  1  0  0  0  0
 26 28  1  0  0  0  0
M  END
$$$$
default_name
  -OEChem-01062215323D

 31 30  0     1  0  0  0  0  0999 V2000
   -3.5895   -3.5013    1.1082 H   0  0  0  0  0  0  0  0  0  0  0  0
   -3.5145   -2.5363    0.6082 C   0  0  0  0  0  0  0  0  0  0  0  0
   -4.2285   -1.8413    1.0452 H   0  0  0  0  0  0  0  0  0  0  0  0
   -3.7155   -2.6583   -0.4538 H   0  0  0  0  0  0  0  0  0  0  0  0
   -2.1155   -1.9963    0.7922 C   0  0  0  0  0  0  0  0  0  0  0  0
   -1.2875   -2.6383    1.4252 O   0  0  0  0  0  0  0  0  0  0  0  0
   -1.8575   -0.8123    0.2402 N   0  0  0  0  0  0  0  0  0  0  0  0
   -2.6005   -0.3333   -0.2478 H   0  0  0  0  0  0  0  0  0  0  0  0
   -0.5675   -0.1203    0.3102 C   0  0  1  0  0  0  0  0  0  0  0  0
    0.0191   -0.5718    1.1110 H   0  0  0  0  0  0  0  0  0  0  0  0
    0.1724   -0.3238   -1.0286 C   0  0  0  0  0  0  0  0  0  0  0  0
   -0.4679    0.0316   -1.8383 H   0  0  0  0  0  0  0  0  0  0  0  0
    1.0684    0.3006   -1.0172 H   0  0  0  0  0  0  0  0  0  0  0  0
    0.5995   -1.7690   -1.3446 C   0  0  0  0  0  0  0  0  0  0  0  0
   -0.2596   -2.4342   -1.2570 H   0  0  0  0  0  0  0  0  0  0  0  0
    1.1924   -1.9037   -2.7501 C   0  0  0  0  0  0  0  0  0  0  0  0
    2.0445   -1.2313   -2.8588 H   0  0  0  0  0  0  0  0  0  0  0  0
    1.5249   -2.9294   -2.9116 H   0  0  0  0  0  0  0  0  0  0  0  0
    0.4488   -1.6600   -3.5058 H   0  0  0  0  0  0  0  0  0  0  0  0
    1.6563   -2.2264   -0.3399 C   0  0  0  0  0  0  0  0  0  0  0  0
    1.2502   -2.1715    0.6701 H   0  0  0  0  0  0  0  0  0  0  0  0
    1.9402   -3.2587   -0.5445 H   0  0  0  0  0  0  0  0  0  0  0  0
    2.5394   -1.5900   -0.4078 H   0  0  0  0  0  0  0  0  0  0  0  0
   -0.7793    1.3659    0.6455 C   0  0  0  0  0  0  0  0  0  0  0  0
   -0.6452    2.2206   -0.2273 O   0  0  0  0  0  0  0  0  0  0  0  0
   -1.0988    1.6712    1.9098 N   0  0  0  0  0  0  0  0  0  0  0  0
   -1.1967    0.9139    2.5670 H   0  0  0  0  0  0  0  0  0  0  0  0
   -1.3159    3.0339    2.3899 C   0  0  0  0  0  0  0  0  0  0  0  0
   -2.1263    3.4995    1.8245 H   0  0  0  0  0  0  0  0  0  0  0  0
   -1.5759    3.0252    3.4495 H   0  0  0  0  0  0  0  0  0  0  0  0
   -0.4095    3.6241    2.2457 H   0  0  0  0  0  0  0  0  0  0  0  0
  5  6  2  0  0  0  0
  5  7  1  0  0  0  0
  2  3  1  0  0  0  0
  2  4  1  0  0  0  0
  2  5  1  0  0  0  0
  1  2  1  0  0  0  0
 24 25  2  0  0  0  0
 24 26  1  0  0  0  0
 20 21  1  0  0  0  0
 20 22  1  0  0  0  0
 20 23  1  0  0  0  0
 16 17  1  0  0  0  0
 16 18  1  0  0  0  0
 16 19  1  0  0  0  0
 14 15  1  0  0  0  0
 14 16  1  0  0  0  0
 14 20  1  0  0  0  0
 11 12  1  0  0  0  0
 11 13  1  0  0  0  0
 11 14  1  0  0  0  0
  9 10  1  0  0  0  0
  9 11  1  0  0  0  0
  9 24  1  0  0  0  0
  7  8  1  0  0  0  0
  7  9  1  0  0  0  0
 28 29  1  0  0  0  0
 28 30  1  0  0  0  0
 28 31  1  0  0  0  0
 26 27  1  0  0  0  0
 26 28  1  0  0  0  0
M  END
$$$$
default_name
  -OEChem-01062215323D

 31 30  0     1  0  0  0  0  0999 V2000
   -3.5895   -3.5013    1.1082 H   0  0  0  0  0  0  0  0  0  0  0  0
   -3.5145   -2.5363    0.6082 C   0  0  0  0  0  0  0  0  0  0  0  0
   -4.2285   -1.8413    1.0452 H   0  0  0  0  0  0  0  0  0  0  0  0
   -3.7155   -2.6583   -0.4538 H   0  0  0  0  0  0  0  0  0  0  0  0
   -2.1155   -1.9963    0.7922 C   0  0  0  0  0  0  0  0  0  0  0  0
   -1.2875   -2.6383    1.4252 O   0  0  0  0  0  0  0  0  0  0  0  0
   -1.8575   -0.8123    0.2402 N   0  0  0  0  0  0  0  0  0  0  0  0
   -2.6005   -0.3333   -0.2478 H   0  0  0  0  0  0  0  0  0  0  0  0
   -0.5675   -0.1203    0.3102 C   0  0  1  0  0  0  0  0  0  0  0  0
    0.0191   -0.5718    1.1110 H   0  0  0  0  0  0  0  0  0  0  0  0
    0.1724   -0.3238   -1.0286 C   0  0  0  0  0  0  0  0  0  0  0  0
   -0.4679    0.0316   -1.8383 H   0  0  0  0  0  0  0  0  0  0  0  0
    1.0684    0.3006   -1.0172 H   0  0  0  0  0  0  0  0  0  0  0  0
    0.5995   -1.7690   -1.3446 C   0  0  0  0  0  0  0  0  0  0  0  0
   -0.2596   -2.4342   -1.2570 H   0  0  0  0  0  0  0  0  0  0  0  0
    1.1924   -1.9037   -2.7501 C   0  0  0  0  0  0  0  0  0  0  0  0
    2.0445   -1.2313   -2.8588 H   0  0  0  0  0  0  0  0  0  0  0  0
    1.5249   -2.9294   -2.9116 H   0  0  0  0  0  0  0  0  0  0  0  0
    0.4488   -1.6600   -3.5058 H   0  0  0  0  0  0  0  0  0  0  0  0
    1.6563   -2.2264   -0.3399 C   0  0  0  0  0  0  0  0  0  0  0  0
    1.2502   -2.1715    0.6701 H   0  0  0  0  0  0  0  0  0  0  0  0
    1.9402   -3.2587   -0.5445 H   0  0  0  0  0  0  0  0  0  0  0  0
    2.5394   -1.5900   -0.4078 H   0  0  0  0  0  0  0  0  0  0  0  0
   -0.7793    1.3659    0.6455 C   0  0  0  0  0  0  0  0  0  0  0  0
   -0.9191    2.1882   -0.2569 O   0  0  0  0  0  0  0  0  0  0  0  0
   -0.7919    1.7080    1.9403 N   0  0  0  0  0  0  0  0  0  0  0  0
   -0.6766    0.9755    2.6223 H   0  0  0  0  0  0  0  0  0  0  0  0
   -0.9652    3.0770    2.4206 C   0  0  0  0  0  0  0  0  0  0  0  0
   -1.9177    3.4752    2.0637 H   0  0  0  0  0  0  0  0  0  0  0  0
   -0.9521    3.1001    3.5113 H   0  0  0  0  0  0  0  0  0  0  0  0
   -0.1610    3.7067    2.0366 H   0  0  0  0  0  0  0  0  0  0  0  0
  5  6  2  0  0  0  0
  5  7  1  0  0  0  0
  2  3  1  0  0  0  0
  2  4  1  0  0  0  0
  2  5  1  0  0  0  0
  1  2  1  0  0  0  0
 24 25  2  0  0  0  0
 24 26  1  0  0  0  0
 20 21  1  0  0  0  0
 20 22  1  0  0  0  0
 20 23  1  0  0  0  0
 16 17  1  0  0  0  0
 16 18  1  0  0  0  0
 16 19  1  0  0  0  0
 14 15  1  0  0  0  0
 14 16  1  0  0  0  0
 14 20  1  0  0  0  0
 11 12  1  0  0  0  0
 11 13  1  0  0  0  0
 11 14  1  0  0  0  0
  9 10  1  0  0  0  0
  9 11  1  0  0  0  0
  9 24  1  0  0  0  0
  7  8  1  0  0  0  0
  7  9  1  0  0  0  0
 28 29  1  0  0  0  0
 28 30  1  0  0  0  0
 28 31  1  0  0  0  0
 26 27  1  0  0  0  0
 26 28  1  0  0  0  0
M  END
$$$$
default_name
  -OEChem-01062215323D

 31 30  0     1  0  0  0  0  0999 V2000
   -3.5895   -3.5013    1.1082 H   0  0  0  0  0  0  0  0  0  0  0  0
   -3.5145   -2.5363    0.6082 C   0  0  0  0  0  0  0  0  0  0  0  0
   -4.2285   -1.8413    1.0452 H   0  0  0  0  0  0  0  0  0  0  0  0
   -3.7155   -2.6583   -0.4538 H   0  0  0  0  0  0  0  0  0  0  0  0
   -2.1155   -1.9963    0.7922 C   0  0  0  0  0  0  0  0  0  0  0  0
   -1.2875   -2.6383    1.4252 O   0  0  0  0  0  0  0  0  0  0  0  0
   -1.8575   -0.8123    0.2402 N   0  0  0  0  0  0  0  0  0  0  0  0
   -2.6005   -0.3333   -0.2478 H   0  0  0  0  0  0  0  0  0  0  0  0
   -0.5675   -0.1203    0.3102 C   0  0  1  0  0  0  0  0  0  0  0  0
    0.0191   -0.5718    1.1110 H   0  0  0  0  0  0  0  0  0  0  0  0
    0.1724   -0.3238   -1.0286 C   0  0  0  0  0  0  0  0  0  0  0  0
   -0.4679    0.0316   -1.8383 H   0  0  0  0  0  0  0  0  0  0  0  0
    1.0684    0.3006   -1.0172 H   0  0  0  0  0  0  0  0  0  0  0  0
    0.5995   -1.7690   -1.3446 C   0  0  0  0  0  0  0  0  0  0  0  0
   -0.2596   -2.4342   -1.2570 H   0  0  0  0  0  0  0  0  0  0  0  0
    1.1924   -1.9037   -2.7501 C   0  0  0  0  0  0  0  0  0  0  0  0
    2.0445   -1.2313   -2.8588 H   0  0  0  0  0  0  0  0  0  0  0  0
    1.5249   -2.9294   -2.9116 H   0  0  0  0  0  0  0  0  0  0  0  0
    0.4488   -1.6600   -3.5058 H   0  0  0  0  0  0  0  0  0  0  0  0
    1.6563   -2.2264   -0.3399 C   0  0  0  0  0  0  0  0  0  0  0  0
    1.2502   -2.1715    0.6701 H   0  0  0  0  0  0  0  0  0  0  0  0
    1.9402   -3.2587   -0.5445 H   0  0  0  0  0  0  0  0  0  0  0  0
    2.5394   -1.5900   -0.4078 H   0  0  0  0  0  0  0  0  0  0  0  0
   -0.7793    1.3659    0.6455 C   0  0  0  0  0  0  0  0  0  0  0  0
   -1.1893    2.1404   -0.2159 O   0  0  0  0  0  0  0  0  0  0  0  0
   -0.4899    1.7621    1.8917 N   0  0  0  0  0  0  0  0  0  0  0  0
   -0.1640    1.0664    2.5434 H   0  0  0  0  0  0  0  0  0  0  0  0
   -0.6212    3.1395    2.3609 C   0  0  0  0  0  0  0  0  0  0  0  0
   -1.6550    3.4721    2.2435 H   0  0  0  0  0  0  0  0  0  0  0  0
   -0.3383    3.2100    3.4123 H   0  0  0  0  0  0  0  0  0  0  0  0
    0.0221    3.7931    1.7696 H   0  0  0  0  0  0  0  0  0  0  0  0
  5  6  2  0  0  0  0
  5  7  1  0  0  0  0
  2  3  1  0  0  0  0
  2  4  1  0  0  0  0
  2  5  1  0  0  0  0
  1  2  1  0  0  0  0
 24 25  2  0  0  0  0
 24 26  1  0  0  0  0
 20 21  1  0  0  0  0
 20 22  1  0  0  0  0
 20 23  1  0  0  0  0
 16 17  1  0  0  0  0
 16 18  1  0  0  0  0
 16 19  1  0  0  0  0
 14 15  1  0  0  0  0
 14 16  1  0  0  0  0
 14 20  1  0  0  0  0
 11 12  1  0  0  0  0
 11 13  1  0  0  0  0
 11 14  1  0  0  0  0
  9 10  1  0  0  0  0
  9 11  1  0  0  0  0
  9 24  1  0  0  0  0
  7  8  1  0  0  0  0
  7  9  1  0  0  0  0
 28 29  1  0  0  0  0
 28 30  1  0  0  0  0
 28 31  1  0  0  0  0
 26 27  1  0  0  0  0
 26 28  1  0  0  0  0
M  END
$$$$
default_name
  -OEChem-01062215323D

 31 30  0     1  0  0  0  0  0999 V2000
   -3.5895   -3.5013    1.1082 H   0  0  0  0  0  0  0  0  0  0  0  0
   -3.5145   -2.5363    0.6082 C   0  0  0  0  0  0  0  0  0  0  0  0
   -4.2285   -1.8413    1.0452 H   0  0  0  0  0  0  0  0  0  0  0  0
   -3.7155   -2.6583   -0.4538 H   0  0  0  0  0  0  0  0  0  0  0  0
   -2.1155   -1.9963    0.7922 C   0  0  0  0  0  0  0  0  0  0  0  0
   -1.2875   -2.6383    1.4252 O   0  0  0  0  0  0  0  0  0  0  0  0
   -1.8575   -0.8123    0.2402 N   0  0  0  0  0  0  0  0  0  0  0  0
   -2.6005   -0.3333   -0.2478 H   0  0  0  0  0  0  0  0  0  0  0  0
   -0.5675   -0.1203    0.3102 C   0  0  1  0  0  0  0  0  0  0  0  0
    0.0191   -0.5718    1.1110 H   0  0  0  0  0  0  0  0  0  0  0  0
    0.1724   -0.3238   -1.0286 C   0  0  0  0  0  0  0  0  0  0  0  0
   -0.4679    0.0316   -1.8383 H   0  0  0  0  0  0  0  0  0  0  0  0
    1.0684    0.3006   -1.0172 H   0  0  0  0  0  0  0  0  0  0  0  0
    0.5995   -1.7690   -1.3446 C   0  0  0  0  0  0  0  0  0  0  0  0
   -0.2596   -2.4342   -1.2570 H   0  0  0  0  0  0  0  0  0  0  0  0
    1.1924   -1.9037   -2.7501 C   0  0  0  0  0  0  0  0  0  0  0  0
    2.0445   -1.2313   -2.8588 H   0  0  0  0  0  0  0  0  0  0  0  0
    1.5249   -2.9294   -2.9116 H   0  0  0  0  0  0  0  0  0  0  0  0
    0.4488   -1.6600   -3.5058 H   0  0  0  0  0  0  0  0  0  0  0  0
    1.6563   -2.2264   -0.3399 C   0  0  0  0  0  0  0  0  0  0  0  0
    1.2502   -2.1715    0.6701 H   0  0  0  0  0  0  0  0  0  0  0  0
    1.9402   -3.2587   -0.5445 H   0  0  0  0  0  0  0  0  0  0  0  0
    2.5394   -1.5900   -0.4078 H   0  0  0  0  0  0  0  0  0  0  0  0
   -0.7793    1.3659    0.6455 C   0  0  0  0  0  0  0  0  0  0  0  0
   -1.4374    2.0805   -0.1071 O   0  0  0  0  0  0  0  0  0  0  0  0
   -0.2133    1.8295    1.7673 N   0  0  0  0  0  0  0  0  0  0  0  0
    0.3064    1.1802    2.3359 H   0  0  0  0  0  0  0  0  0  0  0  0
   -0.3074    3.2171    2.2151 C   0  0  0  0  0  0  0  0  0  0  0  0
   -1.3561    3.4903    2.3515 H   0  0  0  0  0  0  0  0  0  0  0  0
    0.2236    3.3471    3.1593 H   0  0  0  0  0  0  0  0  0  0  0  0
    0.1273    3.8773    1.4628 H   0  0  0  0  0  0  0  0  0  0  0  0
  5  6  2  0  0  0  0
  5  7  1  0  0  0  0
  2  3  1  0  0  0  0
  2  4  1  0  0  0  0
  2  5  1  0  0  0  0
  1  2  1  0  0  0  0
 24 25  2  0  0  0  0
 24 26  1  0  0  0  0
 20 21  1  0  0  0  0
 20 22  1  0  0  0  0
 20 23  1  0  0  0  0
 16 17  1  0  0  0  0
 16 18  1  0  0  0  0
 16 19  1  0  0  0  0
 14 15  1  0  0  0  0
 14 16  1  0  0  0  0
 14 20  1  0  0  0  0
 11 12  1  0  0  0  0
 11 13  1  0  0  0  0
 11 14  1  0  0  0  0
  9 10  1  0  0  0  0
  9 11  1  0  0  0  0
  9 24  1  0  0  0  0
  7  8  1  0  0  0  0
  7  9  1  0  0  0  0
 28 29  1  0  0  0  0
 28 30  1  0  0  0  0
 28 31  1  0  0  0  0
 26 27  1  0  0  0  0
 26 28  1  0  0  0  0
M  END
$$$$
default_name
  -OEChem-01062215323D

 31 30  0     1  0  0  0  0  0999 V2000
   -3.5895   -3.5013    1.1082 H   0  0  0  0  0  0  0  0  0  0  0  0
   -3.5145   -2.5363    0.6082 C   0  0  0  0  0  0  0  0  0  0  0  0
   -4.2285   -1.8413    1.0452 H   0  0  0  0  0  0  0  0  0  0  0  0
   -3.7155   -2.6583   -0.4538 H   0  0  0  0  0  0  0  0  0  0  0  0
   -2.1155   -1.9963    0.7922 C   0  0  0  0  0  0  0  0  0  0  0  0
   -1.2875   -2.6383    1.4252 O   0  0  0  0  0  0  0  0  0  0  0  0
   -1.8575   -0.8123    0.2402 N   0  0  0  0  0  0  0  0  0  0  0  0
   -2.6005   -0.3333   -0.2478 H   0  0  0  0  0  0  0  0  0  0  0  0
   -0.5675   -0.1203    0.3102 C   0  0  1  0  0  0  0  0  0  0  0  0
    0.0191   -0.5718    1.1110 H   0  0  0  0  0  0  0  0  0  0  0  0
    0.1724   -0.3238   -1.0286 C   0  0  0  0  0  0  0  0  0  0  0  0
   -0.4679    0.0316   -1.8383 H   0  0  0  0  0  0  0  0  0  0  0  0
    1.0684    0.3006   -1.0172 H   0  0  0  0  0  0  0  0  0  0  0  0
    0.5995   -1.7690   -1.3446 C   0  0  0  0  0  0  0  0  0  0  0  0
   -0.2596   -2.4342   -1.2570 H   0  0  0  0  0  0  0  0  0  0  0  0
    1.1924   -1.9037   -2.7501 C   0  0  0  0  0  0  0  0  0  0  0  0
    2.0445   -1.2313   -2.8588 H   0  0  0  0  0  0  0  0  0  0  0  0
    1.5249   -2.9294   -2.9116 H   0  0  0  0  0  0  0  0  0  0  0  0
    0.4488   -1.6600   -3.5058 H   0  0  0  0  0  0  0  0  0  0  0  0
    1.6563   -2.2264   -0.3399 C   0  0  0  0  0  0  0  0  0  0  0  0
    1.2502   -2.1715    0.6701 H   0  0  0  0  0  0  0  0  0  0  0  0
    1.9402   -3.2587   -0.5445 H   0  0  0  0  0  0  0  0  0  0  0  0
    2.5394   -1.5900   -0.4078 H   0  0  0  0  0  0  0  0  0  0  0  0
   -0.7793    1.3659    0.6455 C   0  0  0  0  0  0  0  0  0  0  0  0
   -1.6464    2.0125    0.0623 O   0  0  0  0  0  0  0  0  0  0  0  0
    0.0189    1.9059    1.5756 N   0  0  0  0  0  0  0  0  0  0  0  0
    0.7024    1.3094    2.0137 H   0  0  0  0  0  0  0  0  0  0  0  0
   -0.0451    3.3046    1.9929 C   0  0  0  0  0  0  0  0  0  0  0  0
   -1.0415    3.5286    2.3805 H   0  0  0  0  0  0  0  0  0  0  0  0
    0.6954    3.5023    2.7695 H   0  0  0  0  0  0  0  0  0  0  0  0
    0.1474    3.9536    1.1372 H   0  0  0  0  0  0  0  0  0  0  0  0
  5  6  2  0  0  0  0
  5  7  1  0  0  0  0
  2  3  1  0  0  0  0
  2  4  1  0  0  0  0
  2  5  1  0  0  0  0
  1  2  1  0  0  0  0
 24 25  2  0  0  0  0
 24 26  1  0  0  0  0
 20 21  1  0  0  0  0
 20 22  1  0  0  0  0
 20 23  1  0  0  0  0
 16 17  1  0  0  0  0
 16 18  1  0  0  0  0
 16 19  1  0  0  0  0
 14 15  1  0  0  0  0
 14 16  1  0  0  0  0
 14 20  1  0  0  0  0
 11 12  1  0  0  0  0
 11 13  1  0  0  0  0
 11 14  1  0  0  0  0
  9 10  1  0  0  0  0
  9 11  1  0  0  0  0
  9 24  1  0  0  0  0
  7  8  1  0  0  0  0
  7  9  1  0  0  0  0
 28 29  1  0  0  0  0
 28 30  1  0  0  0  0
 28 31  1  0  0  0  0
 26 27  1  0  0  0  0
 26 28  1  0  0  0  0
M  END
$$$$
default_name
  -OEChem-01062215323D

 31 30  0     1  0  0  0  0  0999 V2000
   -3.5895   -3.5013    1.1082 H   0  0  0  0  0  0  0  0  0  0  0  0
   -3.5145   -2.5363    0.6082 C   0  0  0  0  0  0  0  0  0  0  0  0
   -4.2285   -1.8413    1.0452 H   0  0  0  0  0  0  0  0  0  0  0  0
   -3.7155   -2.6583   -0.4538 H   0  0  0  0  0  0  0  0  0  0  0  0
   -2.1155   -1.9963    0.7922 C   0  0  0  0  0  0  0  0  0  0  0  0
   -1.2875   -2.6383    1.4252 O   0  0  0  0  0  0  0  0  0  0  0  0
   -1.8575   -0.8123    0.2402 N   0  0  0  0  0  0  0  0  0  0  0  0
   -2.6005   -0.3333   -0.2478 H   0  0  0  0  0  0  0  0  0  0  0  0
   -0.5675   -0.1203    0.3102 C   0  0  1  0  0  0  0  0  0  0  0  0
    0.0191   -0.5718    1.1110 H   0  0  0  0  0  0  0  0  0  0  0  0
    0.1724   -0.3238   -1.0286 C   0  0  0  0  0  0  0  0  0  0  0  0
   -0.4679    0.0316   -1.8383 H   0  0  0  0  0  0  0  0  0  0  0  0
    1.0684    0.3006   -1.0172 H   0  0  0  0  0  0  0  0  0  0  0  0
    0.5995   -1.7690   -1.3446 C   0  0  0  0  0  0  0  0  0  0  0  0
   -0.2596   -2.4342   -1.2570 H   0  0  0  0  0  0  0  0  0  0  0  0
    1.1924   -1.9037   -2.7501 C   0  0  0  0  0  0  0  0  0  0  0  0
    2.0445   -1.2313   -2.8588 H   0  0  0  0  0  0  0  0  0  0  0  0
    1.5249   -2.9294   -2.9116 H   0  0  0  0  0  0  0  0  0  0  0  0
    0.4488   -1.6600   -3.5058 H   0  0  0  0  0  0  0  0  0  0  0  0
    1.6563   -2.2264   -0.3399 C   0  0  0  0  0  0  0  0  0  0  0  0
    1.2502   -2.1715    0.6701 H   0  0  0  0  0  0  0  0  0  0  0  0
    1.9402   -3.2587   -0.5445 H   0  0  0  0  0  0  0  0  0  0  0  0
    2.5394   -1.5900   -0.4078 H   0  0  0  0  0  0  0  0  0  0  0  0
   -0.7793    1.3659    0.6455 C   0  0  0  0  0  0  0  0  0  0  0  0
   -1.8020    1.9411    0.2805 O   0  0  0  0  0  0  0  0  0  0  0  0
    0.1909    1.9859    1.3296 N   0  0  0  0  0  0  0  0  0  0  0  0
    0.9971    1.4450    1.5989 H   0  0  0  0  0  0  0  0  0  0  0  0
    0.1478    3.3960    1.7097 C   0  0  0  0  0  0  0  0  0  0  0  0
   -0.7324    3.5844    2.3285 H   0  0  0  0  0  0  0  0  0  0  0  0
    1.0448    3.6649    2.2695 H   0  0  0  0  0  0  0  0  0  0  0  0
    0.0812    4.0169    0.8149 H   0  0  0  0  0  0  0  0  0  0  0  0
  5  6  2  0  0  0  0
  5  7  1  0  0  0  0
  2  3  1  0  0  0  0
  2  4  1  0  0  0  0
  2  5  1  0  0  0  0
  1  2  1  0  0  0  0
 24 25  2  0  0  0  0
 24 26  1  0  0  0  0
 20 21  1  0  0  0  0
 20 22  1  0  0  0  0
 20 23  1  0  0  0  0
 16 17  1  0  0  0  0
 16 18  1  0  0  0  0
 16 19  1  0  0  0  0
 14 15  1  0  0  0  0
 14 16  1  0  0  0  0
 14 20  1  0  0  0  0
 11 12  1  0  0  0  0
 11 13  1  0  0  0  0
 11 14  1  0  0  0  0
  9 10  1  0  0  0  0
  9 11  1  0  0  0  0
  9 24  1  0  0  0  0
  7  8  1  0  0  0  0
  7  9  1  0  0  0  0
 28 29  1  0  0  0  0
 28 30  1  0  0  0  0
 28 31  1  0  0  0  0
 26 27  1  0  0  0  0
 26 28  1  0  0  0  0
M  END
$$$$
default_name
  -OEChem-01062215323D

 31 30  0     1  0  0  0  0  0999 V2000
   -3.5895   -3.5013    1.1082 H   0  0  0  0  0  0  0  0  0  0  0  0
   -3.5145   -2.5363    0.6082 C   0  0  0  0  0  0  0  0  0  0  0  0
   -4.2285   -1.8413    1.0452 H   0  0  0  0  0  0  0  0  0  0  0  0
   -3.7155   -2.6583   -0.4538 H   0  0  0  0  0  0  0  0  0  0  0  0
   -2.1155   -1.9963    0.7922 C   0  0  0  0  0  0  0  0  0  0  0  0
   -1.2875   -2.6383    1.4252 O   0  0  0  0  0  0  0  0  0  0  0  0
   -1.8575   -0.8123    0.2402 N   0  0  0  0  0  0  0  0  0  0  0  0
   -2.6005   -0.3333   -0.2478 H   0  0  0  0  0  0  0  0  0  0  0  0
   -0.5675   -0.1203    0.3102 C   0  0  1  0  0  0  0  0  0  0  0  0
    0.0191   -0.5718    1.1110 H   0  0  0  0  0  0  0  0  0  0  0  0
    0.1724   -0.3238   -1.0286 C   0  0  0  0  0  0  0  0  0  0  0  0
   -0.4679    0.0316   -1.8383 H   0  0  0  0  0  0  0  0  0  0  0  0
    1.0684    0.3006   -1.0172 H   0  0  0  0  0  0  0  0  0  0  0  0
    0.5995   -1.7690   -1.3446 C   0  0  0  0  0  0  0  0  0  0  0  0
   -0.2596   -2.4342   -1.2570 H   0  0  0  0  0  0  0  0  0  0  0  0
    1.1924   -1.9037   -2.7501 C   0  0  0  0  0  0  0  0  0  0  0  0
    2.0445   -1.2313   -2.8588 H   0  0  0  0  0  0  0  0  0  0  0  0
    1.5249   -2.9294   -2.9116 H   0  0  0  0  0  0  0  0  0  0  0  0
    0.4488   -1.6600   -3.5058 H   0  0  0  0  0  0  0  0  0  0  0  0
    1.6563   -2.2264   -0.3399 C   0  0  0  0  0  0  0  0  0  0  0  0
    1.2502   -2.1715    0.6701 H   0  0  0  0  0  0  0  0  0  0  0  0
    1.9402   -3.2587   -0.5445 H   0  0  0  0  0  0  0  0  0  0  0  0
    2.5394   -1.5900   -0.4078 H   0  0  0  0  0  0  0  0  0  0  0  0
   -0.7793    1.3659    0.6455 C   0  0  0  0  0  0  0  0  0  0  0  0
   -1.8938    1.8711    0.5328 O   0  0  0  0  0  0  0  0  0  0  0  0
    0.2911    2.0641    1.0462 N   0  0  0  0  0  0  0  0  0  0  0  0
    1.1703    1.5778    1.1196 H   0  0  0  0  0  0  0  0  0  0  0  0
    0.2581    3.4851    1.3846 C   0  0  0  0  0  0  0  0  0  0  0  0
   -0.4501    3.6539    2.1990 H   0  0  0  0  0  0  0  0  0  0  0  0
    1.2482    3.8239    1.6933 H   0  0  0  0  0  0  0  0  0  0  0  0
   -0.0670    4.0628    0.5179 H   0  0  0  0  0  0  0  0  0  0  0  0
  5  6  2  0  0  0  0
  5  7  1  0  0  0  0
  2  3  1  0  0  0  0
  2  4  1  0  0  0  0
  2  5  1  0  0  0  0
  1  2  1  0  0  0  0
 24 25  2  0  0  0  0
 24 26  1  0  0  0  0
 20 21  1  0  0  0  0
 20 22  1  0  0  0  0
 20 23  1  0  0  0  0
 16 17  1  0  0  0  0
 16 18  1  0  0  0  0
 16 19  1  0  0  0  0
 14 15  1  0  0  0  0
 14 16  1  0  0  0  0
 14 20  1  0  0  0  0
 11 12  1  0  0  0  0
 11 13  1  0  0  0  0
 11 14  1  0  0  0  0
  9 10  1  0  0  0  0
  9 11  1  0  0  0  0
  9 24  1  0  0  0  0
  7  8  1  0  0  0  0
  7  9  1  0  0  0  0
 28 29  1  0  0  0  0
 28 30  1  0  0  0  0
 28 31  1  0  0  0  0
 26 27  1  0  0  0  0
 26 28  1  0  0  0  0
M  END
$$$$
default_name
  -OEChem-01062215323D

 31 30  0     1  0  0  0  0  0999 V2000
   -3.5895   -3.5013    1.1082 H   0  0  0  0  0  0  0  0  0  0  0  0
   -3.5145   -2.5363    0.6082 C   0  0  0  0  0  0  0  0  0  0  0  0
   -4.2285   -1.8413    1.0452 H   0  0  0  0  0  0  0  0  0  0  0  0
   -3.7155   -2.6583   -0.4538 H   0  0  0  0  0  0  0  0  0  0  0  0
   -2.1155   -1.9963    0.7922 C   0  0  0  0  0  0  0  0  0  0  0  0
   -1.2875   -2.6383    1.4252 O   0  0  0  0  0  0  0  0  0  0  0  0
   -1.8575   -0.8123    0.2402 N   0  0  0  0  0  0  0  0  0  0  0  0
   -2.6005   -0.3333   -0.2478 H   0  0  0  0  0  0  0  0  0  0  0  0
   -0.5675   -0.1203    0.3102 C   0  0  1  0  0  0  0  0  0  0  0  0
    0.1128   -0.7261    0.9097 H   0  0  0  0  0  0  0  0  0  0  0  0
    0.0008    0.0051   -1.1190 C   0  0  0  0  0  0  0  0  0  0  0  0
   -0.7340    0.5180   -1.7425 H   0  0  0  0  0  0  0  0  0  0  0  0
    0.8925    0.6342   -1.0734 H   0  0  0  0  0  0  0  0  0  0  0  0
    0.3830   -1.3187   -1.8061 C   0  0  0  0  0  0  0  0  0  0  0  0
   -0.4598   -2.0090   -1.7698 H   0  0  0  0  0  0  0  0  0  0  0  0
    0.7973   -1.1150   -3.2663 C   0  0  0  0  0  0  0  0  0  0  0  0
    1.6306   -0.4131   -3.3204 H   0  0  0  0  0  0  0  0  0  0  0  0
    1.1054   -2.0680   -3.6969 H   0  0  0  0  0  0  0  0  0  0  0  0
   -0.0336   -0.7259   -3.8507 H   0  0  0  0  0  0  0  0  0  0  0  0
    1.5551   -1.9640   -1.0678 C   0  0  0  0  0  0  0  0  0  0  0  0
    1.2771   -2.1507   -0.0306 H   0  0  0  0  0  0  0  0  0  0  0  0
    1.8096   -2.9150   -1.5357 H   0  0  0  0  0  0  0  0  0  0  0  0
    2.4241   -1.3057   -1.0946 H   0  0  0  0  0  0  0  0  0  0  0  0
   -0.7335    1.2448    0.9994 C   0  0  0  0  0  0  0  0  0  0  0  0
   -1.8408    1.6089    1.3886 O   0  0  0  0  0  0  0  0  0  0  0  0
    0.3635    2.0002    1.1391 N   0  0  0  0  0  0  0  0  0  0  0  0
    1.2368    1.6300    0.7996 H   0  0  0  0  0  0  0  0  0  0  0  0
    0.3686    3.3250    1.7554 C   0  0  0  0  0  0  0  0  0  0  0  0
   -0.0004    3.2558    2.7812 H   0  0  0  0  0  0  0  0  0  0  0  0
    1.3798    3.7346    1.7642 H   0  0  0  0  0  0  0  0  0  0  0  0
   -0.2870    3.9941    1.1960 H   0  0  0  0  0  0  0  0  0  0  0  0
  5  6  2  0  0  0  0
  5  7  1  0  0  0  0
  2  3  1  0  0  0  0
  2  4  1  0  0  0  0
  2  5  1  0  0  0  0
  1  2  1  0  0  0  0
 24 25  2  0  0  0  0
 24 26  1  0  0  0  0
 20 21  1  0  0  0  0
 20 22  1  0  0  0  0
 20 23  1  0  0  0  0
 16 17  1  0  0  0  0
 16 18  1  0  0  0  0
 16 19  1  0  0  0  0
 14 15  1  0  0  0  0
 14 16  1  0  0  0  0
 14 20  1  0  0  0  0
 11 12  1  0  0  0  0
 11 13  1  0  0  0  0
 11 14  1  0  0  0  0
  9 10  1  0  0  0  0
  9 11  1  0  0  0  0
  9 24  1  0  0  0  0
  7  8  1  0  0  0  0
  7  9  1  0  0  0  0
 28 29  1  0  0  0  0
 28 30  1  0  0  0  0
 28 31  1  0  0  0  0
 26 27  1  0  0  0  0
 26 28  1  0  0  0  0
M  END
$$$$
default_name
  -OEChem-01062215323D

 31 30  0     1  0  0  0  0  0999 V2000
   -3.5895   -3.5013    1.1082 H   0  0  0  0  0  0  0  0  0  0  0  0
   -3.5145   -2.5363    0.6082 C   0  0  0  0  0  0  0  0  0  0  0  0
   -4.2285   -1.8413    1.0452 H   0  0  0  0  0  0  0  0  0  0  0  0
   -3.7155   -2.6583   -0.4538 H   0  0  0  0  0  0  0  0  0  0  0  0
   -2.1155   -1.9963    0.7922 C   0  0  0  0  0  0  0  0  0  0  0  0
   -1.2875   -2.6383    1.4252 O   0  0  0  0  0  0  0  0  0  0  0  0
   -1.8575   -0.8123    0.2402 N   0  0  0  0  0  0  0  0  0  0  0  0
   -2.6005   -0.3333   -0.2478 H   0  0  0  0  0  0  0  0  0  0  0  0
   -0.5675   -0.1203    0.3102 C   0  0  1  0  0  0  0  0  0  0  0  0
    0.1128   -0.7261    0.9097 H   0  0  0  0  0  0  0  0  0  0  0  0
    0.0008    0.0051   -1.1190 C   0  0  0  0  0  0  0  0  0  0  0  0
   -0.7340    0.5180   -1.7425 H   0  0  0  0  0  0  0  0  0  0  0  0
    0.8925    0.6342   -1.0734 H   0  0  0  0  0  0  0  0  0  0  0  0
    0.3830   -1.3187   -1.8061 C   0  0  0  0  0  0  0  0  0  0  0  0
   -0.4598   -2.0090   -1.7698 H   0  0  0  0  0  0  0  0  0  0  0  0
    0.7973   -1.1150   -3.2663 C   0  0  0  0  0  0  0  0  0  0  0  0
    1.6306   -0.4131   -3.3204 H   0  0  0  0  0  0  0  0  0  0  0  0
    1.1054   -2.0680   -3.6969 H   0  0  0  0  0  0  0  0  0  0  0  0
   -0.0336   -0.7259   -3.8507 H   0  0  0  0  0  0  0  0  0  0  0  0
    1.5551   -1.9640   -1.0678 C   0  0  0  0  0  0  0  0  0  0  0  0
    1.2771   -2.1507   -0.0306 H   0  0  0  0  0  0  0  0  0  0  0  0
    1.8096   -2.9150   -1.5357 H   0  0  0  0  0  0  0  0  0  0  0  0
    2.4241   -1.3057   -1.0946 H   0  0  0  0  0  0  0  0  0  0  0  0
   -0.7335    1.2448    0.9994 C   0  0  0  0  0  0  0  0  0  0  0  0
   -1.7582    1.4976    1.6289 O   0  0  0  0  0  0  0  0  0  0  0  0
    0.2684    2.1242    0.8706 N   0  0  0  0  0  0  0  0  0  0  0  0
    1.0790    1.8410    0.3437 H   0  0  0  0  0  0  0  0  0  0  0  0
    0.2559    3.4655    1.4499 C   0  0  0  0  0  0  0  0  0  0  0  0
    0.1414    3.3978    2.5341 H   0  0  0  0  0  0  0  0  0  0  0  0
    1.1862    3.9865    1.2186 H   0  0  0  0  0  0  0  0  0  0  0  0
   -0.5850    4.0327    1.0478 H   0  0  0  0  0  0  0  0  0  0  0  0
  5  6  2  0  0  0  0
  5  7  1  0  0  0  0
  2  3  1  0  0  0  0
  2  4  1  0  0  0  0
  2  5  1  0  0  0  0
  1  2  1  0  0  0  0
 24 25  2  0  0  0  0
 24 26  1  0  0  0  0
 20 21  1  0  0  0  0
 20 22  1  0  0  0  0
 20 23  1  0  0  0  0
 16 17  1  0  0  0  0
 16 18  1  0  0  0  0
 16 19  1  0  0  0  0
 14 15  1  0  0  0  0
 14 16  1  0  0  0  0
 14 20  1  0  0  0  0
 11 12  1  0  0  0  0
 11 13  1  0  0  0  0
 11 14  1  0  0  0  0
  9 10  1  0  0  0  0
  9 11  1  0  0  0  0
  9 24  1  0  0  0  0
  7  8  1  0  0  0  0
  7  9  1  0  0  0  0
 28 29  1  0  0  0  0
 28 30  1  0  0  0  0
 28 31  1  0  0  0  0
 26 27  1  0  0  0  0
 26 28  1  0  0  0  0
M  END
$$$$
default_name
  -OEChem-01062215323D

 31 30  0     1  0  0  0  0  0999 V2000
   -3.5895   -3.5013    1.1082 H   0  0  0  0  0  0  0  0  0  0  0  0
   -3.5145   -2.5363    0.6082 C   0  0  0  0  0  0  0  0  0  0  0  0
   -4.2285   -1.8413    1.0452 H   0  0  0  0  0  0  0  0  0  0  0  0
   -3.7155   -2.6583   -0.4538 H   0  0  0  0  0  0  0  0  0  0  0  0
   -2.1155   -1.9963    0.7922 C   0  0  0  0  0  0  0  0  0  0  0  0
   -1.2875   -2.6383    1.4252 O   0  0  0  0  0  0  0  0  0  0  0  0
   -1.8575   -0.8123    0.2402 N   0  0  0  0  0  0  0  0  0  0  0  0
   -2.6005   -0.3333   -0.2478 H   0  0  0  0  0  0  0  0  0  0  0  0
   -0.5675   -0.1203    0.3102 C   0  0  1  0  0  0  0  0  0  0  0  0
    0.1128   -0.7261    0.9097 H   0  0  0  0  0  0  0  0  0  0  0  0
    0.0008    0.0051   -1.1190 C   0  0  0  0  0  0  0  0  0  0  0  0
   -0.7340    0.5180   -1.7425 H   0  0  0  0  0  0  0  0  0  0  0  0
    0.8925    0.6342   -1.0734 H   0  0  0  0  0  0  0  0  0  0  0  0
    0.3830   -1.3187   -1.8061 C   0  0  0  0  0  0  0  0  0  0  0  0
   -0.4598   -2.0090   -1.7698 H   0  0  0  0  0  0  0  0  0  0  0  0
    0.7973   -1.1150   -3.2663 C   0  0  0  0  0  0  0  0  0  0  0  0
    1.6306   -0.4131   -3.3204 H   0  0  0  0  0  0  0  0  0  0  0  0
    1.1054   -2.0680   -3.6969 H   0  0  0  0  0  0  0  0  0  0  0  0
   -0.0336   -0.7259   -3.8507 H   0  0  0  0  0  0  0  0  0  0  0  0
    1.5551   -1.9640   -1.0678 C   0  0  0  0  0  0  0  0  0  0  0  0
    1.2771   -2.1507   -0.0306 H   0  0  0  0  0  0  0  0  0  0  0  0
    1.8096   -2.9150   -1.5357 H   0  0  0  0  0  0  0  0  0  0  0  0
    2.4241   -1.3057   -1.0946 H   0  0  0  0  0  0  0  0  0  0  0  0
   -0.7335    1.2448    0.9994 C   0  0  0  0  0  0  0  0  0  0  0  0
   -1.6102    1.4064    1.8452 O   0  0  0  0  0  0  0  0  0  0  0  0
    0.1004    2.2254    0.6297 N   0  0  0  0  0  0  0  0  0  0  0  0
    0.7974    2.0137   -0.0663 H   0  0  0  0  0  0  0  0  0  0  0  0
    0.0605    3.5796    1.1768 C   0  0  0  0  0  0  0  0  0  0  0  0
    0.2052    3.5445    2.2589 H   0  0  0  0  0  0  0  0  0  0  0  0
    0.8446    4.1921    0.7291 H   0  0  0  0  0  0  0  0  0  0  0  0
   -0.9114    4.0313    0.9720 H   0  0  0  0  0  0  0  0  0  0  0  0
  5  6  2  0  0  0  0
  5  7  1  0  0  0  0
  2  3  1  0  0  0  0
  2  4  1  0  0  0  0
  2  5  1  0  0  0  0
  1  2  1  0  0  0  0
 24 25  2  0  0  0  0
 24 26  1  0  0  0  0
 20 21  1  0  0  0  0
 20 22  1  0  0  0  0
 20 23  1  0  0  0  0
 16 17  1  0  0  0  0
 16 18  1  0  0  0  0
 16 19  1  0  0  0  0
 14 15  1  0  0  0  0
 14 16  1  0  0  0  0
 14 20  1  0  0  0  0
 11 12  1  0  0  0  0
 11 13  1  0  0  0  0
 11 14  1  0  0  0  0
  9 10  1  0  0  0  0
  9 11  1  0  0  0  0
  9 24  1  0  0  0  0
  7  8  1  0  0  0  0
  7  9  1  0  0  0  0
 28 29  1  0  0  0  0
 28 30  1  0  0  0  0
 28 31  1  0  0  0  0
 26 27  1  0  0  0  0
 26 28  1  0  0  0  0
M  END
$$$$
default_name
  -OEChem-01062215323D

 31 30  0     1  0  0  0  0  0999 V2000
   -3.5895   -3.5013    1.1082 H   0  0  0  0  0  0  0  0  0  0  0  0
   -3.5145   -2.5363    0.6082 C   0  0  0  0  0  0  0  0  0  0  0  0
   -4.2285   -1.8413    1.0452 H   0  0  0  0  0  0  0  0  0  0  0  0
   -3.7155   -2.6583   -0.4538 H   0  0  0  0  0  0  0  0  0  0  0  0
   -2.1155   -1.9963    0.7922 C   0  0  0  0  0  0  0  0  0  0  0  0
   -1.2875   -2.6383    1.4252 O   0  0  0  0  0  0  0  0  0  0  0  0
   -1.8575   -0.8123    0.2402 N   0  0  0  0  0  0  0  0  0  0  0  0
   -2.6005   -0.3333   -0.2478 H   0  0  0  0  0  0  0  0  0  0  0  0
   -0.5675   -0.1203    0.3102 C   0  0  1  0  0  0  0  0  0  0  0  0
    0.1128   -0.7261    0.9097 H   0  0  0  0  0  0  0  0  0  0  0  0
    0.0008    0.0051   -1.1190 C   0  0  0  0  0  0  0  0  0  0  0  0
   -0.7340    0.5180   -1.7425 H   0  0  0  0  0  0  0  0  0  0  0  0
    0.8925    0.6342   -1.0734 H   0  0  0  0  0  0  0  0  0  0  0  0
    0.3830   -1.3187   -1.8061 C   0  0  0  0  0  0  0  0  0  0  0  0
   -0.4598   -2.0090   -1.7698 H   0  0  0  0  0  0  0  0  0  0  0  0
    0.7973   -1.1150   -3.2663 C   0  0  0  0  0  0  0  0  0  0  0  0
    1.6306   -0.4131   -3.3204 H   0  0  0  0  0  0  0  0  0  0  0  0
    1.1054   -2.0680   -3.6969 H   0  0  0  0  0  0  0  0  0  0  0  0
   -0.0336   -0.7259   -3.8507 H   0  0  0  0  0  0  0  0  0  0  0  0
    1.5551   -1.9640   -1.0678 C   0  0  0  0  0  0  0  0  0  0  0  0
    1.2771   -2.1507   -0.0306 H   0  0  0  0  0  0  0  0  0  0  0  0
    1.8096   -2.9150   -1.5357 H   0  0  0  0  0  0  0  0  0  0  0  0
    2.4241   -1.3057   -1.0946 H   0  0  0  0  0  0  0  0  0  0  0  0
   -0.7335    1.2448    0.9994 C   0  0  0  0  0  0  0  0  0  0  0  0
   -1.4071    1.3415    2.0226 O   0  0  0  0  0  0  0  0  0  0  0  0
   -0.1289    2.2970    0.4327 N   0  0  0  0  0  0  0  0  0  0  0  0
    0.4111    2.1365   -0.4025 H   0  0  0  0  0  0  0  0  0  0  0  0
   -0.2041    3.6596    0.9547 C   0  0  0  0  0  0  0  0  0  0  0  0
    0.1867    3.6860    1.9744 H   0  0  0  0  0  0  0  0  0  0  0  0
    0.3784    4.3374    0.3289 H   0  0  0  0  0  0  0  0  0  0  0  0
   -1.2439    3.9899    0.9737 H   0  0  0  0  0  0  0  0  0  0  0  0
  5  6  2  0  0  0  0
  5  7  1  0  0  0  0
  2  3  1  0  0  0  0
  2  4  1  0  0  0  0
  2  5  1  0  0  0  0
  1  2  1  0  0  0  0
 24 25  2  0  0  0  0
 24 26  1  0  0  0  0
 20 21  1  0  0  0  0
 20 22  1  0  0  0  0
 20 23  1  0  0  0  0
 16 17  1  0  0  0  0
 16 18  1  0  0  0  0
 16 19  1  0  0  0  0
 14 15  1  0  0  0  0
 14 16  1  0  0  0  0
 14 20  1  0  0  0  0
 11 12  1  0  0  0  0
 11 13  1  0  0  0  0
 11 14  1  0  0  0  0
  9 10  1  0  0  0  0
  9 11  1  0  0  0  0
  9 24  1  0  0  0  0
  7  8  1  0  0  0  0
  7  9  1  0  0  0  0
 28 29  1  0  0  0  0
 28 30  1  0  0  0  0
 28 31  1  0  0  0  0
 26 27  1  0  0  0  0
 26 28  1  0  0  0  0
M  END
$$$$
default_name
  -OEChem-01062215323D

 31 30  0     1  0  0  0  0  0999 V2000
   -3.5895   -3.5013    1.1082 H   0  0  0  0  0  0  0  0  0  0  0  0
   -3.5145   -2.5363    0.6082 C   0  0  0  0  0  0  0  0  0  0  0  0
   -4.2285   -1.8413    1.0452 H   0  0  0  0  0  0  0  0  0  0  0  0
   -3.7155   -2.6583   -0.4538 H   0  0  0  0  0  0  0  0  0  0  0  0
   -2.1155   -1.9963    0.7922 C   0  0  0  0  0  0  0  0  0  0  0  0
   -1.2875   -2.6383    1.4252 O   0  0  0  0  0  0  0  0  0  0  0  0
   -1.8575   -0.8123    0.2402 N   0  0  0  0  0  0  0  0  0  0  0  0
   -2.6005   -0.3333   -0.2478 H   0  0  0  0  0  0  0  0  0  0  0  0
   -0.5675   -0.1203    0.3102 C   0  0  1  0  0  0  0  0  0  0  0  0
    0.1128   -0.7261    0.9097 H   0  0  0  0  0  0  0  0  0  0  0  0
    0.0008    0.0051   -1.1190 C   0  0  0  0  0  0  0  0  0  0  0  0
   -0.7340    0.5180   -1.7425 H   0  0  0  0  0  0  0  0  0  0  0  0
    0.8925    0.6342   -1.0734 H   0  0  0  0  0  0  0  0  0  0  0  0
    0.3830   -1.3187   -1.8061 C   0  0  0  0  0  0  0  0  0  0  0  0
   -0.4598   -2.0090   -1.7698 H   0  0  0  0  0  0  0  0  0  0  0  0
    0.7973   -1.1150   -3.2663 C   0  0  0  0  0  0  0  0  0  0  0  0
    1.6306   -0.4131   -3.3204 H   0  0  0  0  0  0  0  0  0  0  0  0
    1.1054   -2.0680   -3.6969 H   0  0  0  0  0  0  0  0  0  0  0  0
   -0.0336   -0.7259   -3.8507 H   0  0  0  0  0  0  0  0  0  0  0  0
    1.5551   -1.9640   -1.0678 C   0  0  0  0  0  0  0  0  0  0  0  0
    1.2771   -2.1507   -0.0306 H   0  0  0  0  0  0  0  0  0  0  0  0
    1.8096   -2.9150   -1.5357 H   0  0  0  0  0  0  0  0  0  0  0  0
    2.4241   -1.3057   -1.0946 H   0  0  0  0  0  0  0  0  0  0  0  0
   -0.7335    1.2448    0.9994 C   0  0  0  0  0  0  0  0  0  0  0  0
   -1.1626    1.3073    2.1492 O   0  0  0  0  0  0  0  0  0  0  0  0
   -0.4039    2.3340    0.2931 N   0  0  0  0  0  0  0  0  0  0  0  0
   -0.0534    2.2009   -0.6420 H   0  0  0  0  0  0  0  0  0  0  0  0
   -0.5201    3.6999    0.7987 C   0  0  0  0  0  0  0  0  0  0  0  0
    0.0869    3.8124    1.6998 H   0  0  0  0  0  0  0  0  0  0  0  0
   -0.1807    4.4126    0.0454 H   0  0  0  0  0  0  0  0  0  0  0  0
   -1.5599    3.9115    1.0530 H   0  0  0  0  0  0  0  0  0  0  0  0
  5  6  2  0  0  0  0
  5  7  1  0  0  0  0
  2  3  1  0  0  0  0
  2  4  1  0  0  0  0
  2  5  1  0  0  0  0
  1  2  1  0  0  0  0
 24 25  2  0  0  0  0
 24 26  1  0  0  0  0
 20 21  1  0  0  0  0
 20 22  1  0  0  0  0
 20 23  1  0  0  0  0
 16 17  1  0  0  0  0
 16 18  1  0  0  0  0
 16 19  1  0  0  0  0
 14 15  1  0  0  0  0
 14 16  1  0  0  0  0
 14 20  1  0  0  0  0
 11 12  1  0  0  0  0
 11 13  1  0  0  0  0
 11 14  1  0  0  0  0
  9 10  1  0  0  0  0
  9 11  1  0  0  0  0
  9 24  1  0  0  0  0
  7  8  1  0  0  0  0
  7  9  1  0  0  0  0
 28 29  1  0  0  0  0
 28 30  1  0  0  0  0
 28 31  1  0  0  0  0
 26 27  1  0  0  0  0
 26 28  1  0  0  0  0
M  END
$$$$
default_name
  -OEChem-01062215323D

 31 30  0     1  0  0  0  0  0999 V2000
   -3.5895   -3.5013    1.1082 H   0  0  0  0  0  0  0  0  0  0  0  0
   -3.5145   -2.5363    0.6082 C   0  0  0  0  0  0  0  0  0  0  0  0
   -4.2285   -1.8413    1.0452 H   0  0  0  0  0  0  0  0  0  0  0  0
   -3.7155   -2.6583   -0.4538 H   0  0  0  0  0  0  0  0  0  0  0  0
   -2.1155   -1.9963    0.7922 C   0  0  0  0  0  0  0  0  0  0  0  0
   -1.2875   -2.6383    1.4252 O   0  0  0  0  0  0  0  0  0  0  0  0
   -1.8575   -0.8123    0.2402 N   0  0  0  0  0  0  0  0  0  0  0  0
   -2.6005   -0.3333   -0.2478 H   0  0  0  0  0  0  0  0  0  0  0  0
   -0.5675   -0.1203    0.3102 C   0  0  1  0  0  0  0  0  0  0  0  0
    0.1128   -0.7261    0.9097 H   0  0  0  0  0  0  0  0  0  0  0  0
    0.0008    0.0051   -1.1190 C   0  0  0  0  0  0  0  0  0  0  0  0
   -0.7340    0.5180   -1.7425 H   0  0  0  0  0  0  0  0  0  0  0  0
    0.8925    0.6342   -1.0734 H   0  0  0  0  0  0  0  0  0  0  0  0
    0.3830   -1.3187   -1.8061 C   0  0  0  0  0  0  0  0  0  0  0  0
   -0.4598   -2.0090   -1.7698 H   0  0  0  0  0  0  0  0  0  0  0  0
    0.7973   -1.1150   -3.2663 C   0  0  0  0  0  0  0  0  0  0  0  0
    1.6306   -0.4131   -3.3204 H   0  0  0  0  0  0  0  0  0  0  0  0
    1.1054   -2.0680   -3.6969 H   0  0  0  0  0  0  0  0  0  0  0  0
   -0.0336   -0.7259   -3.8507 H   0  0  0  0  0  0  0  0  0  0  0  0
    1.5551   -1.9640   -1.0678 C   0  0  0  0  0  0  0  0  0  0  0  0
    1.2771   -2.1507   -0.0306 H   0  0  0  0  0  0  0  0  0  0  0  0
    1.8096   -2.9150   -1.5357 H   0  0  0  0  0  0  0  0  0  0  0  0
    2.4241   -1.3057   -1.0946 H   0  0  0  0  0  0  0  0  0  0  0  0
   -0.7335    1.2448    0.9994 C   0  0  0  0  0  0  0  0  0  0  0  0
   -0.8934    1.3062    2.2163 O   0  0  0  0  0  0  0  0  0  0  0  0
   -0.7060    2.3339    0.2204 N   0  0  0  0  0  0  0  0  0  0  0  0
   -0.5646    2.2025   -0.7684 H   0  0  0  0  0  0  0  0  0  0  0  0
   -0.8658    3.6979    0.7194 C   0  0  0  0  0  0  0  0  0  0  0  0
   -0.0871    3.9154    1.4540 H   0  0  0  0  0  0  0  0  0  0  0  0
   -0.7945    4.4124   -0.1021 H   0  0  0  0  0  0  0  0  0  0  0  0
   -1.8378    3.8013    1.2043 H   0  0  0  0  0  0  0  0  0  0  0  0
  5  6  2  0  0  0  0
  5  7  1  0  0  0  0
  2  3  1  0  0  0  0
  2  4  1  0  0  0  0
  2  5  1  0  0  0  0
  1  2  1  0  0  0  0
 24 25  2  0  0  0  0
 24 26  1  0  0  0  0
 20 21  1  0  0  0  0
 20 22  1  0  0  0  0
 20 23  1  0  0  0  0
 16 17  1  0  0  0  0
 16 18  1  0  0  0  0
 16 19  1  0  0  0  0
 14 15  1  0  0  0  0
 14 16  1  0  0  0  0
 14 20  1  0  0  0  0
 11 12  1  0  0  0  0
 11 13  1  0  0  0  0
 11 14  1  0  0  0  0
  9 10  1  0  0  0  0
  9 11  1  0  0  0  0
  9 24  1  0  0  0  0
  7  8  1  0  0  0  0
  7  9  1  0  0  0  0
 28 29  1  0  0  0  0
 28 30  1  0  0  0  0
 28 31  1  0  0  0  0
 26 27  1  0  0  0  0
 26 28  1  0  0  0  0
M  END
$$$$
default_name
  -OEChem-01062215323D

 31 30  0     1  0  0  0  0  0999 V2000
   -3.5895   -3.5013    1.1082 H   0  0  0  0  0  0  0  0  0  0  0  0
   -3.5145   -2.5363    0.6082 C   0  0  0  0  0  0  0  0  0  0  0  0
   -4.2285   -1.8413    1.0452 H   0  0  0  0  0  0  0  0  0  0  0  0
   -3.7155   -2.6583   -0.4538 H   0  0  0  0  0  0  0  0  0  0  0  0
   -2.1155   -1.9963    0.7922 C   0  0  0  0  0  0  0  0  0  0  0  0
   -1.2875   -2.6383    1.4252 O   0  0  0  0  0  0  0  0  0  0  0  0
   -1.8575   -0.8123    0.2402 N   0  0  0  0  0  0  0  0  0  0  0  0
   -2.6005   -0.3333   -0.2478 H   0  0  0  0  0  0  0  0  0  0  0  0
   -0.5675   -0.1203    0.3102 C   0  0  1  0  0  0  0  0  0  0  0  0
    0.1128   -0.7261    0.9097 H   0  0  0  0  0  0  0  0  0  0  0  0
    0.0008    0.0051   -1.1190 C   0  0  0  0  0  0  0  0  0  0  0  0
   -0.7340    0.5180   -1.7425 H   0  0  0  0  0  0  0  0  0  0  0  0
    0.8925    0.6342   -1.0734 H   0  0  0  0  0  0  0  0  0  0  0  0
    0.3830   -1.3187   -1.8061 C   0  0  0  0  0  0  0  0  0  0  0  0
   -0.4598   -2.0090   -1.7698 H   0  0  0  0  0  0  0  0  0  0  0  0
    0.7973   -1.1150   -3.2663 C   0  0  0  0  0  0  0  0  0  0  0  0
    1.6306   -0.4131   -3.3204 H   0  0  0  0  0  0  0  0  0  0  0  0
    1.1054   -2.0680   -3.6969 H   0  0  0  0  0  0  0  0  0  0  0  0
   -0.0336   -0.7259   -3.8507 H   0  0  0  0  0  0  0  0  0  0  0  0
    1.5551   -1.9640   -1.0678 C   0  0  0  0  0  0  0  0  0  0  0  0
    1.2771   -2.1507   -0.0306 H   0  0  0  0  0  0  0  0  0  0  0  0
    1.8096   -2.9150   -1.5357 H   0  0  0  0  0  0  0  0  0  0  0  0
    2.4241   -1.3057   -1.0946 H   0  0  0  0  0  0  0  0  0  0  0  0
   -0.7335    1.2448    0.9994 C   0  0  0  0  0  0  0  0  0  0  0  0
   -0.6179    1.3383    2.2192 O   0  0  0  0  0  0  0  0  0  0  0  0
   -1.0144    2.2969    0.2196 N   0  0  0  0  0  0  0  0  0  0  0  0
   -1.0876    2.1413   -0.7731 H   0  0  0  0  0  0  0  0  0  0  0  0
   -1.2177    3.6536    0.7223 C   0  0  0  0  0  0  0  0  0  0  0  0
   -0.3237    3.9878    1.2536 H   0  0  0  0  0  0  0  0  0  0  0  0
   -1.4213    4.3369   -0.1035 H   0  0  0  0  0  0  0  0  0  0  0  0
   -2.0587    3.6668    1.4174 H   0  0  0  0  0  0  0  0  0  0  0  0
  5  6  2  0  0  0  0
  5  7  1  0  0  0  0
  2  3  1  0  0  0  0
  2  4  1  0  0  0  0
  2  5  1  0  0  0  0
  1  2  1  0  0  0  0
 24 25  2  0  0  0  0
 24 26  1  0  0  0  0
 20 21  1  0  0  0  0
 20 22  1  0  0  0  0
 20 23  1  0  0  0  0
 16 17  1  0  0  0  0
 16 18  1  0  0  0  0
 16 19  1  0  0  0  0
 14 15  1  0  0  0  0
 14 16  1  0  0  0  0
 14 20  1  0  0  0  0
 11 12  1  0  0  0  0
 11 13  1  0  0  0  0
 11 14  1  0  0  0  0
  9 10  1  0  0  0  0
  9 11  1  0  0  0  0
  9 24  1  0  0  0  0
  7  8  1  0  0  0  0
  7  9  1  0  0  0  0
 28 29  1  0  0  0  0
 28 30  1  0  0  0  0
 28 31  1  0  0  0  0
 26 27  1  0  0  0  0
 26 28  1  0  0  0  0
M  END
$$$$
default_name
  -OEChem-01062215323D

 31 30  0     1  0  0  0  0  0999 V2000
   -3.5895   -3.5013    1.1082 H   0  0  0  0  0  0  0  0  0  0  0  0
   -3.5145   -2.5363    0.6082 C   0  0  0  0  0  0  0  0  0  0  0  0
   -4.2285   -1.8413    1.0452 H   0  0  0  0  0  0  0  0  0  0  0  0
   -3.7155   -2.6583   -0.4538 H   0  0  0  0  0  0  0  0  0  0  0  0
   -2.1155   -1.9963    0.7922 C   0  0  0  0  0  0  0  0  0  0  0  0
   -1.2875   -2.6383    1.4252 O   0  0  0  0  0  0  0  0  0  0  0  0
   -1.8575   -0.8123    0.2402 N   0  0  0  0  0  0  0  0  0  0  0  0
   -2.6005   -0.3333   -0.2478 H   0  0  0  0  0  0  0  0  0  0  0  0
   -0.5675   -0.1203    0.3102 C   0  0  1  0  0  0  0  0  0  0  0  0
    0.1128   -0.7261    0.9097 H   0  0  0  0  0  0  0  0  0  0  0  0
    0.0008    0.0051   -1.1190 C   0  0  0  0  0  0  0  0  0  0  0  0
   -0.7340    0.5180   -1.7425 H   0  0  0  0  0  0  0  0  0  0  0  0
    0.8925    0.6342   -1.0734 H   0  0  0  0  0  0  0  0  0  0  0  0
    0.3830   -1.3187   -1.8061 C   0  0  0  0  0  0  0  0  0  0  0  0
   -0.4598   -2.0090   -1.7698 H   0  0  0  0  0  0  0  0  0  0  0  0
    0.7973   -1.1150   -3.2663 C   0  0  0  0  0  0  0  0  0  0  0  0
    1.6306   -0.4131   -3.3204 H   0  0  0  0  0  0  0  0  0  0  0  0
    1.1054   -2.0680   -3.6969 H   0  0  0  0  0  0  0  0  0  0  0  0
   -0.0336   -0.7259   -3.8507 H   0  0  0  0  0  0  0  0  0  0  0  0
    1.5551   -1.9640   -1.0678 C   0  0  0  0  0  0  0  0  0  0  0  0
    1.2771   -2.1507   -0.0306 H   0  0  0  0  0  0  0  0  0  0  0  0
    1.8096   -2.9150   -1.5357 H   0  0  0  0  0  0  0  0  0  0  0  0
    2.4241   -1.3057   -1.0946 H   0  0  0  0  0  0  0  0  0  0  0  0
   -0.7335    1.2448    0.9994 C   0  0  0  0  0  0  0  0  0  0  0  0
   -0.3547    1.4012    2.1579 O   0  0  0  0  0  0  0  0  0  0  0  0
   -1.3082    2.2252    0.2907 N   0  0  0  0  0  0  0  0  0  0  0  0
   -1.5868    2.0213   -0.6558 H   0  0  0  0  0  0  0  0  0  0  0  0
   -1.5517    3.5701    0.8072 C   0  0  0  0  0  0  0  0  0  0  0  0
   -0.6065    4.0247    1.1124 H   0  0  0  0  0  0  0  0  0  0  0  0
   -2.0184    4.1912    0.0411 H   0  0  0  0  0  0  0  0  0  0  0  0
   -2.2075    3.5173    1.6777 H   0  0  0  0  0  0  0  0  0  0  0  0
  5  6  2  0  0  0  0
  5  7  1  0  0  0  0
  2  3  1  0  0  0  0
  2  4  1  0  0  0  0
  2  5  1  0  0  0  0
  1  2  1  0  0  0  0
 24 25  2  0  0  0  0
 24 26  1  0  0  0  0
 20 21  1  0  0  0  0
 20 22  1  0  0  0  0
 20 23  1  0  0  0  0
 16 17  1  0  0  0  0
 16 18  1  0  0  0  0
 16 19  1  0  0  0  0
 14 15  1  0  0  0  0
 14 16  1  0  0  0  0
 14 20  1  0  0  0  0
 11 12  1  0  0  0  0
 11 13  1  0  0  0  0
 11 14  1  0  0  0  0
  9 10  1  0  0  0  0
  9 11  1  0  0  0  0
  9 24  1  0  0  0  0
  7  8  1  0  0  0  0
  7  9  1  0  0  0  0
 28 29  1  0  0  0  0
 28 30  1  0  0  0  0
 28 31  1  0  0  0  0
 26 27  1  0  0  0  0
 26 28  1  0  0  0  0
M  END
$$$$
default_name
  -OEChem-01062215323D

 31 30  0     1  0  0  0  0  0999 V2000
   -3.5895   -3.5013    1.1082 H   0  0  0  0  0  0  0  0  0  0  0  0
   -3.5145   -2.5363    0.6082 C   0  0  0  0  0  0  0  0  0  0  0  0
   -4.2285   -1.8413    1.0452 H   0  0  0  0  0  0  0  0  0  0  0  0
   -3.7155   -2.6583   -0.4538 H   0  0  0  0  0  0  0  0  0  0  0  0
   -2.1155   -1.9963    0.7922 C   0  0  0  0  0  0  0  0  0  0  0  0
   -1.2875   -2.6383    1.4252 O   0  0  0  0  0  0  0  0  0  0  0  0
   -1.8575   -0.8123    0.2402 N   0  0  0  0  0  0  0  0  0  0  0  0
   -2.6005   -0.3333   -0.2478 H   0  0  0  0  0  0  0  0  0  0  0  0
   -0.5675   -0.1203    0.3102 C   0  0  1  0  0  0  0  0  0  0  0  0
    0.1128   -0.7261    0.9097 H   0  0  0  0  0  0  0  0  0  0  0  0
    0.0008    0.0051   -1.1190 C   0  0  0  0  0  0  0  0  0  0  0  0
   -0.7340    0.5180   -1.7425 H   0  0  0  0  0  0  0  0  0  0  0  0
    0.8925    0.6342   -1.0734 H   0  0  0  0  0  0  0  0  0  0  0  0
    0.3830   -1.3187   -1.8061 C   0  0  0  0  0  0  0  0  0  0  0  0
   -0.4598   -2.0090   -1.7698 H   0  0  0  0  0  0  0  0  0  0  0  0
    0.7973   -1.1150   -3.2663 C   0  0  0  0  0  0  0  0  0  0  0  0
    1.6306   -0.4131   -3.3204 H   0  0  0  0  0  0  0  0  0  0  0  0
    1.1054   -2.0680   -3.6969 H   0  0  0  0  0  0  0  0  0  0  0  0
   -0.0336   -0.7259   -3.8507 H   0  0  0  0  0  0  0  0  0  0  0  0
    1.5551   -1.9640   -1.0678 C   0  0  0  0  0  0  0  0  0  0  0  0
    1.2771   -2.1507   -0.0306 H   0  0  0  0  0  0  0  0  0  0  0  0
    1.8096   -2.9150   -1.5357 H   0  0  0  0  0  0  0  0  0  0  0  0
    2.4241   -1.3057   -1.0946 H   0  0  0  0  0  0  0  0  0  0  0  0
   -0.7335    1.2448    0.9994 C   0  0  0  0  0  0  0  0  0  0  0  0
   -0.1219    1.4909    2.0365 O   0  0  0  0  0  0  0  0  0  0  0  0
   -1.5674    2.1240    0.4288 N   0  0  0  0  0  0  0  0  0  0  0  0
   -2.0281    1.8508   -0.4245 H   0  0  0  0  0  0  0  0  0  0  0  0
   -1.8453    3.4531    0.9683 C   0  0  0  0  0  0  0  0  0  0  0  0
   -0.9165    4.0235    1.0399 H   0  0  0  0  0  0  0  0  0  0  0  0
   -2.5449    3.9853    0.3220 H   0  0  0  0  0  0  0  0  0  0  0  0
   -2.2741    3.3628    1.9675 H   0  0  0  0  0  0  0  0  0  0  0  0
  5  6  2  0  0  0  0
  5  7  1  0  0  0  0
  2  3  1  0  0  0  0
  2  4  1  0  0  0  0
  2  5  1  0  0  0  0
  1  2  1  0  0  0  0
 24 25  2  0  0  0  0
 24 26  1  0  0  0  0
 20 21  1  0  0  0  0
 20 22  1  0  0  0  0
 20 23  1  0  0  0  0
 16 17  1  0  0  0  0
 16 18  1  0  0  0  0
 16 19  1  0  0  0  0
 14 15  1  0  0  0  0
 14 16  1  0  0  0  0
 14 20  1  0  0  0  0
 11 12  1  0  0  0  0
 11 13  1  0  0  0  0
 11 14  1  0  0  0  0
  9 10  1  0  0  0  0
  9 11  1  0  0  0  0
  9 24  1  0  0  0  0
  7  8  1  0  0  0  0
  7  9  1  0  0  0  0
 28 29  1  0  0  0  0
 28 30  1  0  0  0  0
 28 31  1  0  0  0  0
 26 27  1  0  0  0  0
 26 28  1  0  0  0  0
M  END
$$$$
default_name
  -OEChem-01062215323D

 31 30  0     1  0  0  0  0  0999 V2000
   -3.5895   -3.5013    1.1082 H   0  0  0  0  0  0  0  0  0  0  0  0
   -3.5145   -2.5363    0.6082 C   0  0  0  0  0  0  0  0  0  0  0  0
   -4.2285   -1.8413    1.0452 H   0  0  0  0  0  0  0  0  0  0  0  0
   -3.7155   -2.6583   -0.4538 H   0  0  0  0  0  0  0  0  0  0  0  0
   -2.1155   -1.9963    0.7922 C   0  0  0  0  0  0  0  0  0  0  0  0
   -1.2875   -2.6383    1.4252 O   0  0  0  0  0  0  0  0  0  0  0  0
   -1.8575   -0.8123    0.2402 N   0  0  0  0  0  0  0  0  0  0  0  0
   -2.6005   -0.3333   -0.2478 H   0  0  0  0  0  0  0  0  0  0  0  0
   -0.5675   -0.1203    0.3102 C   0  0  1  0  0  0  0  0  0  0  0  0
    0.1128   -0.7261    0.9097 H   0  0  0  0  0  0  0  0  0  0  0  0
    0.0008    0.0051   -1.1190 C   0  0  0  0  0  0  0  0  0  0  0  0
   -0.7340    0.5180   -1.7425 H   0  0  0  0  0  0  0  0  0  0  0  0
    0.8925    0.6342   -1.0734 H   0  0  0  0  0  0  0  0  0  0  0  0
    0.3830   -1.3187   -1.8061 C   0  0  0  0  0  0  0  0  0  0  0  0
   -0.4598   -2.0090   -1.7698 H   0  0  0  0  0  0  0  0  0  0  0  0
    0.7973   -1.1150   -3.2663 C   0  0  0  0  0  0  0  0  0  0  0  0
    1.6306   -0.4131   -3.3204 H   0  0  0  0  0  0  0  0  0  0  0  0
    1.1054   -2.0680   -3.6969 H   0  0  0  0  0  0  0  0  0  0  0  0
   -0.0336   -0.7259   -3.8507 H   0  0  0  0  0  0  0  0  0  0  0  0
    1.5551   -1.9640   -1.0678 C   0  0  0  0  0  0  0  0  0  0  0  0
    1.2771   -2.1507   -0.0306 H   0  0  0  0  0  0  0  0  0  0  0  0
    1.8096   -2.9150   -1.5357 H   0  0  0  0  0  0  0  0  0  0  0  0
    2.4241   -1.3057   -1.0946 H   0  0  0  0  0  0  0  0  0  0  0  0
   -0.7335    1.2448    0.9994 C   0  0  0  0  0  0  0  0  0  0  0  0
    0.0646    1.6010    1.8632 O   0  0  0  0  0  0  0  0  0  0  0  0
   -1.7742    1.9999    0.6246 N   0  0  0  0  0  0  0  0  0  0  0  0
   -2.3815    1.6415   -0.0949 H   0  0  0  0  0  0  0  0  0  0  0  0
   -2.0782    3.3105    1.1945 C   0  0  0  0  0  0  0  0  0  0  0  0
   -1.2324    3.9845    1.0412 H   0  0  0  0  0  0  0  0  0  0  0  0
   -2.9652    3.7332    0.7201 H   0  0  0  0  0  0  0  0  0  0  0  0
   -2.2540    3.2141    2.2671 H   0  0  0  0  0  0  0  0  0  0  0  0
  5  6  2  0  0  0  0
  5  7  1  0  0  0  0
  2  3  1  0  0  0  0
  2  4  1  0  0  0  0
  2  5  1  0  0  0  0
  1  2  1  0  0  0  0
 24 25  2  0  0  0  0
 24 26  1  0  0  0  0
 20 21  1  0  0  0  0
 20 22  1  0  0  0  0
 20 23  1  0  0  0  0
 16 17  1  0  0  0  0
 16 18  1  0  0  0  0
 16 19  1  0  0  0  0
 14 15  1  0  0  0  0
 14 16  1  0  0  0  0
 14 20  1  0  0  0  0
 11 12  1  0  0  0  0
 11 13  1  0  0  0  0
 11 14  1  0  0  0  0
  9 10  1  0  0  0  0
  9 11  1  0  0  0  0
  9 24  1  0  0  0  0
  7  8  1  0  0  0  0
  7  9  1  0  0  0  0
 28 29  1  0  0  0  0
 28 30  1  0  0  0  0
 28 31  1  0  0  0  0
 26 27  1  0  0  0  0
 26 28  1  0  0  0  0
M  END
$$$$
default_name
  -OEChem-01062215323D

 31 30  0     1  0  0  0  0  0999 V2000
   -3.5895   -3.5013    1.1082 H   0  0  0  0  0  0  0  0  0  0  0  0
   -3.5145   -2.5363    0.6082 C   0  0  0  0  0  0  0  0  0  0  0  0
   -4.2285   -1.8413    1.0452 H   0  0  0  0  0  0  0  0  0  0  0  0
   -3.7155   -2.6583   -0.4538 H   0  0  0  0  0  0  0  0  0  0  0  0
   -2.1155   -1.9963    0.7922 C   0  0  0  0  0  0  0  0  0  0  0  0
   -1.2875   -2.6383    1.4252 O   0  0  0  0  0  0  0  0  0  0  0  0
   -1.8575   -0.8123    0.2402 N   0  0  0  0  0  0  0  0  0  0  0  0
   -2.6005   -0.3333   -0.2478 H   0  0  0  0  0  0  0  0  0  0  0  0
   -0.5675   -0.1203    0.3102 C   0  0  1  0  0  0  0  0  0  0  0  0
    0.1128   -0.7261    0.9097 H   0  0  0  0  0  0  0  0  0  0  0  0
    0.0008    0.0051   -1.1190 C   0  0  0  0  0  0  0  0  0  0  0  0
   -0.7340    0.5180   -1.7425 H   0  0  0  0  0  0  0  0  0  0  0  0
    0.8925    0.6342   -1.0734 H   0  0  0  0  0  0  0  0  0  0  0  0
    0.3830   -1.3187   -1.8061 C   0  0  0  0  0  0  0  0  0  0  0  0
   -0.4598   -2.0090   -1.7698 H   0  0  0  0  0  0  0  0  0  0  0  0
    0.7973   -1.1150   -3.2663 C   0  0  0  0  0  0  0  0  0  0  0  0
    1.6306   -0.4131   -3.3204 H   0  0  0  0  0  0  0  0  0  0  0  0
    1.1054   -2.0680   -3.6969 H   0  0  0  0  0  0  0  0  0  0  0  0
   -0.0336   -0.7259   -3.8507 H   0  0  0  0  0  0  0  0  0  0  0  0
    1.5551   -1.9640   -1.0678 C   0  0  0  0  0  0  0  0  0  0  0  0
    1.2771   -2.1507   -0.0306 H   0  0  0  0  0  0  0  0  0  0  0  0
    1.8096   -2.9150   -1.5357 H   0  0  0  0  0  0  0  0  0  0  0  0
    2.4241   -1.3057   -1.0946 H   0  0  0  0  0  0  0  0  0  0  0  0
   -0.7335    1.2448    0.9994 C   0  0  0  0  0  0  0  0  0  0  0  0
    0.1923    1.7243    1.6499 O   0  0  0  0  0  0  0  0  0  0  0  0
   -1.9147    1.8616    0.8647 N   0  0  0  0  0  0  0  0  0  0  0  0
   -2.6228    1.4075    0.3104 H   0  0  0  0  0  0  0  0  0  0  0  0
   -2.2347    3.1521    1.4706 C   0  0  0  0  0  0  0  0  0  0  0  0
   -1.5327    3.9102    1.1160 H   0  0  0  0  0  0  0  0  0  0  0  0
   -3.2504    3.4521    1.2081 H   0  0  0  0  0  0  0  0  0  0  0  0
   -2.1485    3.0810    2.5560 H   0  0  0  0  0  0  0  0  0  0  0  0
  5  6  2  0  0  0  0
  5  7  1  0  0  0  0
  2  3  1  0  0  0  0
  2  4  1  0  0  0  0
  2  5  1  0  0  0  0
  1  2  1  0  0  0  0
 24 25  2  0  0  0  0
 24 26  1  0  0  0  0
 20 21  1  0  0  0  0
 20 22  1  0  0  0  0
 20 23  1  0  0  0  0
 16 17  1  0  0  0  0
 16 18  1  0  0  0  0
 16 19  1  0  0  0  0
 14 15  1  0  0  0  0
 14 16  1  0  0  0  0
 14 20  1  0  0  0  0
 11 12  1  0  0  0  0
 11 13  1  0  0  0  0
 11 14  1  0  0  0  0
  9 10  1  0  0  0  0
  9 11  1  0  0  0  0
  9 24  1  0  0  0  0
  7  8  1  0  0  0  0
  7  9  1  0  0  0  0
 28 29  1  0  0  0  0
 28 30  1  0  0  0  0
 28 31  1  0  0  0  0
 26 27  1  0  0  0  0
 26 28  1  0  0  0  0
M  END
$$$$
default_name
  -OEChem-01062215323D

 31 30  0     1  0  0  0  0  0999 V2000
   -3.5895   -3.5013    1.1082 H   0  0  0  0  0  0  0  0  0  0  0  0
   -3.5145   -2.5363    0.6082 C   0  0  0  0  0  0  0  0  0  0  0  0
   -4.2285   -1.8413    1.0452 H   0  0  0  0  0  0  0  0  0  0  0  0
   -3.7155   -2.6583   -0.4538 H   0  0  0  0  0  0  0  0  0  0  0  0
   -2.1155   -1.9963    0.7922 C   0  0  0  0  0  0  0  0  0  0  0  0
   -1.2875   -2.6383    1.4252 O   0  0  0  0  0  0  0  0  0  0  0  0
   -1.8575   -0.8123    0.2402 N   0  0  0  0  0  0  0  0  0  0  0  0
   -2.6005   -0.3333   -0.2478 H   0  0  0  0  0  0  0  0  0  0  0  0
   -0.5675   -0.1203    0.3102 C   0  0  1  0  0  0  0  0  0  0  0  0
    0.1128   -0.7261    0.9097 H   0  0  0  0  0  0  0  0  0  0  0  0
    0.0008    0.0051   -1.1190 C   0  0  0  0  0  0  0  0  0  0  0  0
   -0.7340    0.5180   -1.7425 H   0  0  0  0  0  0  0  0  0  0  0  0
    0.8925    0.6342   -1.0734 H   0  0  0  0  0  0  0  0  0  0  0  0
    0.3830   -1.3187   -1.8061 C   0  0  0  0  0  0  0  0  0  0  0  0
   -0.4598   -2.0090   -1.7698 H   0  0  0  0  0  0  0  0  0  0  0  0
    0.7973   -1.1150   -3.2663 C   0  0  0  0  0  0  0  0  0  0  0  0
    1.6306   -0.4131   -3.3204 H   0  0  0  0  0  0  0  0  0  0  0  0
    1.1054   -2.0680   -3.6969 H   0  0  0  0  0  0  0  0  0  0  0  0
   -0.0336   -0.7259   -3.8507 H   0  0  0  0  0  0  0  0  0  0  0  0
    1.5551   -1.9640   -1.0678 C   0  0  0  0  0  0  0  0  0  0  0  0
    1.2771   -2.1507   -0.0306 H   0  0  0  0  0  0  0  0  0  0  0  0
    1.8096   -2.9150   -1.5357 H   0  0  0  0  0  0  0  0  0  0  0  0
    2.4241   -1.3057   -1.0946 H   0  0  0  0  0  0  0  0  0  0  0  0
   -0.7335    1.2448    0.9994 C   0  0  0  0  0  0  0  0  0  0  0  0
    0.2523    1.8521    1.4111 O   0  0  0  0  0  0  0  0  0  0  0  0
   -1.9792    1.7185    1.1327 N   0  0  0  0  0  0  0  0  0  0  0  0
   -2.7357    1.1648    0.7639 H   0  0  0  0  0  0  0  0  0  0  0  0
   -2.3041    2.9886    1.7776 C   0  0  0  0  0  0  0  0  0  0  0  0
   -1.7970    3.8056    1.2594 H   0  0  0  0  0  0  0  0  0  0  0  0
   -3.3812    3.1611    1.7529 H   0  0  0  0  0  0  0  0  0  0  0  0
   -1.9649    2.9728    2.8145 H   0  0  0  0  0  0  0  0  0  0  0  0
  5  6  2  0  0  0  0
  5  7  1  0  0  0  0
  2  3  1  0  0  0  0
  2  4  1  0  0  0  0
  2  5  1  0  0  0  0
  1  2  1  0  0  0  0
 24 25  2  0  0  0  0
 24 26  1  0  0  0  0
 20 21  1  0  0  0  0
 20 22  1  0  0  0  0
 20 23  1  0  0  0  0
 16 17  1  0  0  0  0
 16 18  1  0  0  0  0
 16 19  1  0  0  0  0
 14 15  1  0  0  0  0
 14 16  1  0  0  0  0
 14 20  1  0  0  0  0
 11 12  1  0  0  0  0
 11 13  1  0  0  0  0
 11 14  1  0  0  0  0
  9 10  1  0  0  0  0
  9 11  1  0  0  0  0
  9 24  1  0  0  0  0
  7  8  1  0  0  0  0
  7  9  1  0  0  0  0
 28 29  1  0  0  0  0
 28 30  1  0  0  0  0
 28 31  1  0  0  0  0
 26 27  1  0  0  0  0
 26 28  1  0  0  0  0
M  END
$$$$
default_name
  -OEChem-01062215323D

 31 30  0     1  0  0  0  0  0999 V2000
   -3.5895   -3.5013    1.1082 H   0  0  0  0  0  0  0  0  0  0  0  0
   -3.5145   -2.5363    0.6082 C   0  0  0  0  0  0  0  0  0  0  0  0
   -4.2285   -1.8413    1.0452 H   0  0  0  0  0  0  0  0  0  0  0  0
   -3.7155   -2.6583   -0.4538 H   0  0  0  0  0  0  0  0  0  0  0  0
   -2.1155   -1.9963    0.7922 C   0  0  0  0  0  0  0  0  0  0  0  0
   -1.2875   -2.6383    1.4252 O   0  0  0  0  0  0  0  0  0  0  0  0
   -1.8575   -0.8123    0.2402 N   0  0  0  0  0  0  0  0  0  0  0  0
   -2.6005   -0.3333   -0.2478 H   0  0  0  0  0  0  0  0  0  0  0  0
   -0.5675   -0.1203    0.3102 C   0  0  1  0  0  0  0  0  0  0  0  0
    0.1128   -0.7261    0.9097 H   0  0  0  0  0  0  0  0  0  0  0  0
    0.0008    0.0051   -1.1190 C   0  0  0  0  0  0  0  0  0  0  0  0
   -0.7340    0.5180   -1.7425 H   0  0  0  0  0  0  0  0  0  0  0  0
    0.8925    0.6342   -1.0734 H   0  0  0  0  0  0  0  0  0  0  0  0
    0.3830   -1.3187   -1.8061 C   0  0  0  0  0  0  0  0  0  0  0  0
   -0.4598   -2.0090   -1.7698 H   0  0  0  0  0  0  0  0  0  0  0  0
    0.7973   -1.1150   -3.2663 C   0  0  0  0  0  0  0  0  0  0  0  0
    1.6306   -0.4131   -3.3204 H   0  0  0  0  0  0  0  0  0  0  0  0
    1.1054   -2.0680   -3.6969 H   0  0  0  0  0  0  0  0  0  0  0  0
   -0.0336   -0.7259   -3.8507 H   0  0  0  0  0  0  0  0  0  0  0  0
    1.5551   -1.9640   -1.0678 C   0  0  0  0  0  0  0  0  0  0  0  0
    1.2771   -2.1507   -0.0306 H   0  0  0  0  0  0  0  0  0  0  0  0
    1.8096   -2.9150   -1.5357 H   0  0  0  0  0  0  0  0  0  0  0  0
    2.4241   -1.3057   -1.0946 H   0  0  0  0  0  0  0  0  0  0  0  0
   -0.7335    1.2448    0.9994 C   0  0  0  0  0  0  0  0  0  0  0  0
    0.2405    1.9759    1.1631 O   0  0  0  0  0  0  0  0  0  0  0  0
   -1.9633    1.5802    1.4104 N   0  0  0  0  0  0  0  0  0  0  0  0
   -2.7124    0.9299    1.2346 H   0  0  0  0  0  0  0  0  0  0  0  0
   -2.2817    2.8313    2.0946 C   0  0  0  0  0  0  0  0  0  0  0  0
   -2.0073    3.6780    1.4615 H   0  0  0  0  0  0  0  0  0  0  0  0
   -3.3487    2.8801    2.3174 H   0  0  0  0  0  0  0  0  0  0  0  0
   -1.7155    2.8969    3.0250 H   0  0  0  0  0  0  0  0  0  0  0  0
  5  6  2  0  0  0  0
  5  7  1  0  0  0  0
  2  3  1  0  0  0  0
  2  4  1  0  0  0  0
  2  5  1  0  0  0  0
  1  2  1  0  0  0  0
 24 25  2  0  0  0  0
 24 26  1  0  0  0  0
 20 21  1  0  0  0  0
 20 22  1  0  0  0  0
 20 23  1  0  0  0  0
 16 17  1  0  0  0  0
 16 18  1  0  0  0  0
 16 19  1  0  0  0  0
 14 15  1  0  0  0  0
 14 16  1  0  0  0  0
 14 20  1  0  0  0  0
 11 12  1  0  0  0  0
 11 13  1  0  0  0  0
 11 14  1  0  0  0  0
  9 10  1  0  0  0  0
  9 11  1  0  0  0  0
  9 24  1  0  0  0  0
  7  8  1  0  0  0  0
  7  9  1  0  0  0  0
 28 29  1  0  0  0  0
 28 30  1  0  0  0  0
 28 31  1  0  0  0  0
 26 27  1  0  0  0  0
 26 28  1  0  0  0  0
M  END
$$$$
default_name
  -OEChem-01062215323D

 31 30  0     1  0  0  0  0  0999 V2000
   -3.5895   -3.5013    1.1082 H   0  0  0  0  0  0  0  0  0  0  0  0
   -3.5145   -2.5363    0.6082 C   0  0  0  0  0  0  0  0  0  0  0  0
   -4.2285   -1.8413    1.0452 H   0  0  0  0  0  0  0  0  0  0  0  0
   -3.7155   -2.6583   -0.4538 H   0  0  0  0  0  0  0  0  0  0  0  0
   -2.1155   -1.9963    0.7922 C   0  0  0  0  0  0  0  0  0  0  0  0
   -1.2875   -2.6383    1.4252 O   0  0  0  0  0  0  0  0  0  0  0  0
   -1.8575   -0.8123    0.2402 N   0  0  0  0  0  0  0  0  0  0  0  0
   -2.6005   -0.3333   -0.2478 H   0  0  0  0  0  0  0  0  0  0  0  0
   -0.5675   -0.1203    0.3102 C   0  0  1  0  0  0  0  0  0  0  0  0
    0.1128   -0.7261    0.9097 H   0  0  0  0  0  0  0  0  0  0  0  0
    0.0008    0.0051   -1.1190 C   0  0  0  0  0  0  0  0  0  0  0  0
   -0.7340    0.5180   -1.7425 H   0  0  0  0  0  0  0  0  0  0  0  0
    0.8925    0.6342   -1.0734 H   0  0  0  0  0  0  0  0  0  0  0  0
    0.3830   -1.3187   -1.8061 C   0  0  0  0  0  0  0  0  0  0  0  0
   -0.4598   -2.0090   -1.7698 H   0  0  0  0  0  0  0  0  0  0  0  0
    0.7973   -1.1150   -3.2663 C   0  0  0  0  0  0  0  0  0  0  0  0
    1.6306   -0.4131   -3.3204 H   0  0  0  0  0  0  0  0  0  0  0  0
    1.1054   -2.0680   -3.6969 H   0  0  0  0  0  0  0  0  0  0  0  0
   -0.0336   -0.7259   -3.8507 H   0  0  0  0  0  0  0  0  0  0  0  0
    1.5551   -1.9640   -1.0678 C   0  0  0  0  0  0  0  0  0  0  0  0
    1.2771   -2.1507   -0.0306 H   0  0  0  0  0  0  0  0  0  0  0  0
    1.8096   -2.9150   -1.5357 H   0  0  0  0  0  0  0  0  0  0  0  0
    2.4241   -1.3057   -1.0946 H   0  0  0  0  0  0  0  0  0  0  0  0
   -0.7335    1.2448    0.9994 C   0  0  0  0  0  0  0  0  0  0  0  0
    0.1579    2.0872    0.9228 O   0  0  0  0  0  0  0  0  0  0  0  0
   -1.8681    1.4562    1.6789 N   0  0  0  0  0  0  0  0  0  0  0  0
   -2.5546    0.7189    1.6905 H   0  0  0  0  0  0  0  0  0  0  0  0
   -2.1690    2.6908    2.4001 C   0  0  0  0  0  0  0  0  0  0  0  0
   -2.1491    3.5360    1.7085 H   0  0  0  0  0  0  0  0  0  0  0  0
   -3.1551    2.6282    2.8629 H   0  0  0  0  0  0  0  0  0  0  0  0
   -1.4175    2.8583    3.1733 H   0  0  0  0  0  0  0  0  0  0  0  0
  5  6  2  0  0  0  0
  5  7  1  0  0  0  0
  2  3  1  0  0  0  0
  2  4  1  0  0  0  0
  2  5  1  0  0  0  0
  1  2  1  0  0  0  0
 24 25  2  0  0  0  0
 24 26  1  0  0  0  0
 20 21  1  0  0  0  0
 20 22  1  0  0  0  0
 20 23  1  0  0  0  0
 16 17  1  0  0  0  0
 16 18  1  0  0  0  0
 16 19  1  0  0  0  0
 14 15  1  0  0  0  0
 14 16  1  0  0  0  0
 14 20  1  0  0  0  0
 11 12  1  0  0  0  0
 11 13  1  0  0  0  0
 11 14  1  0  0  0  0
  9 10  1  0  0  0  0
  9 11  1  0  0  0  0
  9 24  1  0  0  0  0
  7  8  1  0  0  0  0
  7  9  1  0  0  0  0
 28 29  1  0  0  0  0
 28 30  1  0  0  0  0
 28 31  1  0  0  0  0
 26 27  1  0  0  0  0
 26 28  1  0  0  0  0
M  END
$$$$
default_name
  -OEChem-01062215323D

 31 30  0     1  0  0  0  0  0999 V2000
   -3.5895   -3.5013    1.1082 H   0  0  0  0  0  0  0  0  0  0  0  0
   -3.5145   -2.5363    0.6082 C   0  0  0  0  0  0  0  0  0  0  0  0
   -4.2285   -1.8413    1.0452 H   0  0  0  0  0  0  0  0  0  0  0  0
   -3.7155   -2.6583   -0.4538 H   0  0  0  0  0  0  0  0  0  0  0  0
   -2.1155   -1.9963    0.7922 C   0  0  0  0  0  0  0  0  0  0  0  0
   -1.2875   -2.6383    1.4252 O   0  0  0  0  0  0  0  0  0  0  0  0
   -1.8575   -0.8123    0.2402 N   0  0  0  0  0  0  0  0  0  0  0  0
   -2.6005   -0.3333   -0.2478 H   0  0  0  0  0  0  0  0  0  0  0  0
   -0.5675   -0.1203    0.3102 C   0  0  1  0  0  0  0  0  0  0  0  0
    0.1128   -0.7261    0.9097 H   0  0  0  0  0  0  0  0  0  0  0  0
    0.0008    0.0051   -1.1190 C   0  0  0  0  0  0  0  0  0  0  0  0
   -0.7340    0.5180   -1.7425 H   0  0  0  0  0  0  0  0  0  0  0  0
    0.8925    0.6342   -1.0734 H   0  0  0  0  0  0  0  0  0  0  0  0
    0.3830   -1.3187   -1.8061 C   0  0  0  0  0  0  0  0  0  0  0  0
   -0.4598   -2.0090   -1.7698 H   0  0  0  0  0  0  0  0  0  0  0  0
    0.7973   -1.1150   -3.2663 C   0  0  0  0  0  0  0  0  0  0  0  0
    1.6306   -0.4131   -3.3204 H   0  0  0  0  0  0  0  0  0  0  0  0
    1.1054   -2.0680   -3.6969 H   0  0  0  0  0  0  0  0  0  0  0  0
   -0.0336   -0.7259   -3.8507 H   0  0  0  0  0  0  0  0  0  0  0  0
    1.5551   -1.9640   -1.0678 C   0  0  0  0  0  0  0  0  0  0  0  0
    1.2771   -2.1507   -0.0306 H   0  0  0  0  0  0  0  0  0  0  0  0
    1.8096   -2.9150   -1.5357 H   0  0  0  0  0  0  0  0  0  0  0  0
    2.4241   -1.3057   -1.0946 H   0  0  0  0  0  0  0  0  0  0  0  0
   -0.7335    1.2448    0.9994 C   0  0  0  0  0  0  0  0  0  0  0  0
    0.0100    2.1784    0.7066 O   0  0  0  0  0  0  0  0  0  0  0  0
   -1.7002    1.3550    1.9198 N   0  0  0  0  0  0  0  0  0  0  0  0
   -2.2730    0.5462    2.1006 H   0  0  0  0  0  0  0  0  0  0  0  0
   -1.9736    2.5766    2.6732 C   0  0  0  0  0  0  0  0  0  0  0  0
   -2.2129    3.3893    1.9837 H   0  0  0  0  0  0  0  0  0  0  0  0
   -2.8135    2.4226    3.3524 H   0  0  0  0  0  0  0  0  0  0  0  0
   -1.0911    2.8597    3.2491 H   0  0  0  0  0  0  0  0  0  0  0  0
  5  6  2  0  0  0  0
  5  7  1  0  0  0  0
  2  3  1  0  0  0  0
  2  4  1  0  0  0  0
  2  5  1  0  0  0  0
  1  2  1  0  0  0  0
 24 25  2  0  0  0  0
 24 26  1  0  0  0  0
 20 21  1  0  0  0  0
 20 22  1  0  0  0  0
 20 23  1  0  0  0  0
 16 17  1  0  0  0  0
 16 18  1  0  0  0  0
 16 19  1  0  0  0  0
 14 15  1  0  0  0  0
 14 16  1  0  0  0  0
 14 20  1  0  0  0  0
 11 12  1  0  0  0  0
 11 13  1  0  0  0  0
 11 14  1  0  0  0  0
  9 10  1  0  0  0  0
  9 11  1  0  0  0  0
  9 24  1  0  0  0  0
  7  8  1  0  0  0  0
  7  9  1  0  0  0  0
 28 29  1  0  0  0  0
 28 30  1  0  0  0  0
 28 31  1  0  0  0  0
 26 27  1  0  0  0  0
 26 28  1  0  0  0  0
M  END
$$$$
default_name
  -OEChem-01062215323D

 31 30  0     1  0  0  0  0  0999 V2000
   -3.5895   -3.5013    1.1082 H   0  0  0  0  0  0  0  0  0  0  0  0
   -3.5145   -2.5363    0.6082 C   0  0  0  0  0  0  0  0  0  0  0  0
   -4.2285   -1.8413    1.0452 H   0  0  0  0  0  0  0  0  0  0  0  0
   -3.7155   -2.6583   -0.4538 H   0  0  0  0  0  0  0  0  0  0  0  0
   -2.1155   -1.9963    0.7922 C   0  0  0  0  0  0  0  0  0  0  0  0
   -1.2875   -2.6383    1.4252 O   0  0  0  0  0  0  0  0  0  0  0  0
   -1.8575   -0.8123    0.2402 N   0  0  0  0  0  0  0  0  0  0  0  0
   -2.6005   -0.3333   -0.2478 H   0  0  0  0  0  0  0  0  0  0  0  0
   -0.5675   -0.1203    0.3102 C   0  0  1  0  0  0  0  0  0  0  0  0
    0.1128   -0.7261    0.9097 H   0  0  0  0  0  0  0  0  0  0  0  0
    0.0008    0.0051   -1.1190 C   0  0  0  0  0  0  0  0  0  0  0  0
   -0.7340    0.5180   -1.7425 H   0  0  0  0  0  0  0  0  0  0  0  0
    0.8925    0.6342   -1.0734 H   0  0  0  0  0  0  0  0  0  0  0  0
    0.3830   -1.3187   -1.8061 C   0  0  0  0  0  0  0  0  0  0  0  0
   -0.4598   -2.0090   -1.7698 H   0  0  0  0  0  0  0  0  0  0  0  0
    0.7973   -1.1150   -3.2663 C   0  0  0  0  0  0  0  0  0  0  0  0
    1.6306   -0.4131   -3.3204 H   0  0  0  0  0  0  0  0  0  0  0  0
    1.1054   -2.0680   -3.6969 H   0  0  0  0  0  0  0  0  0  0  0  0
   -0.0336   -0.7259   -3.8507 H   0  0  0  0  0  0  0  0  0  0  0  0
    1.5551   -1.9640   -1.0678 C   0  0  0  0  0  0  0  0  0  0  0  0
    1.2771   -2.1507   -0.0306 H   0  0  0  0  0  0  0  0  0  0  0  0
    1.8096   -2.9150   -1.5357 H   0  0  0  0  0  0  0  0  0  0  0  0
    2.4241   -1.3057   -1.0946 H   0  0  0  0  0  0  0  0  0  0  0  0
   -0.7335    1.2448    0.9994 C   0  0  0  0  0  0  0  0  0  0  0  0
   -0.1932    2.2433    0.5291 O   0  0  0  0  0  0  0  0  0  0  0  0
   -1.4708    1.2834    2.1168 N   0  0  0  0  0  0  0  0  0  0  0  0
   -1.8867    0.4234    2.4368 H   0  0  0  0  0  0  0  0  0  0  0  0
   -1.7090    2.4967    2.8954 C   0  0  0  0  0  0  0  0  0  0  0  0
   -2.1943    3.2479    2.2683 H   0  0  0  0  0  0  0  0  0  0  0  0
   -2.3473    2.2773    3.7526 H   0  0  0  0  0  0  0  0  0  0  0  0
   -0.7586    2.9011    3.2473 H   0  0  0  0  0  0  0  0  0  0  0  0
  5  6  2  0  0  0  0
  5  7  1  0  0  0  0
  2  3  1  0  0  0  0
  2  4  1  0  0  0  0
  2  5  1  0  0  0  0
  1  2  1  0  0  0  0
 24 25  2  0  0  0  0
 24 26  1  0  0  0  0
 20 21  1  0  0  0  0
 20 22  1  0  0  0  0
 20 23  1  0  0  0  0
 16 17  1  0  0  0  0
 16 18  1  0  0  0  0
 16 19  1  0  0  0  0
 14 15  1  0  0  0  0
 14 16  1  0  0  0  0
 14 20  1  0  0  0  0
 11 12  1  0  0  0  0
 11 13  1  0  0  0  0
 11 14  1  0  0  0  0
  9 10  1  0  0  0  0
  9 11  1  0  0  0  0
  9 24  1  0  0  0  0
  7  8  1  0  0  0  0
  7  9  1  0  0  0  0
 28 29  1  0  0  0  0
 28 30  1  0  0  0  0
 28 31  1  0  0  0  0
 26 27  1  0  0  0  0
 26 28  1  0  0  0  0
M  END
$$$$
default_name
  -OEChem-01062215323D

 31 30  0     1  0  0  0  0  0999 V2000
   -3.5895   -3.5013    1.1082 H   0  0  0  0  0  0  0  0  0  0  0  0
   -3.5145   -2.5363    0.6082 C   0  0  0  0  0  0  0  0  0  0  0  0
   -4.2285   -1.8413    1.0452 H   0  0  0  0  0  0  0  0  0  0  0  0
   -3.7155   -2.6583   -0.4538 H   0  0  0  0  0  0  0  0  0  0  0  0
   -2.1155   -1.9963    0.7922 C   0  0  0  0  0  0  0  0  0  0  0  0
   -1.2875   -2.6383    1.4252 O   0  0  0  0  0  0  0  0  0  0  0  0
   -1.8575   -0.8123    0.2402 N   0  0  0  0  0  0  0  0  0  0  0  0
   -2.6005   -0.3333   -0.2478 H   0  0  0  0  0  0  0  0  0  0  0  0
   -0.5675   -0.1203    0.3102 C   0  0  1  0  0  0  0  0  0  0  0  0
    0.1128   -0.7261    0.9097 H   0  0  0  0  0  0  0  0  0  0  0  0
    0.0008    0.0051   -1.1190 C   0  0  0  0  0  0  0  0  0  0  0  0
   -0.7340    0.5180   -1.7425 H   0  0  0  0  0  0  0  0  0  0  0  0
    0.8925    0.6342   -1.0734 H   0  0  0  0  0  0  0  0  0  0  0  0
    0.3830   -1.3187   -1.8061 C   0  0  0  0  0  0  0  0  0  0  0  0
   -0.4598   -2.0090   -1.7698 H   0  0  0  0  0  0  0  0  0  0  0  0
    0.7973   -1.1150   -3.2663 C   0  0  0  0  0  0  0  0  0  0  0  0
    1.6306   -0.4131   -3.3204 H   0  0  0  0  0  0  0  0  0  0  0  0
    1.1054   -2.0680   -3.6969 H   0  0  0  0  0  0  0  0  0  0  0  0
   -0.0336   -0.7259   -3.8507 H   0  0  0  0  0  0  0  0  0  0  0  0
    1.5551   -1.9640   -1.0678 C   0  0  0  0  0  0  0  0  0  0  0  0
    1.2771   -2.1507   -0.0306 H   0  0  0  0  0  0  0  0  0  0  0  0
    1.8096   -2.9150   -1.5357 H   0  0  0  0  0  0  0  0  0  0  0  0
    2.4241   -1.3057   -1.0946 H   0  0  0  0  0  0  0  0  0  0  0  0
   -0.7335    1.2448    0.9994 C   0  0  0  0  0  0  0  0  0  0  0  0
   -0.4376    2.2774    0.4025 O   0  0  0  0  0  0  0  0  0  0  0  0
   -1.1958    1.2464    2.2564 N   0  0  0  0  0  0  0  0  0  0  0  0
   -1.4221    0.3590    2.6762 H   0  0  0  0  0  0  0  0  0  0  0  0
   -1.3930    2.4563    3.0514 C   0  0  0  0  0  0  0  0  0  0  0  0
   -2.0946    3.1214    2.5428 H   0  0  0  0  0  0  0  0  0  0  0  0
   -1.7882    2.2022    4.0361 H   0  0  0  0  0  0  0  0  0  0  0  0
   -0.4426    2.9795    3.1680 H   0  0  0  0  0  0  0  0  0  0  0  0
  5  6  2  0  0  0  0
  5  7  1  0  0  0  0
  2  3  1  0  0  0  0
  2  4  1  0  0  0  0
  2  5  1  0  0  0  0
  1  2  1  0  0  0  0
 24 25  2  0  0  0  0
 24 26  1  0  0  0  0
 20 21  1  0  0  0  0
 20 22  1  0  0  0  0
 20 23  1  0  0  0  0
 16 17  1  0  0  0  0
 16 18  1  0  0  0  0
 16 19  1  0  0  0  0
 14 15  1  0  0  0  0
 14 16  1  0  0  0  0
 14 20  1  0  0  0  0
 11 12  1  0  0  0  0
 11 13  1  0  0  0  0
 11 14  1  0  0  0  0
  9 10  1  0  0  0  0
  9 11  1  0  0  0  0
  9 24  1  0  0  0  0
  7  8  1  0  0  0  0
  7  9  1  0  0  0  0
 28 29  1  0  0  0  0
 28 30  1  0  0  0  0
 28 31  1  0  0  0  0
 26 27  1  0  0  0  0
 26 28  1  0  0  0  0
M  END
$$$$
default_name
  -OEChem-01062215323D

 31 30  0     1  0  0  0  0  0999 V2000
   -3.5895   -3.5013    1.1082 H   0  0  0  0  0  0  0  0  0  0  0  0
   -3.5145   -2.5363    0.6082 C   0  0  0  0  0  0  0  0  0  0  0  0
   -4.2285   -1.8413    1.0452 H   0  0  0  0  0  0  0  0  0  0  0  0
   -3.7155   -2.6583   -0.4538 H   0  0  0  0  0  0  0  0  0  0  0  0
   -2.1155   -1.9963    0.7922 C   0  0  0  0  0  0  0  0  0  0  0  0
   -1.2875   -2.6383    1.4252 O   0  0  0  0  0  0  0  0  0  0  0  0
   -1.8575   -0.8123    0.2402 N   0  0  0  0  0  0  0  0  0  0  0  0
   -2.6005   -0.3333   -0.2478 H   0  0  0  0  0  0  0  0  0  0  0  0
   -0.5675   -0.1203    0.3102 C   0  0  1  0  0  0  0  0  0  0  0  0
    0.1128   -0.7261    0.9097 H   0  0  0  0  0  0  0  0  0  0  0  0
    0.0008    0.0051   -1.1190 C   0  0  0  0  0  0  0  0  0  0  0  0
   -0.7340    0.5180   -1.7425 H   0  0  0  0  0  0  0  0  0  0  0  0
    0.8925    0.6342   -1.0734 H   0  0  0  0  0  0  0  0  0  0  0  0
    0.3830   -1.3187   -1.8061 C   0  0  0  0  0  0  0  0  0  0  0  0
   -0.4598   -2.0090   -1.7698 H   0  0  0  0  0  0  0  0  0  0  0  0
    0.7973   -1.1150   -3.2663 C   0  0  0  0  0  0  0  0  0  0  0  0
    1.6306   -0.4131   -3.3204 H   0  0  0  0  0  0  0  0  0  0  0  0
    1.1054   -2.0680   -3.6969 H   0  0  0  0  0  0  0  0  0  0  0  0
   -0.0336   -0.7259   -3.8507 H   0  0  0  0  0  0  0  0  0  0  0  0
    1.5551   -1.9640   -1.0678 C   0  0  0  0  0  0  0  0  0  0  0  0
    1.2771   -2.1507   -0.0306 H   0  0  0  0  0  0  0  0  0  0  0  0
    1.8096   -2.9150   -1.5357 H   0  0  0  0  0  0  0  0  0  0  0  0
    2.4241   -1.3057   -1.0946 H   0  0  0  0  0  0  0  0  0  0  0  0
   -0.7335    1.2448    0.9994 C   0  0  0  0  0  0  0  0  0  0  0  0
   -0.7068    2.2785    0.3355 O   0  0  0  0  0  0  0  0  0  0  0  0
   -0.8938    1.2465    2.3291 N   0  0  0  0  0  0  0  0  0  0  0  0
   -0.9109    0.3574    2.8026 H   0  0  0  0  0  0  0  0  0  0  0  0
   -1.0473    2.4584    3.1306 C   0  0  0  0  0  0  0  0  0  0  0  0
   -1.9206    3.0185    2.7887 H   0  0  0  0  0  0  0  0  0  0  0  0
   -1.1743    2.2024    4.1836 H   0  0  0  0  0  0  0  0  0  0  0  0
   -0.1647    3.0897    3.0167 H   0  0  0  0  0  0  0  0  0  0  0  0
  5  6  2  0  0  0  0
  5  7  1  0  0  0  0
  2  3  1  0  0  0  0
  2  4  1  0  0  0  0
  2  5  1  0  0  0  0
  1  2  1  0  0  0  0
 24 25  2  0  0  0  0
 24 26  1  0  0  0  0
 20 21  1  0  0  0  0
 20 22  1  0  0  0  0
 20 23  1  0  0  0  0
 16 17  1  0  0  0  0
 16 18  1  0  0  0  0
 16 19  1  0  0  0  0
 14 15  1  0  0  0  0
 14 16  1  0  0  0  0
 14 20  1  0  0  0  0
 11 12  1  0  0  0  0
 11 13  1  0  0  0  0
 11 14  1  0  0  0  0
  9 10  1  0  0  0  0
  9 11  1  0  0  0  0
  9 24  1  0  0  0  0
  7  8  1  0  0  0  0
  7  9  1  0  0  0  0
 28 29  1  0  0  0  0
 28 30  1  0  0  0  0
 28 31  1  0  0  0  0
 26 27  1  0  0  0  0
 26 28  1  0  0  0  0
M  END
$$$$
default_name
  -OEChem-01062215323D

 31 30  0     1  0  0  0  0  0999 V2000
   -3.5895   -3.5013    1.1082 H   0  0  0  0  0  0  0  0  0  0  0  0
   -3.5145   -2.5363    0.6082 C   0  0  0  0  0  0  0  0  0  0  0  0
   -4.2285   -1.8413    1.0452 H   0  0  0  0  0  0  0  0  0  0  0  0
   -3.7155   -2.6583   -0.4538 H   0  0  0  0  0  0  0  0  0  0  0  0
   -2.1155   -1.9963    0.7922 C   0  0  0  0  0  0  0  0  0  0  0  0
   -1.2875   -2.6383    1.4252 O   0  0  0  0  0  0  0  0  0  0  0  0
   -1.8575   -0.8123    0.2402 N   0  0  0  0  0  0  0  0  0  0  0  0
   -2.6005   -0.3333   -0.2478 H   0  0  0  0  0  0  0  0  0  0  0  0
   -0.5675   -0.1203    0.3102 C   0  0  1  0  0  0  0  0  0  0  0  0
    0.1128   -0.7261    0.9097 H   0  0  0  0  0  0  0  0  0  0  0  0
    0.0008    0.0051   -1.1190 C   0  0  0  0  0  0  0  0  0  0  0  0
   -0.7340    0.5180   -1.7425 H   0  0  0  0  0  0  0  0  0  0  0  0
    0.8925    0.6342   -1.0734 H   0  0  0  0  0  0  0  0  0  0  0  0
    0.3830   -1.3187   -1.8061 C   0  0  0  0  0  0  0  0  0  0  0  0
   -0.4598   -2.0090   -1.7698 H   0  0  0  0  0  0  0  0  0  0  0  0
    0.7973   -1.1150   -3.2663 C   0  0  0  0  0  0  0  0  0  0  0  0
    1.6306   -0.4131   -3.3204 H   0  0  0  0  0  0  0  0  0  0  0  0
    1.1054   -2.0680   -3.6969 H   0  0  0  0  0  0  0  0  0  0  0  0
   -0.0336   -0.7259   -3.8507 H   0  0  0  0  0  0  0  0  0  0  0  0
    1.5551   -1.9640   -1.0678 C   0  0  0  0  0  0  0  0  0  0  0  0
    1.2771   -2.1507   -0.0306 H   0  0  0  0  0  0  0  0  0  0  0  0
    1.8096   -2.9150   -1.5357 H   0  0  0  0  0  0  0  0  0  0  0  0
    2.4241   -1.3057   -1.0946 H   0  0  0  0  0  0  0  0  0  0  0  0
   -0.7335    1.2448    0.9994 C   0  0  0  0  0  0  0  0  0  0  0  0
   -0.9824    2.2465    0.3325 O   0  0  0  0  0  0  0  0  0  0  0  0
   -0.5853    1.2836    2.3299 N   0  0  0  0  0  0  0  0  0  0  0  0
   -0.3879    0.4186    2.8073 H   0  0  0  0  0  0  0  0  0  0  0  0
   -0.6954    2.5027    3.1277 C   0  0  0  0  0  0  0  0  0  0  0  0
   -1.6840    2.9461    2.9890 H   0  0  0  0  0  0  0  0  0  0  0  0
   -0.5475    2.2779    4.1851 H   0  0  0  0  0  0  0  0  0  0  0  0
    0.0562    3.2242    2.8036 H   0  0  0  0  0  0  0  0  0  0  0  0
  5  6  2  0  0  0  0
  5  7  1  0  0  0  0
  2  3  1  0  0  0  0
  2  4  1  0  0  0  0
  2  5  1  0  0  0  0
  1  2  1  0  0  0  0
 24 25  2  0  0  0  0
 24 26  1  0  0  0  0
 20 21  1  0  0  0  0
 20 22  1  0  0  0  0
 20 23  1  0  0  0  0
 16 17  1  0  0  0  0
 16 18  1  0  0  0  0
 16 19  1  0  0  0  0
 14 15  1  0  0  0  0
 14 16  1  0  0  0  0
 14 20  1  0  0  0  0
 11 12  1  0  0  0  0
 11 13  1  0  0  0  0
 11 14  1  0  0  0  0
  9 10  1  0  0  0  0
  9 11  1  0  0  0  0
  9 24  1  0  0  0  0
  7  8  1  0  0  0  0
  7  9  1  0  0  0  0
 28 29  1  0  0  0  0
 28 30  1  0  0  0  0
 28 31  1  0  0  0  0
 26 27  1  0  0  0  0
 26 28  1  0  0  0  0
M  END
$$$$
default_name
  -OEChem-01062215323D

 31 30  0     1  0  0  0  0  0999 V2000
   -3.5895   -3.5013    1.1082 H   0  0  0  0  0  0  0  0  0  0  0  0
   -3.5145   -2.5363    0.6082 C   0  0  0  0  0  0  0  0  0  0  0  0
   -4.2285   -1.8413    1.0452 H   0  0  0  0  0  0  0  0  0  0  0  0
   -3.7155   -2.6583   -0.4538 H   0  0  0  0  0  0  0  0  0  0  0  0
   -2.1155   -1.9963    0.7922 C   0  0  0  0  0  0  0  0  0  0  0  0
   -1.2875   -2.6383    1.4252 O   0  0  0  0  0  0  0  0  0  0  0  0
   -1.8575   -0.8123    0.2402 N   0  0  0  0  0  0  0  0  0  0  0  0
   -2.6005   -0.3333   -0.2478 H   0  0  0  0  0  0  0  0  0  0  0  0
   -0.5675   -0.1203    0.3102 C   0  0  1  0  0  0  0  0  0  0  0  0
    0.1128   -0.7261    0.9097 H   0  0  0  0  0  0  0  0  0  0  0  0
    0.0008    0.0051   -1.1190 C   0  0  0  0  0  0  0  0  0  0  0  0
   -0.7340    0.5180   -1.7425 H   0  0  0  0  0  0  0  0  0  0  0  0
    0.8925    0.6342   -1.0734 H   0  0  0  0  0  0  0  0  0  0  0  0
    0.3830   -1.3187   -1.8061 C   0  0  0  0  0  0  0  0  0  0  0  0
   -0.4598   -2.0090   -1.7698 H   0  0  0  0  0  0  0  0  0  0  0  0
    0.7973   -1.1150   -3.2663 C   0  0  0  0  0  0  0  0  0  0  0  0
    1.6306   -0.4131   -3.3204 H   0  0  0  0  0  0  0  0  0  0  0  0
    1.1054   -2.0680   -3.6969 H   0  0  0  0  0  0  0  0  0  0  0  0
   -0.0336   -0.7259   -3.8507 H   0  0  0  0  0  0  0  0  0  0  0  0
    1.5551   -1.9640   -1.0678 C   0  0  0  0  0  0  0  0  0  0  0  0
    1.2771   -2.1507   -0.0306 H   0  0  0  0  0  0  0  0  0  0  0  0
    1.8096   -2.9150   -1.5357 H   0  0  0  0  0  0  0  0  0  0  0  0
    2.4241   -1.3057   -1.0946 H   0  0  0  0  0  0  0  0  0  0  0  0
   -0.7335    1.2448    0.9994 C   0  0  0  0  0  0  0  0  0  0  0  0
   -1.2455    2.1835    0.3938 O   0  0  0  0  0  0  0  0  0  0  0  0
   -0.2915    1.3552    2.2588 N   0  0  0  0  0  0  0  0  0  0  0  0
    0.1112    0.5386    2.6900 H   0  0  0  0  0  0  0  0  0  0  0  0
   -0.3614    2.5861    3.0428 C   0  0  0  0  0  0  0  0  0  0  0  0
   -1.4012    2.9092    3.1303 H   0  0  0  0  0  0  0  0  0  0  0  0
    0.0495    2.4235    4.0404 H   0  0  0  0  0  0  0  0  0  0  0  0
    0.2050    3.3737    2.5433 H   0  0  0  0  0  0  0  0  0  0  0  0
  5  6  2  0  0  0  0
  5  7  1  0  0  0  0
  2  3  1  0  0  0  0
  2  4  1  0  0  0  0
  2  5  1  0  0  0  0
  1  2  1  0  0  0  0
 24 25  2  0  0  0  0
 24 26  1  0  0  0  0
 20 21  1  0  0  0  0
 20 22  1  0  0  0  0
 20 23  1  0  0  0  0
 16 17  1  0  0  0  0
 16 18  1  0  0  0  0
 16 19  1  0  0  0  0
 14 15  1  0  0  0  0
 14 16  1  0  0  0  0
 14 20  1  0  0  0  0
 11 12  1  0  0  0  0
 11 13  1  0  0  0  0
 11 14  1  0  0  0  0
  9 10  1  0  0  0  0
  9 11  1  0  0  0  0
  9 24  1  0  0  0  0
  7  8  1  0  0  0  0
  7  9  1  0  0  0  0
 28 29  1  0  0  0  0
 28 30  1  0  0  0  0
 28 31  1  0  0  0  0
 26 27  1  0  0  0  0
 26 28  1  0  0  0  0
M  END
$$$$
default_name
  -OEChem-01062215323D

 31 30  0     1  0  0  0  0  0999 V2000
   -3.5895   -3.5013    1.1082 H   0  0  0  0  0  0  0  0  0  0  0  0
   -3.5145   -2.5363    0.6082 C   0  0  0  0  0  0  0  0  0  0  0  0
   -4.2285   -1.8413    1.0452 H   0  0  0  0  0  0  0  0  0  0  0  0
   -3.7155   -2.6583   -0.4538 H   0  0  0  0  0  0  0  0  0  0  0  0
   -2.1155   -1.9963    0.7922 C   0  0  0  0  0  0  0  0  0  0  0  0
   -1.2875   -2.6383    1.4252 O   0  0  0  0  0  0  0  0  0  0  0  0
   -1.8575   -0.8123    0.2402 N   0  0  0  0  0  0  0  0  0  0  0  0
   -2.6005   -0.3333   -0.2478 H   0  0  0  0  0  0  0  0  0  0  0  0
   -0.5675   -0.1203    0.3102 C   0  0  1  0  0  0  0  0  0  0  0  0
    0.1128   -0.7261    0.9097 H   0  0  0  0  0  0  0  0  0  0  0  0
    0.0008    0.0051   -1.1190 C   0  0  0  0  0  0  0  0  0  0  0  0
   -0.7340    0.5180   -1.7425 H   0  0  0  0  0  0  0  0  0  0  0  0
    0.8925    0.6342   -1.0734 H   0  0  0  0  0  0  0  0  0  0  0  0
    0.3830   -1.3187   -1.8061 C   0  0  0  0  0  0  0  0  0  0  0  0
   -0.4598   -2.0090   -1.7698 H   0  0  0  0  0  0  0  0  0  0  0  0
    0.7973   -1.1150   -3.2663 C   0  0  0  0  0  0  0  0  0  0  0  0
    1.6306   -0.4131   -3.3204 H   0  0  0  0  0  0  0  0  0  0  0  0
    1.1054   -2.0680   -3.6969 H   0  0  0  0  0  0  0  0  0  0  0  0
   -0.0336   -0.7259   -3.8507 H   0  0  0  0  0  0  0  0  0  0  0  0
    1.5551   -1.9640   -1.0678 C   0  0  0  0  0  0  0  0  0  0  0  0
    1.2771   -2.1507   -0.0306 H   0  0  0  0  0  0  0  0  0  0  0  0
    1.8096   -2.9150   -1.5357 H   0  0  0  0  0  0  0  0  0  0  0  0
    2.4241   -1.3057   -1.0946 H   0  0  0  0  0  0  0  0  0  0  0  0
   -0.7335    1.2448    0.9994 C   0  0  0  0  0  0  0  0  0  0  0  0
   -1.4783    2.0939    0.5152 O   0  0  0  0  0  0  0  0  0  0  0  0
   -0.0324    1.4565    2.1207 N   0  0  0  0  0  0  0  0  0  0  0  0
    0.5525    0.7091    2.4587 H   0  0  0  0  0  0  0  0  0  0  0  0
   -0.0678    2.7032    2.8818 C   0  0  0  0  0  0  0  0  0  0  0  0
   -1.0912    2.9103    3.2027 H   0  0  0  0  0  0  0  0  0  0  0  0
    0.5761    2.6294    3.7595 H   0  0  0  0  0  0  0  0  0  0  0  0
    0.2717    3.5282    2.2535 H   0  0  0  0  0  0  0  0  0  0  0  0
  5  6  2  0  0  0  0
  5  7  1  0  0  0  0
  2  3  1  0  0  0  0
  2  4  1  0  0  0  0
  2  5  1  0  0  0  0
  1  2  1  0  0  0  0
 24 25  2  0  0  0  0
 24 26  1  0  0  0  0
 20 21  1  0  0  0  0
 20 22  1  0  0  0  0
 20 23  1  0  0  0  0
 16 17  1  0  0  0  0
 16 18  1  0  0  0  0
 16 19  1  0  0  0  0
 14 15  1  0  0  0  0
 14 16  1  0  0  0  0
 14 20  1  0  0  0  0
 11 12  1  0  0  0  0
 11 13  1  0  0  0  0
 11 14  1  0  0  0  0
  9 10  1  0  0  0  0
  9 11  1  0  0  0  0
  9 24  1  0  0  0  0
  7  8  1  0  0  0  0
  7  9  1  0  0  0  0
 28 29  1  0  0  0  0
 28 30  1  0  0  0  0
 28 31  1  0  0  0  0
 26 27  1  0  0  0  0
 26 28  1  0  0  0  0
M  END
$$$$
default_name
  -OEChem-01062215323D

 31 30  0     1  0  0  0  0  0999 V2000
   -3.5895   -3.5013    1.1082 H   0  0  0  0  0  0  0  0  0  0  0  0
   -3.5145   -2.5363    0.6082 C   0  0  0  0  0  0  0  0  0  0  0  0
   -4.2285   -1.8413    1.0452 H   0  0  0  0  0  0  0  0  0  0  0  0
   -3.7155   -2.6583   -0.4538 H   0  0  0  0  0  0  0  0  0  0  0  0
   -2.1155   -1.9963    0.7922 C   0  0  0  0  0  0  0  0  0  0  0  0
   -1.2875   -2.6383    1.4252 O   0  0  0  0  0  0  0  0  0  0  0  0
   -1.8575   -0.8123    0.2402 N   0  0  0  0  0  0  0  0  0  0  0  0
   -2.6005   -0.3333   -0.2478 H   0  0  0  0  0  0  0  0  0  0  0  0
   -0.5675   -0.1203    0.3102 C   0  0  1  0  0  0  0  0  0  0  0  0
    0.1128   -0.7261    0.9097 H   0  0  0  0  0  0  0  0  0  0  0  0
    0.0008    0.0051   -1.1190 C   0  0  0  0  0  0  0  0  0  0  0  0
   -0.7340    0.5180   -1.7425 H   0  0  0  0  0  0  0  0  0  0  0  0
    0.8925    0.6342   -1.0734 H   0  0  0  0  0  0  0  0  0  0  0  0
    0.3830   -1.3187   -1.8061 C   0  0  0  0  0  0  0  0  0  0  0  0
   -0.4598   -2.0090   -1.7698 H   0  0  0  0  0  0  0  0  0  0  0  0
    0.7973   -1.1150   -3.2663 C   0  0  0  0  0  0  0  0  0  0  0  0
    1.6306   -0.4131   -3.3204 H   0  0  0  0  0  0  0  0  0  0  0  0
    1.1054   -2.0680   -3.6969 H   0  0  0  0  0  0  0  0  0  0  0  0
   -0.0336   -0.7259   -3.8507 H   0  0  0  0  0  0  0  0  0  0  0  0
    1.5551   -1.9640   -1.0678 C   0  0  0  0  0  0  0  0  0  0  0  0
    1.2771   -2.1507   -0.0306 H   0  0  0  0  0  0  0  0  0  0  0  0
    1.8096   -2.9150   -1.5357 H   0  0  0  0  0  0  0  0  0  0  0  0
    2.4241   -1.3057   -1.0946 H   0  0  0  0  0  0  0  0  0  0  0  0
   -0.7335    1.2448    0.9994 C   0  0  0  0  0  0  0  0  0  0  0  0
   -1.6649    1.9837    0.6885 O   0  0  0  0  0  0  0  0  0  0  0  0
    0.1745    1.5805    1.9249 N   0  0  0  0  0  0  0  0  0  0  0  0
    0.9059    0.9184    2.1292 H   0  0  0  0  0  0  0  0  0  0  0  0
    0.1651    2.8457    2.6555 C   0  0  0  0  0  0  0  0  0  0  0  0
   -0.7753    2.9494    3.2015 H   0  0  0  0  0  0  0  0  0  0  0  0
    0.9963    2.8815    3.3614 H   0  0  0  0  0  0  0  0  0  0  0  0
    0.2515    3.6770    1.9539 H   0  0  0  0  0  0  0  0  0  0  0  0
  5  6  2  0  0  0  0
  5  7  1  0  0  0  0
  2  3  1  0  0  0  0
  2  4  1  0  0  0  0
  2  5  1  0  0  0  0
  1  2  1  0  0  0  0
 24 25  2  0  0  0  0
 24 26  1  0  0  0  0
 20 21  1  0  0  0  0
 20 22  1  0  0  0  0
 20 23  1  0  0  0  0
 16 17  1  0  0  0  0
 16 18  1  0  0  0  0
 16 19  1  0  0  0  0
 14 15  1  0  0  0  0
 14 16  1  0  0  0  0
 14 20  1  0  0  0  0
 11 12  1  0  0  0  0
 11 13  1  0  0  0  0
 11 14  1  0  0  0  0
  9 10  1  0  0  0  0
  9 11  1  0  0  0  0
  9 24  1  0  0  0  0
  7  8  1  0  0  0  0
  7  9  1  0  0  0  0
 28 29  1  0  0  0  0
 28 30  1  0  0  0  0
 28 31  1  0  0  0  0
 26 27  1  0  0  0  0
 26 28  1  0  0  0  0
M  END
$$$$
default_name
  -OEChem-01062215323D

 31 30  0     1  0  0  0  0  0999 V2000
   -3.5895   -3.5013    1.1082 H   0  0  0  0  0  0  0  0  0  0  0  0
   -3.5145   -2.5363    0.6082 C   0  0  0  0  0  0  0  0  0  0  0  0
   -4.2285   -1.8413    1.0452 H   0  0  0  0  0  0  0  0  0  0  0  0
   -3.7155   -2.6583   -0.4538 H   0  0  0  0  0  0  0  0  0  0  0  0
   -2.1155   -1.9963    0.7922 C   0  0  0  0  0  0  0  0  0  0  0  0
   -1.2875   -2.6383    1.4252 O   0  0  0  0  0  0  0  0  0  0  0  0
   -1.8575   -0.8123    0.2402 N   0  0  0  0  0  0  0  0  0  0  0  0
   -2.6005   -0.3333   -0.2478 H   0  0  0  0  0  0  0  0  0  0  0  0
   -0.5675   -0.1203    0.3102 C   0  0  1  0  0  0  0  0  0  0  0  0
    0.1128   -0.7261    0.9097 H   0  0  0  0  0  0  0  0  0  0  0  0
    0.0008    0.0051   -1.1190 C   0  0  0  0  0  0  0  0  0  0  0  0
   -0.7340    0.5180   -1.7425 H   0  0  0  0  0  0  0  0  0  0  0  0
    0.8925    0.6342   -1.0734 H   0  0  0  0  0  0  0  0  0  0  0  0
    0.3830   -1.3187   -1.8061 C   0  0  0  0  0  0  0  0  0  0  0  0
   -0.4598   -2.0090   -1.7698 H   0  0  0  0  0  0  0  0  0  0  0  0
    0.7973   -1.1150   -3.2663 C   0  0  0  0  0  0  0  0  0  0  0  0
    1.6306   -0.4131   -3.3204 H   0  0  0  0  0  0  0  0  0  0  0  0
    1.1054   -2.0680   -3.6969 H   0  0  0  0  0  0  0  0  0  0  0  0
   -0.0336   -0.7259   -3.8507 H   0  0  0  0  0  0  0  0  0  0  0  0
    1.5551   -1.9640   -1.0678 C   0  0  0  0  0  0  0  0  0  0  0  0
    1.2771   -2.1507   -0.0306 H   0  0  0  0  0  0  0  0  0  0  0  0
    1.8096   -2.9150   -1.5357 H   0  0  0  0  0  0  0  0  0  0  0  0
    2.4241   -1.3057   -1.0946 H   0  0  0  0  0  0  0  0  0  0  0  0
   -0.7335    1.2448    0.9994 C   0  0  0  0  0  0  0  0  0  0  0  0
   -1.7925    1.8605    0.9018 O   0  0  0  0  0  0  0  0  0  0  0  0
    0.3149    1.7188    1.6848 N   0  0  0  0  0  0  0  0  0  0  0  0
    1.1472    1.1524    1.7239 H   0  0  0  0  0  0  0  0  0  0  0  0
    0.3216    3.0042    2.3795 C   0  0  0  0  0  0  0  0  0  0  0  0
   -0.4749    3.0237    3.1266 H   0  0  0  0  0  0  0  0  0  0  0  0
    1.2815    3.1626    2.8734 H   0  0  0  0  0  0  0  0  0  0  0  0
    0.1460    3.8100    1.6651 H   0  0  0  0  0  0  0  0  0  0  0  0
  5  6  2  0  0  0  0
  5  7  1  0  0  0  0
  2  3  1  0  0  0  0
  2  4  1  0  0  0  0
  2  5  1  0  0  0  0
  1  2  1  0  0  0  0
 24 25  2  0  0  0  0
 24 26  1  0  0  0  0
 20 21  1  0  0  0  0
 20 22  1  0  0  0  0
 20 23  1  0  0  0  0
 16 17  1  0  0  0  0
 16 18  1  0  0  0  0
 16 19  1  0  0  0  0
 14 15  1  0  0  0  0
 14 16  1  0  0  0  0
 14 20  1  0  0  0  0
 11 12  1  0  0  0  0
 11 13  1  0  0  0  0
 11 14  1  0  0  0  0
  9 10  1  0  0  0  0
  9 11  1  0  0  0  0
  9 24  1  0  0  0  0
  7  8  1  0  0  0  0
  7  9  1  0  0  0  0
 28 29  1  0  0  0  0
 28 30  1  0  0  0  0
 28 31  1  0  0  0  0
 26 27  1  0  0  0  0
 26 28  1  0  0  0  0
M  END
$$$$
default_name
  -OEChem-01062215323D

 31 30  0     1  0  0  0  0  0999 V2000
   -3.5895   -3.5013    1.1082 H   0  0  0  0  0  0  0  0  0  0  0  0
   -3.5145   -2.5363    0.6082 C   0  0  0  0  0  0  0  0  0  0  0  0
   -4.2285   -1.8413    1.0452 H   0  0  0  0  0  0  0  0  0  0  0  0
   -3.7155   -2.6583   -0.4538 H   0  0  0  0  0  0  0  0  0  0  0  0
   -2.1155   -1.9963    0.7922 C   0  0  0  0  0  0  0  0  0  0  0  0
   -1.2875   -2.6383    1.4252 O   0  0  0  0  0  0  0  0  0  0  0  0
   -1.8575   -0.8123    0.2402 N   0  0  0  0  0  0  0  0  0  0  0  0
   -2.6005   -0.3333   -0.2478 H   0  0  0  0  0  0  0  0  0  0  0  0
   -0.5675   -0.1203    0.3102 C   0  0  1  0  0  0  0  0  0  0  0  0
    0.1128   -0.7261    0.9097 H   0  0  0  0  0  0  0  0  0  0  0  0
    0.0008    0.0051   -1.1190 C   0  0  0  0  0  0  0  0  0  0  0  0
   -0.7340    0.5180   -1.7425 H   0  0  0  0  0  0  0  0  0  0  0  0
    0.8925    0.6342   -1.0734 H   0  0  0  0  0  0  0  0  0  0  0  0
    0.3830   -1.3187   -1.8061 C   0  0  0  0  0  0  0  0  0  0  0  0
   -0.4598   -2.0090   -1.7698 H   0  0  0  0  0  0  0  0  0  0  0  0
    0.7973   -1.1150   -3.2663 C   0  0  0  0  0  0  0  0  0  0  0  0
    1.6306   -0.4131   -3.3204 H   0  0  0  0  0  0  0  0  0  0  0  0
    1.1054   -2.0680   -3.6969 H   0  0  0  0  0  0  0  0  0  0  0  0
   -0.0336   -0.7259   -3.8507 H   0  0  0  0  0  0  0  0  0  0  0  0
    1.5551   -1.9640   -1.0678 C   0  0  0  0  0  0  0  0  0  0  0  0
    1.2771   -2.1507   -0.0306 H   0  0  0  0  0  0  0  0  0  0  0  0
    1.8096   -2.9150   -1.5357 H   0  0  0  0  0  0  0  0  0  0  0  0
    2.4241   -1.3057   -1.0946 H   0  0  0  0  0  0  0  0  0  0  0  0
   -0.7335    1.2448    0.9994 C   0  0  0  0  0  0  0  0  0  0  0  0
   -1.8525    1.7327    1.1406 O   0  0  0  0  0  0  0  0  0  0  0  0
    0.3794    1.8620    1.4168 N   0  0  0  0  0  0  0  0  0  0  0  0
    1.2601    1.3951    1.2704 H   0  0  0  0  0  0  0  0  0  0  0  0
    0.3910    3.1676    2.0725 C   0  0  0  0  0  0  0  0  0  0  0  0
   -0.2107    3.1282    2.9833 H   0  0  0  0  0  0  0  0  0  0  0  0
    1.4123    3.4536    2.3286 H   0  0  0  0  0  0  0  0  0  0  0  0
   -0.0376    3.9182    1.4065 H   0  0  0  0  0  0  0  0  0  0  0  0
  5  6  2  0  0  0  0
  5  7  1  0  0  0  0
  2  3  1  0  0  0  0
  2  4  1  0  0  0  0
  2  5  1  0  0  0  0
  1  2  1  0  0  0  0
 24 25  2  0  0  0  0
 24 26  1  0  0  0  0
 20 21  1  0  0  0  0
 20 22  1  0  0  0  0
 20 23  1  0  0  0  0
 16 17  1  0  0  0  0
 16 18  1  0  0  0  0
 16 19  1  0  0  0  0
 14 15  1  0  0  0  0
 14 16  1  0  0  0  0
 14 20  1  0  0  0  0
 11 12  1  0  0  0  0
 11 13  1  0  0  0  0
 11 14  1  0  0  0  0
  9 10  1  0  0  0  0
  9 11  1  0  0  0  0
  9 24  1  0  0  0  0
  7  8  1  0  0  0  0
  7  9  1  0  0  0  0
 28 29  1  0  0  0  0
 28 30  1  0  0  0  0
 28 31  1  0  0  0  0
 26 27  1  0  0  0  0
 26 28  1  0  0  0  0
M  END
$$$$
default_name
  -OEChem-01062215323D

 31 30  0     1  0  0  0  0  0999 V2000
   -3.5895   -3.5013    1.1082 H   0  0  0  0  0  0  0  0  0  0  0  0
   -3.5145   -2.5363    0.6082 C   0  0  0  0  0  0  0  0  0  0  0  0
   -4.2285   -1.8413    1.0452 H   0  0  0  0  0  0  0  0  0  0  0  0
   -3.7155   -2.6583   -0.4538 H   0  0  0  0  0  0  0  0  0  0  0  0
   -2.1155   -1.9963    0.7922 C   0  0  0  0  0  0  0  0  0  0  0  0
   -1.2875   -2.6383    1.4252 O   0  0  0  0  0  0  0  0  0  0  0  0
   -1.8575   -0.8123    0.2402 N   0  0  0  0  0  0  0  0  0  0  0  0
   -2.6005   -0.3333   -0.2478 H   0  0  0  0  0  0  0  0  0  0  0  0
   -0.5675   -0.1203    0.3102 C   0  0  1  0  0  0  0  0  0  0  0  0
    0.1806   -0.8282    0.6687 H   0  0  0  0  0  0  0  0  0  0  0  0
   -0.1800    0.3414   -1.1104 C   0  0  0  0  0  0  0  0  0  0  0  0
   -0.9854    0.9628   -1.5067 H   0  0  0  0  0  0  0  0  0  0  0  0
    0.7116    0.9671   -1.0302 H   0  0  0  0  0  0  0  0  0  0  0  0
    0.1119   -0.7813   -2.1229 C   0  0  0  0  0  0  0  0  0  0  0  0
   -0.7212   -1.4839   -2.1439 H   0  0  0  0  0  0  0  0  0  0  0  0
    0.3429   -0.2404   -3.5369 C   0  0  0  0  0  0  0  0  0  0  0  0
    1.1643    0.4773   -3.5294 H   0  0  0  0  0  0  0  0  0  0  0  0
    0.5936   -1.0623   -4.2079 H   0  0  0  0  0  0  0  0  0  0  0  0
   -0.5532    0.2490   -3.9122 H   0  0  0  0  0  0  0  0  0  0  0  0
    1.3651   -1.5460   -1.6987 C   0  0  0  0  0  0  0  0  0  0  0  0
    1.2171   -1.9706   -0.7059 H   0  0  0  0  0  0  0  0  0  0  0  0
    1.5581   -2.3588   -2.3989 H   0  0  0  0  0  0  0  0  0  0  0  0
    2.2254   -0.8760   -1.6791 H   0  0  0  0  0  0  0  0  0  0  0  0
   -0.6446    1.0477    1.3080 C   0  0  0  0  0  0  0  0  0  0  0  0
   -1.6946    1.2845    1.9010 O   0  0  0  0  0  0  0  0  0  0  0  0
    0.4627    1.7806    1.4832 N   0  0  0  0  0  0  0  0  0  0  0  0
    1.2867    1.5204    0.9652 H   0  0  0  0  0  0  0  0  0  0  0  0
    0.5463    2.9304    2.3808 C   0  0  0  0  0  0  0  0  0  0  0  0
    0.3068    2.6204    3.4004 H   0  0  0  0  0  0  0  0  0  0  0  0
    1.5516    3.3541    2.3607 H   0  0  0  0  0  0  0  0  0  0  0  0
   -0.1722    3.6915    2.0725 H   0  0  0  0  0  0  0  0  0  0  0  0
  5  6  2  0  0  0  0
  5  7  1  0  0  0  0
  2  3  1  0  0  0  0
  2  4  1  0  0  0  0
  2  5  1  0  0  0  0
  1  2  1  0  0  0  0
 24 25  2  0  0  0  0
 24 26  1  0  0  0  0
 20 21  1  0  0  0  0
 20 22  1  0  0  0  0
 20 23  1  0  0  0  0
 16 17  1  0  0  0  0
 16 18  1  0  0  0  0
 16 19  1  0  0  0  0
 14 15  1  0  0  0  0
 14 16  1  0  0  0  0
 14 20  1  0  0  0  0
 11 12  1  0  0  0  0
 11 13  1  0  0  0  0
 11 14  1  0  0  0  0
  9 10  1  0  0  0  0
  9 11  1  0  0  0  0
  9 24  1  0  0  0  0
  7  8  1  0  0  0  0
  7  9  1  0  0  0  0
 28 29  1  0  0  0  0
 28 30  1  0  0  0  0
 28 31  1  0  0  0  0
 26 27  1  0  0  0  0
 26 28  1  0  0  0  0
M  END
$$$$
default_name
  -OEChem-01062215323D

 31 30  0     1  0  0  0  0  0999 V2000
   -3.5895   -3.5013    1.1082 H   0  0  0  0  0  0  0  0  0  0  0  0
   -3.5145   -2.5363    0.6082 C   0  0  0  0  0  0  0  0  0  0  0  0
   -4.2285   -1.8413    1.0452 H   0  0  0  0  0  0  0  0  0  0  0  0
   -3.7155   -2.6583   -0.4538 H   0  0  0  0  0  0  0  0  0  0  0  0
   -2.1155   -1.9963    0.7922 C   0  0  0  0  0  0  0  0  0  0  0  0
   -1.2875   -2.6383    1.4252 O   0  0  0  0  0  0  0  0  0  0  0  0
   -1.8575   -0.8123    0.2402 N   0  0  0  0  0  0  0  0  0  0  0  0
   -2.6005   -0.3333   -0.2478 H   0  0  0  0  0  0  0  0  0  0  0  0
   -0.5675   -0.1203    0.3102 C   0  0  1  0  0  0  0  0  0  0  0  0
    0.1806   -0.8282    0.6687 H   0  0  0  0  0  0  0  0  0  0  0  0
   -0.1800    0.3414   -1.1104 C   0  0  0  0  0  0  0  0  0  0  0  0
   -0.9854    0.9628   -1.5067 H   0  0  0  0  0  0  0  0  0  0  0  0
    0.7116    0.9671   -1.0302 H   0  0  0  0  0  0  0  0  0  0  0  0
    0.1119   -0.7813   -2.1229 C   0  0  0  0  0  0  0  0  0  0  0  0
   -0.7212   -1.4839   -2.1439 H   0  0  0  0  0  0  0  0  0  0  0  0
    0.3429   -0.2404   -3.5369 C   0  0  0  0  0  0  0  0  0  0  0  0
    1.1643    0.4773   -3.5294 H   0  0  0  0  0  0  0  0  0  0  0  0
    0.5936   -1.0623   -4.2079 H   0  0  0  0  0  0  0  0  0  0  0  0
   -0.5532    0.2490   -3.9122 H   0  0  0  0  0  0  0  0  0  0  0  0
    1.3651   -1.5460   -1.6987 C   0  0  0  0  0  0  0  0  0  0  0  0
    1.2171   -1.9706   -0.7059 H   0  0  0  0  0  0  0  0  0  0  0  0
    1.5581   -2.3588   -2.3989 H   0  0  0  0  0  0  0  0  0  0  0  0
    2.2254   -0.8760   -1.6791 H   0  0  0  0  0  0  0  0  0  0  0  0
   -0.6446    1.0477    1.3080 C   0  0  0  0  0  0  0  0  0  0  0  0
   -1.5831    1.1237    2.0977 O   0  0  0  0  0  0  0  0  0  0  0  0
    0.3353    1.9597    1.2637 N   0  0  0  0  0  0  0  0  0  0  0  0
    1.0741    1.8251    0.5920 H   0  0  0  0  0  0  0  0  0  0  0  0
    0.3969    3.1336    2.1314 C   0  0  0  0  0  0  0  0  0  0  0  0
    0.4173    2.8185    3.1771 H   0  0  0  0  0  0  0  0  0  0  0  0
    1.2924    3.7180    1.9147 H   0  0  0  0  0  0  0  0  0  0  0  0
   -0.4862    3.7548    1.9741 H   0  0  0  0  0  0  0  0  0  0  0  0
  5  6  2  0  0  0  0
  5  7  1  0  0  0  0
  2  3  1  0  0  0  0
  2  4  1  0  0  0  0
  2  5  1  0  0  0  0
  1  2  1  0  0  0  0
 24 25  2  0  0  0  0
 24 26  1  0  0  0  0
 20 21  1  0  0  0  0
 20 22  1  0  0  0  0
 20 23  1  0  0  0  0
 16 17  1  0  0  0  0
 16 18  1  0  0  0  0
 16 19  1  0  0  0  0
 14 15  1  0  0  0  0
 14 16  1  0  0  0  0
 14 20  1  0  0  0  0
 11 12  1  0  0  0  0
 11 13  1  0  0  0  0
 11 14  1  0  0  0  0
  9 10  1  0  0  0  0
  9 11  1  0  0  0  0
  9 24  1  0  0  0  0
  7  8  1  0  0  0  0
  7  9  1  0  0  0  0
 28 29  1  0  0  0  0
 28 30  1  0  0  0  0
 28 31  1  0  0  0  0
 26 27  1  0  0  0  0
 26 28  1  0  0  0  0
M  END
$$$$
default_name
  -OEChem-01062215323D

 31 30  0     1  0  0  0  0  0999 V2000
   -3.5895   -3.5013    1.1082 H   0  0  0  0  0  0  0  0  0  0  0  0
   -3.5145   -2.5363    0.6082 C   0  0  0  0  0  0  0  0  0  0  0  0
   -4.2285   -1.8413    1.0452 H   0  0  0  0  0  0  0  0  0  0  0  0
   -3.7155   -2.6583   -0.4538 H   0  0  0  0  0  0  0  0  0  0  0  0
   -2.1155   -1.9963    0.7922 C   0  0  0  0  0  0  0  0  0  0  0  0
   -1.2875   -2.6383    1.4252 O   0  0  0  0  0  0  0  0  0  0  0  0
   -1.8575   -0.8123    0.2402 N   0  0  0  0  0  0  0  0  0  0  0  0
   -2.6005   -0.3333   -0.2478 H   0  0  0  0  0  0  0  0  0  0  0  0
   -0.5675   -0.1203    0.3102 C   0  0  1  0  0  0  0  0  0  0  0  0
    0.1806   -0.8282    0.6687 H   0  0  0  0  0  0  0  0  0  0  0  0
   -0.1800    0.3414   -1.1104 C   0  0  0  0  0  0  0  0  0  0  0  0
   -0.9854    0.9628   -1.5067 H   0  0  0  0  0  0  0  0  0  0  0  0
    0.7116    0.9671   -1.0302 H   0  0  0  0  0  0  0  0  0  0  0  0
    0.1119   -0.7813   -2.1229 C   0  0  0  0  0  0  0  0  0  0  0  0
   -0.7212   -1.4839   -2.1439 H   0  0  0  0  0  0  0  0  0  0  0  0
    0.3429   -0.2404   -3.5369 C   0  0  0  0  0  0  0  0  0  0  0  0
    1.1643    0.4773   -3.5294 H   0  0  0  0  0  0  0  0  0  0  0  0
    0.5936   -1.0623   -4.2079 H   0  0  0  0  0  0  0  0  0  0  0  0
   -0.5532    0.2490   -3.9122 H   0  0  0  0  0  0  0  0  0  0  0  0
    1.3651   -1.5460   -1.6987 C   0  0  0  0  0  0  0  0  0  0  0  0
    1.2171   -1.9706   -0.7059 H   0  0  0  0  0  0  0  0  0  0  0  0
    1.5581   -2.3588   -2.3989 H   0  0  0  0  0  0  0  0  0  0  0  0
    2.2254   -0.8760   -1.6791 H   0  0  0  0  0  0  0  0  0  0  0  0
   -0.6446    1.0477    1.3080 C   0  0  0  0  0  0  0  0  0  0  0  0
   -1.4097    0.9898    2.2679 O   0  0  0  0  0  0  0  0  0  0  0  0
    0.1390    2.1085    1.0743 N   0  0  0  0  0  0  0  0  0  0  0  0
    0.7442    2.0789    0.2695 H   0  0  0  0  0  0  0  0  0  0  0  0
    0.1695    3.3015    1.9172 C   0  0  0  0  0  0  0  0  0  0  0  0
    0.4469    3.0255    2.9371 H   0  0  0  0  0  0  0  0  0  0  0  0
    0.8933    4.0203    1.5300 H   0  0  0  0  0  0  0  0  0  0  0  0
   -0.8195    3.7620    1.9400 H   0  0  0  0  0  0  0  0  0  0  0  0
  5  6  2  0  0  0  0
  5  7  1  0  0  0  0
  2  3  1  0  0  0  0
  2  4  1  0  0  0  0
  2  5  1  0  0  0  0
  1  2  1  0  0  0  0
 24 25  2  0  0  0  0
 24 26  1  0  0  0  0
 20 21  1  0  0  0  0
 20 22  1  0  0  0  0
 20 23  1  0  0  0  0
 16 17  1  0  0  0  0
 16 18  1  0  0  0  0
 16 19  1  0  0  0  0
 14 15  1  0  0  0  0
 14 16  1  0  0  0  0
 14 20  1  0  0  0  0
 11 12  1  0  0  0  0
 11 13  1  0  0  0  0
 11 14  1  0  0  0  0
  9 10  1  0  0  0  0
  9 11  1  0  0  0  0
  9 24  1  0  0  0  0
  7  8  1  0  0  0  0
  7  9  1  0  0  0  0
 28 29  1  0  0  0  0
 28 30  1  0  0  0  0
 28 31  1  0  0  0  0
 26 27  1  0  0  0  0
 26 28  1  0  0  0  0
M  END
$$$$
default_name
  -OEChem-01062215323D

 31 30  0     1  0  0  0  0  0999 V2000
   -3.5895   -3.5013    1.1082 H   0  0  0  0  0  0  0  0  0  0  0  0
   -3.5145   -2.5363    0.6082 C   0  0  0  0  0  0  0  0  0  0  0  0
   -4.2285   -1.8413    1.0452 H   0  0  0  0  0  0  0  0  0  0  0  0
   -3.7155   -2.6583   -0.4538 H   0  0  0  0  0  0  0  0  0  0  0  0
   -2.1155   -1.9963    0.7922 C   0  0  0  0  0  0  0  0  0  0  0  0
   -1.2875   -2.6383    1.4252 O   0  0  0  0  0  0  0  0  0  0  0  0
   -1.8575   -0.8123    0.2402 N   0  0  0  0  0  0  0  0  0  0  0  0
   -2.6005   -0.3333   -0.2478 H   0  0  0  0  0  0  0  0  0  0  0  0
   -0.5675   -0.1203    0.3102 C   0  0  1  0  0  0  0  0  0  0  0  0
    0.1806   -0.8282    0.6687 H   0  0  0  0  0  0  0  0  0  0  0  0
   -0.1800    0.3414   -1.1104 C   0  0  0  0  0  0  0  0  0  0  0  0
   -0.9854    0.9628   -1.5067 H   0  0  0  0  0  0  0  0  0  0  0  0
    0.7116    0.9671   -1.0302 H   0  0  0  0  0  0  0  0  0  0  0  0
    0.1119   -0.7813   -2.1229 C   0  0  0  0  0  0  0  0  0  0  0  0
   -0.7212   -1.4839   -2.1439 H   0  0  0  0  0  0  0  0  0  0  0  0
    0.3429   -0.2404   -3.5369 C   0  0  0  0  0  0  0  0  0  0  0  0
    1.1643    0.4773   -3.5294 H   0  0  0  0  0  0  0  0  0  0  0  0
    0.5936   -1.0623   -4.2079 H   0  0  0  0  0  0  0  0  0  0  0  0
   -0.5532    0.2490   -3.9122 H   0  0  0  0  0  0  0  0  0  0  0  0
    1.3651   -1.5460   -1.6987 C   0  0  0  0  0  0  0  0  0  0  0  0
    1.2171   -1.9706   -0.7059 H   0  0  0  0  0  0  0  0  0  0  0  0
    1.5581   -2.3588   -2.3989 H   0  0  0  0  0  0  0  0  0  0  0  0
    2.2254   -0.8760   -1.6791 H   0  0  0  0  0  0  0  0  0  0  0  0
   -0.6446    1.0477    1.3080 C   0  0  0  0  0  0  0  0  0  0  0  0
   -1.1863    0.8917    2.4000 O   0  0  0  0  0  0  0  0  0  0  0  0
   -0.1128    2.2168    0.9281 N   0  0  0  0  0  0  0  0  0  0  0  0
    0.3195    2.2645    0.0194 H   0  0  0  0  0  0  0  0  0  0  0  0
   -0.1204    3.4228    1.7529 C   0  0  0  0  0  0  0  0  0  0  0  0
    0.3935    3.2273    2.6968 H   0  0  0  0  0  0  0  0  0  0  0  0
    0.3815    4.2402    1.2330 H   0  0  0  0  0  0  0  0  0  0  0  0
   -1.1493    3.7125    1.9724 H   0  0  0  0  0  0  0  0  0  0  0  0
  5  6  2  0  0  0  0
  5  7  1  0  0  0  0
  2  3  1  0  0  0  0
  2  4  1  0  0  0  0
  2  5  1  0  0  0  0
  1  2  1  0  0  0  0
 24 25  2  0  0  0  0
 24 26  1  0  0  0  0
 20 21  1  0  0  0  0
 20 22  1  0  0  0  0
 20 23  1  0  0  0  0
 16 17  1  0  0  0  0
 16 18  1  0  0  0  0
 16 19  1  0  0  0  0
 14 15  1  0  0  0  0
 14 16  1  0  0  0  0
 14 20  1  0  0  0  0
 11 12  1  0  0  0  0
 11 13  1  0  0  0  0
 11 14  1  0  0  0  0
  9 10  1  0  0  0  0
  9 11  1  0  0  0  0
  9 24  1  0  0  0  0
  7  8  1  0  0  0  0
  7  9  1  0  0  0  0
 28 29  1  0  0  0  0
 28 30  1  0  0  0  0
 28 31  1  0  0  0  0
 26 27  1  0  0  0  0
 26 28  1  0  0  0  0
M  END
$$$$
default_name
  -OEChem-01062215323D

 31 30  0     1  0  0  0  0  0999 V2000
   -3.5895   -3.5013    1.1082 H   0  0  0  0  0  0  0  0  0  0  0  0
   -3.5145   -2.5363    0.6082 C   0  0  0  0  0  0  0  0  0  0  0  0
   -4.2285   -1.8413    1.0452 H   0  0  0  0  0  0  0  0  0  0  0  0
   -3.7155   -2.6583   -0.4538 H   0  0  0  0  0  0  0  0  0  0  0  0
   -2.1155   -1.9963    0.7922 C   0  0  0  0  0  0  0  0  0  0  0  0
   -1.2875   -2.6383    1.4252 O   0  0  0  0  0  0  0  0  0  0  0  0
   -1.8575   -0.8123    0.2402 N   0  0  0  0  0  0  0  0  0  0  0  0
   -2.6005   -0.3333   -0.2478 H   0  0  0  0  0  0  0  0  0  0  0  0
   -0.5675   -0.1203    0.3102 C   0  0  1  0  0  0  0  0  0  0  0  0
    0.1806   -0.8282    0.6687 H   0  0  0  0  0  0  0  0  0  0  0  0
   -0.1800    0.3414   -1.1104 C   0  0  0  0  0  0  0  0  0  0  0  0
   -0.9854    0.9628   -1.5067 H   0  0  0  0  0  0  0  0  0  0  0  0
    0.7116    0.9671   -1.0302 H   0  0  0  0  0  0  0  0  0  0  0  0
    0.1119   -0.7813   -2.1229 C   0  0  0  0  0  0  0  0  0  0  0  0
   -0.7212   -1.4839   -2.1439 H   0  0  0  0  0  0  0  0  0  0  0  0
    0.3429   -0.2404   -3.5369 C   0  0  0  0  0  0  0  0  0  0  0  0
    1.1643    0.4773   -3.5294 H   0  0  0  0  0  0  0  0  0  0  0  0
    0.5936   -1.0623   -4.2079 H   0  0  0  0  0  0  0  0  0  0  0  0
   -0.5532    0.2490   -3.9122 H   0  0  0  0  0  0  0  0  0  0  0  0
    1.3651   -1.5460   -1.6987 C   0  0  0  0  0  0  0  0  0  0  0  0
    1.2171   -1.9706   -0.7059 H   0  0  0  0  0  0  0  0  0  0  0  0
    1.5581   -2.3588   -2.3989 H   0  0  0  0  0  0  0  0  0  0  0  0
    2.2254   -0.8760   -1.6791 H   0  0  0  0  0  0  0  0  0  0  0  0
   -0.6446    1.0477    1.3080 C   0  0  0  0  0  0  0  0  0  0  0  0
   -0.9281    0.8362    2.4849 O   0  0  0  0  0  0  0  0  0  0  0  0
   -0.4029    2.2772    0.8350 N   0  0  0  0  0  0  0  0  0  0  0  0
   -0.1709    2.3692   -0.1411 H   0  0  0  0  0  0  0  0  0  0  0  0
   -0.4532    3.4891    1.6496 C   0  0  0  0  0  0  0  0  0  0  0  0
    0.2608    3.4102    2.4725 H   0  0  0  0  0  0  0  0  0  0  0  0
   -0.2082    4.3629    1.0439 H   0  0  0  0  0  0  0  0  0  0  0  0
   -1.4532    3.6098    2.0692 H   0  0  0  0  0  0  0  0  0  0  0  0
  5  6  2  0  0  0  0
  5  7  1  0  0  0  0
  2  3  1  0  0  0  0
  2  4  1  0  0  0  0
  2  5  1  0  0  0  0
  1  2  1  0  0  0  0
 24 25  2  0  0  0  0
 24 26  1  0  0  0  0
 20 21  1  0  0  0  0
 20 22  1  0  0  0  0
 20 23  1  0  0  0  0
 16 17  1  0  0  0  0
 16 18  1  0  0  0  0
 16 19  1  0  0  0  0
 14 15  1  0  0  0  0
 14 16  1  0  0  0  0
 14 20  1  0  0  0  0
 11 12  1  0  0  0  0
 11 13  1  0  0  0  0
 11 14  1  0  0  0  0
  9 10  1  0  0  0  0
  9 11  1  0  0  0  0
  9 24  1  0  0  0  0
  7  8  1  0  0  0  0
  7  9  1  0  0  0  0
 28 29  1  0  0  0  0
 28 30  1  0  0  0  0
 28 31  1  0  0  0  0
 26 27  1  0  0  0  0
 26 28  1  0  0  0  0
M  END
$$$$
default_name
  -OEChem-01062215323D

 31 30  0     1  0  0  0  0  0999 V2000
   -3.5895   -3.5013    1.1082 H   0  0  0  0  0  0  0  0  0  0  0  0
   -3.5145   -2.5363    0.6082 C   0  0  0  0  0  0  0  0  0  0  0  0
   -4.2285   -1.8413    1.0452 H   0  0  0  0  0  0  0  0  0  0  0  0
   -3.7155   -2.6583   -0.4538 H   0  0  0  0  0  0  0  0  0  0  0  0
   -2.1155   -1.9963    0.7922 C   0  0  0  0  0  0  0  0  0  0  0  0
   -1.2875   -2.6383    1.4252 O   0  0  0  0  0  0  0  0  0  0  0  0
   -1.8575   -0.8123    0.2402 N   0  0  0  0  0  0  0  0  0  0  0  0
   -2.6005   -0.3333   -0.2478 H   0  0  0  0  0  0  0  0  0  0  0  0
   -0.5675   -0.1203    0.3102 C   0  0  1  0  0  0  0  0  0  0  0  0
    0.1806   -0.8282    0.6687 H   0  0  0  0  0  0  0  0  0  0  0  0
   -0.1800    0.3414   -1.1104 C   0  0  0  0  0  0  0  0  0  0  0  0
   -0.9854    0.9628   -1.5067 H   0  0  0  0  0  0  0  0  0  0  0  0
    0.7116    0.9671   -1.0302 H   0  0  0  0  0  0  0  0  0  0  0  0
    0.1119   -0.7813   -2.1229 C   0  0  0  0  0  0  0  0  0  0  0  0
   -0.7212   -1.4839   -2.1439 H   0  0  0  0  0  0  0  0  0  0  0  0
    0.3429   -0.2404   -3.5369 C   0  0  0  0  0  0  0  0  0  0  0  0
    1.1643    0.4773   -3.5294 H   0  0  0  0  0  0  0  0  0  0  0  0
    0.5936   -1.0623   -4.2079 H   0  0  0  0  0  0  0  0  0  0  0  0
   -0.5532    0.2490   -3.9122 H   0  0  0  0  0  0  0  0  0  0  0  0
    1.3651   -1.5460   -1.6987 C   0  0  0  0  0  0  0  0  0  0  0  0
    1.2171   -1.9706   -0.7059 H   0  0  0  0  0  0  0  0  0  0  0  0
    1.5581   -2.3588   -2.3989 H   0  0  0  0  0  0  0  0  0  0  0  0
    2.2254   -0.8760   -1.6791 H   0  0  0  0  0  0  0  0  0  0  0  0
   -0.6446    1.0477    1.3080 C   0  0  0  0  0  0  0  0  0  0  0  0
   -0.6527    0.8270    2.5169 O   0  0  0  0  0  0  0  0  0  0  0  0
   -0.7116    2.2857    0.8012 N   0  0  0  0  0  0  0  0  0  0  0  0
   -0.6938    2.3859   -0.2011 H   0  0  0  0  0  0  0  0  0  0  0  0
   -0.8060    3.4959    1.6143 C   0  0  0  0  0  0  0  0  0  0  0  0
    0.0579    3.5616    2.2796 H   0  0  0  0  0  0  0  0  0  0  0  0
   -0.8356    4.3799    0.9755 H   0  0  0  0  0  0  0  0  0  0  0  0
   -1.7104    3.4607    2.2238 H   0  0  0  0  0  0  0  0  0  0  0  0
  5  6  2  0  0  0  0
  5  7  1  0  0  0  0
  2  3  1  0  0  0  0
  2  4  1  0  0  0  0
  2  5  1  0  0  0  0
  1  2  1  0  0  0  0
 24 25  2  0  0  0  0
 24 26  1  0  0  0  0
 20 21  1  0  0  0  0
 20 22  1  0  0  0  0
 20 23  1  0  0  0  0
 16 17  1  0  0  0  0
 16 18  1  0  0  0  0
 16 19  1  0  0  0  0
 14 15  1  0  0  0  0
 14 16  1  0  0  0  0
 14 20  1  0  0  0  0
 11 12  1  0  0  0  0
 11 13  1  0  0  0  0
 11 14  1  0  0  0  0
  9 10  1  0  0  0  0
  9 11  1  0  0  0  0
  9 24  1  0  0  0  0
  7  8  1  0  0  0  0
  7  9  1  0  0  0  0
 28 29  1  0  0  0  0
 28 30  1  0  0  0  0
 28 31  1  0  0  0  0
 26 27  1  0  0  0  0
 26 28  1  0  0  0  0
M  END
$$$$
default_name
  -OEChem-01062215323D

 31 30  0     1  0  0  0  0  0999 V2000
   -3.5895   -3.5013    1.1082 H   0  0  0  0  0  0  0  0  0  0  0  0
   -3.5145   -2.5363    0.6082 C   0  0  0  0  0  0  0  0  0  0  0  0
   -4.2285   -1.8413    1.0452 H   0  0  0  0  0  0  0  0  0  0  0  0
   -3.7155   -2.6583   -0.4538 H   0  0  0  0  0  0  0  0  0  0  0  0
   -2.1155   -1.9963    0.7922 C   0  0  0  0  0  0  0  0  0  0  0  0
   -1.2875   -2.6383    1.4252 O   0  0  0  0  0  0  0  0  0  0  0  0
   -1.8575   -0.8123    0.2402 N   0  0  0  0  0  0  0  0  0  0  0  0
   -2.6005   -0.3333   -0.2478 H   0  0  0  0  0  0  0  0  0  0  0  0
   -0.5675   -0.1203    0.3102 C   0  0  1  0  0  0  0  0  0  0  0  0
    0.1806   -0.8282    0.6687 H   0  0  0  0  0  0  0  0  0  0  0  0
   -0.1800    0.3414   -1.1104 C   0  0  0  0  0  0  0  0  0  0  0  0
   -0.9854    0.9628   -1.5067 H   0  0  0  0  0  0  0  0  0  0  0  0
    0.7116    0.9671   -1.0302 H   0  0  0  0  0  0  0  0  0  0  0  0
    0.1119   -0.7813   -2.1229 C   0  0  0  0  0  0  0  0  0  0  0  0
   -0.7212   -1.4839   -2.1439 H   0  0  0  0  0  0  0  0  0  0  0  0
    0.3429   -0.2404   -3.5369 C   0  0  0  0  0  0  0  0  0  0  0  0
    1.1643    0.4773   -3.5294 H   0  0  0  0  0  0  0  0  0  0  0  0
    0.5936   -1.0623   -4.2079 H   0  0  0  0  0  0  0  0  0  0  0  0
   -0.5532    0.2490   -3.9122 H   0  0  0  0  0  0  0  0  0  0  0  0
    1.3651   -1.5460   -1.6987 C   0  0  0  0  0  0  0  0  0  0  0  0
    1.2171   -1.9706   -0.7059 H   0  0  0  0  0  0  0  0  0  0  0  0
    1.5581   -2.3588   -2.3989 H   0  0  0  0  0  0  0  0  0  0  0  0
    2.2254   -0.8760   -1.6791 H   0  0  0  0  0  0  0  0  0  0  0  0
   -0.6446    1.0477    1.3080 C   0  0  0  0  0  0  0  0  0  0  0  0
   -0.3788    0.8649    2.4938 O   0  0  0  0  0  0  0  0  0  0  0  0
   -1.0178    2.2416    0.8292 N   0  0  0  0  0  0  0  0  0  0  0  0
   -1.2135    2.3135   -0.1565 H   0  0  0  0  0  0  0  0  0  0  0  0
   -1.1549    3.4428    1.6495 C   0  0  0  0  0  0  0  0  0  0  0  0
   -0.2015    3.6713    2.1311 H   0  0  0  0  0  0  0  0  0  0  0  0
   -1.4579    4.2901    1.0325 H   0  0  0  0  0  0  0  0  0  0  0  0
   -1.9035    3.2756    2.4255 H   0  0  0  0  0  0  0  0  0  0  0  0
  5  6  2  0  0  0  0
  5  7  1  0  0  0  0
  2  3  1  0  0  0  0
  2  4  1  0  0  0  0
  2  5  1  0  0  0  0
  1  2  1  0  0  0  0
 24 25  2  0  0  0  0
 24 26  1  0  0  0  0
 20 21  1  0  0  0  0
 20 22  1  0  0  0  0
 20 23  1  0  0  0  0
 16 17  1  0  0  0  0
 16 18  1  0  0  0  0
 16 19  1  0  0  0  0
 14 15  1  0  0  0  0
 14 16  1  0  0  0  0
 14 20  1  0  0  0  0
 11 12  1  0  0  0  0
 11 13  1  0  0  0  0
 11 14  1  0  0  0  0
  9 10  1  0  0  0  0
  9 11  1  0  0  0  0
  9 24  1  0  0  0  0
  7  8  1  0  0  0  0
  7  9  1  0  0  0  0
 28 29  1  0  0  0  0
 28 30  1  0  0  0  0
 28 31  1  0  0  0  0
 26 27  1  0  0  0  0
 26 28  1  0  0  0  0
M  END
$$$$
default_name
  -OEChem-01062215323D

 31 30  0     1  0  0  0  0  0999 V2000
   -3.5895   -3.5013    1.1082 H   0  0  0  0  0  0  0  0  0  0  0  0
   -3.5145   -2.5363    0.6082 C   0  0  0  0  0  0  0  0  0  0  0  0
   -4.2285   -1.8413    1.0452 H   0  0  0  0  0  0  0  0  0  0  0  0
   -3.7155   -2.6583   -0.4538 H   0  0  0  0  0  0  0  0  0  0  0  0
   -2.1155   -1.9963    0.7922 C   0  0  0  0  0  0  0  0  0  0  0  0
   -1.2875   -2.6383    1.4252 O   0  0  0  0  0  0  0  0  0  0  0  0
   -1.8575   -0.8123    0.2402 N   0  0  0  0  0  0  0  0  0  0  0  0
   -2.6005   -0.3333   -0.2478 H   0  0  0  0  0  0  0  0  0  0  0  0
   -0.5675   -0.1203    0.3102 C   0  0  1  0  0  0  0  0  0  0  0  0
    0.1806   -0.8282    0.6687 H   0  0  0  0  0  0  0  0  0  0  0  0
   -0.1800    0.3414   -1.1104 C   0  0  0  0  0  0  0  0  0  0  0  0
   -0.9854    0.9628   -1.5067 H   0  0  0  0  0  0  0  0  0  0  0  0
    0.7116    0.9671   -1.0302 H   0  0  0  0  0  0  0  0  0  0  0  0
    0.1119   -0.7813   -2.1229 C   0  0  0  0  0  0  0  0  0  0  0  0
   -0.7212   -1.4839   -2.1439 H   0  0  0  0  0  0  0  0  0  0  0  0
    0.3429   -0.2404   -3.5369 C   0  0  0  0  0  0  0  0  0  0  0  0
    1.1643    0.4773   -3.5294 H   0  0  0  0  0  0  0  0  0  0  0  0
    0.5936   -1.0623   -4.2079 H   0  0  0  0  0  0  0  0  0  0  0  0
   -0.5532    0.2490   -3.9122 H   0  0  0  0  0  0  0  0  0  0  0  0
    1.3651   -1.5460   -1.6987 C   0  0  0  0  0  0  0  0  0  0  0  0
    1.2171   -1.9706   -0.7059 H   0  0  0  0  0  0  0  0  0  0  0  0
    1.5581   -2.3588   -2.3989 H   0  0  0  0  0  0  0  0  0  0  0  0
    2.2254   -0.8760   -1.6791 H   0  0  0  0  0  0  0  0  0  0  0  0
   -0.6446    1.0477    1.3080 C   0  0  0  0  0  0  0  0  0  0  0  0
   -0.1252    0.9471    2.4172 O   0  0  0  0  0  0  0  0  0  0  0  0
   -1.3007    2.1479    0.9169 N   0  0  0  0  0  0  0  0  0  0  0  0
   -1.6945    2.1569   -0.0103 H   0  0  0  0  0  0  0  0  0  0  0  0
   -1.4761    3.3334    1.7528 C   0  0  0  0  0  0  0  0  0  0  0  0
   -0.4996    3.7317    2.0373 H   0  0  0  0  0  0  0  0  0  0  0  0
   -2.0327    4.0996    1.2110 H   0  0  0  0  0  0  0  0  0  0  0  0
   -2.0193    3.0670    2.6608 H   0  0  0  0  0  0  0  0  0  0  0  0
  5  6  2  0  0  0  0
  5  7  1  0  0  0  0
  2  3  1  0  0  0  0
  2  4  1  0  0  0  0
  2  5  1  0  0  0  0
  1  2  1  0  0  0  0
 24 25  2  0  0  0  0
 24 26  1  0  0  0  0
 20 21  1  0  0  0  0
 20 22  1  0  0  0  0
 20 23  1  0  0  0  0
 16 17  1  0  0  0  0
 16 18  1  0  0  0  0
 16 19  1  0  0  0  0
 14 15  1  0  0  0  0
 14 16  1  0  0  0  0
 14 20  1  0  0  0  0
 11 12  1  0  0  0  0
 11 13  1  0  0  0  0
 11 14  1  0  0  0  0
  9 10  1  0  0  0  0
  9 11  1  0  0  0  0
  9 24  1  0  0  0  0
  7  8  1  0  0  0  0
  7  9  1  0  0  0  0
 28 29  1  0  0  0  0
 28 30  1  0  0  0  0
 28 31  1  0  0  0  0
 26 27  1  0  0  0  0
 26 28  1  0  0  0  0
M  END
$$$$
default_name
  -OEChem-01062215323D

 31 30  0     1  0  0  0  0  0999 V2000
   -3.5895   -3.5013    1.1082 H   0  0  0  0  0  0  0  0  0  0  0  0
   -3.5145   -2.5363    0.6082 C   0  0  0  0  0  0  0  0  0  0  0  0
   -4.2285   -1.8413    1.0452 H   0  0  0  0  0  0  0  0  0  0  0  0
   -3.7155   -2.6583   -0.4538 H   0  0  0  0  0  0  0  0  0  0  0  0
   -2.1155   -1.9963    0.7922 C   0  0  0  0  0  0  0  0  0  0  0  0
   -1.2875   -2.6383    1.4252 O   0  0  0  0  0  0  0  0  0  0  0  0
   -1.8575   -0.8123    0.2402 N   0  0  0  0  0  0  0  0  0  0  0  0
   -2.6005   -0.3333   -0.2478 H   0  0  0  0  0  0  0  0  0  0  0  0
   -0.5675   -0.1203    0.3102 C   0  0  1  0  0  0  0  0  0  0  0  0
    0.1806   -0.8282    0.6687 H   0  0  0  0  0  0  0  0  0  0  0  0
   -0.1800    0.3414   -1.1104 C   0  0  0  0  0  0  0  0  0  0  0  0
   -0.9854    0.9628   -1.5067 H   0  0  0  0  0  0  0  0  0  0  0  0
    0.7116    0.9671   -1.0302 H   0  0  0  0  0  0  0  0  0  0  0  0
    0.1119   -0.7813   -2.1229 C   0  0  0  0  0  0  0  0  0  0  0  0
   -0.7212   -1.4839   -2.1439 H   0  0  0  0  0  0  0  0  0  0  0  0
    0.3429   -0.2404   -3.5369 C   0  0  0  0  0  0  0  0  0  0  0  0
    1.1643    0.4773   -3.5294 H   0  0  0  0  0  0  0  0  0  0  0  0
    0.5936   -1.0623   -4.2079 H   0  0  0  0  0  0  0  0  0  0  0  0
   -0.5532    0.2490   -3.9122 H   0  0  0  0  0  0  0  0  0  0  0  0
    1.3651   -1.5460   -1.6987 C   0  0  0  0  0  0  0  0  0  0  0  0
    1.2171   -1.9706   -0.7059 H   0  0  0  0  0  0  0  0  0  0  0  0
    1.5581   -2.3588   -2.3989 H   0  0  0  0  0  0  0  0  0  0  0  0
    2.2254   -0.8760   -1.6791 H   0  0  0  0  0  0  0  0  0  0  0  0
   -0.6446    1.0477    1.3080 C   0  0  0  0  0  0  0  0  0  0  0  0
    0.0910    1.0681    2.2923 O   0  0  0  0  0  0  0  0  0  0  0  0
   -1.5410    2.0111    1.0585 N   0  0  0  0  0  0  0  0  0  0  0  0
   -2.1042    1.9267    0.2275 H   0  0  0  0  0  0  0  0  0  0  0  0
   -1.7476    3.1751    1.9170 C   0  0  0  0  0  0  0  0  0  0  0  0
   -0.8161    3.7389    2.0045 H   0  0  0  0  0  0  0  0  0  0  0  0
   -2.5209    3.8214    1.4989 H   0  0  0  0  0  0  0  0  0  0  0  0
   -2.0499    2.8491    2.9135 H   0  0  0  0  0  0  0  0  0  0  0  0
  5  6  2  0  0  0  0
  5  7  1  0  0  0  0
  2  3  1  0  0  0  0
  2  4  1  0  0  0  0
  2  5  1  0  0  0  0
  1  2  1  0  0  0  0
 24 25  2  0  0  0  0
 24 26  1  0  0  0  0
 20 21  1  0  0  0  0
 20 22  1  0  0  0  0
 20 23  1  0  0  0  0
 16 17  1  0  0  0  0
 16 18  1  0  0  0  0
 16 19  1  0  0  0  0
 14 15  1  0  0  0  0
 14 16  1  0  0  0  0
 14 20  1  0  0  0  0
 11 12  1  0  0  0  0
 11 13  1  0  0  0  0
 11 14  1  0  0  0  0
  9 10  1  0  0  0  0
  9 11  1  0  0  0  0
  9 24  1  0  0  0  0
  7  8  1  0  0  0  0
  7  9  1  0  0  0  0
 28 29  1  0  0  0  0
 28 30  1  0  0  0  0
 28 31  1  0  0  0  0
 26 27  1  0  0  0  0
 26 28  1  0  0  0  0
M  END
$$$$
default_name
  -OEChem-01062215323D

 31 30  0     1  0  0  0  0  0999 V2000
   -3.5895   -3.5013    1.1082 H   0  0  0  0  0  0  0  0  0  0  0  0
   -3.5145   -2.5363    0.6082 C   0  0  0  0  0  0  0  0  0  0  0  0
   -4.2285   -1.8413    1.0452 H   0  0  0  0  0  0  0  0  0  0  0  0
   -3.7155   -2.6583   -0.4538 H   0  0  0  0  0  0  0  0  0  0  0  0
   -2.1155   -1.9963    0.7922 C   0  0  0  0  0  0  0  0  0  0  0  0
   -1.2875   -2.6383    1.4252 O   0  0  0  0  0  0  0  0  0  0  0  0
   -1.8575   -0.8123    0.2402 N   0  0  0  0  0  0  0  0  0  0  0  0
   -2.6005   -0.3333   -0.2478 H   0  0  0  0  0  0  0  0  0  0  0  0
   -0.5675   -0.1203    0.3102 C   0  0  1  0  0  0  0  0  0  0  0  0
    0.1806   -0.8282    0.6687 H   0  0  0  0  0  0  0  0  0  0  0  0
   -0.1800    0.3414   -1.1104 C   0  0  0  0  0  0  0  0  0  0  0  0
   -0.9854    0.9628   -1.5067 H   0  0  0  0  0  0  0  0  0  0  0  0
    0.7116    0.9671   -1.0302 H   0  0  0  0  0  0  0  0  0  0  0  0
    0.1119   -0.7813   -2.1229 C   0  0  0  0  0  0  0  0  0  0  0  0
   -0.7212   -1.4839   -2.1439 H   0  0  0  0  0  0  0  0  0  0  0  0
    0.3429   -0.2404   -3.5369 C   0  0  0  0  0  0  0  0  0  0  0  0
    1.1643    0.4773   -3.5294 H   0  0  0  0  0  0  0  0  0  0  0  0
    0.5936   -1.0623   -4.2079 H   0  0  0  0  0  0  0  0  0  0  0  0
   -0.5532    0.2490   -3.9122 H   0  0  0  0  0  0  0  0  0  0  0  0
    1.3651   -1.5460   -1.6987 C   0  0  0  0  0  0  0  0  0  0  0  0
    1.2171   -1.9706   -0.7059 H   0  0  0  0  0  0  0  0  0  0  0  0
    1.5581   -2.3588   -2.3989 H   0  0  0  0  0  0  0  0  0  0  0  0
    2.2254   -0.8760   -1.6791 H   0  0  0  0  0  0  0  0  0  0  0  0
   -0.6446    1.0477    1.3080 C   0  0  0  0  0  0  0  0  0  0  0  0
    0.2549    1.2196    2.1275 O   0  0  0  0  0  0  0  0  0  0  0  0
   -1.7223    1.8404    1.2443 N   0  0  0  0  0  0  0  0  0  0  0  0
   -2.4145    1.6387    0.5406 H   0  0  0  0  0  0  0  0  0  0  0  0
   -1.9511    2.9788    2.1311 C   0  0  0  0  0  0  0  0  0  0  0  0
   -1.1295    3.6922    2.0349 H   0  0  0  0  0  0  0  0  0  0  0  0
   -2.8891    3.4745    1.8766 H   0  0  0  0  0  0  0  0  0  0  0  0
   -1.9931    2.6367    3.1664 H   0  0  0  0  0  0  0  0  0  0  0  0
  5  6  2  0  0  0  0
  5  7  1  0  0  0  0
  2  3  1  0  0  0  0
  2  4  1  0  0  0  0
  2  5  1  0  0  0  0
  1  2  1  0  0  0  0
 24 25  2  0  0  0  0
 24 26  1  0  0  0  0
 20 21  1  0  0  0  0
 20 22  1  0  0  0  0
 20 23  1  0  0  0  0
 16 17  1  0  0  0  0
 16 18  1  0  0  0  0
 16 19  1  0  0  0  0
 14 15  1  0  0  0  0
 14 16  1  0  0  0  0
 14 20  1  0  0  0  0
 11 12  1  0  0  0  0
 11 13  1  0  0  0  0
 11 14  1  0  0  0  0
  9 10  1  0  0  0  0
  9 11  1  0  0  0  0
  9 24  1  0  0  0  0
  7  8  1  0  0  0  0
  7  9  1  0  0  0  0
 28 29  1  0  0  0  0
 28 30  1  0  0  0  0
 28 31  1  0  0  0  0
 26 27  1  0  0  0  0
 26 28  1  0  0  0  0
M  END
$$$$
default_name
  -OEChem-01062215323D

 31 30  0     1  0  0  0  0  0999 V2000
   -3.5895   -3.5013    1.1082 H   0  0  0  0  0  0  0  0  0  0  0  0
   -3.5145   -2.5363    0.6082 C   0  0  0  0  0  0  0  0  0  0  0  0
   -4.2285   -1.8413    1.0452 H   0  0  0  0  0  0  0  0  0  0  0  0
   -3.7155   -2.6583   -0.4538 H   0  0  0  0  0  0  0  0  0  0  0  0
   -2.1155   -1.9963    0.7922 C   0  0  0  0  0  0  0  0  0  0  0  0
   -1.2875   -2.6383    1.4252 O   0  0  0  0  0  0  0  0  0  0  0  0
   -1.8575   -0.8123    0.2402 N   0  0  0  0  0  0  0  0  0  0  0  0
   -2.6005   -0.3333   -0.2478 H   0  0  0  0  0  0  0  0  0  0  0  0
   -0.5675   -0.1203    0.3102 C   0  0  1  0  0  0  0  0  0  0  0  0
    0.1806   -0.8282    0.6687 H   0  0  0  0  0  0  0  0  0  0  0  0
   -0.1800    0.3414   -1.1104 C   0  0  0  0  0  0  0  0  0  0  0  0
   -0.9854    0.9628   -1.5067 H   0  0  0  0  0  0  0  0  0  0  0  0
    0.7116    0.9671   -1.0302 H   0  0  0  0  0  0  0  0  0  0  0  0
    0.1119   -0.7813   -2.1229 C   0  0  0  0  0  0  0  0  0  0  0  0
   -0.7212   -1.4839   -2.1439 H   0  0  0  0  0  0  0  0  0  0  0  0
    0.3429   -0.2404   -3.5369 C   0  0  0  0  0  0  0  0  0  0  0  0
    1.1643    0.4773   -3.5294 H   0  0  0  0  0  0  0  0  0  0  0  0
    0.5936   -1.0623   -4.2079 H   0  0  0  0  0  0  0  0  0  0  0  0
   -0.5532    0.2490   -3.9122 H   0  0  0  0  0  0  0  0  0  0  0  0
    1.3651   -1.5460   -1.6987 C   0  0  0  0  0  0  0  0  0  0  0  0
    1.2171   -1.9706   -0.7059 H   0  0  0  0  0  0  0  0  0  0  0  0
    1.5581   -2.3588   -2.3989 H   0  0  0  0  0  0  0  0  0  0  0  0
    2.2254   -0.8760   -1.6791 H   0  0  0  0  0  0  0  0  0  0  0  0
   -0.6446    1.0477    1.3080 C   0  0  0  0  0  0  0  0  0  0  0  0
    0.3554    1.3914    1.9342 O   0  0  0  0  0  0  0  0  0  0  0  0
   -1.8322    1.6475    1.4616 N   0  0  0  0  0  0  0  0  0  0  0  0
   -2.6043    1.3124    0.9078 H   0  0  0  0  0  0  0  0  0  0  0  0
   -2.0726    2.7578    2.3805 C   0  0  0  0  0  0  0  0  0  0  0  0
   -1.4184    3.5949    2.1265 H   0  0  0  0  0  0  0  0  0  0  0  0
   -3.1123    3.0824    2.3182 H   0  0  0  0  0  0  0  0  0  0  0  0
   -1.8530    2.4444    3.4023 H   0  0  0  0  0  0  0  0  0  0  0  0
  5  6  2  0  0  0  0
  5  7  1  0  0  0  0
  2  3  1  0  0  0  0
  2  4  1  0  0  0  0
  2  5  1  0  0  0  0
  1  2  1  0  0  0  0
 24 25  2  0  0  0  0
 24 26  1  0  0  0  0
 20 21  1  0  0  0  0
 20 22  1  0  0  0  0
 20 23  1  0  0  0  0
 16 17  1  0  0  0  0
 16 18  1  0  0  0  0
 16 19  1  0  0  0  0
 14 15  1  0  0  0  0
 14 16  1  0  0  0  0
 14 20  1  0  0  0  0
 11 12  1  0  0  0  0
 11 13  1  0  0  0  0
 11 14  1  0  0  0  0
  9 10  1  0  0  0  0
  9 11  1  0  0  0  0
  9 24  1  0  0  0  0
  7  8  1  0  0  0  0
  7  9  1  0  0  0  0
 28 29  1  0  0  0  0
 28 30  1  0  0  0  0
 28 31  1  0  0  0  0
 26 27  1  0  0  0  0
 26 28  1  0  0  0  0
M  END
$$$$
default_name
  -OEChem-01062215323D

 31 30  0     1  0  0  0  0  0999 V2000
   -3.5895   -3.5013    1.1082 H   0  0  0  0  0  0  0  0  0  0  0  0
   -3.5145   -2.5363    0.6082 C   0  0  0  0  0  0  0  0  0  0  0  0
   -4.2285   -1.8413    1.0452 H   0  0  0  0  0  0  0  0  0  0  0  0
   -3.7155   -2.6583   -0.4538 H   0  0  0  0  0  0  0  0  0  0  0  0
   -2.1155   -1.9963    0.7922 C   0  0  0  0  0  0  0  0  0  0  0  0
   -1.2875   -2.6383    1.4252 O   0  0  0  0  0  0  0  0  0  0  0  0
   -1.8575   -0.8123    0.2402 N   0  0  0  0  0  0  0  0  0  0  0  0
   -2.6005   -0.3333   -0.2478 H   0  0  0  0  0  0  0  0  0  0  0  0
   -0.5675   -0.1203    0.3102 C   0  0  1  0  0  0  0  0  0  0  0  0
    0.1806   -0.8282    0.6687 H   0  0  0  0  0  0  0  0  0  0  0  0
   -0.1800    0.3414   -1.1104 C   0  0  0  0  0  0  0  0  0  0  0  0
   -0.9854    0.9628   -1.5067 H   0  0  0  0  0  0  0  0  0  0  0  0
    0.7116    0.9671   -1.0302 H   0  0  0  0  0  0  0  0  0  0  0  0
    0.1119   -0.7813   -2.1229 C   0  0  0  0  0  0  0  0  0  0  0  0
   -0.7212   -1.4839   -2.1439 H   0  0  0  0  0  0  0  0  0  0  0  0
    0.3429   -0.2404   -3.5369 C   0  0  0  0  0  0  0  0  0  0  0  0
    1.1643    0.4773   -3.5294 H   0  0  0  0  0  0  0  0  0  0  0  0
    0.5936   -1.0623   -4.2079 H   0  0  0  0  0  0  0  0  0  0  0  0
   -0.5532    0.2490   -3.9122 H   0  0  0  0  0  0  0  0  0  0  0  0
    1.3651   -1.5460   -1.6987 C   0  0  0  0  0  0  0  0  0  0  0  0
    1.2171   -1.9706   -0.7059 H   0  0  0  0  0  0  0  0  0  0  0  0
    1.5581   -2.3588   -2.3989 H   0  0  0  0  0  0  0  0  0  0  0  0
    2.2254   -0.8760   -1.6791 H   0  0  0  0  0  0  0  0  0  0  0  0
   -0.6446    1.0477    1.3080 C   0  0  0  0  0  0  0  0  0  0  0  0
    0.3856    1.5717    1.7256 O   0  0  0  0  0  0  0  0  0  0  0  0
   -1.8633    1.4456    1.6956 N   0  0  0  0  0  0  0  0  0  0  0  0
   -2.6607    0.9702    1.3041 H   0  0  0  0  0  0  0  0  0  0  0  0
   -2.1038    2.5271    2.6481 C   0  0  0  0  0  0  0  0  0  0  0  0
   -1.6632    3.4536    2.2730 H   0  0  0  0  0  0  0  0  0  0  0  0
   -3.1753    2.6720    2.7938 H   0  0  0  0  0  0  0  0  0  0  0  0
   -1.6389    2.2853    3.6052 H   0  0  0  0  0  0  0  0  0  0  0  0
  5  6  2  0  0  0  0
  5  7  1  0  0  0  0
  2  3  1  0  0  0  0
  2  4  1  0  0  0  0
  2  5  1  0  0  0  0
  1  2  1  0  0  0  0
 24 25  2  0  0  0  0
 24 26  1  0  0  0  0
 20 21  1  0  0  0  0
 20 22  1  0  0  0  0
 20 23  1  0  0  0  0
 16 17  1  0  0  0  0
 16 18  1  0  0  0  0
 16 19  1  0  0  0  0
 14 15  1  0  0  0  0
 14 16  1  0  0  0  0
 14 20  1  0  0  0  0
 11 12  1  0  0  0  0
 11 13  1  0  0  0  0
 11 14  1  0  0  0  0
  9 10  1  0  0  0  0
  9 11  1  0  0  0  0
  9 24  1  0  0  0  0
  7  8  1  0  0  0  0
  7  9  1  0  0  0  0
 28 29  1  0  0  0  0
 28 30  1  0  0  0  0
 28 31  1  0  0  0  0
 26 27  1  0  0  0  0
 26 28  1  0  0  0  0
M  END
$$$$
default_name
  -OEChem-01062215323D

 31 30  0     1  0  0  0  0  0999 V2000
   -3.5895   -3.5013    1.1082 H   0  0  0  0  0  0  0  0  0  0  0  0
   -3.5145   -2.5363    0.6082 C   0  0  0  0  0  0  0  0  0  0  0  0
   -4.2285   -1.8413    1.0452 H   0  0  0  0  0  0  0  0  0  0  0  0
   -3.7155   -2.6583   -0.4538 H   0  0  0  0  0  0  0  0  0  0  0  0
   -2.1155   -1.9963    0.7922 C   0  0  0  0  0  0  0  0  0  0  0  0
   -1.2875   -2.6383    1.4252 O   0  0  0  0  0  0  0  0  0  0  0  0
   -1.8575   -0.8123    0.2402 N   0  0  0  0  0  0  0  0  0  0  0  0
   -2.6005   -0.3333   -0.2478 H   0  0  0  0  0  0  0  0  0  0  0  0
   -0.5675   -0.1203    0.3102 C   0  0  1  0  0  0  0  0  0  0  0  0
    0.1806   -0.8282    0.6687 H   0  0  0  0  0  0  0  0  0  0  0  0
   -0.1800    0.3414   -1.1104 C   0  0  0  0  0  0  0  0  0  0  0  0
   -0.9854    0.9628   -1.5067 H   0  0  0  0  0  0  0  0  0  0  0  0
    0.7116    0.9671   -1.0302 H   0  0  0  0  0  0  0  0  0  0  0  0
    0.1119   -0.7813   -2.1229 C   0  0  0  0  0  0  0  0  0  0  0  0
   -0.7212   -1.4839   -2.1439 H   0  0  0  0  0  0  0  0  0  0  0  0
    0.3429   -0.2404   -3.5369 C   0  0  0  0  0  0  0  0  0  0  0  0
    1.1643    0.4773   -3.5294 H   0  0  0  0  0  0  0  0  0  0  0  0
    0.5936   -1.0623   -4.2079 H   0  0  0  0  0  0  0  0  0  0  0  0
   -0.5532    0.2490   -3.9122 H   0  0  0  0  0  0  0  0  0  0  0  0
    1.3651   -1.5460   -1.6987 C   0  0  0  0  0  0  0  0  0  0  0  0
    1.2171   -1.9706   -0.7059 H   0  0  0  0  0  0  0  0  0  0  0  0
    1.5581   -2.3588   -2.3989 H   0  0  0  0  0  0  0  0  0  0  0  0
    2.2254   -0.8760   -1.6791 H   0  0  0  0  0  0  0  0  0  0  0  0
   -0.6446    1.0477    1.3080 C   0  0  0  0  0  0  0  0  0  0  0  0
    0.3436    1.7482    1.5157 O   0  0  0  0  0  0  0  0  0  0  0  0
   -1.8135    1.2483    1.9303 N   0  0  0  0  0  0  0  0  0  0  0  0
   -2.5798    0.6353    1.7023 H   0  0  0  0  0  0  0  0  0  0  0  0
   -2.0426    2.3025    2.9157 C   0  0  0  0  0  0  0  0  0  0  0  0
   -1.8470    3.2779    2.4644 H   0  0  0  0  0  0  0  0  0  0  0  0
   -3.0738    2.2712    3.2709 H   0  0  0  0  0  0  0  0  0  0  0  0
   -1.3656    2.1701    3.7611 H   0  0  0  0  0  0  0  0  0  0  0  0
  5  6  2  0  0  0  0
  5  7  1  0  0  0  0
  2  3  1  0  0  0  0
  2  4  1  0  0  0  0
  2  5  1  0  0  0  0
  1  2  1  0  0  0  0
 24 25  2  0  0  0  0
 24 26  1  0  0  0  0
 20 21  1  0  0  0  0
 20 22  1  0  0  0  0
 20 23  1  0  0  0  0
 16 17  1  0  0  0  0
 16 18  1  0  0  0  0
 16 19  1  0  0  0  0
 14 15  1  0  0  0  0
 14 16  1  0  0  0  0
 14 20  1  0  0  0  0
 11 12  1  0  0  0  0
 11 13  1  0  0  0  0
 11 14  1  0  0  0  0
  9 10  1  0  0  0  0
  9 11  1  0  0  0  0
  9 24  1  0  0  0  0
  7  8  1  0  0  0  0
  7  9  1  0  0  0  0
 28 29  1  0  0  0  0
 28 30  1  0  0  0  0
 28 31  1  0  0  0  0
 26 27  1  0  0  0  0
 26 28  1  0  0  0  0
M  END
$$$$
default_name
  -OEChem-01062215323D

 31 30  0     1  0  0  0  0  0999 V2000
   -3.5895   -3.5013    1.1082 H   0  0  0  0  0  0  0  0  0  0  0  0
   -3.5145   -2.5363    0.6082 C   0  0  0  0  0  0  0  0  0  0  0  0
   -4.2285   -1.8413    1.0452 H   0  0  0  0  0  0  0  0  0  0  0  0
   -3.7155   -2.6583   -0.4538 H   0  0  0  0  0  0  0  0  0  0  0  0
   -2.1155   -1.9963    0.7922 C   0  0  0  0  0  0  0  0  0  0  0  0
   -1.2875   -2.6383    1.4252 O   0  0  0  0  0  0  0  0  0  0  0  0
   -1.8575   -0.8123    0.2402 N   0  0  0  0  0  0  0  0  0  0  0  0
   -2.6005   -0.3333   -0.2478 H   0  0  0  0  0  0  0  0  0  0  0  0
   -0.5675   -0.1203    0.3102 C   0  0  1  0  0  0  0  0  0  0  0  0
    0.1806   -0.8282    0.6687 H   0  0  0  0  0  0  0  0  0  0  0  0
   -0.1800    0.3414   -1.1104 C   0  0  0  0  0  0  0  0  0  0  0  0
   -0.9854    0.9628   -1.5067 H   0  0  0  0  0  0  0  0  0  0  0  0
    0.7116    0.9671   -1.0302 H   0  0  0  0  0  0  0  0  0  0  0  0
    0.1119   -0.7813   -2.1229 C   0  0  0  0  0  0  0  0  0  0  0  0
   -0.7212   -1.4839   -2.1439 H   0  0  0  0  0  0  0  0  0  0  0  0
    0.3429   -0.2404   -3.5369 C   0  0  0  0  0  0  0  0  0  0  0  0
    1.1643    0.4773   -3.5294 H   0  0  0  0  0  0  0  0  0  0  0  0
    0.5936   -1.0623   -4.2079 H   0  0  0  0  0  0  0  0  0  0  0  0
   -0.5532    0.2490   -3.9122 H   0  0  0  0  0  0  0  0  0  0  0  0
    1.3651   -1.5460   -1.6987 C   0  0  0  0  0  0  0  0  0  0  0  0
    1.2171   -1.9706   -0.7059 H   0  0  0  0  0  0  0  0  0  0  0  0
    1.5581   -2.3588   -2.3989 H   0  0  0  0  0  0  0  0  0  0  0  0
    2.2254   -0.8760   -1.6791 H   0  0  0  0  0  0  0  0  0  0  0  0
   -0.6446    1.0477    1.3080 C   0  0  0  0  0  0  0  0  0  0  0  0
    0.2321    1.9089    1.3190 O   0  0  0  0  0  0  0  0  0  0  0  0
   -1.6861    1.0692    2.1498 N   0  0  0  0  0  0  0  0  0  0  0  0
   -2.3672    0.3306    2.0754 H   0  0  0  0  0  0  0  0  0  0  0  0
   -1.8932    2.0993    3.1650 C   0  0  0  0  0  0  0  0  0  0  0  0
   -1.9575    3.0798    2.6878 H   0  0  0  0  0  0  0  0  0  0  0  0
   -2.8146    1.9072    3.7169 H   0  0  0  0  0  0  0  0  0  0  0  0
   -1.0516    2.1068    3.8595 H   0  0  0  0  0  0  0  0  0  0  0  0
  5  6  2  0  0  0  0
  5  7  1  0  0  0  0
  2  3  1  0  0  0  0
  2  4  1  0  0  0  0
  2  5  1  0  0  0  0
  1  2  1  0  0  0  0
 24 25  2  0  0  0  0
 24 26  1  0  0  0  0
 20 21  1  0  0  0  0
 20 22  1  0  0  0  0
 20 23  1  0  0  0  0
 16 17  1  0  0  0  0
 16 18  1  0  0  0  0
 16 19  1  0  0  0  0
 14 15  1  0  0  0  0
 14 16  1  0  0  0  0
 14 20  1  0  0  0  0
 11 12  1  0  0  0  0
 11 13  1  0  0  0  0
 11 14  1  0  0  0  0
  9 10  1  0  0  0  0
  9 11  1  0  0  0  0
  9 24  1  0  0  0  0
  7  8  1  0  0  0  0
  7  9  1  0  0  0  0
 28 29  1  0  0  0  0
 28 30  1  0  0  0  0
 28 31  1  0  0  0  0
 26 27  1  0  0  0  0
 26 28  1  0  0  0  0
M  END
$$$$
default_name
  -OEChem-01062215323D

 31 30  0     1  0  0  0  0  0999 V2000
   -3.5895   -3.5013    1.1082 H   0  0  0  0  0  0  0  0  0  0  0  0
   -3.5145   -2.5363    0.6082 C   0  0  0  0  0  0  0  0  0  0  0  0
   -4.2285   -1.8413    1.0452 H   0  0  0  0  0  0  0  0  0  0  0  0
   -3.7155   -2.6583   -0.4538 H   0  0  0  0  0  0  0  0  0  0  0  0
   -2.1155   -1.9963    0.7922 C   0  0  0  0  0  0  0  0  0  0  0  0
   -1.2875   -2.6383    1.4252 O   0  0  0  0  0  0  0  0  0  0  0  0
   -1.8575   -0.8123    0.2402 N   0  0  0  0  0  0  0  0  0  0  0  0
   -2.6005   -0.3333   -0.2478 H   0  0  0  0  0  0  0  0  0  0  0  0
   -0.5675   -0.1203    0.3102 C   0  0  1  0  0  0  0  0  0  0  0  0
    0.1806   -0.8282    0.6687 H   0  0  0  0  0  0  0  0  0  0  0  0
   -0.1800    0.3414   -1.1104 C   0  0  0  0  0  0  0  0  0  0  0  0
   -0.9854    0.9628   -1.5067 H   0  0  0  0  0  0  0  0  0  0  0  0
    0.7116    0.9671   -1.0302 H   0  0  0  0  0  0  0  0  0  0  0  0
    0.1119   -0.7813   -2.1229 C   0  0  0  0  0  0  0  0  0  0  0  0
   -0.7212   -1.4839   -2.1439 H   0  0  0  0  0  0  0  0  0  0  0  0
    0.3429   -0.2404   -3.5369 C   0  0  0  0  0  0  0  0  0  0  0  0
    1.1643    0.4773   -3.5294 H   0  0  0  0  0  0  0  0  0  0  0  0
    0.5936   -1.0623   -4.2079 H   0  0  0  0  0  0  0  0  0  0  0  0
   -0.5532    0.2490   -3.9122 H   0  0  0  0  0  0  0  0  0  0  0  0
    1.3651   -1.5460   -1.6987 C   0  0  0  0  0  0  0  0  0  0  0  0
    1.2171   -1.9706   -0.7059 H   0  0  0  0  0  0  0  0  0  0  0  0
    1.5581   -2.3588   -2.3989 H   0  0  0  0  0  0  0  0  0  0  0  0
    2.2254   -0.8760   -1.6791 H   0  0  0  0  0  0  0  0  0  0  0  0
   -0.6446    1.0477    1.3080 C   0  0  0  0  0  0  0  0  0  0  0  0
    0.0587    2.0428    1.1488 O   0  0  0  0  0  0  0  0  0  0  0  0
   -1.4898    0.9204    2.3391 N   0  0  0  0  0  0  0  0  0  0  0  0
   -2.0373    0.0768    2.3980 H   0  0  0  0  0  0  0  0  0  0  0  0
   -1.6658    1.9314    3.3792 C   0  0  0  0  0  0  0  0  0  0  0  0
   -1.9871    2.8728    2.9278 H   0  0  0  0  0  0  0  0  0  0  0  0
   -2.4155    1.6049    4.1015 H   0  0  0  0  0  0  0  0  0  0  0  0
   -0.7183    2.0997    3.8936 H   0  0  0  0  0  0  0  0  0  0  0  0
  5  6  2  0  0  0  0
  5  7  1  0  0  0  0
  2  3  1  0  0  0  0
  2  4  1  0  0  0  0
  2  5  1  0  0  0  0
  1  2  1  0  0  0  0
 24 25  2  0  0  0  0
 24 26  1  0  0  0  0
 20 21  1  0  0  0  0
 20 22  1  0  0  0  0
 20 23  1  0  0  0  0
 16 17  1  0  0  0  0
 16 18  1  0  0  0  0
 16 19  1  0  0  0  0
 14 15  1  0  0  0  0
 14 16  1  0  0  0  0
 14 20  1  0  0  0  0
 11 12  1  0  0  0  0
 11 13  1  0  0  0  0
 11 14  1  0  0  0  0
  9 10  1  0  0  0  0
  9 11  1  0  0  0  0
  9 24  1  0  0  0  0
  7  8  1  0  0  0  0
  7  9  1  0  0  0  0
 28 29  1  0  0  0  0
 28 30  1  0  0  0  0
 28 31  1  0  0  0  0
 26 27  1  0  0  0  0
 26 28  1  0  0  0  0
M  END
$$$$
default_name
  -OEChem-01062215323D

 31 30  0     1  0  0  0  0  0999 V2000
   -3.5895   -3.5013    1.1082 H   0  0  0  0  0  0  0  0  0  0  0  0
   -3.5145   -2.5363    0.6082 C   0  0  0  0  0  0  0  0  0  0  0  0
   -4.2285   -1.8413    1.0452 H   0  0  0  0  0  0  0  0  0  0  0  0
   -3.7155   -2.6583   -0.4538 H   0  0  0  0  0  0  0  0  0  0  0  0
   -2.1155   -1.9963    0.7922 C   0  0  0  0  0  0  0  0  0  0  0  0
   -1.2875   -2.6383    1.4252 O   0  0  0  0  0  0  0  0  0  0  0  0
   -1.8575   -0.8123    0.2402 N   0  0  0  0  0  0  0  0  0  0  0  0
   -2.6005   -0.3333   -0.2478 H   0  0  0  0  0  0  0  0  0  0  0  0
   -0.5675   -0.1203    0.3102 C   0  0  1  0  0  0  0  0  0  0  0  0
    0.1806   -0.8282    0.6687 H   0  0  0  0  0  0  0  0  0  0  0  0
   -0.1800    0.3414   -1.1104 C   0  0  0  0  0  0  0  0  0  0  0  0
   -0.9854    0.9628   -1.5067 H   0  0  0  0  0  0  0  0  0  0  0  0
    0.7116    0.9671   -1.0302 H   0  0  0  0  0  0  0  0  0  0  0  0
    0.1119   -0.7813   -2.1229 C   0  0  0  0  0  0  0  0  0  0  0  0
   -0.7212   -1.4839   -2.1439 H   0  0  0  0  0  0  0  0  0  0  0  0
    0.3429   -0.2404   -3.5369 C   0  0  0  0  0  0  0  0  0  0  0  0
    1.1643    0.4773   -3.5294 H   0  0  0  0  0  0  0  0  0  0  0  0
    0.5936   -1.0623   -4.2079 H   0  0  0  0  0  0  0  0  0  0  0  0
   -0.5532    0.2490   -3.9122 H   0  0  0  0  0  0  0  0  0  0  0  0
    1.3651   -1.5460   -1.6987 C   0  0  0  0  0  0  0  0  0  0  0  0
    1.2171   -1.9706   -0.7059 H   0  0  0  0  0  0  0  0  0  0  0  0
    1.5581   -2.3588   -2.3989 H   0  0  0  0  0  0  0  0  0  0  0  0
    2.2254   -0.8760   -1.6791 H   0  0  0  0  0  0  0  0  0  0  0  0
   -0.6446    1.0477    1.3080 C   0  0  0  0  0  0  0  0  0  0  0  0
   -0.1647    2.1409    1.0167 O   0  0  0  0  0  0  0  0  0  0  0  0
   -1.2380    0.8121    2.4854 N   0  0  0  0  0  0  0  0  0  0  0  0
   -1.6127   -0.1088    2.6481 H   0  0  0  0  0  0  0  0  0  0  0  0
   -1.3758    1.8101    3.5435 C   0  0  0  0  0  0  0  0  0  0  0  0
   -1.9337    2.6710    3.1681 H   0  0  0  0  0  0  0  0  0  0  0  0
   -1.9037    1.3850    4.3986 H   0  0  0  0  0  0  0  0  0  0  0  0
   -0.3885    2.1491    3.8612 H   0  0  0  0  0  0  0  0  0  0  0  0
  5  6  2  0  0  0  0
  5  7  1  0  0  0  0
  2  3  1  0  0  0  0
  2  4  1  0  0  0  0
  2  5  1  0  0  0  0
  1  2  1  0  0  0  0
 24 25  2  0  0  0  0
 24 26  1  0  0  0  0
 20 21  1  0  0  0  0
 20 22  1  0  0  0  0
 20 23  1  0  0  0  0
 16 17  1  0  0  0  0
 16 18  1  0  0  0  0
 16 19  1  0  0  0  0
 14 15  1  0  0  0  0
 14 16  1  0  0  0  0
 14 20  1  0  0  0  0
 11 12  1  0  0  0  0
 11 13  1  0  0  0  0
 11 14  1  0  0  0  0
  9 10  1  0  0  0  0
  9 11  1  0  0  0  0
  9 24  1  0  0  0  0
  7  8  1  0  0  0  0
  7  9  1  0  0  0  0
 28 29  1  0  0  0  0
 28 30  1  0  0  0  0
 28 31  1  0  0  0  0
 26 27  1  0  0  0  0
 26 28  1  0  0  0  0
M  END
$$$$
default_name
  -OEChem-01062215323D

 31 30  0     1  0  0  0  0  0999 V2000
   -3.5895   -3.5013    1.1082 H   0  0  0  0  0  0  0  0  0  0  0  0
   -3.5145   -2.5363    0.6082 C   0  0  0  0  0  0  0  0  0  0  0  0
   -4.2285   -1.8413    1.0452 H   0  0  0  0  0  0  0  0  0  0  0  0
   -3.7155   -2.6583   -0.4538 H   0  0  0  0  0  0  0  0  0  0  0  0
   -2.1155   -1.9963    0.7922 C   0  0  0  0  0  0  0  0  0  0  0  0
   -1.2875   -2.6383    1.4252 O   0  0  0  0  0  0  0  0  0  0  0  0
   -1.8575   -0.8123    0.2402 N   0  0  0  0  0  0  0  0  0  0  0  0
   -2.6005   -0.3333   -0.2478 H   0  0  0  0  0  0  0  0  0  0  0  0
   -0.5675   -0.1203    0.3102 C   0  0  1  0  0  0  0  0  0  0  0  0
    0.1806   -0.8282    0.6687 H   0  0  0  0  0  0  0  0  0  0  0  0
   -0.1800    0.3414   -1.1104 C   0  0  0  0  0  0  0  0  0  0  0  0
   -0.9854    0.9628   -1.5067 H   0  0  0  0  0  0  0  0  0  0  0  0
    0.7116    0.9671   -1.0302 H   0  0  0  0  0  0  0  0  0  0  0  0
    0.1119   -0.7813   -2.1229 C   0  0  0  0  0  0  0  0  0  0  0  0
   -0.7212   -1.4839   -2.1439 H   0  0  0  0  0  0  0  0  0  0  0  0
    0.3429   -0.2404   -3.5369 C   0  0  0  0  0  0  0  0  0  0  0  0
    1.1643    0.4773   -3.5294 H   0  0  0  0  0  0  0  0  0  0  0  0
    0.5936   -1.0623   -4.2079 H   0  0  0  0  0  0  0  0  0  0  0  0
   -0.5532    0.2490   -3.9122 H   0  0  0  0  0  0  0  0  0  0  0  0
    1.3651   -1.5460   -1.6987 C   0  0  0  0  0  0  0  0  0  0  0  0
    1.2171   -1.9706   -0.7059 H   0  0  0  0  0  0  0  0  0  0  0  0
    1.5581   -2.3588   -2.3989 H   0  0  0  0  0  0  0  0  0  0  0  0
    2.2254   -0.8760   -1.6791 H   0  0  0  0  0  0  0  0  0  0  0  0
   -0.6446    1.0477    1.3080 C   0  0  0  0  0  0  0  0  0  0  0  0
   -0.4229    2.1964    0.9318 O   0  0  0  0  0  0  0  0  0  0  0  0
   -0.9479    0.7517    2.5785 N   0  0  0  0  0  0  0  0  0  0  0  0
   -1.1222   -0.2135    2.8086 H   0  0  0  0  0  0  0  0  0  0  0  0
   -1.0431    1.7438    3.6469 C   0  0  0  0  0  0  0  0  0  0  0  0
   -1.8010    2.4881    3.3924 H   0  0  0  0  0  0  0  0  0  0  0  0
   -1.3140    1.2623    4.5877 H   0  0  0  0  0  0  0  0  0  0  0  0
   -0.0846    2.2519    3.7644 H   0  0  0  0  0  0  0  0  0  0  0  0
  5  6  2  0  0  0  0
  5  7  1  0  0  0  0
  2  3  1  0  0  0  0
  2  4  1  0  0  0  0
  2  5  1  0  0  0  0
  1  2  1  0  0  0  0
 24 25  2  0  0  0  0
 24 26  1  0  0  0  0
 20 21  1  0  0  0  0
 20 22  1  0  0  0  0
 20 23  1  0  0  0  0
 16 17  1  0  0  0  0
 16 18  1  0  0  0  0
 16 19  1  0  0  0  0
 14 15  1  0  0  0  0
 14 16  1  0  0  0  0
 14 20  1  0  0  0  0
 11 12  1  0  0  0  0
 11 13  1  0  0  0  0
 11 14  1  0  0  0  0
  9 10  1  0  0  0  0
  9 11  1  0  0  0  0
  9 24  1  0  0  0  0
  7  8  1  0  0  0  0
  7  9  1  0  0  0  0
 28 29  1  0  0  0  0
 28 30  1  0  0  0  0
 28 31  1  0  0  0  0
 26 27  1  0  0  0  0
 26 28  1  0  0  0  0
M  END
$$$$
default_name
  -OEChem-01062215323D

 31 30  0     1  0  0  0  0  0999 V2000
   -3.5895   -3.5013    1.1082 H   0  0  0  0  0  0  0  0  0  0  0  0
   -3.5145   -2.5363    0.6082 C   0  0  0  0  0  0  0  0  0  0  0  0
   -4.2285   -1.8413    1.0452 H   0  0  0  0  0  0  0  0  0  0  0  0
   -3.7155   -2.6583   -0.4538 H   0  0  0  0  0  0  0  0  0  0  0  0
   -2.1155   -1.9963    0.7922 C   0  0  0  0  0  0  0  0  0  0  0  0
   -1.2875   -2.6383    1.4252 O   0  0  0  0  0  0  0  0  0  0  0  0
   -1.8575   -0.8123    0.2402 N   0  0  0  0  0  0  0  0  0  0  0  0
   -2.6005   -0.3333   -0.2478 H   0  0  0  0  0  0  0  0  0  0  0  0
   -0.5675   -0.1203    0.3102 C   0  0  1  0  0  0  0  0  0  0  0  0
    0.1806   -0.8282    0.6687 H   0  0  0  0  0  0  0  0  0  0  0  0
   -0.1800    0.3414   -1.1104 C   0  0  0  0  0  0  0  0  0  0  0  0
   -0.9854    0.9628   -1.5067 H   0  0  0  0  0  0  0  0  0  0  0  0
    0.7116    0.9671   -1.0302 H   0  0  0  0  0  0  0  0  0  0  0  0
    0.1119   -0.7813   -2.1229 C   0  0  0  0  0  0  0  0  0  0  0  0
   -0.7212   -1.4839   -2.1439 H   0  0  0  0  0  0  0  0  0  0  0  0
    0.3429   -0.2404   -3.5369 C   0  0  0  0  0  0  0  0  0  0  0  0
    1.1643    0.4773   -3.5294 H   0  0  0  0  0  0  0  0  0  0  0  0
    0.5936   -1.0623   -4.2079 H   0  0  0  0  0  0  0  0  0  0  0  0
   -0.5532    0.2490   -3.9122 H   0  0  0  0  0  0  0  0  0  0  0  0
    1.3651   -1.5460   -1.6987 C   0  0  0  0  0  0  0  0  0  0  0  0
    1.2171   -1.9706   -0.7059 H   0  0  0  0  0  0  0  0  0  0  0  0
    1.5581   -2.3588   -2.3989 H   0  0  0  0  0  0  0  0  0  0  0  0
    2.2254   -0.8760   -1.6791 H   0  0  0  0  0  0  0  0  0  0  0  0
   -0.6446    1.0477    1.3080 C   0  0  0  0  0  0  0  0  0  0  0  0
   -0.6983    2.2056    0.8998 O   0  0  0  0  0  0  0  0  0  0  0  0
   -0.6392    0.7432    2.6123 N   0  0  0  0  0  0  0  0  0  0  0  0
   -0.5993   -0.2303    2.8686 H   0  0  0  0  0  0  0  0  0  0  0  0
   -0.6903    1.7370    3.6821 C   0  0  0  0  0  0  0  0  0  0  0  0
   -1.5981    2.3367    3.5853 H   0  0  0  0  0  0  0  0  0  0  0  0
   -0.6866    1.2453    4.6561 H   0  0  0  0  0  0  0  0  0  0  0  0
    0.1726    2.4009    3.6098 H   0  0  0  0  0  0  0  0  0  0  0  0
  5  6  2  0  0  0  0
  5  7  1  0  0  0  0
  2  3  1  0  0  0  0
  2  4  1  0  0  0  0
  2  5  1  0  0  0  0
  1  2  1  0  0  0  0
 24 25  2  0  0  0  0
 24 26  1  0  0  0  0
 20 21  1  0  0  0  0
 20 22  1  0  0  0  0
 20 23  1  0  0  0  0
 16 17  1  0  0  0  0
 16 18  1  0  0  0  0
 16 19  1  0  0  0  0
 14 15  1  0  0  0  0
 14 16  1  0  0  0  0
 14 20  1  0  0  0  0
 11 12  1  0  0  0  0
 11 13  1  0  0  0  0
 11 14  1  0  0  0  0
  9 10  1  0  0  0  0
  9 11  1  0  0  0  0
  9 24  1  0  0  0  0
  7  8  1  0  0  0  0
  7  9  1  0  0  0  0
 28 29  1  0  0  0  0
 28 30  1  0  0  0  0
 28 31  1  0  0  0  0
 26 27  1  0  0  0  0
 26 28  1  0  0  0  0
M  END
$$$$
default_name
  -OEChem-01062215323D

 31 30  0     1  0  0  0  0  0999 V2000
   -3.5895   -3.5013    1.1082 H   0  0  0  0  0  0  0  0  0  0  0  0
   -3.5145   -2.5363    0.6082 C   0  0  0  0  0  0  0  0  0  0  0  0
   -4.2285   -1.8413    1.0452 H   0  0  0  0  0  0  0  0  0  0  0  0
   -3.7155   -2.6583   -0.4538 H   0  0  0  0  0  0  0  0  0  0  0  0
   -2.1155   -1.9963    0.7922 C   0  0  0  0  0  0  0  0  0  0  0  0
   -1.2875   -2.6383    1.4252 O   0  0  0  0  0  0  0  0  0  0  0  0
   -1.8575   -0.8123    0.2402 N   0  0  0  0  0  0  0  0  0  0  0  0
   -2.6005   -0.3333   -0.2478 H   0  0  0  0  0  0  0  0  0  0  0  0
   -0.5675   -0.1203    0.3102 C   0  0  1  0  0  0  0  0  0  0  0  0
    0.1806   -0.8282    0.6687 H   0  0  0  0  0  0  0  0  0  0  0  0
   -0.1800    0.3414   -1.1104 C   0  0  0  0  0  0  0  0  0  0  0  0
   -0.9854    0.9628   -1.5067 H   0  0  0  0  0  0  0  0  0  0  0  0
    0.7116    0.9671   -1.0302 H   0  0  0  0  0  0  0  0  0  0  0  0
    0.1119   -0.7813   -2.1229 C   0  0  0  0  0  0  0  0  0  0  0  0
   -0.7212   -1.4839   -2.1439 H   0  0  0  0  0  0  0  0  0  0  0  0
    0.3429   -0.2404   -3.5369 C   0  0  0  0  0  0  0  0  0  0  0  0
    1.1643    0.4773   -3.5294 H   0  0  0  0  0  0  0  0  0  0  0  0
    0.5936   -1.0623   -4.2079 H   0  0  0  0  0  0  0  0  0  0  0  0
   -0.5532    0.2490   -3.9122 H   0  0  0  0  0  0  0  0  0  0  0  0
    1.3651   -1.5460   -1.6987 C   0  0  0  0  0  0  0  0  0  0  0  0
    1.2171   -1.9706   -0.7059 H   0  0  0  0  0  0  0  0  0  0  0  0
    1.5581   -2.3588   -2.3989 H   0  0  0  0  0  0  0  0  0  0  0  0
    2.2254   -0.8760   -1.6791 H   0  0  0  0  0  0  0  0  0  0  0  0
   -0.6446    1.0477    1.3080 C   0  0  0  0  0  0  0  0  0  0  0  0
   -0.9722    2.1678    0.9229 O   0  0  0  0  0  0  0  0  0  0  0  0
   -0.3330    0.7873    2.5843 N   0  0  0  0  0  0  0  0  0  0  0  0
   -0.0796   -0.1578    2.8240 H   0  0  0  0  0  0  0  0  0  0  0  0
   -0.3414    1.7901    3.6469 C   0  0  0  0  0  0  0  0  0  0  0  0
   -1.3387    2.2270    3.7337 H   0  0  0  0  0  0  0  0  0  0  0  0
   -0.0643    1.3351    4.5991 H   0  0  0  0  0  0  0  0  0  0  0  0
    0.3657    2.5861    3.4080 H   0  0  0  0  0  0  0  0  0  0  0  0
  5  6  2  0  0  0  0
  5  7  1  0  0  0  0
  2  3  1  0  0  0  0
  2  4  1  0  0  0  0
  2  5  1  0  0  0  0
  1  2  1  0  0  0  0
 24 25  2  0  0  0  0
 24 26  1  0  0  0  0
 20 21  1  0  0  0  0
 20 22  1  0  0  0  0
 20 23  1  0  0  0  0
 16 17  1  0  0  0  0
 16 18  1  0  0  0  0
 16 19  1  0  0  0  0
 14 15  1  0  0  0  0
 14 16  1  0  0  0  0
 14 20  1  0  0  0  0
 11 12  1  0  0  0  0
 11 13  1  0  0  0  0
 11 14  1  0  0  0  0
  9 10  1  0  0  0  0
  9 11  1  0  0  0  0
  9 24  1  0  0  0  0
  7  8  1  0  0  0  0
  7  9  1  0  0  0  0
 28 29  1  0  0  0  0
 28 30  1  0  0  0  0
 28 31  1  0  0  0  0
 26 27  1  0  0  0  0
 26 28  1  0  0  0  0
M  END
$$$$
default_name
  -OEChem-01062215323D

 31 30  0     1  0  0  0  0  0999 V2000
   -3.5895   -3.5013    1.1082 H   0  0  0  0  0  0  0  0  0  0  0  0
   -3.5145   -2.5363    0.6082 C   0  0  0  0  0  0  0  0  0  0  0  0
   -4.2285   -1.8413    1.0452 H   0  0  0  0  0  0  0  0  0  0  0  0
   -3.7155   -2.6583   -0.4538 H   0  0  0  0  0  0  0  0  0  0  0  0
   -2.1155   -1.9963    0.7922 C   0  0  0  0  0  0  0  0  0  0  0  0
   -1.2875   -2.6383    1.4252 O   0  0  0  0  0  0  0  0  0  0  0  0
   -1.8575   -0.8123    0.2402 N   0  0  0  0  0  0  0  0  0  0  0  0
   -2.6005   -0.3333   -0.2478 H   0  0  0  0  0  0  0  0  0  0  0  0
   -0.5675   -0.1203    0.3102 C   0  0  1  0  0  0  0  0  0  0  0  0
    0.1806   -0.8282    0.6687 H   0  0  0  0  0  0  0  0  0  0  0  0
   -0.1800    0.3414   -1.1104 C   0  0  0  0  0  0  0  0  0  0  0  0
   -0.9854    0.9628   -1.5067 H   0  0  0  0  0  0  0  0  0  0  0  0
    0.7116    0.9671   -1.0302 H   0  0  0  0  0  0  0  0  0  0  0  0
    0.1119   -0.7813   -2.1229 C   0  0  0  0  0  0  0  0  0  0  0  0
   -0.7212   -1.4839   -2.1439 H   0  0  0  0  0  0  0  0  0  0  0  0
    0.3429   -0.2404   -3.5369 C   0  0  0  0  0  0  0  0  0  0  0  0
    1.1643    0.4773   -3.5294 H   0  0  0  0  0  0  0  0  0  0  0  0
    0.5936   -1.0623   -4.2079 H   0  0  0  0  0  0  0  0  0  0  0  0
   -0.5532    0.2490   -3.9122 H   0  0  0  0  0  0  0  0  0  0  0  0
    1.3651   -1.5460   -1.6987 C   0  0  0  0  0  0  0  0  0  0  0  0
    1.2171   -1.9706   -0.7059 H   0  0  0  0  0  0  0  0  0  0  0  0
    1.5581   -2.3588   -2.3989 H   0  0  0  0  0  0  0  0  0  0  0  0
    2.2254   -0.8760   -1.6791 H   0  0  0  0  0  0  0  0  0  0  0  0
   -0.6446    1.0477    1.3080 C   0  0  0  0  0  0  0  0  0  0  0  0
   -1.2258    2.0856    0.9995 O   0  0  0  0  0  0  0  0  0  0  0  0
   -0.0501    0.8810    2.4965 N   0  0  0  0  0  0  0  0  0  0  0  0
    0.4014   -0.0012    2.6778 H   0  0  0  0  0  0  0  0  0  0  0  0
   -0.0202    1.8995    3.5437 C   0  0  0  0  0  0  0  0  0  0  0  0
   -1.0406    2.1666    3.8276 H   0  0  0  0  0  0  0  0  0  0  0  0
    0.5106    1.5256    4.4206 H   0  0  0  0  0  0  0  0  0  0  0  0
    0.4815    2.7947    3.1728 H   0  0  0  0  0  0  0  0  0  0  0  0
  5  6  2  0  0  0  0
  5  7  1  0  0  0  0
  2  3  1  0  0  0  0
  2  4  1  0  0  0  0
  2  5  1  0  0  0  0
  1  2  1  0  0  0  0
 24 25  2  0  0  0  0
 24 26  1  0  0  0  0
 20 21  1  0  0  0  0
 20 22  1  0  0  0  0
 20 23  1  0  0  0  0
 16 17  1  0  0  0  0
 16 18  1  0  0  0  0
 16 19  1  0  0  0  0
 14 15  1  0  0  0  0
 14 16  1  0  0  0  0
 14 20  1  0  0  0  0
 11 12  1  0  0  0  0
 11 13  1  0  0  0  0
 11 14  1  0  0  0  0
  9 10  1  0  0  0  0
  9 11  1  0  0  0  0
  9 24  1  0  0  0  0
  7  8  1  0  0  0  0
  7  9  1  0  0  0  0
 28 29  1  0  0  0  0
 28 30  1  0  0  0  0
 28 31  1  0  0  0  0
 26 27  1  0  0  0  0
 26 28  1  0  0  0  0
M  END
$$$$
default_name
  -OEChem-01062215323D

 31 30  0     1  0  0  0  0  0999 V2000
   -3.5895   -3.5013    1.1082 H   0  0  0  0  0  0  0  0  0  0  0  0
   -3.5145   -2.5363    0.6082 C   0  0  0  0  0  0  0  0  0  0  0  0
   -4.2285   -1.8413    1.0452 H   0  0  0  0  0  0  0  0  0  0  0  0
   -3.7155   -2.6583   -0.4538 H   0  0  0  0  0  0  0  0  0  0  0  0
   -2.1155   -1.9963    0.7922 C   0  0  0  0  0  0  0  0  0  0  0  0
   -1.2875   -2.6383    1.4252 O   0  0  0  0  0  0  0  0  0  0  0  0
   -1.8575   -0.8123    0.2402 N   0  0  0  0  0  0  0  0  0  0  0  0
   -2.6005   -0.3333   -0.2478 H   0  0  0  0  0  0  0  0  0  0  0  0
   -0.5675   -0.1203    0.3102 C   0  0  1  0  0  0  0  0  0  0  0  0
    0.1806   -0.8282    0.6687 H   0  0  0  0  0  0  0  0  0  0  0  0
   -0.1800    0.3414   -1.1104 C   0  0  0  0  0  0  0  0  0  0  0  0
   -0.9854    0.9628   -1.5067 H   0  0  0  0  0  0  0  0  0  0  0  0
    0.7116    0.9671   -1.0302 H   0  0  0  0  0  0  0  0  0  0  0  0
    0.1119   -0.7813   -2.1229 C   0  0  0  0  0  0  0  0  0  0  0  0
   -0.7212   -1.4839   -2.1439 H   0  0  0  0  0  0  0  0  0  0  0  0
    0.3429   -0.2404   -3.5369 C   0  0  0  0  0  0  0  0  0  0  0  0
    1.1643    0.4773   -3.5294 H   0  0  0  0  0  0  0  0  0  0  0  0
    0.5936   -1.0623   -4.2079 H   0  0  0  0  0  0  0  0  0  0  0  0
   -0.5532    0.2490   -3.9122 H   0  0  0  0  0  0  0  0  0  0  0  0
    1.3651   -1.5460   -1.6987 C   0  0  0  0  0  0  0  0  0  0  0  0
    1.2171   -1.9706   -0.7059 H   0  0  0  0  0  0  0  0  0  0  0  0
    1.5581   -2.3588   -2.3989 H   0  0  0  0  0  0  0  0  0  0  0  0
    2.2254   -0.8760   -1.6791 H   0  0  0  0  0  0  0  0  0  0  0  0
   -0.6446    1.0477    1.3080 C   0  0  0  0  0  0  0  0  0  0  0  0
   -1.4420    1.9646    1.1244 O   0  0  0  0  0  0  0  0  0  0  0  0
    0.1902    1.0178    2.3550 N   0  0  0  0  0  0  0  0  0  0  0  0
    0.8111    0.2290    2.4400 H   0  0  0  0  0  0  0  0  0  0  0  0
    0.2514    2.0578    3.3794 C   0  0  0  0  0  0  0  0  0  0  0  0
   -0.7241    2.1594    3.8604 H   0  0  0  0  0  0  0  0  0  0  0  0
    0.9987    1.8038    4.1326 H   0  0  0  0  0  0  0  0  0  0  0  0
    0.5121    3.0126    2.9201 H   0  0  0  0  0  0  0  0  0  0  0  0
  5  6  2  0  0  0  0
  5  7  1  0  0  0  0
  2  3  1  0  0  0  0
  2  4  1  0  0  0  0
  2  5  1  0  0  0  0
  1  2  1  0  0  0  0
 24 25  2  0  0  0  0
 24 26  1  0  0  0  0
 20 21  1  0  0  0  0
 20 22  1  0  0  0  0
 20 23  1  0  0  0  0
 16 17  1  0  0  0  0
 16 18  1  0  0  0  0
 16 19  1  0  0  0  0
 14 15  1  0  0  0  0
 14 16  1  0  0  0  0
 14 20  1  0  0  0  0
 11 12  1  0  0  0  0
 11 13  1  0  0  0  0
 11 14  1  0  0  0  0
  9 10  1  0  0  0  0
  9 11  1  0  0  0  0
  9 24  1  0  0  0  0
  7  8  1  0  0  0  0
  7  9  1  0  0  0  0
 28 29  1  0  0  0  0
 28 30  1  0  0  0  0
 28 31  1  0  0  0  0
 26 27  1  0  0  0  0
 26 28  1  0  0  0  0
M  END
$$$$
default_name
  -OEChem-01062215323D

 31 30  0     1  0  0  0  0  0999 V2000
   -3.5895   -3.5013    1.1082 H   0  0  0  0  0  0  0  0  0  0  0  0
   -3.5145   -2.5363    0.6082 C   0  0  0  0  0  0  0  0  0  0  0  0
   -4.2285   -1.8413    1.0452 H   0  0  0  0  0  0  0  0  0  0  0  0
   -3.7155   -2.6583   -0.4538 H   0  0  0  0  0  0  0  0  0  0  0  0
   -2.1155   -1.9963    0.7922 C   0  0  0  0  0  0  0  0  0  0  0  0
   -1.2875   -2.6383    1.4252 O   0  0  0  0  0  0  0  0  0  0  0  0
   -1.8575   -0.8123    0.2402 N   0  0  0  0  0  0  0  0  0  0  0  0
   -2.6005   -0.3333   -0.2478 H   0  0  0  0  0  0  0  0  0  0  0  0
   -0.5675   -0.1203    0.3102 C   0  0  1  0  0  0  0  0  0  0  0  0
    0.1806   -0.8282    0.6687 H   0  0  0  0  0  0  0  0  0  0  0  0
   -0.1800    0.3414   -1.1104 C   0  0  0  0  0  0  0  0  0  0  0  0
   -0.9854    0.9628   -1.5067 H   0  0  0  0  0  0  0  0  0  0  0  0
    0.7116    0.9671   -1.0302 H   0  0  0  0  0  0  0  0  0  0  0  0
    0.1119   -0.7813   -2.1229 C   0  0  0  0  0  0  0  0  0  0  0  0
   -0.7212   -1.4839   -2.1439 H   0  0  0  0  0  0  0  0  0  0  0  0
    0.3429   -0.2404   -3.5369 C   0  0  0  0  0  0  0  0  0  0  0  0
    1.1643    0.4773   -3.5294 H   0  0  0  0  0  0  0  0  0  0  0  0
    0.5936   -1.0623   -4.2079 H   0  0  0  0  0  0  0  0  0  0  0  0
   -0.5532    0.2490   -3.9122 H   0  0  0  0  0  0  0  0  0  0  0  0
    1.3651   -1.5460   -1.6987 C   0  0  0  0  0  0  0  0  0  0  0  0
    1.2171   -1.9706   -0.7059 H   0  0  0  0  0  0  0  0  0  0  0  0
    1.5581   -2.3588   -2.3989 H   0  0  0  0  0  0  0  0  0  0  0  0
    2.2254   -0.8760   -1.6791 H   0  0  0  0  0  0  0  0  0  0  0  0
   -0.6446    1.0477    1.3080 C   0  0  0  0  0  0  0  0  0  0  0  0
   -1.6059    1.8130    1.2891 O   0  0  0  0  0  0  0  0  0  0  0  0
    0.3715    1.1885    2.1692 N   0  0  0  0  0  0  0  0  0  0  0  0
    1.1213    0.5170    2.1269 H   0  0  0  0  0  0  0  0  0  0  0  0
    0.4548    2.2541    3.1653 C   0  0  0  0  0  0  0  0  0  0  0  0
   -0.4107    2.2061    3.8300 H   0  0  0  0  0  0  0  0  0  0  0  0
    1.3670    2.1507    3.7550 H   0  0  0  0  0  0  0  0  0  0  0  0
    0.4553    3.2249    2.6671 H   0  0  0  0  0  0  0  0  0  0  0  0
  5  6  2  0  0  0  0
  5  7  1  0  0  0  0
  2  3  1  0  0  0  0
  2  4  1  0  0  0  0
  2  5  1  0  0  0  0
  1  2  1  0  0  0  0
 24 25  2  0  0  0  0
 24 26  1  0  0  0  0
 20 21  1  0  0  0  0
 20 22  1  0  0  0  0
 20 23  1  0  0  0  0
 16 17  1  0  0  0  0
 16 18  1  0  0  0  0
 16 19  1  0  0  0  0
 14 15  1  0  0  0  0
 14 16  1  0  0  0  0
 14 20  1  0  0  0  0
 11 12  1  0  0  0  0
 11 13  1  0  0  0  0
 11 14  1  0  0  0  0
  9 10  1  0  0  0  0
  9 11  1  0  0  0  0
  9 24  1  0  0  0  0
  7  8  1  0  0  0  0
  7  9  1  0  0  0  0
 28 29  1  0  0  0  0
 28 30  1  0  0  0  0
 28 31  1  0  0  0  0
 26 27  1  0  0  0  0
 26 28  1  0  0  0  0
M  END
$$$$
default_name
  -OEChem-01062215323D

 31 30  0     1  0  0  0  0  0999 V2000
   -3.5895   -3.5013    1.1082 H   0  0  0  0  0  0  0  0  0  0  0  0
   -3.5145   -2.5363    0.6082 C   0  0  0  0  0  0  0  0  0  0  0  0
   -4.2285   -1.8413    1.0452 H   0  0  0  0  0  0  0  0  0  0  0  0
   -3.7155   -2.6583   -0.4538 H   0  0  0  0  0  0  0  0  0  0  0  0
   -2.1155   -1.9963    0.7922 C   0  0  0  0  0  0  0  0  0  0  0  0
   -1.2875   -2.6383    1.4252 O   0  0  0  0  0  0  0  0  0  0  0  0
   -1.8575   -0.8123    0.2402 N   0  0  0  0  0  0  0  0  0  0  0  0
   -2.6005   -0.3333   -0.2478 H   0  0  0  0  0  0  0  0  0  0  0  0
   -0.5675   -0.1203    0.3102 C   0  0  1  0  0  0  0  0  0  0  0  0
    0.1806   -0.8282    0.6687 H   0  0  0  0  0  0  0  0  0  0  0  0
   -0.1800    0.3414   -1.1104 C   0  0  0  0  0  0  0  0  0  0  0  0
   -0.9854    0.9628   -1.5067 H   0  0  0  0  0  0  0  0  0  0  0  0
    0.7116    0.9671   -1.0302 H   0  0  0  0  0  0  0  0  0  0  0  0
    0.1119   -0.7813   -2.1229 C   0  0  0  0  0  0  0  0  0  0  0  0
   -0.7212   -1.4839   -2.1439 H   0  0  0  0  0  0  0  0  0  0  0  0
    0.3429   -0.2404   -3.5369 C   0  0  0  0  0  0  0  0  0  0  0  0
    1.1643    0.4773   -3.5294 H   0  0  0  0  0  0  0  0  0  0  0  0
    0.5936   -1.0623   -4.2079 H   0  0  0  0  0  0  0  0  0  0  0  0
   -0.5532    0.2490   -3.9122 H   0  0  0  0  0  0  0  0  0  0  0  0
    1.3651   -1.5460   -1.6987 C   0  0  0  0  0  0  0  0  0  0  0  0
    1.2171   -1.9706   -0.7059 H   0  0  0  0  0  0  0  0  0  0  0  0
    1.5581   -2.3588   -2.3989 H   0  0  0  0  0  0  0  0  0  0  0  0
    2.2254   -0.8760   -1.6791 H   0  0  0  0  0  0  0  0  0  0  0  0
   -0.6446    1.0477    1.3080 C   0  0  0  0  0  0  0  0  0  0  0  0
   -1.7064    1.6412    1.4824 O   0  0  0  0  0  0  0  0  0  0  0  0
    0.4814    1.3814    1.9519 N   0  0  0  0  0  0  0  0  0  0  0  0
    1.3111    0.8432    1.7597 H   0  0  0  0  0  0  0  0  0  0  0  0
    0.5763    2.4752    2.9160 C   0  0  0  0  0  0  0  0  0  0  0  0
   -0.1218    2.3034    3.7384 H   0  0  0  0  0  0  0  0  0  0  0  0
    1.5902    2.5428    3.3133 H   0  0  0  0  0  0  0  0  0  0  0  0
    0.3152    3.4172    2.4312 H   0  0  0  0  0  0  0  0  0  0  0  0
  5  6  2  0  0  0  0
  5  7  1  0  0  0  0
  2  3  1  0  0  0  0
  2  4  1  0  0  0  0
  2  5  1  0  0  0  0
  1  2  1  0  0  0  0
 24 25  2  0  0  0  0
 24 26  1  0  0  0  0
 20 21  1  0  0  0  0
 20 22  1  0  0  0  0
 20 23  1  0  0  0  0
 16 17  1  0  0  0  0
 16 18  1  0  0  0  0
 16 19  1  0  0  0  0
 14 15  1  0  0  0  0
 14 16  1  0  0  0  0
 14 20  1  0  0  0  0
 11 12  1  0  0  0  0
 11 13  1  0  0  0  0
 11 14  1  0  0  0  0
  9 10  1  0  0  0  0
  9 11  1  0  0  0  0
  9 24  1  0  0  0  0
  7  8  1  0  0  0  0
  7  9  1  0  0  0  0
 28 29  1  0  0  0  0
 28 30  1  0  0  0  0
 28 31  1  0  0  0  0
 26 27  1  0  0  0  0
 26 28  1  0  0  0  0
M  END
$$$$
default_name
  -OEChem-01062215323D

 31 30  0     1  0  0  0  0  0999 V2000
   -3.5895   -3.5013    1.1082 H   0  0  0  0  0  0  0  0  0  0  0  0
   -3.5145   -2.5363    0.6082 C   0  0  0  0  0  0  0  0  0  0  0  0
   -4.2285   -1.8413    1.0452 H   0  0  0  0  0  0  0  0  0  0  0  0
   -3.7155   -2.6583   -0.4538 H   0  0  0  0  0  0  0  0  0  0  0  0
   -2.1155   -1.9963    0.7922 C   0  0  0  0  0  0  0  0  0  0  0  0
   -1.2875   -2.6383    1.4252 O   0  0  0  0  0  0  0  0  0  0  0  0
   -1.8575   -0.8123    0.2402 N   0  0  0  0  0  0  0  0  0  0  0  0
   -2.6005   -0.3333   -0.2478 H   0  0  0  0  0  0  0  0  0  0  0  0
   -0.5675   -0.1203    0.3102 C   0  0  1  0  0  0  0  0  0  0  0  0
    0.1806   -0.8282    0.6687 H   0  0  0  0  0  0  0  0  0  0  0  0
   -0.1800    0.3414   -1.1104 C   0  0  0  0  0  0  0  0  0  0  0  0
   -0.9854    0.9628   -1.5067 H   0  0  0  0  0  0  0  0  0  0  0  0
    0.7116    0.9671   -1.0302 H   0  0  0  0  0  0  0  0  0  0  0  0
    0.1119   -0.7813   -2.1229 C   0  0  0  0  0  0  0  0  0  0  0  0
   -0.7212   -1.4839   -2.1439 H   0  0  0  0  0  0  0  0  0  0  0  0
    0.3429   -0.2404   -3.5369 C   0  0  0  0  0  0  0  0  0  0  0  0
    1.1643    0.4773   -3.5294 H   0  0  0  0  0  0  0  0  0  0  0  0
    0.5936   -1.0623   -4.2079 H   0  0  0  0  0  0  0  0  0  0  0  0
   -0.5532    0.2490   -3.9122 H   0  0  0  0  0  0  0  0  0  0  0  0
    1.3651   -1.5460   -1.6987 C   0  0  0  0  0  0  0  0  0  0  0  0
    1.2171   -1.9706   -0.7059 H   0  0  0  0  0  0  0  0  0  0  0  0
    1.5581   -2.3588   -2.3989 H   0  0  0  0  0  0  0  0  0  0  0  0
    2.2254   -0.8760   -1.6791 H   0  0  0  0  0  0  0  0  0  0  0  0
   -0.6446    1.0477    1.3080 C   0  0  0  0  0  0  0  0  0  0  0  0
   -1.7367    1.4610    1.6911 O   0  0  0  0  0  0  0  0  0  0  0  0
    0.5126    1.5833    1.7179 N   0  0  0  0  0  0  0  0  0  0  0  0
    1.3675    1.1855    1.3634 H   0  0  0  0  0  0  0  0  0  0  0  0
    0.6075    2.7058    2.6484 C   0  0  0  0  0  0  0  0  0  0  0  0
    0.1230    2.4447    3.5919 H   0  0  0  0  0  0  0  0  0  0  0  0
    1.6531    2.9532    2.8378 H   0  0  0  0  0  0  0  0  0  0  0  0
    0.1011    3.5764    2.2284 H   0  0  0  0  0  0  0  0  0  0  0  0
  5  6  2  0  0  0  0
  5  7  1  0  0  0  0
  2  3  1  0  0  0  0
  2  4  1  0  0  0  0
  2  5  1  0  0  0  0
  1  2  1  0  0  0  0
 24 25  2  0  0  0  0
 24 26  1  0  0  0  0
 20 21  1  0  0  0  0
 20 22  1  0  0  0  0
 20 23  1  0  0  0  0
 16 17  1  0  0  0  0
 16 18  1  0  0  0  0
 16 19  1  0  0  0  0
 14 15  1  0  0  0  0
 14 16  1  0  0  0  0
 14 20  1  0  0  0  0
 11 12  1  0  0  0  0
 11 13  1  0  0  0  0
 11 14  1  0  0  0  0
  9 10  1  0  0  0  0
  9 11  1  0  0  0  0
  9 24  1  0  0  0  0
  7  8  1  0  0  0  0
  7  9  1  0  0  0  0
 28 29  1  0  0  0  0
 28 30  1  0  0  0  0
 28 31  1  0  0  0  0
 26 27  1  0  0  0  0
 26 28  1  0  0  0  0
M  END
$$$$
default_name
  -OEChem-01062215323D

 31 30  0     1  0  0  0  0  0999 V2000
   -3.5895   -3.5013    1.1082 H   0  0  0  0  0  0  0  0  0  0  0  0
   -3.5145   -2.5363    0.6082 C   0  0  0  0  0  0  0  0  0  0  0  0
   -4.2285   -1.8413    1.0452 H   0  0  0  0  0  0  0  0  0  0  0  0
   -3.7155   -2.6583   -0.4538 H   0  0  0  0  0  0  0  0  0  0  0  0
   -2.1155   -1.9963    0.7922 C   0  0  0  0  0  0  0  0  0  0  0  0
   -1.2875   -2.6383    1.4252 O   0  0  0  0  0  0  0  0  0  0  0  0
   -1.8575   -0.8123    0.2402 N   0  0  0  0  0  0  0  0  0  0  0  0
   -2.6005   -0.3333   -0.2478 H   0  0  0  0  0  0  0  0  0  0  0  0
   -0.5675   -0.1203    0.3102 C   0  0  1  0  0  0  0  0  0  0  0  0
    0.2180   -0.8710    0.4044 H   0  0  0  0  0  0  0  0  0  0  0  0
   -0.3578    0.6620   -1.0033 C   0  0  0  0  0  0  0  0  0  0  0  0
   -1.2049    1.3355   -1.1469 H   0  0  0  0  0  0  0  0  0  0  0  0
    0.5380    1.2766   -0.8906 H   0  0  0  0  0  0  0  0  0  0  0  0
   -0.1954   -0.1933   -2.2733 C   0  0  0  0  0  0  0  0  0  0  0  0
   -1.0259   -0.8947   -2.3535 H   0  0  0  0  0  0  0  0  0  0  0  0
   -0.1400    0.6604   -3.5435 C   0  0  0  0  0  0  0  0  0  0  0  0
    0.6774    1.3792   -3.4715 H   0  0  0  0  0  0  0  0  0  0  0  0
    0.0244    0.0192   -4.4099 H   0  0  0  0  0  0  0  0  0  0  0  0
   -1.0747    1.1983   -3.6859 H   0  0  0  0  0  0  0  0  0  0  0  0
    1.0993   -1.0009   -2.1898 C   0  0  0  0  0  0  0  0  0  0  0  0
    1.0745   -1.6436   -1.3098 H   0  0  0  0  0  0  0  0  0  0  0  0
    1.2028   -1.6281   -3.0752 H   0  0  0  0  0  0  0  0  0  0  0  0
    1.9566   -0.3303   -2.1215 H   0  0  0  0  0  0  0  0  0  0  0  0
   -0.5185    0.7882    1.5504 C   0  0  0  0  0  0  0  0  0  0  0  0
   -1.4867    0.8562    2.3041 O   0  0  0  0  0  0  0  0  0  0  0  0
    0.6033    1.4913    1.7534 N   0  0  0  0  0  0  0  0  0  0  0  0
    1.3564    1.3774    1.0940 H   0  0  0  0  0  0  0  0  0  0  0  0
    0.7993    2.4091    2.8732 C   0  0  0  0  0  0  0  0  0  0  0  0
    0.6871    1.8694    3.8163 H   0  0  0  0  0  0  0  0  0  0  0  0
    1.7951    2.8527    2.8293 H   0  0  0  0  0  0  0  0  0  0  0  0
    0.0495    3.2009    2.8362 H   0  0  0  0  0  0  0  0  0  0  0  0
  5  6  2  0  0  0  0
  5  7  1  0  0  0  0
  2  3  1  0  0  0  0
  2  4  1  0  0  0  0
  2  5  1  0  0  0  0
  1  2  1  0  0  0  0
 24 25  2  0  0  0  0
 24 26  1  0  0  0  0
 20 21  1  0  0  0  0
 20 22  1  0  0  0  0
 20 23  1  0  0  0  0
 16 17  1  0  0  0  0
 16 18  1  0  0  0  0
 16 19  1  0  0  0  0
 14 15  1  0  0  0  0
 14 16  1  0  0  0  0
 14 20  1  0  0  0  0
 11 12  1  0  0  0  0
 11 13  1  0  0  0  0
 11 14  1  0  0  0  0
  9 10  1  0  0  0  0
  9 11  1  0  0  0  0
  9 24  1  0  0  0  0
  7  8  1  0  0  0  0
  7  9  1  0  0  0  0
 28 29  1  0  0  0  0
 28 30  1  0  0  0  0
 28 31  1  0  0  0  0
 26 27  1  0  0  0  0
 26 28  1  0  0  0  0
M  END
$$$$
default_name
  -OEChem-01062215323D

 31 30  0     1  0  0  0  0  0999 V2000
   -3.5895   -3.5013    1.1082 H   0  0  0  0  0  0  0  0  0  0  0  0
   -3.5145   -2.5363    0.6082 C   0  0  0  0  0  0  0  0  0  0  0  0
   -4.2285   -1.8413    1.0452 H   0  0  0  0  0  0  0  0  0  0  0  0
   -3.7155   -2.6583   -0.4538 H   0  0  0  0  0  0  0  0  0  0  0  0
   -2.1155   -1.9963    0.7922 C   0  0  0  0  0  0  0  0  0  0  0  0
   -1.2875   -2.6383    1.4252 O   0  0  0  0  0  0  0  0  0  0  0  0
   -1.8575   -0.8123    0.2402 N   0  0  0  0  0  0  0  0  0  0  0  0
   -2.6005   -0.3333   -0.2478 H   0  0  0  0  0  0  0  0  0  0  0  0
   -0.5675   -0.1203    0.3102 C   0  0  1  0  0  0  0  0  0  0  0  0
    0.2180   -0.8710    0.4044 H   0  0  0  0  0  0  0  0  0  0  0  0
   -0.3578    0.6620   -1.0033 C   0  0  0  0  0  0  0  0  0  0  0  0
   -1.2049    1.3355   -1.1469 H   0  0  0  0  0  0  0  0  0  0  0  0
    0.5380    1.2766   -0.8906 H   0  0  0  0  0  0  0  0  0  0  0  0
   -0.1954   -0.1933   -2.2733 C   0  0  0  0  0  0  0  0  0  0  0  0
   -1.0259   -0.8947   -2.3535 H   0  0  0  0  0  0  0  0  0  0  0  0
   -0.1400    0.6604   -3.5435 C   0  0  0  0  0  0  0  0  0  0  0  0
    0.6774    1.3792   -3.4715 H   0  0  0  0  0  0  0  0  0  0  0  0
    0.0244    0.0192   -4.4099 H   0  0  0  0  0  0  0  0  0  0  0  0
   -1.0747    1.1983   -3.6859 H   0  0  0  0  0  0  0  0  0  0  0  0
    1.0993   -1.0009   -2.1898 C   0  0  0  0  0  0  0  0  0  0  0  0
    1.0745   -1.6436   -1.3098 H   0  0  0  0  0  0  0  0  0  0  0  0
    1.2028   -1.6281   -3.0752 H   0  0  0  0  0  0  0  0  0  0  0  0
    1.9566   -0.3303   -2.1215 H   0  0  0  0  0  0  0  0  0  0  0  0
   -0.5185    0.7882    1.5504 C   0  0  0  0  0  0  0  0  0  0  0  0
   -1.3520    0.6580    2.4440 O   0  0  0  0  0  0  0  0  0  0  0  0
    0.4500    1.7121    1.5977 N   0  0  0  0  0  0  0  0  0  0  0  0
    1.0998    1.7531    0.8289 H   0  0  0  0  0  0  0  0  0  0  0  0
    0.6206    2.6595    2.6968 C   0  0  0  0  0  0  0  0  0  0  0  0
    0.7695    2.1159    3.6325 H   0  0  0  0  0  0  0  0  0  0  0  0
    1.4835    3.3014    2.5129 H   0  0  0  0  0  0  0  0  0  0  0  0
   -0.2741    3.2766    2.7935 H   0  0  0  0  0  0  0  0  0  0  0  0
  5  6  2  0  0  0  0
  5  7  1  0  0  0  0
  2  3  1  0  0  0  0
  2  4  1  0  0  0  0
  2  5  1  0  0  0  0
  1  2  1  0  0  0  0
 24 25  2  0  0  0  0
 24 26  1  0  0  0  0
 20 21  1  0  0  0  0
 20 22  1  0  0  0  0
 20 23  1  0  0  0  0
 16 17  1  0  0  0  0
 16 18  1  0  0  0  0
 16 19  1  0  0  0  0
 14 15  1  0  0  0  0
 14 16  1  0  0  0  0
 14 20  1  0  0  0  0
 11 12  1  0  0  0  0
 11 13  1  0  0  0  0
 11 14  1  0  0  0  0
  9 10  1  0  0  0  0
  9 11  1  0  0  0  0
  9 24  1  0  0  0  0
  7  8  1  0  0  0  0
  7  9  1  0  0  0  0
 28 29  1  0  0  0  0
 28 30  1  0  0  0  0
 28 31  1  0  0  0  0
 26 27  1  0  0  0  0
 26 28  1  0  0  0  0
M  END
$$$$
default_name
  -OEChem-01062215323D

 31 30  0     1  0  0  0  0  0999 V2000
   -3.5895   -3.5013    1.1082 H   0  0  0  0  0  0  0  0  0  0  0  0
   -3.5145   -2.5363    0.6082 C   0  0  0  0  0  0  0  0  0  0  0  0
   -4.2285   -1.8413    1.0452 H   0  0  0  0  0  0  0  0  0  0  0  0
   -3.7155   -2.6583   -0.4538 H   0  0  0  0  0  0  0  0  0  0  0  0
   -2.1155   -1.9963    0.7922 C   0  0  0  0  0  0  0  0  0  0  0  0
   -1.2875   -2.6383    1.4252 O   0  0  0  0  0  0  0  0  0  0  0  0
   -1.8575   -0.8123    0.2402 N   0  0  0  0  0  0  0  0  0  0  0  0
   -2.6005   -0.3333   -0.2478 H   0  0  0  0  0  0  0  0  0  0  0  0
   -0.5675   -0.1203    0.3102 C   0  0  1  0  0  0  0  0  0  0  0  0
    0.2180   -0.8710    0.4044 H   0  0  0  0  0  0  0  0  0  0  0  0
   -0.3578    0.6620   -1.0033 C   0  0  0  0  0  0  0  0  0  0  0  0
   -1.2049    1.3355   -1.1469 H   0  0  0  0  0  0  0  0  0  0  0  0
    0.5380    1.2766   -0.8906 H   0  0  0  0  0  0  0  0  0  0  0  0
   -0.1954   -0.1933   -2.2733 C   0  0  0  0  0  0  0  0  0  0  0  0
   -1.0259   -0.8947   -2.3535 H   0  0  0  0  0  0  0  0  0  0  0  0
   -0.1400    0.6604   -3.5435 C   0  0  0  0  0  0  0  0  0  0  0  0
    0.6774    1.3792   -3.4715 H   0  0  0  0  0  0  0  0  0  0  0  0
    0.0244    0.0192   -4.4099 H   0  0  0  0  0  0  0  0  0  0  0  0
   -1.0747    1.1983   -3.6859 H   0  0  0  0  0  0  0  0  0  0  0  0
    1.0993   -1.0009   -2.1898 C   0  0  0  0  0  0  0  0  0  0  0  0
    1.0745   -1.6436   -1.3098 H   0  0  0  0  0  0  0  0  0  0  0  0
    1.2028   -1.6281   -3.0752 H   0  0  0  0  0  0  0  0  0  0  0  0
    1.9566   -0.3303   -2.1215 H   0  0  0  0  0  0  0  0  0  0  0  0
   -0.5185    0.7882    1.5504 C   0  0  0  0  0  0  0  0  0  0  0  0
   -1.1592    0.4936    2.5568 O   0  0  0  0  0  0  0  0  0  0  0  0
    0.2321    1.8947    1.4725 N   0  0  0  0  0  0  0  0  0  0  0  0
    0.7331    2.0647    0.6151 H   0  0  0  0  0  0  0  0  0  0  0  0
    0.3687    2.8656    2.5558 C   0  0  0  0  0  0  0  0  0  0  0  0
    0.7695    2.3727    3.4444 H   0  0  0  0  0  0  0  0  0  0  0  0
    1.0404    3.6724    2.2586 H   0  0  0  0  0  0  0  0  0  0  0  0
   -0.6090    3.2825    2.8024 H   0  0  0  0  0  0  0  0  0  0  0  0
  5  6  2  0  0  0  0
  5  7  1  0  0  0  0
  2  3  1  0  0  0  0
  2  4  1  0  0  0  0
  2  5  1  0  0  0  0
  1  2  1  0  0  0  0
 24 25  2  0  0  0  0
 24 26  1  0  0  0  0
 20 21  1  0  0  0  0
 20 22  1  0  0  0  0
 20 23  1  0  0  0  0
 16 17  1  0  0  0  0
 16 18  1  0  0  0  0
 16 19  1  0  0  0  0
 14 15  1  0  0  0  0
 14 16  1  0  0  0  0
 14 20  1  0  0  0  0
 11 12  1  0  0  0  0
 11 13  1  0  0  0  0
 11 14  1  0  0  0  0
  9 10  1  0  0  0  0
  9 11  1  0  0  0  0
  9 24  1  0  0  0  0
  7  8  1  0  0  0  0
  7  9  1  0  0  0  0
 28 29  1  0  0  0  0
 28 30  1  0  0  0  0
 28 31  1  0  0  0  0
 26 27  1  0  0  0  0
 26 28  1  0  0  0  0
M  END
$$$$
default_name
  -OEChem-01062215323D

 31 30  0     1  0  0  0  0  0999 V2000
   -3.5895   -3.5013    1.1082 H   0  0  0  0  0  0  0  0  0  0  0  0
   -3.5145   -2.5363    0.6082 C   0  0  0  0  0  0  0  0  0  0  0  0
   -4.2285   -1.8413    1.0452 H   0  0  0  0  0  0  0  0  0  0  0  0
   -3.7155   -2.6583   -0.4538 H   0  0  0  0  0  0  0  0  0  0  0  0
   -2.1155   -1.9963    0.7922 C   0  0  0  0  0  0  0  0  0  0  0  0
   -1.2875   -2.6383    1.4252 O   0  0  0  0  0  0  0  0  0  0  0  0
   -1.8575   -0.8123    0.2402 N   0  0  0  0  0  0  0  0  0  0  0  0
   -2.6005   -0.3333   -0.2478 H   0  0  0  0  0  0  0  0  0  0  0  0
   -0.5675   -0.1203    0.3102 C   0  0  1  0  0  0  0  0  0  0  0  0
    0.2180   -0.8710    0.4044 H   0  0  0  0  0  0  0  0  0  0  0  0
   -0.3578    0.6620   -1.0033 C   0  0  0  0  0  0  0  0  0  0  0  0
   -1.2049    1.3355   -1.1469 H   0  0  0  0  0  0  0  0  0  0  0  0
    0.5380    1.2766   -0.8906 H   0  0  0  0  0  0  0  0  0  0  0  0
   -0.1954   -0.1933   -2.2733 C   0  0  0  0  0  0  0  0  0  0  0  0
   -1.0259   -0.8947   -2.3535 H   0  0  0  0  0  0  0  0  0  0  0  0
   -0.1400    0.6604   -3.5435 C   0  0  0  0  0  0  0  0  0  0  0  0
    0.6774    1.3792   -3.4715 H   0  0  0  0  0  0  0  0  0  0  0  0
    0.0244    0.0192   -4.4099 H   0  0  0  0  0  0  0  0  0  0  0  0
   -1.0747    1.1983   -3.6859 H   0  0  0  0  0  0  0  0  0  0  0  0
    1.0993   -1.0009   -2.1898 C   0  0  0  0  0  0  0  0  0  0  0  0
    1.0745   -1.6436   -1.3098 H   0  0  0  0  0  0  0  0  0  0  0  0
    1.2028   -1.6281   -3.0752 H   0  0  0  0  0  0  0  0  0  0  0  0
    1.9566   -0.3303   -2.1215 H   0  0  0  0  0  0  0  0  0  0  0  0
   -0.5185    0.7882    1.5504 C   0  0  0  0  0  0  0  0  0  0  0  0
   -0.9214    0.3740    2.6350 O   0  0  0  0  0  0  0  0  0  0  0  0
   -0.0356    2.0267    1.3864 N   0  0  0  0  0  0  0  0  0  0  0  0
    0.2811    2.2909    0.4673 H   0  0  0  0  0  0  0  0  0  0  0  0
    0.0609    3.0133    2.4598 C   0  0  0  0  0  0  0  0  0  0  0  0
    0.6872    2.6223    3.2648 H   0  0  0  0  0  0  0  0  0  0  0  0
    0.4962    3.9404    2.0838 H   0  0  0  0  0  0  0  0  0  0  0  0
   -0.9324    3.2182    2.8623 H   0  0  0  0  0  0  0  0  0  0  0  0
  5  6  2  0  0  0  0
  5  7  1  0  0  0  0
  2  3  1  0  0  0  0
  2  4  1  0  0  0  0
  2  5  1  0  0  0  0
  1  2  1  0  0  0  0
 24 25  2  0  0  0  0
 24 26  1  0  0  0  0
 20 21  1  0  0  0  0
 20 22  1  0  0  0  0
 20 23  1  0  0  0  0
 16 17  1  0  0  0  0
 16 18  1  0  0  0  0
 16 19  1  0  0  0  0
 14 15  1  0  0  0  0
 14 16  1  0  0  0  0
 14 20  1  0  0  0  0
 11 12  1  0  0  0  0
 11 13  1  0  0  0  0
 11 14  1  0  0  0  0
  9 10  1  0  0  0  0
  9 11  1  0  0  0  0
  9 24  1  0  0  0  0
  7  8  1  0  0  0  0
  7  9  1  0  0  0  0
 28 29  1  0  0  0  0
 28 30  1  0  0  0  0
 28 31  1  0  0  0  0
 26 27  1  0  0  0  0
 26 28  1  0  0  0  0
M  END
$$$$
default_name
  -OEChem-01062215323D

 31 30  0     1  0  0  0  0  0999 V2000
   -3.5895   -3.5013    1.1082 H   0  0  0  0  0  0  0  0  0  0  0  0
   -3.5145   -2.5363    0.6082 C   0  0  0  0  0  0  0  0  0  0  0  0
   -4.2285   -1.8413    1.0452 H   0  0  0  0  0  0  0  0  0  0  0  0
   -3.7155   -2.6583   -0.4538 H   0  0  0  0  0  0  0  0  0  0  0  0
   -2.1155   -1.9963    0.7922 C   0  0  0  0  0  0  0  0  0  0  0  0
   -1.2875   -2.6383    1.4252 O   0  0  0  0  0  0  0  0  0  0  0  0
   -1.8575   -0.8123    0.2402 N   0  0  0  0  0  0  0  0  0  0  0  0
   -2.6005   -0.3333   -0.2478 H   0  0  0  0  0  0  0  0  0  0  0  0
   -0.5675   -0.1203    0.3102 C   0  0  1  0  0  0  0  0  0  0  0  0
    0.2180   -0.8710    0.4044 H   0  0  0  0  0  0  0  0  0  0  0  0
   -0.3578    0.6620   -1.0033 C   0  0  0  0  0  0  0  0  0  0  0  0
   -1.2049    1.3355   -1.1469 H   0  0  0  0  0  0  0  0  0  0  0  0
    0.5380    1.2766   -0.8906 H   0  0  0  0  0  0  0  0  0  0  0  0
   -0.1954   -0.1933   -2.2733 C   0  0  0  0  0  0  0  0  0  0  0  0
   -1.0259   -0.8947   -2.3535 H   0  0  0  0  0  0  0  0  0  0  0  0
   -0.1400    0.6604   -3.5435 C   0  0  0  0  0  0  0  0  0  0  0  0
    0.6774    1.3792   -3.4715 H   0  0  0  0  0  0  0  0  0  0  0  0
    0.0244    0.0192   -4.4099 H   0  0  0  0  0  0  0  0  0  0  0  0
   -1.0747    1.1983   -3.6859 H   0  0  0  0  0  0  0  0  0  0  0  0
    1.0993   -1.0009   -2.1898 C   0  0  0  0  0  0  0  0  0  0  0  0
    1.0745   -1.6436   -1.3098 H   0  0  0  0  0  0  0  0  0  0  0  0
    1.2028   -1.6281   -3.0752 H   0  0  0  0  0  0  0  0  0  0  0  0
    1.9566   -0.3303   -2.1215 H   0  0  0  0  0  0  0  0  0  0  0  0
   -0.5185    0.7882    1.5504 C   0  0  0  0  0  0  0  0  0  0  0  0
   -0.6547    0.3075    2.6732 O   0  0  0  0  0  0  0  0  0  0  0  0
   -0.3350    2.0989    1.3453 N   0  0  0  0  0  0  0  0  0  0  0  0
   -0.2253    2.4163    0.3954 H   0  0  0  0  0  0  0  0  0  0  0  0
   -0.2820    3.0924    2.4153 C   0  0  0  0  0  0  0  0  0  0  0  0
    0.5282    2.8477    3.1059 H   0  0  0  0  0  0  0  0  0  0  0  0
   -0.1122    4.0871    2.0003 H   0  0  0  0  0  0  0  0  0  0  0  0
   -1.2222    3.0881    2.9690 H   0  0  0  0  0  0  0  0  0  0  0  0
  5  6  2  0  0  0  0
  5  7  1  0  0  0  0
  2  3  1  0  0  0  0
  2  4  1  0  0  0  0
  2  5  1  0  0  0  0
  1  2  1  0  0  0  0
 24 25  2  0  0  0  0
 24 26  1  0  0  0  0
 20 21  1  0  0  0  0
 20 22  1  0  0  0  0
 20 23  1  0  0  0  0
 16 17  1  0  0  0  0
 16 18  1  0  0  0  0
 16 19  1  0  0  0  0
 14 15  1  0  0  0  0
 14 16  1  0  0  0  0
 14 20  1  0  0  0  0
 11 12  1  0  0  0  0
 11 13  1  0  0  0  0
 11 14  1  0  0  0  0
  9 10  1  0  0  0  0
  9 11  1  0  0  0  0
  9 24  1  0  0  0  0
  7  8  1  0  0  0  0
  7  9  1  0  0  0  0
 28 29  1  0  0  0  0
 28 30  1  0  0  0  0
 28 31  1  0  0  0  0
 26 27  1  0  0  0  0
 26 28  1  0  0  0  0
M  END
$$$$
default_name
  -OEChem-01062215323D

 31 30  0     1  0  0  0  0  0999 V2000
   -3.5895   -3.5013    1.1082 H   0  0  0  0  0  0  0  0  0  0  0  0
   -3.5145   -2.5363    0.6082 C   0  0  0  0  0  0  0  0  0  0  0  0
   -4.2285   -1.8413    1.0452 H   0  0  0  0  0  0  0  0  0  0  0  0
   -3.7155   -2.6583   -0.4538 H   0  0  0  0  0  0  0  0  0  0  0  0
   -2.1155   -1.9963    0.7922 C   0  0  0  0  0  0  0  0  0  0  0  0
   -1.2875   -2.6383    1.4252 O   0  0  0  0  0  0  0  0  0  0  0  0
   -1.8575   -0.8123    0.2402 N   0  0  0  0  0  0  0  0  0  0  0  0
   -2.6005   -0.3333   -0.2478 H   0  0  0  0  0  0  0  0  0  0  0  0
   -0.5675   -0.1203    0.3102 C   0  0  1  0  0  0  0  0  0  0  0  0
    0.2180   -0.8710    0.4044 H   0  0  0  0  0  0  0  0  0  0  0  0
   -0.3578    0.6620   -1.0033 C   0  0  0  0  0  0  0  0  0  0  0  0
   -1.2049    1.3355   -1.1469 H   0  0  0  0  0  0  0  0  0  0  0  0
    0.5380    1.2766   -0.8906 H   0  0  0  0  0  0  0  0  0  0  0  0
   -0.1954   -0.1933   -2.2733 C   0  0  0  0  0  0  0  0  0  0  0  0
   -1.0259   -0.8947   -2.3535 H   0  0  0  0  0  0  0  0  0  0  0  0
   -0.1400    0.6604   -3.5435 C   0  0  0  0  0  0  0  0  0  0  0  0
    0.6774    1.3792   -3.4715 H   0  0  0  0  0  0  0  0  0  0  0  0
    0.0244    0.0192   -4.4099 H   0  0  0  0  0  0  0  0  0  0  0  0
   -1.0747    1.1983   -3.6859 H   0  0  0  0  0  0  0  0  0  0  0  0
    1.0993   -1.0009   -2.1898 C   0  0  0  0  0  0  0  0  0  0  0  0
    1.0745   -1.6436   -1.3098 H   0  0  0  0  0  0  0  0  0  0  0  0
    1.2028   -1.6281   -3.0752 H   0  0  0  0  0  0  0  0  0  0  0  0
    1.9566   -0.3303   -2.1215 H   0  0  0  0  0  0  0  0  0  0  0  0
   -0.5185    0.7882    1.5504 C   0  0  0  0  0  0  0  0  0  0  0  0
   -0.3775    0.2987    2.6687 O   0  0  0  0  0  0  0  0  0  0  0  0
   -0.6454    2.1066    1.3519 N   0  0  0  0  0  0  0  0  0  0  0  0
   -0.7516    2.4323    0.4045 H   0  0  0  0  0  0  0  0  0  0  0  0
   -0.6364    3.0977    2.4254 C   0  0  0  0  0  0  0  0  0  0  0  0
    0.3032    3.0335    2.9787 H   0  0  0  0  0  0  0  0  0  0  0  0
   -0.7432    4.1026    2.0139 H   0  0  0  0  0  0  0  0  0  0  0  0
   -1.4586    2.9011    3.1153 H   0  0  0  0  0  0  0  0  0  0  0  0
  5  6  2  0  0  0  0
  5  7  1  0  0  0  0
  2  3  1  0  0  0  0
  2  4  1  0  0  0  0
  2  5  1  0  0  0  0
  1  2  1  0  0  0  0
 24 25  2  0  0  0  0
 24 26  1  0  0  0  0
 20 21  1  0  0  0  0
 20 22  1  0  0  0  0
 20 23  1  0  0  0  0
 16 17  1  0  0  0  0
 16 18  1  0  0  0  0
 16 19  1  0  0  0  0
 14 15  1  0  0  0  0
 14 16  1  0  0  0  0
 14 20  1  0  0  0  0
 11 12  1  0  0  0  0
 11 13  1  0  0  0  0
 11 14  1  0  0  0  0
  9 10  1  0  0  0  0
  9 11  1  0  0  0  0
  9 24  1  0  0  0  0
  7  8  1  0  0  0  0
  7  9  1  0  0  0  0
 28 29  1  0  0  0  0
 28 30  1  0  0  0  0
 28 31  1  0  0  0  0
 26 27  1  0  0  0  0
 26 28  1  0  0  0  0
M  END
$$$$
default_name
  -OEChem-01062215323D

 31 30  0     1  0  0  0  0  0999 V2000
   -3.5895   -3.5013    1.1082 H   0  0  0  0  0  0  0  0  0  0  0  0
   -3.5145   -2.5363    0.6082 C   0  0  0  0  0  0  0  0  0  0  0  0
   -4.2285   -1.8413    1.0452 H   0  0  0  0  0  0  0  0  0  0  0  0
   -3.7155   -2.6583   -0.4538 H   0  0  0  0  0  0  0  0  0  0  0  0
   -2.1155   -1.9963    0.7922 C   0  0  0  0  0  0  0  0  0  0  0  0
   -1.2875   -2.6383    1.4252 O   0  0  0  0  0  0  0  0  0  0  0  0
   -1.8575   -0.8123    0.2402 N   0  0  0  0  0  0  0  0  0  0  0  0
   -2.6005   -0.3333   -0.2478 H   0  0  0  0  0  0  0  0  0  0  0  0
   -0.5675   -0.1203    0.3102 C   0  0  1  0  0  0  0  0  0  0  0  0
    0.2180   -0.8710    0.4044 H   0  0  0  0  0  0  0  0  0  0  0  0
   -0.3578    0.6620   -1.0033 C   0  0  0  0  0  0  0  0  0  0  0  0
   -1.2049    1.3355   -1.1469 H   0  0  0  0  0  0  0  0  0  0  0  0
    0.5380    1.2766   -0.8906 H   0  0  0  0  0  0  0  0  0  0  0  0
   -0.1954   -0.1933   -2.2733 C   0  0  0  0  0  0  0  0  0  0  0  0
   -1.0259   -0.8947   -2.3535 H   0  0  0  0  0  0  0  0  0  0  0  0
   -0.1400    0.6604   -3.5435 C   0  0  0  0  0  0  0  0  0  0  0  0
    0.6774    1.3792   -3.4715 H   0  0  0  0  0  0  0  0  0  0  0  0
    0.0244    0.0192   -4.4099 H   0  0  0  0  0  0  0  0  0  0  0  0
   -1.0747    1.1983   -3.6859 H   0  0  0  0  0  0  0  0  0  0  0  0
    1.0993   -1.0009   -2.1898 C   0  0  0  0  0  0  0  0  0  0  0  0
    1.0745   -1.6436   -1.3098 H   0  0  0  0  0  0  0  0  0  0  0  0
    1.2028   -1.6281   -3.0752 H   0  0  0  0  0  0  0  0  0  0  0  0
    1.9566   -0.3303   -2.1215 H   0  0  0  0  0  0  0  0  0  0  0  0
   -0.5185    0.7882    1.5504 C   0  0  0  0  0  0  0  0  0  0  0  0
   -0.1085    0.3480    2.6220 O   0  0  0  0  0  0  0  0  0  0  0  0
   -0.9459    2.0492    1.4058 N   0  0  0  0  0  0  0  0  0  0  0  0
   -1.2619    2.3379    0.4938 H   0  0  0  0  0  0  0  0  0  0  0  0
   -0.9784    3.0288    2.4894 C   0  0  0  0  0  0  0  0  0  0  0  0
    0.0277    3.1671    2.8917 H   0  0  0  0  0  0  0  0  0  0  0  0
   -1.3538    3.9857    2.1236 H   0  0  0  0  0  0  0  0  0  0  0  0
   -1.6256    2.6700    3.2912 H   0  0  0  0  0  0  0  0  0  0  0  0
  5  6  2  0  0  0  0
  5  7  1  0  0  0  0
  2  3  1  0  0  0  0
  2  4  1  0  0  0  0
  2  5  1  0  0  0  0
  1  2  1  0  0  0  0
 24 25  2  0  0  0  0
 24 26  1  0  0  0  0
 20 21  1  0  0  0  0
 20 22  1  0  0  0  0
 20 23  1  0  0  0  0
 16 17  1  0  0  0  0
 16 18  1  0  0  0  0
 16 19  1  0  0  0  0
 14 15  1  0  0  0  0
 14 16  1  0  0  0  0
 14 20  1  0  0  0  0
 11 12  1  0  0  0  0
 11 13  1  0  0  0  0
 11 14  1  0  0  0  0
  9 10  1  0  0  0  0
  9 11  1  0  0  0  0
  9 24  1  0  0  0  0
  7  8  1  0  0  0  0
  7  9  1  0  0  0  0
 28 29  1  0  0  0  0
 28 30  1  0  0  0  0
 28 31  1  0  0  0  0
 26 27  1  0  0  0  0
 26 28  1  0  0  0  0
M  END
$$$$
default_name
  -OEChem-01062215323D

 31 30  0     1  0  0  0  0  0999 V2000
   -3.5895   -3.5013    1.1082 H   0  0  0  0  0  0  0  0  0  0  0  0
   -3.5145   -2.5363    0.6082 C   0  0  0  0  0  0  0  0  0  0  0  0
   -4.2285   -1.8413    1.0452 H   0  0  0  0  0  0  0  0  0  0  0  0
   -3.7155   -2.6583   -0.4538 H   0  0  0  0  0  0  0  0  0  0  0  0
   -2.1155   -1.9963    0.7922 C   0  0  0  0  0  0  0  0  0  0  0  0
   -1.2875   -2.6383    1.4252 O   0  0  0  0  0  0  0  0  0  0  0  0
   -1.8575   -0.8123    0.2402 N   0  0  0  0  0  0  0  0  0  0  0  0
   -2.6005   -0.3333   -0.2478 H   0  0  0  0  0  0  0  0  0  0  0  0
   -0.5675   -0.1203    0.3102 C   0  0  1  0  0  0  0  0  0  0  0  0
    0.2180   -0.8710    0.4044 H   0  0  0  0  0  0  0  0  0  0  0  0
   -0.3578    0.6620   -1.0033 C   0  0  0  0  0  0  0  0  0  0  0  0
   -1.2049    1.3355   -1.1469 H   0  0  0  0  0  0  0  0  0  0  0  0
    0.5380    1.2766   -0.8906 H   0  0  0  0  0  0  0  0  0  0  0  0
   -0.1954   -0.1933   -2.2733 C   0  0  0  0  0  0  0  0  0  0  0  0
   -1.0259   -0.8947   -2.3535 H   0  0  0  0  0  0  0  0  0  0  0  0
   -0.1400    0.6604   -3.5435 C   0  0  0  0  0  0  0  0  0  0  0  0
    0.6774    1.3792   -3.4715 H   0  0  0  0  0  0  0  0  0  0  0  0
    0.0244    0.0192   -4.4099 H   0  0  0  0  0  0  0  0  0  0  0  0
   -1.0747    1.1983   -3.6859 H   0  0  0  0  0  0  0  0  0  0  0  0
    1.0993   -1.0009   -2.1898 C   0  0  0  0  0  0  0  0  0  0  0  0
    1.0745   -1.6436   -1.3098 H   0  0  0  0  0  0  0  0  0  0  0  0
    1.2028   -1.6281   -3.0752 H   0  0  0  0  0  0  0  0  0  0  0  0
    1.9566   -0.3303   -2.1215 H   0  0  0  0  0  0  0  0  0  0  0  0
   -0.5185    0.7882    1.5504 C   0  0  0  0  0  0  0  0  0  0  0  0
    0.1339    0.4521    2.5361 O   0  0  0  0  0  0  0  0  0  0  0  0
   -1.2160    1.9306    1.5033 N   0  0  0  0  0  0  0  0  0  0  0  0
   -1.7214    2.1394    0.6573 H   0  0  0  0  0  0  0  0  0  0  0  0
   -1.2845    2.8903    2.6029 C   0  0  0  0  0  0  0  0  0  0  0  0
   -0.2796    3.2394    2.8509 H   0  0  0  0  0  0  0  0  0  0  0  0
   -1.9025    3.7445    2.3220 H   0  0  0  0  0  0  0  0  0  0  0  0
   -1.7118    2.4104    3.4848 H   0  0  0  0  0  0  0  0  0  0  0  0
  5  6  2  0  0  0  0
  5  7  1  0  0  0  0
  2  3  1  0  0  0  0
  2  4  1  0  0  0  0
  2  5  1  0  0  0  0
  1  2  1  0  0  0  0
 24 25  2  0  0  0  0
 24 26  1  0  0  0  0
 20 21  1  0  0  0  0
 20 22  1  0  0  0  0
 20 23  1  0  0  0  0
 16 17  1  0  0  0  0
 16 18  1  0  0  0  0
 16 19  1  0  0  0  0
 14 15  1  0  0  0  0
 14 16  1  0  0  0  0
 14 20  1  0  0  0  0
 11 12  1  0  0  0  0
 11 13  1  0  0  0  0
 11 14  1  0  0  0  0
  9 10  1  0  0  0  0
  9 11  1  0  0  0  0
  9 24  1  0  0  0  0
  7  8  1  0  0  0  0
  7  9  1  0  0  0  0
 28 29  1  0  0  0  0
 28 30  1  0  0  0  0
 28 31  1  0  0  0  0
 26 27  1  0  0  0  0
 26 28  1  0  0  0  0
M  END
$$$$
default_name
  -OEChem-01062215323D

 31 30  0     1  0  0  0  0  0999 V2000
   -3.5895   -3.5013    1.1082 H   0  0  0  0  0  0  0  0  0  0  0  0
   -3.5145   -2.5363    0.6082 C   0  0  0  0  0  0  0  0  0  0  0  0
   -4.2285   -1.8413    1.0452 H   0  0  0  0  0  0  0  0  0  0  0  0
   -3.7155   -2.6583   -0.4538 H   0  0  0  0  0  0  0  0  0  0  0  0
   -2.1155   -1.9963    0.7922 C   0  0  0  0  0  0  0  0  0  0  0  0
   -1.2875   -2.6383    1.4252 O   0  0  0  0  0  0  0  0  0  0  0  0
   -1.8575   -0.8123    0.2402 N   0  0  0  0  0  0  0  0  0  0  0  0
   -2.6005   -0.3333   -0.2478 H   0  0  0  0  0  0  0  0  0  0  0  0
   -0.5675   -0.1203    0.3102 C   0  0  1  0  0  0  0  0  0  0  0  0
    0.2180   -0.8710    0.4044 H   0  0  0  0  0  0  0  0  0  0  0  0
   -0.3578    0.6620   -1.0033 C   0  0  0  0  0  0  0  0  0  0  0  0
   -1.2049    1.3355   -1.1469 H   0  0  0  0  0  0  0  0  0  0  0  0
    0.5380    1.2766   -0.8906 H   0  0  0  0  0  0  0  0  0  0  0  0
   -0.1954   -0.1933   -2.2733 C   0  0  0  0  0  0  0  0  0  0  0  0
   -1.0259   -0.8947   -2.3535 H   0  0  0  0  0  0  0  0  0  0  0  0
   -0.1400    0.6604   -3.5435 C   0  0  0  0  0  0  0  0  0  0  0  0
    0.6774    1.3792   -3.4715 H   0  0  0  0  0  0  0  0  0  0  0  0
    0.0244    0.0192   -4.4099 H   0  0  0  0  0  0  0  0  0  0  0  0
   -1.0747    1.1983   -3.6859 H   0  0  0  0  0  0  0  0  0  0  0  0
    1.0993   -1.0009   -2.1898 C   0  0  0  0  0  0  0  0  0  0  0  0
    1.0745   -1.6436   -1.3098 H   0  0  0  0  0  0  0  0  0  0  0  0
    1.2028   -1.6281   -3.0752 H   0  0  0  0  0  0  0  0  0  0  0  0
    1.9566   -0.3303   -2.1215 H   0  0  0  0  0  0  0  0  0  0  0  0
   -0.5185    0.7882    1.5504 C   0  0  0  0  0  0  0  0  0  0  0  0
    0.3331    0.6040    2.4170 O   0  0  0  0  0  0  0  0  0  0  0  0
   -1.4371    1.7589    1.6379 N   0  0  0  0  0  0  0  0  0  0  0  0
   -2.0989    1.8505    0.8838 H   0  0  0  0  0  0  0  0  0  0  0  0
   -1.5340    2.6917    2.7582 C   0  0  0  0  0  0  0  0  0  0  0  0
   -0.5978    3.2454    2.8591 H   0  0  0  0  0  0  0  0  0  0  0  0
   -2.3518    3.3954    2.5955 H   0  0  0  0  0  0  0  0  0  0  0  0
   -1.7113    2.1400    3.6828 H   0  0  0  0  0  0  0  0  0  0  0  0
  5  6  2  0  0  0  0
  5  7  1  0  0  0  0
  2  3  1  0  0  0  0
  2  4  1  0  0  0  0
  2  5  1  0  0  0  0
  1  2  1  0  0  0  0
 24 25  2  0  0  0  0
 24 26  1  0  0  0  0
 20 21  1  0  0  0  0
 20 22  1  0  0  0  0
 20 23  1  0  0  0  0
 16 17  1  0  0  0  0
 16 18  1  0  0  0  0
 16 19  1  0  0  0  0
 14 15  1  0  0  0  0
 14 16  1  0  0  0  0
 14 20  1  0  0  0  0
 11 12  1  0  0  0  0
 11 13  1  0  0  0  0
 11 14  1  0  0  0  0
  9 10  1  0  0  0  0
  9 11  1  0  0  0  0
  9 24  1  0  0  0  0
  7  8  1  0  0  0  0
  7  9  1  0  0  0  0
 28 29  1  0  0  0  0
 28 30  1  0  0  0  0
 28 31  1  0  0  0  0
 26 27  1  0  0  0  0
 26 28  1  0  0  0  0
M  END
$$$$
default_name
  -OEChem-01062215323D

 31 30  0     1  0  0  0  0  0999 V2000
   -3.5895   -3.5013    1.1082 H   0  0  0  0  0  0  0  0  0  0  0  0
   -3.5145   -2.5363    0.6082 C   0  0  0  0  0  0  0  0  0  0  0  0
   -4.2285   -1.8413    1.0452 H   0  0  0  0  0  0  0  0  0  0  0  0
   -3.7155   -2.6583   -0.4538 H   0  0  0  0  0  0  0  0  0  0  0  0
   -2.1155   -1.9963    0.7922 C   0  0  0  0  0  0  0  0  0  0  0  0
   -1.2875   -2.6383    1.4252 O   0  0  0  0  0  0  0  0  0  0  0  0
   -1.8575   -0.8123    0.2402 N   0  0  0  0  0  0  0  0  0  0  0  0
   -2.6005   -0.3333   -0.2478 H   0  0  0  0  0  0  0  0  0  0  0  0
   -0.5675   -0.1203    0.3102 C   0  0  1  0  0  0  0  0  0  0  0  0
    0.2180   -0.8710    0.4044 H   0  0  0  0  0  0  0  0  0  0  0  0
   -0.3578    0.6620   -1.0033 C   0  0  0  0  0  0  0  0  0  0  0  0
   -1.2049    1.3355   -1.1469 H   0  0  0  0  0  0  0  0  0  0  0  0
    0.5380    1.2766   -0.8906 H   0  0  0  0  0  0  0  0  0  0  0  0
   -0.1954   -0.1933   -2.2733 C   0  0  0  0  0  0  0  0  0  0  0  0
   -1.0259   -0.8947   -2.3535 H   0  0  0  0  0  0  0  0  0  0  0  0
   -0.1400    0.6604   -3.5435 C   0  0  0  0  0  0  0  0  0  0  0  0
    0.6774    1.3792   -3.4715 H   0  0  0  0  0  0  0  0  0  0  0  0
    0.0244    0.0192   -4.4099 H   0  0  0  0  0  0  0  0  0  0  0  0
   -1.0747    1.1983   -3.6859 H   0  0  0  0  0  0  0  0  0  0  0  0
    1.0993   -1.0009   -2.1898 C   0  0  0  0  0  0  0  0  0  0  0  0
    1.0745   -1.6436   -1.3098 H   0  0  0  0  0  0  0  0  0  0  0  0
    1.2028   -1.6281   -3.0752 H   0  0  0  0  0  0  0  0  0  0  0  0
    1.9566   -0.3303   -2.1215 H   0  0  0  0  0  0  0  0  0  0  0  0
   -0.5185    0.7882    1.5504 C   0  0  0  0  0  0  0  0  0  0  0  0
    0.4757    0.7933    2.2727 O   0  0  0  0  0  0  0  0  0  0  0  0
   -1.5944    1.5458    1.8002 N   0  0  0  0  0  0  0  0  0  0  0  0
   -2.3686    1.4908    1.1579 H   0  0  0  0  0  0  0  0  0  0  0  0
   -1.7098    2.4466    2.9447 C   0  0  0  0  0  0  0  0  0  0  0  0
   -0.9051    3.1847    2.9156 H   0  0  0  0  0  0  0  0  0  0  0  0
   -2.6712    2.9621    2.9254 H   0  0  0  0  0  0  0  0  0  0  0  0
   -1.6241    1.8774    3.8717 H   0  0  0  0  0  0  0  0  0  0  0  0
  5  6  2  0  0  0  0
  5  7  1  0  0  0  0
  2  3  1  0  0  0  0
  2  4  1  0  0  0  0
  2  5  1  0  0  0  0
  1  2  1  0  0  0  0
 24 25  2  0  0  0  0
 24 26  1  0  0  0  0
 20 21  1  0  0  0  0
 20 22  1  0  0  0  0
 20 23  1  0  0  0  0
 16 17  1  0  0  0  0
 16 18  1  0  0  0  0
 16 19  1  0  0  0  0
 14 15  1  0  0  0  0
 14 16  1  0  0  0  0
 14 20  1  0  0  0  0
 11 12  1  0  0  0  0
 11 13  1  0  0  0  0
 11 14  1  0  0  0  0
  9 10  1  0  0  0  0
  9 11  1  0  0  0  0
  9 24  1  0  0  0  0
  7  8  1  0  0  0  0
  7  9  1  0  0  0  0
 28 29  1  0  0  0  0
 28 30  1  0  0  0  0
 28 31  1  0  0  0  0
 26 27  1  0  0  0  0
 26 28  1  0  0  0  0
M  END
$$$$
default_name
  -OEChem-01062215323D

 31 30  0     1  0  0  0  0  0999 V2000
   -3.5895   -3.5013    1.1082 H   0  0  0  0  0  0  0  0  0  0  0  0
   -3.5145   -2.5363    0.6082 C   0  0  0  0  0  0  0  0  0  0  0  0
   -4.2285   -1.8413    1.0452 H   0  0  0  0  0  0  0  0  0  0  0  0
   -3.7155   -2.6583   -0.4538 H   0  0  0  0  0  0  0  0  0  0  0  0
   -2.1155   -1.9963    0.7922 C   0  0  0  0  0  0  0  0  0  0  0  0
   -1.2875   -2.6383    1.4252 O   0  0  0  0  0  0  0  0  0  0  0  0
   -1.8575   -0.8123    0.2402 N   0  0  0  0  0  0  0  0  0  0  0  0
   -2.6005   -0.3333   -0.2478 H   0  0  0  0  0  0  0  0  0  0  0  0
   -0.5675   -0.1203    0.3102 C   0  0  1  0  0  0  0  0  0  0  0  0
    0.2180   -0.8710    0.4044 H   0  0  0  0  0  0  0  0  0  0  0  0
   -0.3578    0.6620   -1.0033 C   0  0  0  0  0  0  0  0  0  0  0  0
   -1.2049    1.3355   -1.1469 H   0  0  0  0  0  0  0  0  0  0  0  0
    0.5380    1.2766   -0.8906 H   0  0  0  0  0  0  0  0  0  0  0  0
   -0.1954   -0.1933   -2.2733 C   0  0  0  0  0  0  0  0  0  0  0  0
   -1.0259   -0.8947   -2.3535 H   0  0  0  0  0  0  0  0  0  0  0  0
   -0.1400    0.6604   -3.5435 C   0  0  0  0  0  0  0  0  0  0  0  0
    0.6774    1.3792   -3.4715 H   0  0  0  0  0  0  0  0  0  0  0  0
    0.0244    0.0192   -4.4099 H   0  0  0  0  0  0  0  0  0  0  0  0
   -1.0747    1.1983   -3.6859 H   0  0  0  0  0  0  0  0  0  0  0  0
    1.0993   -1.0009   -2.1898 C   0  0  0  0  0  0  0  0  0  0  0  0
    1.0745   -1.6436   -1.3098 H   0  0  0  0  0  0  0  0  0  0  0  0
    1.2028   -1.6281   -3.0752 H   0  0  0  0  0  0  0  0  0  0  0  0
    1.9566   -0.3303   -2.1215 H   0  0  0  0  0  0  0  0  0  0  0  0
   -0.5185    0.7882    1.5504 C   0  0  0  0  0  0  0  0  0  0  0  0
    0.5518    1.0071    2.1131 O   0  0  0  0  0  0  0  0  0  0  0  0
   -1.6770    1.3057    1.9793 N   0  0  0  0  0  0  0  0  0  0  0  0
   -2.5122    1.0848    1.4610 H   0  0  0  0  0  0  0  0  0  0  0  0
   -1.7999    2.1716    3.1497 C   0  0  0  0  0  0  0  0  0  0  0  0
   -1.1807    3.0615    3.0167 H   0  0  0  0  0  0  0  0  0  0  0  0
   -2.8388    2.4742    3.2894 H   0  0  0  0  0  0  0  0  0  0  0  0
   -1.4562    1.6404    4.0387 H   0  0  0  0  0  0  0  0  0  0  0  0
  5  6  2  0  0  0  0
  5  7  1  0  0  0  0
  2  3  1  0  0  0  0
  2  4  1  0  0  0  0
  2  5  1  0  0  0  0
  1  2  1  0  0  0  0
 24 25  2  0  0  0  0
 24 26  1  0  0  0  0
 20 21  1  0  0  0  0
 20 22  1  0  0  0  0
 20 23  1  0  0  0  0
 16 17  1  0  0  0  0
 16 18  1  0  0  0  0
 16 19  1  0  0  0  0
 14 15  1  0  0  0  0
 14 16  1  0  0  0  0
 14 20  1  0  0  0  0
 11 12  1  0  0  0  0
 11 13  1  0  0  0  0
 11 14  1  0  0  0  0
  9 10  1  0  0  0  0
  9 11  1  0  0  0  0
  9 24  1  0  0  0  0
  7  8  1  0  0  0  0
  7  9  1  0  0  0  0
 28 29  1  0  0  0  0
 28 30  1  0  0  0  0
 28 31  1  0  0  0  0
 26 27  1  0  0  0  0
 26 28  1  0  0  0  0
M  END
$$$$
default_name
  -OEChem-01062215323D

 31 30  0     1  0  0  0  0  0999 V2000
   -3.5895   -3.5013    1.1082 H   0  0  0  0  0  0  0  0  0  0  0  0
   -3.5145   -2.5363    0.6082 C   0  0  0  0  0  0  0  0  0  0  0  0
   -4.2285   -1.8413    1.0452 H   0  0  0  0  0  0  0  0  0  0  0  0
   -3.7155   -2.6583   -0.4538 H   0  0  0  0  0  0  0  0  0  0  0  0
   -2.1155   -1.9963    0.7922 C   0  0  0  0  0  0  0  0  0  0  0  0
   -1.2875   -2.6383    1.4252 O   0  0  0  0  0  0  0  0  0  0  0  0
   -1.8575   -0.8123    0.2402 N   0  0  0  0  0  0  0  0  0  0  0  0
   -2.6005   -0.3333   -0.2478 H   0  0  0  0  0  0  0  0  0  0  0  0
   -0.5675   -0.1203    0.3102 C   0  0  1  0  0  0  0  0  0  0  0  0
    0.2180   -0.8710    0.4044 H   0  0  0  0  0  0  0  0  0  0  0  0
   -0.3578    0.6620   -1.0033 C   0  0  0  0  0  0  0  0  0  0  0  0
   -1.2049    1.3355   -1.1469 H   0  0  0  0  0  0  0  0  0  0  0  0
    0.5380    1.2766   -0.8906 H   0  0  0  0  0  0  0  0  0  0  0  0
   -0.1954   -0.1933   -2.2733 C   0  0  0  0  0  0  0  0  0  0  0  0
   -1.0259   -0.8947   -2.3535 H   0  0  0  0  0  0  0  0  0  0  0  0
   -0.1400    0.6604   -3.5435 C   0  0  0  0  0  0  0  0  0  0  0  0
    0.6774    1.3792   -3.4715 H   0  0  0  0  0  0  0  0  0  0  0  0
    0.0244    0.0192   -4.4099 H   0  0  0  0  0  0  0  0  0  0  0  0
   -1.0747    1.1983   -3.6859 H   0  0  0  0  0  0  0  0  0  0  0  0
    1.0993   -1.0009   -2.1898 C   0  0  0  0  0  0  0  0  0  0  0  0
    1.0745   -1.6436   -1.3098 H   0  0  0  0  0  0  0  0  0  0  0  0
    1.2028   -1.6281   -3.0752 H   0  0  0  0  0  0  0  0  0  0  0  0
    1.9566   -0.3303   -2.1215 H   0  0  0  0  0  0  0  0  0  0  0  0
   -0.5185    0.7882    1.5504 C   0  0  0  0  0  0  0  0  0  0  0  0
    0.5564    1.2308    1.9491 O   0  0  0  0  0  0  0  0  0  0  0  0
   -1.6793    1.0552    2.1629 N   0  0  0  0  0  0  0  0  0  0  0  0
   -2.5197    0.6602    1.7724 H   0  0  0  0  0  0  0  0  0  0  0  0
   -1.7982    1.8854    3.3593 C   0  0  0  0  0  0  0  0  0  0  0  0
   -1.4057    2.8842    3.1555 H   0  0  0  0  0  0  0  0  0  0  0  0
   -2.8432    1.9650    3.6626 H   0  0  0  0  0  0  0  0  0  0  0  0
   -1.2190    1.4451    4.1724 H   0  0  0  0  0  0  0  0  0  0  0  0
  5  6  2  0  0  0  0
  5  7  1  0  0  0  0
  2  3  1  0  0  0  0
  2  4  1  0  0  0  0
  2  5  1  0  0  0  0
  1  2  1  0  0  0  0
 24 25  2  0  0  0  0
 24 26  1  0  0  0  0
 20 21  1  0  0  0  0
 20 22  1  0  0  0  0
 20 23  1  0  0  0  0
 16 17  1  0  0  0  0
 16 18  1  0  0  0  0
 16 19  1  0  0  0  0
 14 15  1  0  0  0  0
 14 16  1  0  0  0  0
 14 20  1  0  0  0  0
 11 12  1  0  0  0  0
 11 13  1  0  0  0  0
 11 14  1  0  0  0  0
  9 10  1  0  0  0  0
  9 11  1  0  0  0  0
  9 24  1  0  0  0  0
  7  8  1  0  0  0  0
  7  9  1  0  0  0  0
 28 29  1  0  0  0  0
 28 30  1  0  0  0  0
 28 31  1  0  0  0  0
 26 27  1  0  0  0  0
 26 28  1  0  0  0  0
M  END
$$$$
default_name
  -OEChem-01062215323D

 31 30  0     1  0  0  0  0  0999 V2000
   -3.5895   -3.5013    1.1082 H   0  0  0  0  0  0  0  0  0  0  0  0
   -3.5145   -2.5363    0.6082 C   0  0  0  0  0  0  0  0  0  0  0  0
   -4.2285   -1.8413    1.0452 H   0  0  0  0  0  0  0  0  0  0  0  0
   -3.7155   -2.6583   -0.4538 H   0  0  0  0  0  0  0  0  0  0  0  0
   -2.1155   -1.9963    0.7922 C   0  0  0  0  0  0  0  0  0  0  0  0
   -1.2875   -2.6383    1.4252 O   0  0  0  0  0  0  0  0  0  0  0  0
   -1.8575   -0.8123    0.2402 N   0  0  0  0  0  0  0  0  0  0  0  0
   -2.6005   -0.3333   -0.2478 H   0  0  0  0  0  0  0  0  0  0  0  0
   -0.5675   -0.1203    0.3102 C   0  0  1  0  0  0  0  0  0  0  0  0
    0.2180   -0.8710    0.4044 H   0  0  0  0  0  0  0  0  0  0  0  0
   -0.3578    0.6620   -1.0033 C   0  0  0  0  0  0  0  0  0  0  0  0
   -1.2049    1.3355   -1.1469 H   0  0  0  0  0  0  0  0  0  0  0  0
    0.5380    1.2766   -0.8906 H   0  0  0  0  0  0  0  0  0  0  0  0
   -0.1954   -0.1933   -2.2733 C   0  0  0  0  0  0  0  0  0  0  0  0
   -1.0259   -0.8947   -2.3535 H   0  0  0  0  0  0  0  0  0  0  0  0
   -0.1400    0.6604   -3.5435 C   0  0  0  0  0  0  0  0  0  0  0  0
    0.6774    1.3792   -3.4715 H   0  0  0  0  0  0  0  0  0  0  0  0
    0.0244    0.0192   -4.4099 H   0  0  0  0  0  0  0  0  0  0  0  0
   -1.0747    1.1983   -3.6859 H   0  0  0  0  0  0  0  0  0  0  0  0
    1.0993   -1.0009   -2.1898 C   0  0  0  0  0  0  0  0  0  0  0  0
    1.0745   -1.6436   -1.3098 H   0  0  0  0  0  0  0  0  0  0  0  0
    1.2028   -1.6281   -3.0752 H   0  0  0  0  0  0  0  0  0  0  0  0
    1.9566   -0.3303   -2.1215 H   0  0  0  0  0  0  0  0  0  0  0  0
   -0.5185    0.7882    1.5504 C   0  0  0  0  0  0  0  0  0  0  0  0
    0.4890    1.4491    1.7918 O   0  0  0  0  0  0  0  0  0  0  0  0
   -1.6011    0.8112    2.3386 N   0  0  0  0  0  0  0  0  0  0  0  0
   -2.3909    0.2459    2.0707 H   0  0  0  0  0  0  0  0  0  0  0  0
   -1.7048    1.6077    3.5591 C   0  0  0  0  0  0  0  0  0  0  0  0
   -1.5648    2.6648    3.3225 H   0  0  0  0  0  0  0  0  0  0  0  0
   -2.6842    1.4691    4.0196 H   0  0  0  0  0  0  0  0  0  0  0  0
   -0.9287    1.3048    4.2637 H   0  0  0  0  0  0  0  0  0  0  0  0
  5  6  2  0  0  0  0
  5  7  1  0  0  0  0
  2  3  1  0  0  0  0
  2  4  1  0  0  0  0
  2  5  1  0  0  0  0
  1  2  1  0  0  0  0
 24 25  2  0  0  0  0
 24 26  1  0  0  0  0
 20 21  1  0  0  0  0
 20 22  1  0  0  0  0
 20 23  1  0  0  0  0
 16 17  1  0  0  0  0
 16 18  1  0  0  0  0
 16 19  1  0  0  0  0
 14 15  1  0  0  0  0
 14 16  1  0  0  0  0
 14 20  1  0  0  0  0
 11 12  1  0  0  0  0
 11 13  1  0  0  0  0
 11 14  1  0  0  0  0
  9 10  1  0  0  0  0
  9 11  1  0  0  0  0
  9 24  1  0  0  0  0
  7  8  1  0  0  0  0
  7  9  1  0  0  0  0
 28 29  1  0  0  0  0
 28 30  1  0  0  0  0
 28 31  1  0  0  0  0
 26 27  1  0  0  0  0
 26 28  1  0  0  0  0
M  END
$$$$
default_name
  -OEChem-01062215323D

 31 30  0     1  0  0  0  0  0999 V2000
   -3.5895   -3.5013    1.1082 H   0  0  0  0  0  0  0  0  0  0  0  0
   -3.5145   -2.5363    0.6082 C   0  0  0  0  0  0  0  0  0  0  0  0
   -4.2285   -1.8413    1.0452 H   0  0  0  0  0  0  0  0  0  0  0  0
   -3.7155   -2.6583   -0.4538 H   0  0  0  0  0  0  0  0  0  0  0  0
   -2.1155   -1.9963    0.7922 C   0  0  0  0  0  0  0  0  0  0  0  0
   -1.2875   -2.6383    1.4252 O   0  0  0  0  0  0  0  0  0  0  0  0
   -1.8575   -0.8123    0.2402 N   0  0  0  0  0  0  0  0  0  0  0  0
   -2.6005   -0.3333   -0.2478 H   0  0  0  0  0  0  0  0  0  0  0  0
   -0.5675   -0.1203    0.3102 C   0  0  1  0  0  0  0  0  0  0  0  0
    0.2180   -0.8710    0.4044 H   0  0  0  0  0  0  0  0  0  0  0  0
   -0.3578    0.6620   -1.0033 C   0  0  0  0  0  0  0  0  0  0  0  0
   -1.2049    1.3355   -1.1469 H   0  0  0  0  0  0  0  0  0  0  0  0
    0.5380    1.2766   -0.8906 H   0  0  0  0  0  0  0  0  0  0  0  0
   -0.1954   -0.1933   -2.2733 C   0  0  0  0  0  0  0  0  0  0  0  0
   -1.0259   -0.8947   -2.3535 H   0  0  0  0  0  0  0  0  0  0  0  0
   -0.1400    0.6604   -3.5435 C   0  0  0  0  0  0  0  0  0  0  0  0
    0.6774    1.3792   -3.4715 H   0  0  0  0  0  0  0  0  0  0  0  0
    0.0244    0.0192   -4.4099 H   0  0  0  0  0  0  0  0  0  0  0  0
   -1.0747    1.1983   -3.6859 H   0  0  0  0  0  0  0  0  0  0  0  0
    1.0993   -1.0009   -2.1898 C   0  0  0  0  0  0  0  0  0  0  0  0
    1.0745   -1.6436   -1.3098 H   0  0  0  0  0  0  0  0  0  0  0  0
    1.2028   -1.6281   -3.0752 H   0  0  0  0  0  0  0  0  0  0  0  0
    1.9566   -0.3303   -2.1215 H   0  0  0  0  0  0  0  0  0  0  0  0
   -0.5185    0.7882    1.5504 C   0  0  0  0  0  0  0  0  0  0  0  0
    0.3543    1.6473    1.6519 O   0  0  0  0  0  0  0  0  0  0  0  0
   -1.4479    0.5903    2.4943 N   0  0  0  0  0  0  0  0  0  0  0  0
   -2.1343   -0.1299    2.3359 H   0  0  0  0  0  0  0  0  0  0  0  0
   -1.5261    1.3572    3.7355 C   0  0  0  0  0  0  0  0  0  0  0  0
   -1.6471    2.4183    3.5063 H   0  0  0  0  0  0  0  0  0  0  0  0
   -2.3725    1.0204    4.3359 H   0  0  0  0  0  0  0  0  0  0  0  0
   -0.6050    1.2292    4.3063 H   0  0  0  0  0  0  0  0  0  0  0  0
  5  6  2  0  0  0  0
  5  7  1  0  0  0  0
  2  3  1  0  0  0  0
  2  4  1  0  0  0  0
  2  5  1  0  0  0  0
  1  2  1  0  0  0  0
 24 25  2  0  0  0  0
 24 26  1  0  0  0  0
 20 21  1  0  0  0  0
 20 22  1  0  0  0  0
 20 23  1  0  0  0  0
 16 17  1  0  0  0  0
 16 18  1  0  0  0  0
 16 19  1  0  0  0  0
 14 15  1  0  0  0  0
 14 16  1  0  0  0  0
 14 20  1  0  0  0  0
 11 12  1  0  0  0  0
 11 13  1  0  0  0  0
 11 14  1  0  0  0  0
  9 10  1  0  0  0  0
  9 11  1  0  0  0  0
  9 24  1  0  0  0  0
  7  8  1  0  0  0  0
  7  9  1  0  0  0  0
 28 29  1  0  0  0  0
 28 30  1  0  0  0  0
 28 31  1  0  0  0  0
 26 27  1  0  0  0  0
 26 28  1  0  0  0  0
M  END
$$$$
default_name
  -OEChem-01062215323D

 31 30  0     1  0  0  0  0  0999 V2000
   -3.5895   -3.5013    1.1082 H   0  0  0  0  0  0  0  0  0  0  0  0
   -3.5145   -2.5363    0.6082 C   0  0  0  0  0  0  0  0  0  0  0  0
   -4.2285   -1.8413    1.0452 H   0  0  0  0  0  0  0  0  0  0  0  0
   -3.7155   -2.6583   -0.4538 H   0  0  0  0  0  0  0  0  0  0  0  0
   -2.1155   -1.9963    0.7922 C   0  0  0  0  0  0  0  0  0  0  0  0
   -1.2875   -2.6383    1.4252 O   0  0  0  0  0  0  0  0  0  0  0  0
   -1.8575   -0.8123    0.2402 N   0  0  0  0  0  0  0  0  0  0  0  0
   -2.6005   -0.3333   -0.2478 H   0  0  0  0  0  0  0  0  0  0  0  0
   -0.5675   -0.1203    0.3102 C   0  0  1  0  0  0  0  0  0  0  0  0
    0.2180   -0.8710    0.4044 H   0  0  0  0  0  0  0  0  0  0  0  0
   -0.3578    0.6620   -1.0033 C   0  0  0  0  0  0  0  0  0  0  0  0
   -1.2049    1.3355   -1.1469 H   0  0  0  0  0  0  0  0  0  0  0  0
    0.5380    1.2766   -0.8906 H   0  0  0  0  0  0  0  0  0  0  0  0
   -0.1954   -0.1933   -2.2733 C   0  0  0  0  0  0  0  0  0  0  0  0
   -1.0259   -0.8947   -2.3535 H   0  0  0  0  0  0  0  0  0  0  0  0
   -0.1400    0.6604   -3.5435 C   0  0  0  0  0  0  0  0  0  0  0  0
    0.6774    1.3792   -3.4715 H   0  0  0  0  0  0  0  0  0  0  0  0
    0.0244    0.0192   -4.4099 H   0  0  0  0  0  0  0  0  0  0  0  0
   -1.0747    1.1983   -3.6859 H   0  0  0  0  0  0  0  0  0  0  0  0
    1.0993   -1.0009   -2.1898 C   0  0  0  0  0  0  0  0  0  0  0  0
    1.0745   -1.6436   -1.3098 H   0  0  0  0  0  0  0  0  0  0  0  0
    1.2028   -1.6281   -3.0752 H   0  0  0  0  0  0  0  0  0  0  0  0
    1.9566   -0.3303   -2.1215 H   0  0  0  0  0  0  0  0  0  0  0  0
   -0.5185    0.7882    1.5504 C   0  0  0  0  0  0  0  0  0  0  0  0
    0.1615    1.8118    1.5391 O   0  0  0  0  0  0  0  0  0  0  0  0
   -1.2300    0.4077    2.6194 N   0  0  0  0  0  0  0  0  0  0  0  0
   -1.7675   -0.4415    2.5496 H   0  0  0  0  0  0  0  0  0  0  0  0
   -1.2742    1.1511    3.8765 C   0  0  0  0  0  0  0  0  0  0  0  0
   -1.6472    2.1615    3.6944 H   0  0  0  0  0  0  0  0  0  0  0  0
   -1.9295    0.6494    4.5902 H   0  0  0  0  0  0  0  0  0  0  0  0
   -0.2701    1.2233    4.2974 H   0  0  0  0  0  0  0  0  0  0  0  0
  5  6  2  0  0  0  0
  5  7  1  0  0  0  0
  2  3  1  0  0  0  0
  2  4  1  0  0  0  0
  2  5  1  0  0  0  0
  1  2  1  0  0  0  0
 24 25  2  0  0  0  0
 24 26  1  0  0  0  0
 20 21  1  0  0  0  0
 20 22  1  0  0  0  0
 20 23  1  0  0  0  0
 16 17  1  0  0  0  0
 16 18  1  0  0  0  0
 16 19  1  0  0  0  0
 14 15  1  0  0  0  0
 14 16  1  0  0  0  0
 14 20  1  0  0  0  0
 11 12  1  0  0  0  0
 11 13  1  0  0  0  0
 11 14  1  0  0  0  0
  9 10  1  0  0  0  0
  9 11  1  0  0  0  0
  9 24  1  0  0  0  0
  7  8  1  0  0  0  0
  7  9  1  0  0  0  0
 28 29  1  0  0  0  0
 28 30  1  0  0  0  0
 28 31  1  0  0  0  0
 26 27  1  0  0  0  0
 26 28  1  0  0  0  0
M  END
$$$$
default_name
  -OEChem-01062215323D

 31 30  0     1  0  0  0  0  0999 V2000
   -3.5895   -3.5013    1.1082 H   0  0  0  0  0  0  0  0  0  0  0  0
   -3.5145   -2.5363    0.6082 C   0  0  0  0  0  0  0  0  0  0  0  0
   -4.2285   -1.8413    1.0452 H   0  0  0  0  0  0  0  0  0  0  0  0
   -3.7155   -2.6583   -0.4538 H   0  0  0  0  0  0  0  0  0  0  0  0
   -2.1155   -1.9963    0.7922 C   0  0  0  0  0  0  0  0  0  0  0  0
   -1.2875   -2.6383    1.4252 O   0  0  0  0  0  0  0  0  0  0  0  0
   -1.8575   -0.8123    0.2402 N   0  0  0  0  0  0  0  0  0  0  0  0
   -2.6005   -0.3333   -0.2478 H   0  0  0  0  0  0  0  0  0  0  0  0
   -0.5675   -0.1203    0.3102 C   0  0  1  0  0  0  0  0  0  0  0  0
    0.2180   -0.8710    0.4044 H   0  0  0  0  0  0  0  0  0  0  0  0
   -0.3578    0.6620   -1.0033 C   0  0  0  0  0  0  0  0  0  0  0  0
   -1.2049    1.3355   -1.1469 H   0  0  0  0  0  0  0  0  0  0  0  0
    0.5380    1.2766   -0.8906 H   0  0  0  0  0  0  0  0  0  0  0  0
   -0.1954   -0.1933   -2.2733 C   0  0  0  0  0  0  0  0  0  0  0  0
   -1.0259   -0.8947   -2.3535 H   0  0  0  0  0  0  0  0  0  0  0  0
   -0.1400    0.6604   -3.5435 C   0  0  0  0  0  0  0  0  0  0  0  0
    0.6774    1.3792   -3.4715 H   0  0  0  0  0  0  0  0  0  0  0  0
    0.0244    0.0192   -4.4099 H   0  0  0  0  0  0  0  0  0  0  0  0
   -1.0747    1.1983   -3.6859 H   0  0  0  0  0  0  0  0  0  0  0  0
    1.0993   -1.0009   -2.1898 C   0  0  0  0  0  0  0  0  0  0  0  0
    1.0745   -1.6436   -1.3098 H   0  0  0  0  0  0  0  0  0  0  0  0
    1.2028   -1.6281   -3.0752 H   0  0  0  0  0  0  0  0  0  0  0  0
    1.9566   -0.3303   -2.1215 H   0  0  0  0  0  0  0  0  0  0  0  0
   -0.5185    0.7882    1.5504 C   0  0  0  0  0  0  0  0  0  0  0  0
   -0.0764    1.9313    1.4609 O   0  0  0  0  0  0  0  0  0  0  0  0
   -0.9622    0.2758    2.7055 N   0  0  0  0  0  0  0  0  0  0  0  0
   -1.3156   -0.6677    2.6975 H   0  0  0  0  0  0  0  0  0  0  0  0
   -0.9664    1.0035    3.9725 C   0  0  0  0  0  0  0  0  0  0  0  0
   -1.5648    1.9119    3.8740 H   0  0  0  0  0  0  0  0  0  0  0  0
   -1.3852    0.3814    4.7650 H   0  0  0  0  0  0  0  0  0  0  0  0
    0.0532    1.2876    4.2376 H   0  0  0  0  0  0  0  0  0  0  0  0
  5  6  2  0  0  0  0
  5  7  1  0  0  0  0
  2  3  1  0  0  0  0
  2  4  1  0  0  0  0
  2  5  1  0  0  0  0
  1  2  1  0  0  0  0
 24 25  2  0  0  0  0
 24 26  1  0  0  0  0
 20 21  1  0  0  0  0
 20 22  1  0  0  0  0
 20 23  1  0  0  0  0
 16 17  1  0  0  0  0
 16 18  1  0  0  0  0
 16 19  1  0  0  0  0
 14 15  1  0  0  0  0
 14 16  1  0  0  0  0
 14 20  1  0  0  0  0
 11 12  1  0  0  0  0
 11 13  1  0  0  0  0
 11 14  1  0  0  0  0
  9 10  1  0  0  0  0
  9 11  1  0  0  0  0
  9 24  1  0  0  0  0
  7  8  1  0  0  0  0
  7  9  1  0  0  0  0
 28 29  1  0  0  0  0
 28 30  1  0  0  0  0
 28 31  1  0  0  0  0
 26 27  1  0  0  0  0
 26 28  1  0  0  0  0
M  END
$$$$
default_name
  -OEChem-01062215323D

 31 30  0     1  0  0  0  0  0999 V2000
   -3.5895   -3.5013    1.1082 H   0  0  0  0  0  0  0  0  0  0  0  0
   -3.5145   -2.5363    0.6082 C   0  0  0  0  0  0  0  0  0  0  0  0
   -4.2285   -1.8413    1.0452 H   0  0  0  0  0  0  0  0  0  0  0  0
   -3.7155   -2.6583   -0.4538 H   0  0  0  0  0  0  0  0  0  0  0  0
   -2.1155   -1.9963    0.7922 C   0  0  0  0  0  0  0  0  0  0  0  0
   -1.2875   -2.6383    1.4252 O   0  0  0  0  0  0  0  0  0  0  0  0
   -1.8575   -0.8123    0.2402 N   0  0  0  0  0  0  0  0  0  0  0  0
   -2.6005   -0.3333   -0.2478 H   0  0  0  0  0  0  0  0  0  0  0  0
   -0.5675   -0.1203    0.3102 C   0  0  1  0  0  0  0  0  0  0  0  0
    0.2180   -0.8710    0.4044 H   0  0  0  0  0  0  0  0  0  0  0  0
   -0.3578    0.6620   -1.0033 C   0  0  0  0  0  0  0  0  0  0  0  0
   -1.2049    1.3355   -1.1469 H   0  0  0  0  0  0  0  0  0  0  0  0
    0.5380    1.2766   -0.8906 H   0  0  0  0  0  0  0  0  0  0  0  0
   -0.1954   -0.1933   -2.2733 C   0  0  0  0  0  0  0  0  0  0  0  0
   -1.0259   -0.8947   -2.3535 H   0  0  0  0  0  0  0  0  0  0  0  0
   -0.1400    0.6604   -3.5435 C   0  0  0  0  0  0  0  0  0  0  0  0
    0.6774    1.3792   -3.4715 H   0  0  0  0  0  0  0  0  0  0  0  0
    0.0244    0.0192   -4.4099 H   0  0  0  0  0  0  0  0  0  0  0  0
   -1.0747    1.1983   -3.6859 H   0  0  0  0  0  0  0  0  0  0  0  0
    1.0993   -1.0009   -2.1898 C   0  0  0  0  0  0  0  0  0  0  0  0
    1.0745   -1.6436   -1.3098 H   0  0  0  0  0  0  0  0  0  0  0  0
    1.2028   -1.6281   -3.0752 H   0  0  0  0  0  0  0  0  0  0  0  0
    1.9566   -0.3303   -2.1215 H   0  0  0  0  0  0  0  0  0  0  0  0
   -0.5185    0.7882    1.5504 C   0  0  0  0  0  0  0  0  0  0  0  0
   -0.3430    1.9978    1.4228 O   0  0  0  0  0  0  0  0  0  0  0  0
   -0.6629    0.2035    2.7467 N   0  0  0  0  0  0  0  0  0  0  0  0
   -0.8092   -0.7930    2.7693 H   0  0  0  0  0  0  0  0  0  0  0  0
   -0.6236    0.9243    4.0170 C   0  0  0  0  0  0  0  0  0  0  0  0
   -1.4058    1.6866    4.0328 H   0  0  0  0  0  0  0  0  0  0  0  0
   -0.7769    0.2347    4.8485 H   0  0  0  0  0  0  0  0  0  0  0  0
    0.3430    1.4176    4.1309 H   0  0  0  0  0  0  0  0  0  0  0  0
  5  6  2  0  0  0  0
  5  7  1  0  0  0  0
  2  3  1  0  0  0  0
  2  4  1  0  0  0  0
  2  5  1  0  0  0  0
  1  2  1  0  0  0  0
 24 25  2  0  0  0  0
 24 26  1  0  0  0  0
 20 21  1  0  0  0  0
 20 22  1  0  0  0  0
 20 23  1  0  0  0  0
 16 17  1  0  0  0  0
 16 18  1  0  0  0  0
 16 19  1  0  0  0  0
 14 15  1  0  0  0  0
 14 16  1  0  0  0  0
 14 20  1  0  0  0  0
 11 12  1  0  0  0  0
 11 13  1  0  0  0  0
 11 14  1  0  0  0  0
  9 10  1  0  0  0  0
  9 11  1  0  0  0  0
  9 24  1  0  0  0  0
  7  8  1  0  0  0  0
  7  9  1  0  0  0  0
 28 29  1  0  0  0  0
 28 30  1  0  0  0  0
 28 31  1  0  0  0  0
 26 27  1  0  0  0  0
 26 28  1  0  0  0  0
M  END
$$$$
default_name
  -OEChem-01062215323D

 31 30  0     1  0  0  0  0  0999 V2000
   -3.5895   -3.5013    1.1082 H   0  0  0  0  0  0  0  0  0  0  0  0
   -3.5145   -2.5363    0.6082 C   0  0  0  0  0  0  0  0  0  0  0  0
   -4.2285   -1.8413    1.0452 H   0  0  0  0  0  0  0  0  0  0  0  0
   -3.7155   -2.6583   -0.4538 H   0  0  0  0  0  0  0  0  0  0  0  0
   -2.1155   -1.9963    0.7922 C   0  0  0  0  0  0  0  0  0  0  0  0
   -1.2875   -2.6383    1.4252 O   0  0  0  0  0  0  0  0  0  0  0  0
   -1.8575   -0.8123    0.2402 N   0  0  0  0  0  0  0  0  0  0  0  0
   -2.6005   -0.3333   -0.2478 H   0  0  0  0  0  0  0  0  0  0  0  0
   -0.5675   -0.1203    0.3102 C   0  0  1  0  0  0  0  0  0  0  0  0
    0.2180   -0.8710    0.4044 H   0  0  0  0  0  0  0  0  0  0  0  0
   -0.3578    0.6620   -1.0033 C   0  0  0  0  0  0  0  0  0  0  0  0
   -1.2049    1.3355   -1.1469 H   0  0  0  0  0  0  0  0  0  0  0  0
    0.5380    1.2766   -0.8906 H   0  0  0  0  0  0  0  0  0  0  0  0
   -0.1954   -0.1933   -2.2733 C   0  0  0  0  0  0  0  0  0  0  0  0
   -1.0259   -0.8947   -2.3535 H   0  0  0  0  0  0  0  0  0  0  0  0
   -0.1400    0.6604   -3.5435 C   0  0  0  0  0  0  0  0  0  0  0  0
    0.6774    1.3792   -3.4715 H   0  0  0  0  0  0  0  0  0  0  0  0
    0.0244    0.0192   -4.4099 H   0  0  0  0  0  0  0  0  0  0  0  0
   -1.0747    1.1983   -3.6859 H   0  0  0  0  0  0  0  0  0  0  0  0
    1.0993   -1.0009   -2.1898 C   0  0  0  0  0  0  0  0  0  0  0  0
    1.0745   -1.6436   -1.3098 H   0  0  0  0  0  0  0  0  0  0  0  0
    1.2028   -1.6281   -3.0752 H   0  0  0  0  0  0  0  0  0  0  0  0
    1.9566   -0.3303   -2.1215 H   0  0  0  0  0  0  0  0  0  0  0  0
   -0.5185    0.7882    1.5504 C   0  0  0  0  0  0  0  0  0  0  0  0
   -0.6202    2.0067    1.4272 O   0  0  0  0  0  0  0  0  0  0  0  0
   -0.3524    0.1958    2.7401 N   0  0  0  0  0  0  0  0  0  0  0  0
   -0.2829   -0.8091    2.7603 H   0  0  0  0  0  0  0  0  0  0  0  0
   -0.2691    0.9190    4.0069 C   0  0  0  0  0  0  0  0  0  0  0  0
   -1.1808    1.5007    4.1601 H   0  0  0  0  0  0  0  0  0  0  0  0
   -0.1459    0.2193    4.8349 H   0  0  0  0  0  0  0  0  0  0  0  0
    0.5794    1.6046    3.9846 H   0  0  0  0  0  0  0  0  0  0  0  0
  5  6  2  0  0  0  0
  5  7  1  0  0  0  0
  2  3  1  0  0  0  0
  2  4  1  0  0  0  0
  2  5  1  0  0  0  0
  1  2  1  0  0  0  0
 24 25  2  0  0  0  0
 24 26  1  0  0  0  0
 20 21  1  0  0  0  0
 20 22  1  0  0  0  0
 20 23  1  0  0  0  0
 16 17  1  0  0  0  0
 16 18  1  0  0  0  0
 16 19  1  0  0  0  0
 14 15  1  0  0  0  0
 14 16  1  0  0  0  0
 14 20  1  0  0  0  0
 11 12  1  0  0  0  0
 11 13  1  0  0  0  0
 11 14  1  0  0  0  0
  9 10  1  0  0  0  0
  9 11  1  0  0  0  0
  9 24  1  0  0  0  0
  7  8  1  0  0  0  0
  7  9  1  0  0  0  0
 28 29  1  0  0  0  0
 28 30  1  0  0  0  0
 28 31  1  0  0  0  0
 26 27  1  0  0  0  0
 26 28  1  0  0  0  0
M  END
$$$$
default_name
  -OEChem-01062215323D

 31 30  0     1  0  0  0  0  0999 V2000
   -3.5895   -3.5013    1.1082 H   0  0  0  0  0  0  0  0  0  0  0  0
   -3.5145   -2.5363    0.6082 C   0  0  0  0  0  0  0  0  0  0  0  0
   -4.2285   -1.8413    1.0452 H   0  0  0  0  0  0  0  0  0  0  0  0
   -3.7155   -2.6583   -0.4538 H   0  0  0  0  0  0  0  0  0  0  0  0
   -2.1155   -1.9963    0.7922 C   0  0  0  0  0  0  0  0  0  0  0  0
   -1.2875   -2.6383    1.4252 O   0  0  0  0  0  0  0  0  0  0  0  0
   -1.8575   -0.8123    0.2402 N   0  0  0  0  0  0  0  0  0  0  0  0
   -2.6005   -0.3333   -0.2478 H   0  0  0  0  0  0  0  0  0  0  0  0
   -0.5675   -0.1203    0.3102 C   0  0  1  0  0  0  0  0  0  0  0  0
    0.2180   -0.8710    0.4044 H   0  0  0  0  0  0  0  0  0  0  0  0
   -0.3578    0.6620   -1.0033 C   0  0  0  0  0  0  0  0  0  0  0  0
   -1.2049    1.3355   -1.1469 H   0  0  0  0  0  0  0  0  0  0  0  0
    0.5380    1.2766   -0.8906 H   0  0  0  0  0  0  0  0  0  0  0  0
   -0.1954   -0.1933   -2.2733 C   0  0  0  0  0  0  0  0  0  0  0  0
   -1.0259   -0.8947   -2.3535 H   0  0  0  0  0  0  0  0  0  0  0  0
   -0.1400    0.6604   -3.5435 C   0  0  0  0  0  0  0  0  0  0  0  0
    0.6774    1.3792   -3.4715 H   0  0  0  0  0  0  0  0  0  0  0  0
    0.0244    0.0192   -4.4099 H   0  0  0  0  0  0  0  0  0  0  0  0
   -1.0747    1.1983   -3.6859 H   0  0  0  0  0  0  0  0  0  0  0  0
    1.0993   -1.0009   -2.1898 C   0  0  0  0  0  0  0  0  0  0  0  0
    1.0745   -1.6436   -1.3098 H   0  0  0  0  0  0  0  0  0  0  0  0
    1.2028   -1.6281   -3.0752 H   0  0  0  0  0  0  0  0  0  0  0  0
    1.9566   -0.3303   -2.1215 H   0  0  0  0  0  0  0  0  0  0  0  0
   -0.5185    0.7882    1.5504 C   0  0  0  0  0  0  0  0  0  0  0  0
   -0.8892    1.9573    1.4739 O   0  0  0  0  0  0  0  0  0  0  0  0
   -0.0519    0.2532    2.6861 N   0  0  0  0  0  0  0  0  0  0  0  0
    0.2274   -0.7146    2.6710 H   0  0  0  0  0  0  0  0  0  0  0  0
    0.0729    0.9879    3.9429 C   0  0  0  0  0  0  0  0  0  0  0  0
   -0.9053    1.3671    4.2471 H   0  0  0  0  0  0  0  0  0  0  0  0
    0.4648    0.3361    4.7252 H   0  0  0  0  0  0  0  0  0  0  0  0
    0.7464    1.8358    3.8086 H   0  0  0  0  0  0  0  0  0  0  0  0
  5  6  2  0  0  0  0
  5  7  1  0  0  0  0
  2  3  1  0  0  0  0
  2  4  1  0  0  0  0
  2  5  1  0  0  0  0
  1  2  1  0  0  0  0
 24 25  2  0  0  0  0
 24 26  1  0  0  0  0
 20 21  1  0  0  0  0
 20 22  1  0  0  0  0
 20 23  1  0  0  0  0
 16 17  1  0  0  0  0
 16 18  1  0  0  0  0
 16 19  1  0  0  0  0
 14 15  1  0  0  0  0
 14 16  1  0  0  0  0
 14 20  1  0  0  0  0
 11 12  1  0  0  0  0
 11 13  1  0  0  0  0
 11 14  1  0  0  0  0
  9 10  1  0  0  0  0
  9 11  1  0  0  0  0
  9 24  1  0  0  0  0
  7  8  1  0  0  0  0
  7  9  1  0  0  0  0
 28 29  1  0  0  0  0
 28 30  1  0  0  0  0
 28 31  1  0  0  0  0
 26 27  1  0  0  0  0
 26 28  1  0  0  0  0
M  END
$$$$
default_name
  -OEChem-01062215323D

 31 30  0     1  0  0  0  0  0999 V2000
   -3.5895   -3.5013    1.1082 H   0  0  0  0  0  0  0  0  0  0  0  0
   -3.5145   -2.5363    0.6082 C   0  0  0  0  0  0  0  0  0  0  0  0
   -4.2285   -1.8413    1.0452 H   0  0  0  0  0  0  0  0  0  0  0  0
   -3.7155   -2.6583   -0.4538 H   0  0  0  0  0  0  0  0  0  0  0  0
   -2.1155   -1.9963    0.7922 C   0  0  0  0  0  0  0  0  0  0  0  0
   -1.2875   -2.6383    1.4252 O   0  0  0  0  0  0  0  0  0  0  0  0
   -1.8575   -0.8123    0.2402 N   0  0  0  0  0  0  0  0  0  0  0  0
   -2.6005   -0.3333   -0.2478 H   0  0  0  0  0  0  0  0  0  0  0  0
   -0.5675   -0.1203    0.3102 C   0  0  1  0  0  0  0  0  0  0  0  0
    0.2180   -0.8710    0.4044 H   0  0  0  0  0  0  0  0  0  0  0  0
   -0.3578    0.6620   -1.0033 C   0  0  0  0  0  0  0  0  0  0  0  0
   -1.2049    1.3355   -1.1469 H   0  0  0  0  0  0  0  0  0  0  0  0
    0.5380    1.2766   -0.8906 H   0  0  0  0  0  0  0  0  0  0  0  0
   -0.1954   -0.1933   -2.2733 C   0  0  0  0  0  0  0  0  0  0  0  0
   -1.0259   -0.8947   -2.3535 H   0  0  0  0  0  0  0  0  0  0  0  0
   -0.1400    0.6604   -3.5435 C   0  0  0  0  0  0  0  0  0  0  0  0
    0.6774    1.3792   -3.4715 H   0  0  0  0  0  0  0  0  0  0  0  0
    0.0244    0.0192   -4.4099 H   0  0  0  0  0  0  0  0  0  0  0  0
   -1.0747    1.1983   -3.6859 H   0  0  0  0  0  0  0  0  0  0  0  0
    1.0993   -1.0009   -2.1898 C   0  0  0  0  0  0  0  0  0  0  0  0
    1.0745   -1.6436   -1.3098 H   0  0  0  0  0  0  0  0  0  0  0  0
    1.2028   -1.6281   -3.0752 H   0  0  0  0  0  0  0  0  0  0  0  0
    1.9566   -0.3303   -2.1215 H   0  0  0  0  0  0  0  0  0  0  0  0
   -0.5185    0.7882    1.5504 C   0  0  0  0  0  0  0  0  0  0  0  0
   -1.1316    1.8532    1.5598 O   0  0  0  0  0  0  0  0  0  0  0  0
    0.2181    0.3718    2.5886 N   0  0  0  0  0  0  0  0  0  0  0  0
    0.6869   -0.5162    2.5075 H   0  0  0  0  0  0  0  0  0  0  0  0
    0.3790    1.1264    3.8294 C   0  0  0  0  0  0  0  0  0  0  0  0
   -0.5980    1.2949    4.2879 H   0  0  0  0  0  0  0  0  0  0  0  0
    1.0135    0.5774    4.5268 H   0  0  0  0  0  0  0  0  0  0  0  0
    0.8326    2.0954    3.6151 H   0  0  0  0  0  0  0  0  0  0  0  0
  5  6  2  0  0  0  0
  5  7  1  0  0  0  0
  2  3  1  0  0  0  0
  2  4  1  0  0  0  0
  2  5  1  0  0  0  0
  1  2  1  0  0  0  0
 24 25  2  0  0  0  0
 24 26  1  0  0  0  0
 20 21  1  0  0  0  0
 20 22  1  0  0  0  0
 20 23  1  0  0  0  0
 16 17  1  0  0  0  0
 16 18  1  0  0  0  0
 16 19  1  0  0  0  0
 14 15  1  0  0  0  0
 14 16  1  0  0  0  0
 14 20  1  0  0  0  0
 11 12  1  0  0  0  0
 11 13  1  0  0  0  0
 11 14  1  0  0  0  0
  9 10  1  0  0  0  0
  9 11  1  0  0  0  0
  9 24  1  0  0  0  0
  7  8  1  0  0  0  0
  7  9  1  0  0  0  0
 28 29  1  0  0  0  0
 28 30  1  0  0  0  0
 28 31  1  0  0  0  0
 26 27  1  0  0  0  0
 26 28  1  0  0  0  0
M  END
$$$$
default_name
  -OEChem-01062215323D

 31 30  0     1  0  0  0  0  0999 V2000
   -3.5895   -3.5013    1.1082 H   0  0  0  0  0  0  0  0  0  0  0  0
   -3.5145   -2.5363    0.6082 C   0  0  0  0  0  0  0  0  0  0  0  0
   -4.2285   -1.8413    1.0452 H   0  0  0  0  0  0  0  0  0  0  0  0
   -3.7155   -2.6583   -0.4538 H   0  0  0  0  0  0  0  0  0  0  0  0
   -2.1155   -1.9963    0.7922 C   0  0  0  0  0  0  0  0  0  0  0  0
   -1.2875   -2.6383    1.4252 O   0  0  0  0  0  0  0  0  0  0  0  0
   -1.8575   -0.8123    0.2402 N   0  0  0  0  0  0  0  0  0  0  0  0
   -2.6005   -0.3333   -0.2478 H   0  0  0  0  0  0  0  0  0  0  0  0
   -0.5675   -0.1203    0.3102 C   0  0  1  0  0  0  0  0  0  0  0  0
    0.2180   -0.8710    0.4044 H   0  0  0  0  0  0  0  0  0  0  0  0
   -0.3578    0.6620   -1.0033 C   0  0  0  0  0  0  0  0  0  0  0  0
   -1.2049    1.3355   -1.1469 H   0  0  0  0  0  0  0  0  0  0  0  0
    0.5380    1.2766   -0.8906 H   0  0  0  0  0  0  0  0  0  0  0  0
   -0.1954   -0.1933   -2.2733 C   0  0  0  0  0  0  0  0  0  0  0  0
   -1.0259   -0.8947   -2.3535 H   0  0  0  0  0  0  0  0  0  0  0  0
   -0.1400    0.6604   -3.5435 C   0  0  0  0  0  0  0  0  0  0  0  0
    0.6774    1.3792   -3.4715 H   0  0  0  0  0  0  0  0  0  0  0  0
    0.0244    0.0192   -4.4099 H   0  0  0  0  0  0  0  0  0  0  0  0
   -1.0747    1.1983   -3.6859 H   0  0  0  0  0  0  0  0  0  0  0  0
    1.0993   -1.0009   -2.1898 C   0  0  0  0  0  0  0  0  0  0  0  0
    1.0745   -1.6436   -1.3098 H   0  0  0  0  0  0  0  0  0  0  0  0
    1.2028   -1.6281   -3.0752 H   0  0  0  0  0  0  0  0  0  0  0  0
    1.9566   -0.3303   -2.1215 H   0  0  0  0  0  0  0  0  0  0  0  0
   -0.5185    0.7882    1.5504 C   0  0  0  0  0  0  0  0  0  0  0  0
   -1.3309    1.7013    1.6789 O   0  0  0  0  0  0  0  0  0  0  0  0
    0.4393    0.5435    2.4541 N   0  0  0  0  0  0  0  0  0  0  0  0
    1.0644   -0.2273    2.2810 H   0  0  0  0  0  0  0  0  0  0  0  0
    0.6285    1.3250    3.6740 C   0  0  0  0  0  0  0  0  0  0  0  0
   -0.2798    1.2888    4.2797 H   0  0  0  0  0  0  0  0  0  0  0  0
    1.4628    0.9265    4.2534 H   0  0  0  0  0  0  0  0  0  0  0  0
    0.8321    2.3657    3.4171 H   0  0  0  0  0  0  0  0  0  0  0  0
  5  6  2  0  0  0  0
  5  7  1  0  0  0  0
  2  3  1  0  0  0  0
  2  4  1  0  0  0  0
  2  5  1  0  0  0  0
  1  2  1  0  0  0  0
 24 25  2  0  0  0  0
 24 26  1  0  0  0  0
 20 21  1  0  0  0  0
 20 22  1  0  0  0  0
 20 23  1  0  0  0  0
 16 17  1  0  0  0  0
 16 18  1  0  0  0  0
 16 19  1  0  0  0  0
 14 15  1  0  0  0  0
 14 16  1  0  0  0  0
 14 20  1  0  0  0  0
 11 12  1  0  0  0  0
 11 13  1  0  0  0  0
 11 14  1  0  0  0  0
  9 10  1  0  0  0  0
  9 11  1  0  0  0  0
  9 24  1  0  0  0  0
  7  8  1  0  0  0  0
  7  9  1  0  0  0  0
 28 29  1  0  0  0  0
 28 30  1  0  0  0  0
 28 31  1  0  0  0  0
 26 27  1  0  0  0  0
 26 28  1  0  0  0  0
M  END
$$$$
default_name
  -OEChem-01062215323D

 31 30  0     1  0  0  0  0  0999 V2000
   -3.5895   -3.5013    1.1082 H   0  0  0  0  0  0  0  0  0  0  0  0
   -3.5145   -2.5363    0.6082 C   0  0  0  0  0  0  0  0  0  0  0  0
   -4.2285   -1.8413    1.0452 H   0  0  0  0  0  0  0  0  0  0  0  0
   -3.7155   -2.6583   -0.4538 H   0  0  0  0  0  0  0  0  0  0  0  0
   -2.1155   -1.9963    0.7922 C   0  0  0  0  0  0  0  0  0  0  0  0
   -1.2875   -2.6383    1.4252 O   0  0  0  0  0  0  0  0  0  0  0  0
   -1.8575   -0.8123    0.2402 N   0  0  0  0  0  0  0  0  0  0  0  0
   -2.6005   -0.3333   -0.2478 H   0  0  0  0  0  0  0  0  0  0  0  0
   -0.5675   -0.1203    0.3102 C   0  0  1  0  0  0  0  0  0  0  0  0
    0.2180   -0.8710    0.4044 H   0  0  0  0  0  0  0  0  0  0  0  0
   -0.3578    0.6620   -1.0033 C   0  0  0  0  0  0  0  0  0  0  0  0
   -1.2049    1.3355   -1.1469 H   0  0  0  0  0  0  0  0  0  0  0  0
    0.5380    1.2766   -0.8906 H   0  0  0  0  0  0  0  0  0  0  0  0
   -0.1954   -0.1933   -2.2733 C   0  0  0  0  0  0  0  0  0  0  0  0
   -1.0259   -0.8947   -2.3535 H   0  0  0  0  0  0  0  0  0  0  0  0
   -0.1400    0.6604   -3.5435 C   0  0  0  0  0  0  0  0  0  0  0  0
    0.6774    1.3792   -3.4715 H   0  0  0  0  0  0  0  0  0  0  0  0
    0.0244    0.0192   -4.4099 H   0  0  0  0  0  0  0  0  0  0  0  0
   -1.0747    1.1983   -3.6859 H   0  0  0  0  0  0  0  0  0  0  0  0
    1.0993   -1.0009   -2.1898 C   0  0  0  0  0  0  0  0  0  0  0  0
    1.0745   -1.6436   -1.3098 H   0  0  0  0  0  0  0  0  0  0  0  0
    1.2028   -1.6281   -3.0752 H   0  0  0  0  0  0  0  0  0  0  0  0
    1.9566   -0.3303   -2.1215 H   0  0  0  0  0  0  0  0  0  0  0  0
   -0.5185    0.7882    1.5504 C   0  0  0  0  0  0  0  0  0  0  0  0
   -1.4734    1.5120    1.8232 O   0  0  0  0  0  0  0  0  0  0  0  0
    0.5965    0.7567    2.2918 N   0  0  0  0  0  0  0  0  0  0  0  0
    1.3341    0.1324    2.0068 H   0  0  0  0  0  0  0  0  0  0  0  0
    0.8043    1.5701    3.4875 C   0  0  0  0  0  0  0  0  0  0  0  0
    0.0275    1.3495    4.2231 H   0  0  0  0  0  0  0  0  0  0  0  0
    1.7821    1.3598    3.9234 H   0  0  0  0  0  0  0  0  0  0  0  0
    0.7449    2.6283    3.2281 H   0  0  0  0  0  0  0  0  0  0  0  0
  5  6  2  0  0  0  0
  5  7  1  0  0  0  0
  2  3  1  0  0  0  0
  2  4  1  0  0  0  0
  2  5  1  0  0  0  0
  1  2  1  0  0  0  0
 24 25  2  0  0  0  0
 24 26  1  0  0  0  0
 20 21  1  0  0  0  0
 20 22  1  0  0  0  0
 20 23  1  0  0  0  0
 16 17  1  0  0  0  0
 16 18  1  0  0  0  0
 16 19  1  0  0  0  0
 14 15  1  0  0  0  0
 14 16  1  0  0  0  0
 14 20  1  0  0  0  0
 11 12  1  0  0  0  0
 11 13  1  0  0  0  0
 11 14  1  0  0  0  0
  9 10  1  0  0  0  0
  9 11  1  0  0  0  0
  9 24  1  0  0  0  0
  7  8  1  0  0  0  0
  7  9  1  0  0  0  0
 28 29  1  0  0  0  0
 28 30  1  0  0  0  0
 28 31  1  0  0  0  0
 26 27  1  0  0  0  0
 26 28  1  0  0  0  0
M  END
$$$$
default_name
  -OEChem-01062215323D

 31 30  0     1  0  0  0  0  0999 V2000
   -3.5895   -3.5013    1.1082 H   0  0  0  0  0  0  0  0  0  0  0  0
   -3.5145   -2.5363    0.6082 C   0  0  0  0  0  0  0  0  0  0  0  0
   -4.2285   -1.8413    1.0452 H   0  0  0  0  0  0  0  0  0  0  0  0
   -3.7155   -2.6583   -0.4538 H   0  0  0  0  0  0  0  0  0  0  0  0
   -2.1155   -1.9963    0.7922 C   0  0  0  0  0  0  0  0  0  0  0  0
   -1.2875   -2.6383    1.4252 O   0  0  0  0  0  0  0  0  0  0  0  0
   -1.8575   -0.8123    0.2402 N   0  0  0  0  0  0  0  0  0  0  0  0
   -2.6005   -0.3333   -0.2478 H   0  0  0  0  0  0  0  0  0  0  0  0
   -0.5675   -0.1203    0.3102 C   0  0  1  0  0  0  0  0  0  0  0  0
    0.2180   -0.8710    0.4044 H   0  0  0  0  0  0  0  0  0  0  0  0
   -0.3578    0.6620   -1.0033 C   0  0  0  0  0  0  0  0  0  0  0  0
   -1.2049    1.3355   -1.1469 H   0  0  0  0  0  0  0  0  0  0  0  0
    0.5380    1.2766   -0.8906 H   0  0  0  0  0  0  0  0  0  0  0  0
   -0.1954   -0.1933   -2.2733 C   0  0  0  0  0  0  0  0  0  0  0  0
   -1.0259   -0.8947   -2.3535 H   0  0  0  0  0  0  0  0  0  0  0  0
   -0.1400    0.6604   -3.5435 C   0  0  0  0  0  0  0  0  0  0  0  0
    0.6774    1.3792   -3.4715 H   0  0  0  0  0  0  0  0  0  0  0  0
    0.0244    0.0192   -4.4099 H   0  0  0  0  0  0  0  0  0  0  0  0
   -1.0747    1.1983   -3.6859 H   0  0  0  0  0  0  0  0  0  0  0  0
    1.0993   -1.0009   -2.1898 C   0  0  0  0  0  0  0  0  0  0  0  0
    1.0745   -1.6436   -1.3098 H   0  0  0  0  0  0  0  0  0  0  0  0
    1.2028   -1.6281   -3.0752 H   0  0  0  0  0  0  0  0  0  0  0  0
    1.9566   -0.3303   -2.1215 H   0  0  0  0  0  0  0  0  0  0  0  0
   -0.5185    0.7882    1.5504 C   0  0  0  0  0  0  0  0  0  0  0  0
   -1.5496    1.2982    1.9828 O   0  0  0  0  0  0  0  0  0  0  0  0
    0.6791    0.9967    2.1127 N   0  0  0  0  0  0  0  0  0  0  0  0
    1.4777    0.5384    1.7037 H   0  0  0  0  0  0  0  0  0  0  0  0
    0.8944    1.8452    3.2825 C   0  0  0  0  0  0  0  0  0  0  0  0
    0.3030    1.4727    4.1220 H   0  0  0  0  0  0  0  0  0  0  0  0
    1.9497    1.8476    3.5594 H   0  0  0  0  0  0  0  0  0  0  0  0
    0.5770    2.8654    3.0611 H   0  0  0  0  0  0  0  0  0  0  0  0
  5  6  2  0  0  0  0
  5  7  1  0  0  0  0
  2  3  1  0  0  0  0
  2  4  1  0  0  0  0
  2  5  1  0  0  0  0
  1  2  1  0  0  0  0
 24 25  2  0  0  0  0
 24 26  1  0  0  0  0
 20 21  1  0  0  0  0
 20 22  1  0  0  0  0
 20 23  1  0  0  0  0
 16 17  1  0  0  0  0
 16 18  1  0  0  0  0
 16 19  1  0  0  0  0
 14 15  1  0  0  0  0
 14 16  1  0  0  0  0
 14 20  1  0  0  0  0
 11 12  1  0  0  0  0
 11 13  1  0  0  0  0
 11 14  1  0  0  0  0
  9 10  1  0  0  0  0
  9 11  1  0  0  0  0
  9 24  1  0  0  0  0
  7  8  1  0  0  0  0
  7  9  1  0  0  0  0
 28 29  1  0  0  0  0
 28 30  1  0  0  0  0
 28 31  1  0  0  0  0
 26 27  1  0  0  0  0
 26 28  1  0  0  0  0
M  END
$$$$
default_name
  -OEChem-01062215323D

 31 30  0     1  0  0  0  0  0999 V2000
   -3.5895   -3.5013    1.1082 H   0  0  0  0  0  0  0  0  0  0  0  0
   -3.5145   -2.5363    0.6082 C   0  0  0  0  0  0  0  0  0  0  0  0
   -4.2285   -1.8413    1.0452 H   0  0  0  0  0  0  0  0  0  0  0  0
   -3.7155   -2.6583   -0.4538 H   0  0  0  0  0  0  0  0  0  0  0  0
   -2.1155   -1.9963    0.7922 C   0  0  0  0  0  0  0  0  0  0  0  0
   -1.2875   -2.6383    1.4252 O   0  0  0  0  0  0  0  0  0  0  0  0
   -1.8575   -0.8123    0.2402 N   0  0  0  0  0  0  0  0  0  0  0  0
   -2.6005   -0.3333   -0.2478 H   0  0  0  0  0  0  0  0  0  0  0  0
   -0.5675   -0.1203    0.3102 C   0  0  1  0  0  0  0  0  0  0  0  0
    0.2180   -0.8710    0.4044 H   0  0  0  0  0  0  0  0  0  0  0  0
   -0.3578    0.6620   -1.0033 C   0  0  0  0  0  0  0  0  0  0  0  0
   -1.2049    1.3355   -1.1469 H   0  0  0  0  0  0  0  0  0  0  0  0
    0.5380    1.2766   -0.8906 H   0  0  0  0  0  0  0  0  0  0  0  0
   -0.1954   -0.1933   -2.2733 C   0  0  0  0  0  0  0  0  0  0  0  0
   -1.0259   -0.8947   -2.3535 H   0  0  0  0  0  0  0  0  0  0  0  0
   -0.1400    0.6604   -3.5435 C   0  0  0  0  0  0  0  0  0  0  0  0
    0.6774    1.3792   -3.4715 H   0  0  0  0  0  0  0  0  0  0  0  0
    0.0244    0.0192   -4.4099 H   0  0  0  0  0  0  0  0  0  0  0  0
   -1.0747    1.1983   -3.6859 H   0  0  0  0  0  0  0  0  0  0  0  0
    1.0993   -1.0009   -2.1898 C   0  0  0  0  0  0  0  0  0  0  0  0
    1.0745   -1.6436   -1.3098 H   0  0  0  0  0  0  0  0  0  0  0  0
    1.2028   -1.6281   -3.0752 H   0  0  0  0  0  0  0  0  0  0  0  0
    1.9566   -0.3303   -2.1215 H   0  0  0  0  0  0  0  0  0  0  0  0
   -0.5185    0.7882    1.5504 C   0  0  0  0  0  0  0  0  0  0  0  0
   -1.5541    1.0745    2.1468 O   0  0  0  0  0  0  0  0  0  0  0  0
    0.6814    1.2472    1.9290 N   0  0  0  0  0  0  0  0  0  0  0  0
    1.4853    0.9631    1.3924 H   0  0  0  0  0  0  0  0  0  0  0  0
    0.8927    2.1313    3.0730 C   0  0  0  0  0  0  0  0  0  0  0  0
    0.5280    1.6500    3.9833 H   0  0  0  0  0  0  0  0  0  0  0  0
    1.9541    2.3569    3.1862 H   0  0  0  0  0  0  0  0  0  0  0  0
    0.3398    3.0607    2.9274 H   0  0  0  0  0  0  0  0  0  0  0  0
  5  6  2  0  0  0  0
  5  7  1  0  0  0  0
  2  3  1  0  0  0  0
  2  4  1  0  0  0  0
  2  5  1  0  0  0  0
  1  2  1  0  0  0  0
 24 25  2  0  0  0  0
 24 26  1  0  0  0  0
 20 21  1  0  0  0  0
 20 22  1  0  0  0  0
 20 23  1  0  0  0  0
 16 17  1  0  0  0  0
 16 18  1  0  0  0  0
 16 19  1  0  0  0  0
 14 15  1  0  0  0  0
 14 16  1  0  0  0  0
 14 20  1  0  0  0  0
 11 12  1  0  0  0  0
 11 13  1  0  0  0  0
 11 14  1  0  0  0  0
  9 10  1  0  0  0  0
  9 11  1  0  0  0  0
  9 24  1  0  0  0  0
  7  8  1  0  0  0  0
  7  9  1  0  0  0  0
 28 29  1  0  0  0  0
 28 30  1  0  0  0  0
 28 31  1  0  0  0  0
 26 27  1  0  0  0  0
 26 28  1  0  0  0  0
M  END
$$$$
default_name
  -OEChem-01062215323D

 31 30  0     1  0  0  0  0  0999 V2000
   -3.5895   -3.5013    1.1082 H   0  0  0  0  0  0  0  0  0  0  0  0
   -3.5145   -2.5363    0.6082 C   0  0  0  0  0  0  0  0  0  0  0  0
   -4.2285   -1.8413    1.0452 H   0  0  0  0  0  0  0  0  0  0  0  0
   -3.7155   -2.6583   -0.4538 H   0  0  0  0  0  0  0  0  0  0  0  0
   -2.1155   -1.9963    0.7922 C   0  0  0  0  0  0  0  0  0  0  0  0
   -1.2875   -2.6383    1.4252 O   0  0  0  0  0  0  0  0  0  0  0  0
   -1.8575   -0.8123    0.2402 N   0  0  0  0  0  0  0  0  0  0  0  0
   -2.6005   -0.3333   -0.2478 H   0  0  0  0  0  0  0  0  0  0  0  0
   -0.5675   -0.1203    0.3102 C   0  0  1  0  0  0  0  0  0  0  0  0
    0.2222   -0.8517    0.1347 H   0  0  0  0  0  0  0  0  0  0  0  0
   -0.5204    0.9450   -0.8052 C   0  0  0  0  0  0  0  0  0  0  0  0
   -1.3775    1.6109   -0.6876 H   0  0  0  0  0  0  0  0  0  0  0  0
    0.3836    1.5415   -0.6640 H   0  0  0  0  0  0  0  0  0  0  0  0
   -0.5178    0.4050   -2.2471 C   0  0  0  0  0  0  0  0  0  0  0  0
   -1.3531   -0.2815   -2.3846 H   0  0  0  0  0  0  0  0  0  0  0  0
   -0.6183    1.5260   -3.2857 C   0  0  0  0  0  0  0  0  0  0  0  0
    0.2030    2.2311   -3.1505 H   0  0  0  0  0  0  0  0  0  0  0  0
   -0.5635    1.1029   -4.2890 H   0  0  0  0  0  0  0  0  0  0  0  0
   -1.5625    2.0572   -3.1874 H   0  0  0  0  0  0  0  0  0  0  0  0
    0.7759   -0.3658   -2.5074 C   0  0  0  0  0  0  0  0  0  0  0  0
    0.8588   -1.1919   -1.8012 H   0  0  0  0  0  0  0  0  0  0  0  0
    0.7680   -0.7726   -3.5186 H   0  0  0  0  0  0  0  0  0  0  0  0
    1.6362    0.2943   -2.3917 H   0  0  0  0  0  0  0  0  0  0  0  0
   -0.3639    0.4839    1.7100 C   0  0  0  0  0  0  0  0  0  0  0  0
   -1.2314    0.3532    2.5706 O   0  0  0  0  0  0  0  0  0  0  0  0
    0.7756    1.1520    1.9313 N   0  0  0  0  0  0  0  0  0  0  0  0
    1.4412    1.2108    1.1773 H   0  0  0  0  0  0  0  0  0  0  0  0
    1.1102    1.7964    3.1992 C   0  0  0  0  0  0  0  0  0  0  0  0
    1.1146    1.0540    4.0004 H   0  0  0  0  0  0  0  0  0  0  0  0
    2.0938    2.2647    3.1379 H   0  0  0  0  0  0  0  0  0  0  0  0
    0.3631    2.5559    3.4349 H   0  0  0  0  0  0  0  0  0  0  0  0
  5  6  2  0  0  0  0
  5  7  1  0  0  0  0
  2  3  1  0  0  0  0
  2  4  1  0  0  0  0
  2  5  1  0  0  0  0
  1  2  1  0  0  0  0
 24 25  2  0  0  0  0
 24 26  1  0  0  0  0
 20 21  1  0  0  0  0
 20 22  1  0  0  0  0
 20 23  1  0  0  0  0
 16 17  1  0  0  0  0
 16 18  1  0  0  0  0
 16 19  1  0  0  0  0
 14 15  1  0  0  0  0
 14 16  1  0  0  0  0
 14 20  1  0  0  0  0
 11 12  1  0  0  0  0
 11 13  1  0  0  0  0
 11 14  1  0  0  0  0
  9 10  1  0  0  0  0
  9 11  1  0  0  0  0
  9 24  1  0  0  0  0
  7  8  1  0  0  0  0
  7  9  1  0  0  0  0
 28 29  1  0  0  0  0
 28 30  1  0  0  0  0
 28 31  1  0  0  0  0
 26 27  1  0  0  0  0
 26 28  1  0  0  0  0
M  END
$$$$
default_name
  -OEChem-01062215323D

 31 30  0     1  0  0  0  0  0999 V2000
   -3.5895   -3.5013    1.1082 H   0  0  0  0  0  0  0  0  0  0  0  0
   -3.5145   -2.5363    0.6082 C   0  0  0  0  0  0  0  0  0  0  0  0
   -4.2285   -1.8413    1.0452 H   0  0  0  0  0  0  0  0  0  0  0  0
   -3.7155   -2.6583   -0.4538 H   0  0  0  0  0  0  0  0  0  0  0  0
   -2.1155   -1.9963    0.7922 C   0  0  0  0  0  0  0  0  0  0  0  0
   -1.2875   -2.6383    1.4252 O   0  0  0  0  0  0  0  0  0  0  0  0
   -1.8575   -0.8123    0.2402 N   0  0  0  0  0  0  0  0  0  0  0  0
   -2.6005   -0.3333   -0.2478 H   0  0  0  0  0  0  0  0  0  0  0  0
   -0.5675   -0.1203    0.3102 C   0  0  1  0  0  0  0  0  0  0  0  0
    0.2222   -0.8517    0.1347 H   0  0  0  0  0  0  0  0  0  0  0  0
   -0.5204    0.9450   -0.8052 C   0  0  0  0  0  0  0  0  0  0  0  0
   -1.3775    1.6109   -0.6876 H   0  0  0  0  0  0  0  0  0  0  0  0
    0.3836    1.5415   -0.6640 H   0  0  0  0  0  0  0  0  0  0  0  0
   -0.5178    0.4050   -2.2471 C   0  0  0  0  0  0  0  0  0  0  0  0
   -1.3531   -0.2815   -2.3846 H   0  0  0  0  0  0  0  0  0  0  0  0
   -0.6183    1.5260   -3.2857 C   0  0  0  0  0  0  0  0  0  0  0  0
    0.2030    2.2311   -3.1505 H   0  0  0  0  0  0  0  0  0  0  0  0
   -0.5635    1.1029   -4.2890 H   0  0  0  0  0  0  0  0  0  0  0  0
   -1.5625    2.0572   -3.1874 H   0  0  0  0  0  0  0  0  0  0  0  0
    0.7759   -0.3658   -2.5074 C   0  0  0  0  0  0  0  0  0  0  0  0
    0.8588   -1.1919   -1.8012 H   0  0  0  0  0  0  0  0  0  0  0  0
    0.7680   -0.7726   -3.5186 H   0  0  0  0  0  0  0  0  0  0  0  0
    1.6362    0.2943   -2.3917 H   0  0  0  0  0  0  0  0  0  0  0  0
   -0.3639    0.4839    1.7100 C   0  0  0  0  0  0  0  0  0  0  0  0
   -1.0808    0.1321    2.6441 O   0  0  0  0  0  0  0  0  0  0  0  0
    0.6047    1.3982    1.8499 N   0  0  0  0  0  0  0  0  0  0  0  0
    1.1545    1.6300    1.0381 H   0  0  0  0  0  0  0  0  0  0  0  0
    0.9115    2.0756    3.1076 C   0  0  0  0  0  0  0  0  0  0  0  0
    1.1740    1.3378    3.8692 H   0  0  0  0  0  0  0  0  0  0  0  0
    1.7462    2.7651    2.9724 H   0  0  0  0  0  0  0  0  0  0  0  0
    0.0368    2.6306    3.4501 H   0  0  0  0  0  0  0  0  0  0  0  0
  5  6  2  0  0  0  0
  5  7  1  0  0  0  0
  2  3  1  0  0  0  0
  2  4  1  0  0  0  0
  2  5  1  0  0  0  0
  1  2  1  0  0  0  0
 24 25  2  0  0  0  0
 24 26  1  0  0  0  0
 20 21  1  0  0  0  0
 20 22  1  0  0  0  0
 20 23  1  0  0  0  0
 16 17  1  0  0  0  0
 16 18  1  0  0  0  0
 16 19  1  0  0  0  0
 14 15  1  0  0  0  0
 14 16  1  0  0  0  0
 14 20  1  0  0  0  0
 11 12  1  0  0  0  0
 11 13  1  0  0  0  0
 11 14  1  0  0  0  0
  9 10  1  0  0  0  0
  9 11  1  0  0  0  0
  9 24  1  0  0  0  0
  7  8  1  0  0  0  0
  7  9  1  0  0  0  0
 28 29  1  0  0  0  0
 28 30  1  0  0  0  0
 28 31  1  0  0  0  0
 26 27  1  0  0  0  0
 26 28  1  0  0  0  0
M  END
$$$$
default_name
  -OEChem-01062215323D

 31 30  0     1  0  0  0  0  0999 V2000
   -3.5895   -3.5013    1.1082 H   0  0  0  0  0  0  0  0  0  0  0  0
   -3.5145   -2.5363    0.6082 C   0  0  0  0  0  0  0  0  0  0  0  0
   -4.2285   -1.8413    1.0452 H   0  0  0  0  0  0  0  0  0  0  0  0
   -3.7155   -2.6583   -0.4538 H   0  0  0  0  0  0  0  0  0  0  0  0
   -2.1155   -1.9963    0.7922 C   0  0  0  0  0  0  0  0  0  0  0  0
   -1.2875   -2.6383    1.4252 O   0  0  0  0  0  0  0  0  0  0  0  0
   -1.8575   -0.8123    0.2402 N   0  0  0  0  0  0  0  0  0  0  0  0
   -2.6005   -0.3333   -0.2478 H   0  0  0  0  0  0  0  0  0  0  0  0
   -0.5675   -0.1203    0.3102 C   0  0  1  0  0  0  0  0  0  0  0  0
    0.2222   -0.8517    0.1347 H   0  0  0  0  0  0  0  0  0  0  0  0
   -0.5204    0.9450   -0.8052 C   0  0  0  0  0  0  0  0  0  0  0  0
   -1.3775    1.6109   -0.6876 H   0  0  0  0  0  0  0  0  0  0  0  0
    0.3836    1.5415   -0.6640 H   0  0  0  0  0  0  0  0  0  0  0  0
   -0.5178    0.4050   -2.2471 C   0  0  0  0  0  0  0  0  0  0  0  0
   -1.3531   -0.2815   -2.3846 H   0  0  0  0  0  0  0  0  0  0  0  0
   -0.6183    1.5260   -3.2857 C   0  0  0  0  0  0  0  0  0  0  0  0
    0.2030    2.2311   -3.1505 H   0  0  0  0  0  0  0  0  0  0  0  0
   -0.5635    1.1029   -4.2890 H   0  0  0  0  0  0  0  0  0  0  0  0
   -1.5625    2.0572   -3.1874 H   0  0  0  0  0  0  0  0  0  0  0  0
    0.7759   -0.3658   -2.5074 C   0  0  0  0  0  0  0  0  0  0  0  0
    0.8588   -1.1919   -1.8012 H   0  0  0  0  0  0  0  0  0  0  0  0
    0.7680   -0.7726   -3.5186 H   0  0  0  0  0  0  0  0  0  0  0  0
    1.6362    0.2943   -2.3917 H   0  0  0  0  0  0  0  0  0  0  0  0
   -0.3639    0.4839    1.7100 C   0  0  0  0  0  0  0  0  0  0  0  0
   -0.8758   -0.0485    2.6922 O   0  0  0  0  0  0  0  0  0  0  0  0
    0.3733    1.5987    1.7970 N   0  0  0  0  0  0  0  0  0  0  0  0
    0.7647    1.9721    0.9471 H   0  0  0  0  0  0  0  0  0  0  0  0
    0.6446    2.3015    3.0489 C   0  0  0  0  0  0  0  0  0  0  0  0
    1.1513    1.6306    3.7462 H   0  0  0  0  0  0  0  0  0  0  0  0
    1.2758    3.1723    2.8651 H   0  0  0  0  0  0  0  0  0  0  0  0
   -0.2944    2.6254    3.5005 H   0  0  0  0  0  0  0  0  0  0  0  0
  5  6  2  0  0  0  0
  5  7  1  0  0  0  0
  2  3  1  0  0  0  0
  2  4  1  0  0  0  0
  2  5  1  0  0  0  0
  1  2  1  0  0  0  0
 24 25  2  0  0  0  0
 24 26  1  0  0  0  0
 20 21  1  0  0  0  0
 20 22  1  0  0  0  0
 20 23  1  0  0  0  0
 16 17  1  0  0  0  0
 16 18  1  0  0  0  0
 16 19  1  0  0  0  0
 14 15  1  0  0  0  0
 14 16  1  0  0  0  0
 14 20  1  0  0  0  0
 11 12  1  0  0  0  0
 11 13  1  0  0  0  0
 11 14  1  0  0  0  0
  9 10  1  0  0  0  0
  9 11  1  0  0  0  0
  9 24  1  0  0  0  0
  7  8  1  0  0  0  0
  7  9  1  0  0  0  0
 28 29  1  0  0  0  0
 28 30  1  0  0  0  0
 28 31  1  0  0  0  0
 26 27  1  0  0  0  0
 26 28  1  0  0  0  0
M  END
$$$$
default_name
  -OEChem-01062215323D

 31 30  0     1  0  0  0  0  0999 V2000
   -3.5895   -3.5013    1.1082 H   0  0  0  0  0  0  0  0  0  0  0  0
   -3.5145   -2.5363    0.6082 C   0  0  0  0  0  0  0  0  0  0  0  0
   -4.2285   -1.8413    1.0452 H   0  0  0  0  0  0  0  0  0  0  0  0
   -3.7155   -2.6583   -0.4538 H   0  0  0  0  0  0  0  0  0  0  0  0
   -2.1155   -1.9963    0.7922 C   0  0  0  0  0  0  0  0  0  0  0  0
   -1.2875   -2.6383    1.4252 O   0  0  0  0  0  0  0  0  0  0  0  0
   -1.8575   -0.8123    0.2402 N   0  0  0  0  0  0  0  0  0  0  0  0
   -2.6005   -0.3333   -0.2478 H   0  0  0  0  0  0  0  0  0  0  0  0
   -0.5675   -0.1203    0.3102 C   0  0  1  0  0  0  0  0  0  0  0  0
    0.2222   -0.8517    0.1347 H   0  0  0  0  0  0  0  0  0  0  0  0
   -0.5204    0.9450   -0.8052 C   0  0  0  0  0  0  0  0  0  0  0  0
   -1.3775    1.6109   -0.6876 H   0  0  0  0  0  0  0  0  0  0  0  0
    0.3836    1.5415   -0.6640 H   0  0  0  0  0  0  0  0  0  0  0  0
   -0.5178    0.4050   -2.2471 C   0  0  0  0  0  0  0  0  0  0  0  0
   -1.3531   -0.2815   -2.3846 H   0  0  0  0  0  0  0  0  0  0  0  0
   -0.6183    1.5260   -3.2857 C   0  0  0  0  0  0  0  0  0  0  0  0
    0.2030    2.2311   -3.1505 H   0  0  0  0  0  0  0  0  0  0  0  0
   -0.5635    1.1029   -4.2890 H   0  0  0  0  0  0  0  0  0  0  0  0
   -1.5625    2.0572   -3.1874 H   0  0  0  0  0  0  0  0  0  0  0  0
    0.7759   -0.3658   -2.5074 C   0  0  0  0  0  0  0  0  0  0  0  0
    0.8588   -1.1919   -1.8012 H   0  0  0  0  0  0  0  0  0  0  0  0
    0.7680   -0.7726   -3.5186 H   0  0  0  0  0  0  0  0  0  0  0  0
    1.6362    0.2943   -2.3917 H   0  0  0  0  0  0  0  0  0  0  0  0
   -0.3639    0.4839    1.7100 C   0  0  0  0  0  0  0  0  0  0  0  0
   -0.6303   -0.1763    2.7117 O   0  0  0  0  0  0  0  0  0  0  0  0
    0.0972    1.7396    1.7764 N   0  0  0  0  0  0  0  0  0  0  0  0
    0.2983    2.2139    0.9106 H   0  0  0  0  0  0  0  0  0  0  0  0
    0.3275    2.4589    3.0271 C   0  0  0  0  0  0  0  0  0  0  0  0
    1.0478    1.9121    3.6397 H   0  0  0  0  0  0  0  0  0  0  0  0
    0.7146    3.4584    2.8232 H   0  0  0  0  0  0  0  0  0  0  0  0
   -0.6080    2.5407    3.5827 H   0  0  0  0  0  0  0  0  0  0  0  0
  5  6  2  0  0  0  0
  5  7  1  0  0  0  0
  2  3  1  0  0  0  0
  2  4  1  0  0  0  0
  2  5  1  0  0  0  0
  1  2  1  0  0  0  0
 24 25  2  0  0  0  0
 24 26  1  0  0  0  0
 20 21  1  0  0  0  0
 20 22  1  0  0  0  0
 20 23  1  0  0  0  0
 16 17  1  0  0  0  0
 16 18  1  0  0  0  0
 16 19  1  0  0  0  0
 14 15  1  0  0  0  0
 14 16  1  0  0  0  0
 14 20  1  0  0  0  0
 11 12  1  0  0  0  0
 11 13  1  0  0  0  0
 11 14  1  0  0  0  0
  9 10  1  0  0  0  0
  9 11  1  0  0  0  0
  9 24  1  0  0  0  0
  7  8  1  0  0  0  0
  7  9  1  0  0  0  0
 28 29  1  0  0  0  0
 28 30  1  0  0  0  0
 28 31  1  0  0  0  0
 26 27  1  0  0  0  0
 26 28  1  0  0  0  0
M  END
$$$$
default_name
  -OEChem-01062215323D

 31 30  0     1  0  0  0  0  0999 V2000
   -3.5895   -3.5013    1.1082 H   0  0  0  0  0  0  0  0  0  0  0  0
   -3.5145   -2.5363    0.6082 C   0  0  0  0  0  0  0  0  0  0  0  0
   -4.2285   -1.8413    1.0452 H   0  0  0  0  0  0  0  0  0  0  0  0
   -3.7155   -2.6583   -0.4538 H   0  0  0  0  0  0  0  0  0  0  0  0
   -2.1155   -1.9963    0.7922 C   0  0  0  0  0  0  0  0  0  0  0  0
   -1.2875   -2.6383    1.4252 O   0  0  0  0  0  0  0  0  0  0  0  0
   -1.8575   -0.8123    0.2402 N   0  0  0  0  0  0  0  0  0  0  0  0
   -2.6005   -0.3333   -0.2478 H   0  0  0  0  0  0  0  0  0  0  0  0
   -0.5675   -0.1203    0.3102 C   0  0  1  0  0  0  0  0  0  0  0  0
    0.2222   -0.8517    0.1347 H   0  0  0  0  0  0  0  0  0  0  0  0
   -0.5204    0.9450   -0.8052 C   0  0  0  0  0  0  0  0  0  0  0  0
   -1.3775    1.6109   -0.6876 H   0  0  0  0  0  0  0  0  0  0  0  0
    0.3836    1.5415   -0.6640 H   0  0  0  0  0  0  0  0  0  0  0  0
   -0.5178    0.4050   -2.2471 C   0  0  0  0  0  0  0  0  0  0  0  0
   -1.3531   -0.2815   -2.3846 H   0  0  0  0  0  0  0  0  0  0  0  0
   -0.6183    1.5260   -3.2857 C   0  0  0  0  0  0  0  0  0  0  0  0
    0.2030    2.2311   -3.1505 H   0  0  0  0  0  0  0  0  0  0  0  0
   -0.5635    1.1029   -4.2890 H   0  0  0  0  0  0  0  0  0  0  0  0
   -1.5625    2.0572   -3.1874 H   0  0  0  0  0  0  0  0  0  0  0  0
    0.7759   -0.3658   -2.5074 C   0  0  0  0  0  0  0  0  0  0  0  0
    0.8588   -1.1919   -1.8012 H   0  0  0  0  0  0  0  0  0  0  0  0
    0.7680   -0.7726   -3.5186 H   0  0  0  0  0  0  0  0  0  0  0  0
    1.6362    0.2943   -2.3917 H   0  0  0  0  0  0  0  0  0  0  0  0
   -0.3639    0.4839    1.7100 C   0  0  0  0  0  0  0  0  0  0  0  0
   -0.3611   -0.2426    2.7012 O   0  0  0  0  0  0  0  0  0  0  0  0
   -0.2048    1.8113    1.7893 N   0  0  0  0  0  0  0  0  0  0  0  0
   -0.2128    2.3388    0.9310 H   0  0  0  0  0  0  0  0  0  0  0  0
   -0.0181    2.5370    3.0436 C   0  0  0  0  0  0  0  0  0  0  0  0
    0.8708    2.1634    3.5570 H   0  0  0  0  0  0  0  0  0  0  0  0
    0.1009    3.6041    2.8496 H   0  0  0  0  0  0  0  0  0  0  0  0
   -0.8826    2.3821    3.6911 H   0  0  0  0  0  0  0  0  0  0  0  0
  5  6  2  0  0  0  0
  5  7  1  0  0  0  0
  2  3  1  0  0  0  0
  2  4  1  0  0  0  0
  2  5  1  0  0  0  0
  1  2  1  0  0  0  0
 24 25  2  0  0  0  0
 24 26  1  0  0  0  0
 20 21  1  0  0  0  0
 20 22  1  0  0  0  0
 20 23  1  0  0  0  0
 16 17  1  0  0  0  0
 16 18  1  0  0  0  0
 16 19  1  0  0  0  0
 14 15  1  0  0  0  0
 14 16  1  0  0  0  0
 14 20  1  0  0  0  0
 11 12  1  0  0  0  0
 11 13  1  0  0  0  0
 11 14  1  0  0  0  0
  9 10  1  0  0  0  0
  9 11  1  0  0  0  0
  9 24  1  0  0  0  0
  7  8  1  0  0  0  0
  7  9  1  0  0  0  0
 28 29  1  0  0  0  0
 28 30  1  0  0  0  0
 28 31  1  0  0  0  0
 26 27  1  0  0  0  0
 26 28  1  0  0  0  0
M  END
$$$$
default_name
  -OEChem-01062215323D

 31 30  0     1  0  0  0  0  0999 V2000
   -3.5895   -3.5013    1.1082 H   0  0  0  0  0  0  0  0  0  0  0  0
   -3.5145   -2.5363    0.6082 C   0  0  0  0  0  0  0  0  0  0  0  0
   -4.2285   -1.8413    1.0452 H   0  0  0  0  0  0  0  0  0  0  0  0
   -3.7155   -2.6583   -0.4538 H   0  0  0  0  0  0  0  0  0  0  0  0
   -2.1155   -1.9963    0.7922 C   0  0  0  0  0  0  0  0  0  0  0  0
   -1.2875   -2.6383    1.4252 O   0  0  0  0  0  0  0  0  0  0  0  0
   -1.8575   -0.8123    0.2402 N   0  0  0  0  0  0  0  0  0  0  0  0
   -2.6005   -0.3333   -0.2478 H   0  0  0  0  0  0  0  0  0  0  0  0
   -0.5675   -0.1203    0.3102 C   0  0  1  0  0  0  0  0  0  0  0  0
    0.2222   -0.8517    0.1347 H   0  0  0  0  0  0  0  0  0  0  0  0
   -0.5204    0.9450   -0.8052 C   0  0  0  0  0  0  0  0  0  0  0  0
   -1.3775    1.6109   -0.6876 H   0  0  0  0  0  0  0  0  0  0  0  0
    0.3836    1.5415   -0.6640 H   0  0  0  0  0  0  0  0  0  0  0  0
   -0.5178    0.4050   -2.2471 C   0  0  0  0  0  0  0  0  0  0  0  0
   -1.3531   -0.2815   -2.3846 H   0  0  0  0  0  0  0  0  0  0  0  0
   -0.6183    1.5260   -3.2857 C   0  0  0  0  0  0  0  0  0  0  0  0
    0.2030    2.2311   -3.1505 H   0  0  0  0  0  0  0  0  0  0  0  0
   -0.5635    1.1029   -4.2890 H   0  0  0  0  0  0  0  0  0  0  0  0
   -1.5625    2.0572   -3.1874 H   0  0  0  0  0  0  0  0  0  0  0  0
    0.7759   -0.3658   -2.5074 C   0  0  0  0  0  0  0  0  0  0  0  0
    0.8588   -1.1919   -1.8012 H   0  0  0  0  0  0  0  0  0  0  0  0
    0.7680   -0.7726   -3.5186 H   0  0  0  0  0  0  0  0  0  0  0  0
    1.6362    0.2943   -2.3917 H   0  0  0  0  0  0  0  0  0  0  0  0
   -0.3639    0.4839    1.7100 C   0  0  0  0  0  0  0  0  0  0  0  0
   -0.0866   -0.2429    2.6614 O   0  0  0  0  0  0  0  0  0  0  0  0
   -0.5120    1.8091    1.8349 N   0  0  0  0  0  0  0  0  0  0  0  0
   -0.7339    2.3384    1.0070 H   0  0  0  0  0  0  0  0  0  0  0  0
   -0.3686    2.5305    3.0974 C   0  0  0  0  0  0  0  0  0  0  0  0
    0.6321    2.3672    3.5037 H   0  0  0  0  0  0  0  0  0  0  0  0
   -0.5236    3.5993    2.9425 H   0  0  0  0  0  0  0  0  0  0  0  0
   -1.0995    2.1606    3.8182 H   0  0  0  0  0  0  0  0  0  0  0  0
  5  6  2  0  0  0  0
  5  7  1  0  0  0  0
  2  3  1  0  0  0  0
  2  4  1  0  0  0  0
  2  5  1  0  0  0  0
  1  2  1  0  0  0  0
 24 25  2  0  0  0  0
 24 26  1  0  0  0  0
 20 21  1  0  0  0  0
 20 22  1  0  0  0  0
 20 23  1  0  0  0  0
 16 17  1  0  0  0  0
 16 18  1  0  0  0  0
 16 19  1  0  0  0  0
 14 15  1  0  0  0  0
 14 16  1  0  0  0  0
 14 20  1  0  0  0  0
 11 12  1  0  0  0  0
 11 13  1  0  0  0  0
 11 14  1  0  0  0  0
  9 10  1  0  0  0  0
  9 11  1  0  0  0  0
  9 24  1  0  0  0  0
  7  8  1  0  0  0  0
  7  9  1  0  0  0  0
 28 29  1  0  0  0  0
 28 30  1  0  0  0  0
 28 31  1  0  0  0  0
 26 27  1  0  0  0  0
 26 28  1  0  0  0  0
M  END
$$$$
default_name
  -OEChem-01062215323D

 31 30  0     1  0  0  0  0  0999 V2000
   -3.5895   -3.5013    1.1082 H   0  0  0  0  0  0  0  0  0  0  0  0
   -3.5145   -2.5363    0.6082 C   0  0  0  0  0  0  0  0  0  0  0  0
   -4.2285   -1.8413    1.0452 H   0  0  0  0  0  0  0  0  0  0  0  0
   -3.7155   -2.6583   -0.4538 H   0  0  0  0  0  0  0  0  0  0  0  0
   -2.1155   -1.9963    0.7922 C   0  0  0  0  0  0  0  0  0  0  0  0
   -1.2875   -2.6383    1.4252 O   0  0  0  0  0  0  0  0  0  0  0  0
   -1.8575   -0.8123    0.2402 N   0  0  0  0  0  0  0  0  0  0  0  0
   -2.6005   -0.3333   -0.2478 H   0  0  0  0  0  0  0  0  0  0  0  0
   -0.5675   -0.1203    0.3102 C   0  0  1  0  0  0  0  0  0  0  0  0
    0.2222   -0.8517    0.1347 H   0  0  0  0  0  0  0  0  0  0  0  0
   -0.5204    0.9450   -0.8052 C   0  0  0  0  0  0  0  0  0  0  0  0
   -1.3775    1.6109   -0.6876 H   0  0  0  0  0  0  0  0  0  0  0  0
    0.3836    1.5415   -0.6640 H   0  0  0  0  0  0  0  0  0  0  0  0
   -0.5178    0.4050   -2.2471 C   0  0  0  0  0  0  0  0  0  0  0  0
   -1.3531   -0.2815   -2.3846 H   0  0  0  0  0  0  0  0  0  0  0  0
   -0.6183    1.5260   -3.2857 C   0  0  0  0  0  0  0  0  0  0  0  0
    0.2030    2.2311   -3.1505 H   0  0  0  0  0  0  0  0  0  0  0  0
   -0.5635    1.1029   -4.2890 H   0  0  0  0  0  0  0  0  0  0  0  0
   -1.5625    2.0572   -3.1874 H   0  0  0  0  0  0  0  0  0  0  0  0
    0.7759   -0.3658   -2.5074 C   0  0  0  0  0  0  0  0  0  0  0  0
    0.8588   -1.1919   -1.8012 H   0  0  0  0  0  0  0  0  0  0  0  0
    0.7680   -0.7726   -3.5186 H   0  0  0  0  0  0  0  0  0  0  0  0
    1.6362    0.2943   -2.3917 H   0  0  0  0  0  0  0  0  0  0  0  0
   -0.3639    0.4839    1.7100 C   0  0  0  0  0  0  0  0  0  0  0  0
    0.1747   -0.1771    2.5950 O   0  0  0  0  0  0  0  0  0  0  0  0
   -0.8037    1.7330    1.9102 N   0  0  0  0  0  0  0  0  0  0  0  0
   -1.2294    2.2127    1.1333 H   0  0  0  0  0  0  0  0  0  0  0  0
   -0.7001    2.4397    3.1848 C   0  0  0  0  0  0  0  0  0  0  0  0
    0.3482    2.5097    3.4835 H   0  0  0  0  0  0  0  0  0  0  0  0
   -1.1162    3.4444    3.0955 H   0  0  0  0  0  0  0  0  0  0  0  0
   -1.2439    1.8912    3.9555 H   0  0  0  0  0  0  0  0  0  0  0  0
  5  6  2  0  0  0  0
  5  7  1  0  0  0  0
  2  3  1  0  0  0  0
  2  4  1  0  0  0  0
  2  5  1  0  0  0  0
  1  2  1  0  0  0  0
 24 25  2  0  0  0  0
 24 26  1  0  0  0  0
 20 21  1  0  0  0  0
 20 22  1  0  0  0  0
 20 23  1  0  0  0  0
 16 17  1  0  0  0  0
 16 18  1  0  0  0  0
 16 19  1  0  0  0  0
 14 15  1  0  0  0  0
 14 16  1  0  0  0  0
 14 20  1  0  0  0  0
 11 12  1  0  0  0  0
 11 13  1  0  0  0  0
 11 14  1  0  0  0  0
  9 10  1  0  0  0  0
  9 11  1  0  0  0  0
  9 24  1  0  0  0  0
  7  8  1  0  0  0  0
  7  9  1  0  0  0  0
 28 29  1  0  0  0  0
 28 30  1  0  0  0  0
 28 31  1  0  0  0  0
 26 27  1  0  0  0  0
 26 28  1  0  0  0  0
M  END
$$$$
default_name
  -OEChem-01062215323D

 31 30  0     1  0  0  0  0  0999 V2000
   -3.5895   -3.5013    1.1082 H   0  0  0  0  0  0  0  0  0  0  0  0
   -3.5145   -2.5363    0.6082 C   0  0  0  0  0  0  0  0  0  0  0  0
   -4.2285   -1.8413    1.0452 H   0  0  0  0  0  0  0  0  0  0  0  0
   -3.7155   -2.6583   -0.4538 H   0  0  0  0  0  0  0  0  0  0  0  0
   -2.1155   -1.9963    0.7922 C   0  0  0  0  0  0  0  0  0  0  0  0
   -1.2875   -2.6383    1.4252 O   0  0  0  0  0  0  0  0  0  0  0  0
   -1.8575   -0.8123    0.2402 N   0  0  0  0  0  0  0  0  0  0  0  0
   -2.6005   -0.3333   -0.2478 H   0  0  0  0  0  0  0  0  0  0  0  0
   -0.5675   -0.1203    0.3102 C   0  0  1  0  0  0  0  0  0  0  0  0
    0.2222   -0.8517    0.1347 H   0  0  0  0  0  0  0  0  0  0  0  0
   -0.5204    0.9450   -0.8052 C   0  0  0  0  0  0  0  0  0  0  0  0
   -1.3775    1.6109   -0.6876 H   0  0  0  0  0  0  0  0  0  0  0  0
    0.3836    1.5415   -0.6640 H   0  0  0  0  0  0  0  0  0  0  0  0
   -0.5178    0.4050   -2.2471 C   0  0  0  0  0  0  0  0  0  0  0  0
   -1.3531   -0.2815   -2.3846 H   0  0  0  0  0  0  0  0  0  0  0  0
   -0.6183    1.5260   -3.2857 C   0  0  0  0  0  0  0  0  0  0  0  0
    0.2030    2.2311   -3.1505 H   0  0  0  0  0  0  0  0  0  0  0  0
   -0.5635    1.1029   -4.2890 H   0  0  0  0  0  0  0  0  0  0  0  0
   -1.5625    2.0572   -3.1874 H   0  0  0  0  0  0  0  0  0  0  0  0
    0.7759   -0.3658   -2.5074 C   0  0  0  0  0  0  0  0  0  0  0  0
    0.8588   -1.1919   -1.8012 H   0  0  0  0  0  0  0  0  0  0  0  0
    0.7680   -0.7726   -3.5186 H   0  0  0  0  0  0  0  0  0  0  0  0
    1.6362    0.2943   -2.3917 H   0  0  0  0  0  0  0  0  0  0  0  0
   -0.3639    0.4839    1.7100 C   0  0  0  0  0  0  0  0  0  0  0  0
    0.4047   -0.0498    2.5066 O   0  0  0  0  0  0  0  0  0  0  0  0
   -1.0598    1.5882    2.0099 N   0  0  0  0  0  0  0  0  0  0  0  0
   -1.6656    1.9702    1.3014 H   0  0  0  0  0  0  0  0  0  0  0  0
   -0.9901    2.2710    3.2997 C   0  0  0  0  0  0  0  0  0  0  0  0
    0.0383    2.5812    3.4977 H   0  0  0  0  0  0  0  0  0  0  0  0
   -1.6366    3.1500    3.2983 H   0  0  0  0  0  0  0  0  0  0  0  0
   -1.3059    1.5922    4.0935 H   0  0  0  0  0  0  0  0  0  0  0  0
  5  6  2  0  0  0  0
  5  7  1  0  0  0  0
  2  3  1  0  0  0  0
  2  4  1  0  0  0  0
  2  5  1  0  0  0  0
  1  2  1  0  0  0  0
 24 25  2  0  0  0  0
 24 26  1  0  0  0  0
 20 21  1  0  0  0  0
 20 22  1  0  0  0  0
 20 23  1  0  0  0  0
 16 17  1  0  0  0  0
 16 18  1  0  0  0  0
 16 19  1  0  0  0  0
 14 15  1  0  0  0  0
 14 16  1  0  0  0  0
 14 20  1  0  0  0  0
 11 12  1  0  0  0  0
 11 13  1  0  0  0  0
 11 14  1  0  0  0  0
  9 10  1  0  0  0  0
  9 11  1  0  0  0  0
  9 24  1  0  0  0  0
  7  8  1  0  0  0  0
  7  9  1  0  0  0  0
 28 29  1  0  0  0  0
 28 30  1  0  0  0  0
 28 31  1  0  0  0  0
 26 27  1  0  0  0  0
 26 28  1  0  0  0  0
M  END
$$$$
default_name
  -OEChem-01062215323D

 31 30  0     1  0  0  0  0  0999 V2000
   -3.5895   -3.5013    1.1082 H   0  0  0  0  0  0  0  0  0  0  0  0
   -3.5145   -2.5363    0.6082 C   0  0  0  0  0  0  0  0  0  0  0  0
   -4.2285   -1.8413    1.0452 H   0  0  0  0  0  0  0  0  0  0  0  0
   -3.7155   -2.6583   -0.4538 H   0  0  0  0  0  0  0  0  0  0  0  0
   -2.1155   -1.9963    0.7922 C   0  0  0  0  0  0  0  0  0  0  0  0
   -1.2875   -2.6383    1.4252 O   0  0  0  0  0  0  0  0  0  0  0  0
   -1.8575   -0.8123    0.2402 N   0  0  0  0  0  0  0  0  0  0  0  0
   -2.6005   -0.3333   -0.2478 H   0  0  0  0  0  0  0  0  0  0  0  0
   -0.5675   -0.1203    0.3102 C   0  0  1  0  0  0  0  0  0  0  0  0
    0.2222   -0.8517    0.1347 H   0  0  0  0  0  0  0  0  0  0  0  0
   -0.5204    0.9450   -0.8052 C   0  0  0  0  0  0  0  0  0  0  0  0
   -1.3775    1.6109   -0.6876 H   0  0  0  0  0  0  0  0  0  0  0  0
    0.3836    1.5415   -0.6640 H   0  0  0  0  0  0  0  0  0  0  0  0
   -0.5178    0.4050   -2.2471 C   0  0  0  0  0  0  0  0  0  0  0  0
   -1.3531   -0.2815   -2.3846 H   0  0  0  0  0  0  0  0  0  0  0  0
   -0.6183    1.5260   -3.2857 C   0  0  0  0  0  0  0  0  0  0  0  0
    0.2030    2.2311   -3.1505 H   0  0  0  0  0  0  0  0  0  0  0  0
   -0.5635    1.1029   -4.2890 H   0  0  0  0  0  0  0  0  0  0  0  0
   -1.5625    2.0572   -3.1874 H   0  0  0  0  0  0  0  0  0  0  0  0
    0.7759   -0.3658   -2.5074 C   0  0  0  0  0  0  0  0  0  0  0  0
    0.8588   -1.1919   -1.8012 H   0  0  0  0  0  0  0  0  0  0  0  0
    0.7680   -0.7726   -3.5186 H   0  0  0  0  0  0  0  0  0  0  0  0
    1.6362    0.2943   -2.3917 H   0  0  0  0  0  0  0  0  0  0  0  0
   -0.3639    0.4839    1.7100 C   0  0  0  0  0  0  0  0  0  0  0  0
    0.5880    0.1304    2.4022 O   0  0  0  0  0  0  0  0  0  0  0  0
   -1.2629    1.3846    2.1273 N   0  0  0  0  0  0  0  0  0  0  0  0
   -2.0127    1.6275    1.4998 H   0  0  0  0  0  0  0  0  0  0  0  0
   -1.2188    2.0358    3.4345 C   0  0  0  0  0  0  0  0  0  0  0  0
   -0.2764    2.5768    3.5454 H   0  0  0  0  0  0  0  0  0  0  0  0
   -2.0493    2.7361    3.5369 H   0  0  0  0  0  0  0  0  0  0  0  0
   -1.2814    1.2841    4.2229 H   0  0  0  0  0  0  0  0  0  0  0  0
  5  6  2  0  0  0  0
  5  7  1  0  0  0  0
  2  3  1  0  0  0  0
  2  4  1  0  0  0  0
  2  5  1  0  0  0  0
  1  2  1  0  0  0  0
 24 25  2  0  0  0  0
 24 26  1  0  0  0  0
 20 21  1  0  0  0  0
 20 22  1  0  0  0  0
 20 23  1  0  0  0  0
 16 17  1  0  0  0  0
 16 18  1  0  0  0  0
 16 19  1  0  0  0  0
 14 15  1  0  0  0  0
 14 16  1  0  0  0  0
 14 20  1  0  0  0  0
 11 12  1  0  0  0  0
 11 13  1  0  0  0  0
 11 14  1  0  0  0  0
  9 10  1  0  0  0  0
  9 11  1  0  0  0  0
  9 24  1  0  0  0  0
  7  8  1  0  0  0  0
  7  9  1  0  0  0  0
 28 29  1  0  0  0  0
 28 30  1  0  0  0  0
 28 31  1  0  0  0  0
 26 27  1  0  0  0  0
 26 28  1  0  0  0  0
M  END
$$$$
default_name
  -OEChem-01062215323D

 31 30  0     1  0  0  0  0  0999 V2000
   -3.5895   -3.5013    1.1082 H   0  0  0  0  0  0  0  0  0  0  0  0
   -3.5145   -2.5363    0.6082 C   0  0  0  0  0  0  0  0  0  0  0  0
   -4.2285   -1.8413    1.0452 H   0  0  0  0  0  0  0  0  0  0  0  0
   -3.7155   -2.6583   -0.4538 H   0  0  0  0  0  0  0  0  0  0  0  0
   -2.1155   -1.9963    0.7922 C   0  0  0  0  0  0  0  0  0  0  0  0
   -1.2875   -2.6383    1.4252 O   0  0  0  0  0  0  0  0  0  0  0  0
   -1.8575   -0.8123    0.2402 N   0  0  0  0  0  0  0  0  0  0  0  0
   -2.6005   -0.3333   -0.2478 H   0  0  0  0  0  0  0  0  0  0  0  0
   -0.5675   -0.1203    0.3102 C   0  0  1  0  0  0  0  0  0  0  0  0
    0.2222   -0.8517    0.1347 H   0  0  0  0  0  0  0  0  0  0  0  0
   -0.5204    0.9450   -0.8052 C   0  0  0  0  0  0  0  0  0  0  0  0
   -1.3775    1.6109   -0.6876 H   0  0  0  0  0  0  0  0  0  0  0  0
    0.3836    1.5415   -0.6640 H   0  0  0  0  0  0  0  0  0  0  0  0
   -0.5178    0.4050   -2.2471 C   0  0  0  0  0  0  0  0  0  0  0  0
   -1.3531   -0.2815   -2.3846 H   0  0  0  0  0  0  0  0  0  0  0  0
   -0.6183    1.5260   -3.2857 C   0  0  0  0  0  0  0  0  0  0  0  0
    0.2030    2.2311   -3.1505 H   0  0  0  0  0  0  0  0  0  0  0  0
   -0.5635    1.1029   -4.2890 H   0  0  0  0  0  0  0  0  0  0  0  0
   -1.5625    2.0572   -3.1874 H   0  0  0  0  0  0  0  0  0  0  0  0
    0.7759   -0.3658   -2.5074 C   0  0  0  0  0  0  0  0  0  0  0  0
    0.8588   -1.1919   -1.8012 H   0  0  0  0  0  0  0  0  0  0  0  0
    0.7680   -0.7726   -3.5186 H   0  0  0  0  0  0  0  0  0  0  0  0
    1.6362    0.2943   -2.3917 H   0  0  0  0  0  0  0  0  0  0  0  0
   -0.3639    0.4839    1.7100 C   0  0  0  0  0  0  0  0  0  0  0  0
    0.7120    0.3512    2.2888 O   0  0  0  0  0  0  0  0  0  0  0  0
   -1.3993    1.1361    2.2544 N   0  0  0  0  0  0  0  0  0  0  0  0
   -2.2471    1.2079    1.7149 H   0  0  0  0  0  0  0  0  0  0  0  0
   -1.3706    1.7502    3.5799 C   0  0  0  0  0  0  0  0  0  0  0  0
   -0.5744    2.4967    3.6233 H   0  0  0  0  0  0  0  0  0  0  0  0
   -2.3261    2.2309    3.7952 H   0  0  0  0  0  0  0  0  0  0  0  0
   -1.1720    0.9878    4.3349 H   0  0  0  0  0  0  0  0  0  0  0  0
  5  6  2  0  0  0  0
  5  7  1  0  0  0  0
  2  3  1  0  0  0  0
  2  4  1  0  0  0  0
  2  5  1  0  0  0  0
  1  2  1  0  0  0  0
 24 25  2  0  0  0  0
 24 26  1  0  0  0  0
 20 21  1  0  0  0  0
 20 22  1  0  0  0  0
 20 23  1  0  0  0  0
 16 17  1  0  0  0  0
 16 18  1  0  0  0  0
 16 19  1  0  0  0  0
 14 15  1  0  0  0  0
 14 16  1  0  0  0  0
 14 20  1  0  0  0  0
 11 12  1  0  0  0  0
 11 13  1  0  0  0  0
 11 14  1  0  0  0  0
  9 10  1  0  0  0  0
  9 11  1  0  0  0  0
  9 24  1  0  0  0  0
  7  8  1  0  0  0  0
  7  9  1  0  0  0  0
 28 29  1  0  0  0  0
 28 30  1  0  0  0  0
 28 31  1  0  0  0  0
 26 27  1  0  0  0  0
 26 28  1  0  0  0  0
M  END
$$$$
default_name
  -OEChem-01062215323D

 31 30  0     1  0  0  0  0  0999 V2000
   -3.5895   -3.5013    1.1082 H   0  0  0  0  0  0  0  0  0  0  0  0
   -3.5145   -2.5363    0.6082 C   0  0  0  0  0  0  0  0  0  0  0  0
   -4.2285   -1.8413    1.0452 H   0  0  0  0  0  0  0  0  0  0  0  0
   -3.7155   -2.6583   -0.4538 H   0  0  0  0  0  0  0  0  0  0  0  0
   -2.1155   -1.9963    0.7922 C   0  0  0  0  0  0  0  0  0  0  0  0
   -1.2875   -2.6383    1.4252 O   0  0  0  0  0  0  0  0  0  0  0  0
   -1.8575   -0.8123    0.2402 N   0  0  0  0  0  0  0  0  0  0  0  0
   -2.6005   -0.3333   -0.2478 H   0  0  0  0  0  0  0  0  0  0  0  0
   -0.5675   -0.1203    0.3102 C   0  0  1  0  0  0  0  0  0  0  0  0
    0.2222   -0.8517    0.1347 H   0  0  0  0  0  0  0  0  0  0  0  0
   -0.5204    0.9450   -0.8052 C   0  0  0  0  0  0  0  0  0  0  0  0
   -1.3775    1.6109   -0.6876 H   0  0  0  0  0  0  0  0  0  0  0  0
    0.3836    1.5415   -0.6640 H   0  0  0  0  0  0  0  0  0  0  0  0
   -0.5178    0.4050   -2.2471 C   0  0  0  0  0  0  0  0  0  0  0  0
   -1.3531   -0.2815   -2.3846 H   0  0  0  0  0  0  0  0  0  0  0  0
   -0.6183    1.5260   -3.2857 C   0  0  0  0  0  0  0  0  0  0  0  0
    0.2030    2.2311   -3.1505 H   0  0  0  0  0  0  0  0  0  0  0  0
   -0.5635    1.1029   -4.2890 H   0  0  0  0  0  0  0  0  0  0  0  0
   -1.5625    2.0572   -3.1874 H   0  0  0  0  0  0  0  0  0  0  0  0
    0.7759   -0.3658   -2.5074 C   0  0  0  0  0  0  0  0  0  0  0  0
    0.8588   -1.1919   -1.8012 H   0  0  0  0  0  0  0  0  0  0  0  0
    0.7680   -0.7726   -3.5186 H   0  0  0  0  0  0  0  0  0  0  0  0
    1.6362    0.2943   -2.3917 H   0  0  0  0  0  0  0  0  0  0  0  0
   -0.3639    0.4839    1.7100 C   0  0  0  0  0  0  0  0  0  0  0  0
    0.7682    0.5976    2.1743 O   0  0  0  0  0  0  0  0  0  0  0  0
   -1.4595    0.8596    2.3825 N   0  0  0  0  0  0  0  0  0  0  0  0
   -2.3528    0.7400    1.9322 H   0  0  0  0  0  0  0  0  0  0  0  0
   -1.4352    1.4335    3.7259 C   0  0  0  0  0  0  0  0  0  0  0  0
   -0.8356    2.3465    3.7261 H   0  0  0  0  0  0  0  0  0  0  0  0
   -2.4483    1.6688    4.0555 H   0  0  0  0  0  0  0  0  0  0  0  0
   -0.9852    0.7236    4.4218 H   0  0  0  0  0  0  0  0  0  0  0  0
  5  6  2  0  0  0  0
  5  7  1  0  0  0  0
  2  3  1  0  0  0  0
  2  4  1  0  0  0  0
  2  5  1  0  0  0  0
  1  2  1  0  0  0  0
 24 25  2  0  0  0  0
 24 26  1  0  0  0  0
 20 21  1  0  0  0  0
 20 22  1  0  0  0  0
 20 23  1  0  0  0  0
 16 17  1  0  0  0  0
 16 18  1  0  0  0  0
 16 19  1  0  0  0  0
 14 15  1  0  0  0  0
 14 16  1  0  0  0  0
 14 20  1  0  0  0  0
 11 12  1  0  0  0  0
 11 13  1  0  0  0  0
 11 14  1  0  0  0  0
  9 10  1  0  0  0  0
  9 11  1  0  0  0  0
  9 24  1  0  0  0  0
  7  8  1  0  0  0  0
  7  9  1  0  0  0  0
 28 29  1  0  0  0  0
 28 30  1  0  0  0  0
 28 31  1  0  0  0  0
 26 27  1  0  0  0  0
 26 28  1  0  0  0  0
M  END
$$$$
default_name
  -OEChem-01062215323D

 31 30  0     1  0  0  0  0  0999 V2000
   -3.5895   -3.5013    1.1082 H   0  0  0  0  0  0  0  0  0  0  0  0
   -3.5145   -2.5363    0.6082 C   0  0  0  0  0  0  0  0  0  0  0  0
   -4.2285   -1.8413    1.0452 H   0  0  0  0  0  0  0  0  0  0  0  0
   -3.7155   -2.6583   -0.4538 H   0  0  0  0  0  0  0  0  0  0  0  0
   -2.1155   -1.9963    0.7922 C   0  0  0  0  0  0  0  0  0  0  0  0
   -1.2875   -2.6383    1.4252 O   0  0  0  0  0  0  0  0  0  0  0  0
   -1.8575   -0.8123    0.2402 N   0  0  0  0  0  0  0  0  0  0  0  0
   -2.6005   -0.3333   -0.2478 H   0  0  0  0  0  0  0  0  0  0  0  0
   -0.5675   -0.1203    0.3102 C   0  0  1  0  0  0  0  0  0  0  0  0
    0.2222   -0.8517    0.1347 H   0  0  0  0  0  0  0  0  0  0  0  0
   -0.5204    0.9450   -0.8052 C   0  0  0  0  0  0  0  0  0  0  0  0
   -1.3775    1.6109   -0.6876 H   0  0  0  0  0  0  0  0  0  0  0  0
    0.3836    1.5415   -0.6640 H   0  0  0  0  0  0  0  0  0  0  0  0
   -0.5178    0.4050   -2.2471 C   0  0  0  0  0  0  0  0  0  0  0  0
   -1.3531   -0.2815   -2.3846 H   0  0  0  0  0  0  0  0  0  0  0  0
   -0.6183    1.5260   -3.2857 C   0  0  0  0  0  0  0  0  0  0  0  0
    0.2030    2.2311   -3.1505 H   0  0  0  0  0  0  0  0  0  0  0  0
   -0.5635    1.1029   -4.2890 H   0  0  0  0  0  0  0  0  0  0  0  0
   -1.5625    2.0572   -3.1874 H   0  0  0  0  0  0  0  0  0  0  0  0
    0.7759   -0.3658   -2.5074 C   0  0  0  0  0  0  0  0  0  0  0  0
    0.8588   -1.1919   -1.8012 H   0  0  0  0  0  0  0  0  0  0  0  0
    0.7680   -0.7726   -3.5186 H   0  0  0  0  0  0  0  0  0  0  0  0
    1.6362    0.2943   -2.3917 H   0  0  0  0  0  0  0  0  0  0  0  0
   -0.3639    0.4839    1.7100 C   0  0  0  0  0  0  0  0  0  0  0  0
    0.7528    0.8527    2.0665 O   0  0  0  0  0  0  0  0  0  0  0  0
   -1.4395    0.5739    2.5029 N   0  0  0  0  0  0  0  0  0  0  0  0
   -2.3226    0.2557    2.1368 H   0  0  0  0  0  0  0  0  0  0  0  0
   -1.4081    1.1074    3.8627 C   0  0  0  0  0  0  0  0  0  0  0  0
   -1.0420    2.1364    3.8468 H   0  0  0  0  0  0  0  0  0  0  0  0
   -2.4075    1.0883    4.3002 H   0  0  0  0  0  0  0  0  0  0  0  0
   -0.7336    0.5094    4.4776 H   0  0  0  0  0  0  0  0  0  0  0  0
  5  6  2  0  0  0  0
  5  7  1  0  0  0  0
  2  3  1  0  0  0  0
  2  4  1  0  0  0  0
  2  5  1  0  0  0  0
  1  2  1  0  0  0  0
 24 25  2  0  0  0  0
 24 26  1  0  0  0  0
 20 21  1  0  0  0  0
 20 22  1  0  0  0  0
 20 23  1  0  0  0  0
 16 17  1  0  0  0  0
 16 18  1  0  0  0  0
 16 19  1  0  0  0  0
 14 15  1  0  0  0  0
 14 16  1  0  0  0  0
 14 20  1  0  0  0  0
 11 12  1  0  0  0  0
 11 13  1  0  0  0  0
 11 14  1  0  0  0  0
  9 10  1  0  0  0  0
  9 11  1  0  0  0  0
  9 24  1  0  0  0  0
  7  8  1  0  0  0  0
  7  9  1  0  0  0  0
 28 29  1  0  0  0  0
 28 30  1  0  0  0  0
 28 31  1  0  0  0  0
 26 27  1  0  0  0  0
 26 28  1  0  0  0  0
M  END
$$$$
default_name
  -OEChem-01062215323D

 31 30  0     1  0  0  0  0  0999 V2000
   -3.5895   -3.5013    1.1082 H   0  0  0  0  0  0  0  0  0  0  0  0
   -3.5145   -2.5363    0.6082 C   0  0  0  0  0  0  0  0  0  0  0  0
   -4.2285   -1.8413    1.0452 H   0  0  0  0  0  0  0  0  0  0  0  0
   -3.7155   -2.6583   -0.4538 H   0  0  0  0  0  0  0  0  0  0  0  0
   -2.1155   -1.9963    0.7922 C   0  0  0  0  0  0  0  0  0  0  0  0
   -1.2875   -2.6383    1.4252 O   0  0  0  0  0  0  0  0  0  0  0  0
   -1.8575   -0.8123    0.2402 N   0  0  0  0  0  0  0  0  0  0  0  0
   -2.6005   -0.3333   -0.2478 H   0  0  0  0  0  0  0  0  0  0  0  0
   -0.5675   -0.1203    0.3102 C   0  0  1  0  0  0  0  0  0  0  0  0
    0.2222   -0.8517    0.1347 H   0  0  0  0  0  0  0  0  0  0  0  0
   -0.5204    0.9450   -0.8052 C   0  0  0  0  0  0  0  0  0  0  0  0
   -1.3775    1.6109   -0.6876 H   0  0  0  0  0  0  0  0  0  0  0  0
    0.3836    1.5415   -0.6640 H   0  0  0  0  0  0  0  0  0  0  0  0
   -0.5178    0.4050   -2.2471 C   0  0  0  0  0  0  0  0  0  0  0  0
   -1.3531   -0.2815   -2.3846 H   0  0  0  0  0  0  0  0  0  0  0  0
   -0.6183    1.5260   -3.2857 C   0  0  0  0  0  0  0  0  0  0  0  0
    0.2030    2.2311   -3.1505 H   0  0  0  0  0  0  0  0  0  0  0  0
   -0.5635    1.1029   -4.2890 H   0  0  0  0  0  0  0  0  0  0  0  0
   -1.5625    2.0572   -3.1874 H   0  0  0  0  0  0  0  0  0  0  0  0
    0.7759   -0.3658   -2.5074 C   0  0  0  0  0  0  0  0  0  0  0  0
    0.8588   -1.1919   -1.8012 H   0  0  0  0  0  0  0  0  0  0  0  0
    0.7680   -0.7726   -3.5186 H   0  0  0  0  0  0  0  0  0  0  0  0
    1.6362    0.2943   -2.3917 H   0  0  0  0  0  0  0  0  0  0  0  0
   -0.3639    0.4839    1.7100 C   0  0  0  0  0  0  0  0  0  0  0  0
    0.6669    1.0992    1.9726 O   0  0  0  0  0  0  0  0  0  0  0  0
   -1.3407    0.2985    2.6074 N   0  0  0  0  0  0  0  0  0  0  0  0
   -2.1585   -0.2119    2.3148 H   0  0  0  0  0  0  0  0  0  0  0  0
   -1.2913    0.7941    3.9810 C   0  0  0  0  0  0  0  0  0  0  0  0
   -1.1796    1.8807    3.9772 H   0  0  0  0  0  0  0  0  0  0  0  0
   -2.2064    0.5287    4.5124 H   0  0  0  0  0  0  0  0  0  0  0  0
   -0.4345    0.3598    4.4987 H   0  0  0  0  0  0  0  0  0  0  0  0
  5  6  2  0  0  0  0
  5  7  1  0  0  0  0
  2  3  1  0  0  0  0
  2  4  1  0  0  0  0
  2  5  1  0  0  0  0
  1  2  1  0  0  0  0
 24 25  2  0  0  0  0
 24 26  1  0  0  0  0
 20 21  1  0  0  0  0
 20 22  1  0  0  0  0
 20 23  1  0  0  0  0
 16 17  1  0  0  0  0
 16 18  1  0  0  0  0
 16 19  1  0  0  0  0
 14 15  1  0  0  0  0
 14 16  1  0  0  0  0
 14 20  1  0  0  0  0
 11 12  1  0  0  0  0
 11 13  1  0  0  0  0
 11 14  1  0  0  0  0
  9 10  1  0  0  0  0
  9 11  1  0  0  0  0
  9 24  1  0  0  0  0
  7  8  1  0  0  0  0
  7  9  1  0  0  0  0
 28 29  1  0  0  0  0
 28 30  1  0  0  0  0
 28 31  1  0  0  0  0
 26 27  1  0  0  0  0
 26 28  1  0  0  0  0
M  END
$$$$
default_name
  -OEChem-01062215323D

 31 30  0     1  0  0  0  0  0999 V2000
   -3.5895   -3.5013    1.1082 H   0  0  0  0  0  0  0  0  0  0  0  0
   -3.5145   -2.5363    0.6082 C   0  0  0  0  0  0  0  0  0  0  0  0
   -4.2285   -1.8413    1.0452 H   0  0  0  0  0  0  0  0  0  0  0  0
   -3.7155   -2.6583   -0.4538 H   0  0  0  0  0  0  0  0  0  0  0  0
   -2.1155   -1.9963    0.7922 C   0  0  0  0  0  0  0  0  0  0  0  0
   -1.2875   -2.6383    1.4252 O   0  0  0  0  0  0  0  0  0  0  0  0
   -1.8575   -0.8123    0.2402 N   0  0  0  0  0  0  0  0  0  0  0  0
   -2.6005   -0.3333   -0.2478 H   0  0  0  0  0  0  0  0  0  0  0  0
   -0.5675   -0.1203    0.3102 C   0  0  1  0  0  0  0  0  0  0  0  0
    0.2222   -0.8517    0.1347 H   0  0  0  0  0  0  0  0  0  0  0  0
   -0.5204    0.9450   -0.8052 C   0  0  0  0  0  0  0  0  0  0  0  0
   -1.3775    1.6109   -0.6876 H   0  0  0  0  0  0  0  0  0  0  0  0
    0.3836    1.5415   -0.6640 H   0  0  0  0  0  0  0  0  0  0  0  0
   -0.5178    0.4050   -2.2471 C   0  0  0  0  0  0  0  0  0  0  0  0
   -1.3531   -0.2815   -2.3846 H   0  0  0  0  0  0  0  0  0  0  0  0
   -0.6183    1.5260   -3.2857 C   0  0  0  0  0  0  0  0  0  0  0  0
    0.2030    2.2311   -3.1505 H   0  0  0  0  0  0  0  0  0  0  0  0
   -0.5635    1.1029   -4.2890 H   0  0  0  0  0  0  0  0  0  0  0  0
   -1.5625    2.0572   -3.1874 H   0  0  0  0  0  0  0  0  0  0  0  0
    0.7759   -0.3658   -2.5074 C   0  0  0  0  0  0  0  0  0  0  0  0
    0.8588   -1.1919   -1.8012 H   0  0  0  0  0  0  0  0  0  0  0  0
    0.7680   -0.7726   -3.5186 H   0  0  0  0  0  0  0  0  0  0  0  0
    1.6362    0.2943   -2.3917 H   0  0  0  0  0  0  0  0  0  0  0  0
   -0.3639    0.4839    1.7100 C   0  0  0  0  0  0  0  0  0  0  0  0
    0.5163    1.3203    1.8991 O   0  0  0  0  0  0  0  0  0  0  0  0
   -1.1698    0.0523    2.6888 N   0  0  0  0  0  0  0  0  0  0  0  0
   -1.8718   -0.6311    2.4540 H   0  0  0  0  0  0  0  0  0  0  0  0
   -1.0926    0.5150    4.0725 C   0  0  0  0  0  0  0  0  0  0  0  0
   -1.2391    1.5968    4.1083 H   0  0  0  0  0  0  0  0  0  0  0  0
   -1.8589    0.0283    4.6778 H   0  0  0  0  0  0  0  0  0  0  0  0
   -0.1082    0.2851    4.4835 H   0  0  0  0  0  0  0  0  0  0  0  0
  5  6  2  0  0  0  0
  5  7  1  0  0  0  0
  2  3  1  0  0  0  0
  2  4  1  0  0  0  0
  2  5  1  0  0  0  0
  1  2  1  0  0  0  0
 24 25  2  0  0  0  0
 24 26  1  0  0  0  0
 20 21  1  0  0  0  0
 20 22  1  0  0  0  0
 20 23  1  0  0  0  0
 16 17  1  0  0  0  0
 16 18  1  0  0  0  0
 16 19  1  0  0  0  0
 14 15  1  0  0  0  0
 14 16  1  0  0  0  0
 14 20  1  0  0  0  0
 11 12  1  0  0  0  0
 11 13  1  0  0  0  0
 11 14  1  0  0  0  0
  9 10  1  0  0  0  0
  9 11  1  0  0  0  0
  9 24  1  0  0  0  0
  7  8  1  0  0  0  0
  7  9  1  0  0  0  0
 28 29  1  0  0  0  0
 28 30  1  0  0  0  0
 28 31  1  0  0  0  0
 26 27  1  0  0  0  0
 26 28  1  0  0  0  0
M  END
$$$$
default_name
  -OEChem-01062215323D

 31 30  0     1  0  0  0  0  0999 V2000
   -3.5895   -3.5013    1.1082 H   0  0  0  0  0  0  0  0  0  0  0  0
   -3.5145   -2.5363    0.6082 C   0  0  0  0  0  0  0  0  0  0  0  0
   -4.2285   -1.8413    1.0452 H   0  0  0  0  0  0  0  0  0  0  0  0
   -3.7155   -2.6583   -0.4538 H   0  0  0  0  0  0  0  0  0  0  0  0
   -2.1155   -1.9963    0.7922 C   0  0  0  0  0  0  0  0  0  0  0  0
   -1.2875   -2.6383    1.4252 O   0  0  0  0  0  0  0  0  0  0  0  0
   -1.8575   -0.8123    0.2402 N   0  0  0  0  0  0  0  0  0  0  0  0
   -2.6005   -0.3333   -0.2478 H   0  0  0  0  0  0  0  0  0  0  0  0
   -0.5675   -0.1203    0.3102 C   0  0  1  0  0  0  0  0  0  0  0  0
    0.2222   -0.8517    0.1347 H   0  0  0  0  0  0  0  0  0  0  0  0
   -0.5204    0.9450   -0.8052 C   0  0  0  0  0  0  0  0  0  0  0  0
   -1.3775    1.6109   -0.6876 H   0  0  0  0  0  0  0  0  0  0  0  0
    0.3836    1.5415   -0.6640 H   0  0  0  0  0  0  0  0  0  0  0  0
   -0.5178    0.4050   -2.2471 C   0  0  0  0  0  0  0  0  0  0  0  0
   -1.3531   -0.2815   -2.3846 H   0  0  0  0  0  0  0  0  0  0  0  0
   -0.6183    1.5260   -3.2857 C   0  0  0  0  0  0  0  0  0  0  0  0
    0.2030    2.2311   -3.1505 H   0  0  0  0  0  0  0  0  0  0  0  0
   -0.5635    1.1029   -4.2890 H   0  0  0  0  0  0  0  0  0  0  0  0
   -1.5625    2.0572   -3.1874 H   0  0  0  0  0  0  0  0  0  0  0  0
    0.7759   -0.3658   -2.5074 C   0  0  0  0  0  0  0  0  0  0  0  0
    0.8588   -1.1919   -1.8012 H   0  0  0  0  0  0  0  0  0  0  0  0
    0.7680   -0.7726   -3.5186 H   0  0  0  0  0  0  0  0  0  0  0  0
    1.6362    0.2943   -2.3917 H   0  0  0  0  0  0  0  0  0  0  0  0
   -0.3639    0.4839    1.7100 C   0  0  0  0  0  0  0  0  0  0  0  0
    0.3113    1.5009    1.8509 O   0  0  0  0  0  0  0  0  0  0  0  0
   -0.9384   -0.1482    2.7417 N   0  0  0  0  0  0  0  0  0  0  0  0
   -1.4820   -0.9733    2.5450 H   0  0  0  0  0  0  0  0  0  0  0  0
   -0.8256    0.2890    4.1312 C   0  0  0  0  0  0  0  0  0  0  0  0
   -1.2163    1.3041    4.2314 H   0  0  0  0  0  0  0  0  0  0  0  0
   -1.3884   -0.3789    4.7851 H   0  0  0  0  0  0  0  0  0  0  0  0
    0.2230    0.2903    4.4331 H   0  0  0  0  0  0  0  0  0  0  0  0
  5  6  2  0  0  0  0
  5  7  1  0  0  0  0
  2  3  1  0  0  0  0
  2  4  1  0  0  0  0
  2  5  1  0  0  0  0
  1  2  1  0  0  0  0
 24 25  2  0  0  0  0
 24 26  1  0  0  0  0
 20 21  1  0  0  0  0
 20 22  1  0  0  0  0
 20 23  1  0  0  0  0
 16 17  1  0  0  0  0
 16 18  1  0  0  0  0
 16 19  1  0  0  0  0
 14 15  1  0  0  0  0
 14 16  1  0  0  0  0
 14 20  1  0  0  0  0
 11 12  1  0  0  0  0
 11 13  1  0  0  0  0
 11 14  1  0  0  0  0
  9 10  1  0  0  0  0
  9 11  1  0  0  0  0
  9 24  1  0  0  0  0
  7  8  1  0  0  0  0
  7  9  1  0  0  0  0
 28 29  1  0  0  0  0
 28 30  1  0  0  0  0
 28 31  1  0  0  0  0
 26 27  1  0  0  0  0
 26 28  1  0  0  0  0
M  END
$$$$
default_name
  -OEChem-01062215323D

 31 30  0     1  0  0  0  0  0999 V2000
   -3.5895   -3.5013    1.1082 H   0  0  0  0  0  0  0  0  0  0  0  0
   -3.5145   -2.5363    0.6082 C   0  0  0  0  0  0  0  0  0  0  0  0
   -4.2285   -1.8413    1.0452 H   0  0  0  0  0  0  0  0  0  0  0  0
   -3.7155   -2.6583   -0.4538 H   0  0  0  0  0  0  0  0  0  0  0  0
   -2.1155   -1.9963    0.7922 C   0  0  0  0  0  0  0  0  0  0  0  0
   -1.2875   -2.6383    1.4252 O   0  0  0  0  0  0  0  0  0  0  0  0
   -1.8575   -0.8123    0.2402 N   0  0  0  0  0  0  0  0  0  0  0  0
   -2.6005   -0.3333   -0.2478 H   0  0  0  0  0  0  0  0  0  0  0  0
   -0.5675   -0.1203    0.3102 C   0  0  1  0  0  0  0  0  0  0  0  0
    0.2222   -0.8517    0.1347 H   0  0  0  0  0  0  0  0  0  0  0  0
   -0.5204    0.9450   -0.8052 C   0  0  0  0  0  0  0  0  0  0  0  0
   -1.3775    1.6109   -0.6876 H   0  0  0  0  0  0  0  0  0  0  0  0
    0.3836    1.5415   -0.6640 H   0  0  0  0  0  0  0  0  0  0  0  0
   -0.5178    0.4050   -2.2471 C   0  0  0  0  0  0  0  0  0  0  0  0
   -1.3531   -0.2815   -2.3846 H   0  0  0  0  0  0  0  0  0  0  0  0
   -0.6183    1.5260   -3.2857 C   0  0  0  0  0  0  0  0  0  0  0  0
    0.2030    2.2311   -3.1505 H   0  0  0  0  0  0  0  0  0  0  0  0
   -0.5635    1.1029   -4.2890 H   0  0  0  0  0  0  0  0  0  0  0  0
   -1.5625    2.0572   -3.1874 H   0  0  0  0  0  0  0  0  0  0  0  0
    0.7759   -0.3658   -2.5074 C   0  0  0  0  0  0  0  0  0  0  0  0
    0.8588   -1.1919   -1.8012 H   0  0  0  0  0  0  0  0  0  0  0  0
    0.7680   -0.7726   -3.5186 H   0  0  0  0  0  0  0  0  0  0  0  0
    1.6362    0.2943   -2.3917 H   0  0  0  0  0  0  0  0  0  0  0  0
   -0.3639    0.4839    1.7100 C   0  0  0  0  0  0  0  0  0  0  0  0
    0.0658    1.6287    1.8314 O   0  0  0  0  0  0  0  0  0  0  0  0
   -0.6623   -0.2891    2.7623 N   0  0  0  0  0  0  0  0  0  0  0  0
   -1.0156   -1.2150    2.5815 H   0  0  0  0  0  0  0  0  0  0  0  0
   -0.5085    0.1316    4.1531 C   0  0  0  0  0  0  0  0  0  0  0  0
   -1.1129    1.0225    4.3378 H   0  0  0  0  0  0  0  0  0  0  0  0
   -0.8272   -0.6650    4.8270 H   0  0  0  0  0  0  0  0  0  0  0  0
    0.5366    0.3750    4.3509 H   0  0  0  0  0  0  0  0  0  0  0  0
  5  6  2  0  0  0  0
  5  7  1  0  0  0  0
  2  3  1  0  0  0  0
  2  4  1  0  0  0  0
  2  5  1  0  0  0  0
  1  2  1  0  0  0  0
 24 25  2  0  0  0  0
 24 26  1  0  0  0  0
 20 21  1  0  0  0  0
 20 22  1  0  0  0  0
 20 23  1  0  0  0  0
 16 17  1  0  0  0  0
 16 18  1  0  0  0  0
 16 19  1  0  0  0  0
 14 15  1  0  0  0  0
 14 16  1  0  0  0  0
 14 20  1  0  0  0  0
 11 12  1  0  0  0  0
 11 13  1  0  0  0  0
 11 14  1  0  0  0  0
  9 10  1  0  0  0  0
  9 11  1  0  0  0  0
  9 24  1  0  0  0  0
  7  8  1  0  0  0  0
  7  9  1  0  0  0  0
 28 29  1  0  0  0  0
 28 30  1  0  0  0  0
 28 31  1  0  0  0  0
 26 27  1  0  0  0  0
 26 28  1  0  0  0  0
M  END
$$$$
default_name
  -OEChem-01062215323D

 31 30  0     1  0  0  0  0  0999 V2000
   -3.5895   -3.5013    1.1082 H   0  0  0  0  0  0  0  0  0  0  0  0
   -3.5145   -2.5363    0.6082 C   0  0  0  0  0  0  0  0  0  0  0  0
   -4.2285   -1.8413    1.0452 H   0  0  0  0  0  0  0  0  0  0  0  0
   -3.7155   -2.6583   -0.4538 H   0  0  0  0  0  0  0  0  0  0  0  0
   -2.1155   -1.9963    0.7922 C   0  0  0  0  0  0  0  0  0  0  0  0
   -1.2875   -2.6383    1.4252 O   0  0  0  0  0  0  0  0  0  0  0  0
   -1.8575   -0.8123    0.2402 N   0  0  0  0  0  0  0  0  0  0  0  0
   -2.6005   -0.3333   -0.2478 H   0  0  0  0  0  0  0  0  0  0  0  0
   -0.5675   -0.1203    0.3102 C   0  0  1  0  0  0  0  0  0  0  0  0
    0.2222   -0.8517    0.1347 H   0  0  0  0  0  0  0  0  0  0  0  0
   -0.5204    0.9450   -0.8052 C   0  0  0  0  0  0  0  0  0  0  0  0
   -1.3775    1.6109   -0.6876 H   0  0  0  0  0  0  0  0  0  0  0  0
    0.3836    1.5415   -0.6640 H   0  0  0  0  0  0  0  0  0  0  0  0
   -0.5178    0.4050   -2.2471 C   0  0  0  0  0  0  0  0  0  0  0  0
   -1.3531   -0.2815   -2.3846 H   0  0  0  0  0  0  0  0  0  0  0  0
   -0.6183    1.5260   -3.2857 C   0  0  0  0  0  0  0  0  0  0  0  0
    0.2030    2.2311   -3.1505 H   0  0  0  0  0  0  0  0  0  0  0  0
   -0.5635    1.1029   -4.2890 H   0  0  0  0  0  0  0  0  0  0  0  0
   -1.5625    2.0572   -3.1874 H   0  0  0  0  0  0  0  0  0  0  0  0
    0.7759   -0.3658   -2.5074 C   0  0  0  0  0  0  0  0  0  0  0  0
    0.8588   -1.1919   -1.8012 H   0  0  0  0  0  0  0  0  0  0  0  0
    0.7680   -0.7726   -3.5186 H   0  0  0  0  0  0  0  0  0  0  0  0
    1.6362    0.2943   -2.3917 H   0  0  0  0  0  0  0  0  0  0  0  0
   -0.3639    0.4839    1.7100 C   0  0  0  0  0  0  0  0  0  0  0  0
   -0.2033    1.6950    1.8420 O   0  0  0  0  0  0  0  0  0  0  0  0
   -0.3604   -0.3608    2.7494 N   0  0  0  0  0  0  0  0  0  0  0  0
   -0.5045   -1.3400    2.5611 H   0  0  0  0  0  0  0  0  0  0  0  0
   -0.1629    0.0535    4.1365 C   0  0  0  0  0  0  0  0  0  0  0  0
   -0.9358    0.7713    4.4205 H   0  0  0  0  0  0  0  0  0  0  0  0
   -0.2135   -0.8107    4.8007 H   0  0  0  0  0  0  0  0  0  0  0  0
    0.8112    0.5336    4.2426 H   0  0  0  0  0  0  0  0  0  0  0  0
  5  6  2  0  0  0  0
  5  7  1  0  0  0  0
  2  3  1  0  0  0  0
  2  4  1  0  0  0  0
  2  5  1  0  0  0  0
  1  2  1  0  0  0  0
 24 25  2  0  0  0  0
 24 26  1  0  0  0  0
 20 21  1  0  0  0  0
 20 22  1  0  0  0  0
 20 23  1  0  0  0  0
 16 17  1  0  0  0  0
 16 18  1  0  0  0  0
 16 19  1  0  0  0  0
 14 15  1  0  0  0  0
 14 16  1  0  0  0  0
 14 20  1  0  0  0  0
 11 12  1  0  0  0  0
 11 13  1  0  0  0  0
 11 14  1  0  0  0  0
  9 10  1  0  0  0  0
  9 11  1  0  0  0  0
  9 24  1  0  0  0  0
  7  8  1  0  0  0  0
  7  9  1  0  0  0  0
 28 29  1  0  0  0  0
 28 30  1  0  0  0  0
 28 31  1  0  0  0  0
 26 27  1  0  0  0  0
 26 28  1  0  0  0  0
M  END
$$$$
default_name
  -OEChem-01062215323D

 31 30  0     1  0  0  0  0  0999 V2000
   -3.5895   -3.5013    1.1082 H   0  0  0  0  0  0  0  0  0  0  0  0
   -3.5145   -2.5363    0.6082 C   0  0  0  0  0  0  0  0  0  0  0  0
   -4.2285   -1.8413    1.0452 H   0  0  0  0  0  0  0  0  0  0  0  0
   -3.7155   -2.6583   -0.4538 H   0  0  0  0  0  0  0  0  0  0  0  0
   -2.1155   -1.9963    0.7922 C   0  0  0  0  0  0  0  0  0  0  0  0
   -1.2875   -2.6383    1.4252 O   0  0  0  0  0  0  0  0  0  0  0  0
   -1.8575   -0.8123    0.2402 N   0  0  0  0  0  0  0  0  0  0  0  0
   -2.6005   -0.3333   -0.2478 H   0  0  0  0  0  0  0  0  0  0  0  0
   -0.5675   -0.1203    0.3102 C   0  0  1  0  0  0  0  0  0  0  0  0
    0.2222   -0.8517    0.1347 H   0  0  0  0  0  0  0  0  0  0  0  0
   -0.5204    0.9450   -0.8052 C   0  0  0  0  0  0  0  0  0  0  0  0
   -1.3775    1.6109   -0.6876 H   0  0  0  0  0  0  0  0  0  0  0  0
    0.3836    1.5415   -0.6640 H   0  0  0  0  0  0  0  0  0  0  0  0
   -0.5178    0.4050   -2.2471 C   0  0  0  0  0  0  0  0  0  0  0  0
   -1.3531   -0.2815   -2.3846 H   0  0  0  0  0  0  0  0  0  0  0  0
   -0.6183    1.5260   -3.2857 C   0  0  0  0  0  0  0  0  0  0  0  0
    0.2030    2.2311   -3.1505 H   0  0  0  0  0  0  0  0  0  0  0  0
   -0.5635    1.1029   -4.2890 H   0  0  0  0  0  0  0  0  0  0  0  0
   -1.5625    2.0572   -3.1874 H   0  0  0  0  0  0  0  0  0  0  0  0
    0.7759   -0.3658   -2.5074 C   0  0  0  0  0  0  0  0  0  0  0  0
    0.8588   -1.1919   -1.8012 H   0  0  0  0  0  0  0  0  0  0  0  0
    0.7680   -0.7726   -3.5186 H   0  0  0  0  0  0  0  0  0  0  0  0
    1.6362    0.2943   -2.3917 H   0  0  0  0  0  0  0  0  0  0  0  0
   -0.3639    0.4839    1.7100 C   0  0  0  0  0  0  0  0  0  0  0  0
   -0.4779    1.6953    1.8818 O   0  0  0  0  0  0  0  0  0  0  0  0
   -0.0531   -0.3586    2.7037 N   0  0  0  0  0  0  0  0  0  0  0  0
    0.0166   -1.3396    2.4852 H   0  0  0  0  0  0  0  0  0  0  0  0
    0.1876    0.0600    4.0827 C   0  0  0  0  0  0  0  0  0  0  0  0
   -0.6972    0.5674    4.4738 H   0  0  0  0  0  0  0  0  0  0  0  0
    0.4109   -0.8059    4.7078 H   0  0  0  0  0  0  0  0  0  0  0  0
    1.0281    0.7551    4.1154 H   0  0  0  0  0  0  0  0  0  0  0  0
  5  6  2  0  0  0  0
  5  7  1  0  0  0  0
  2  3  1  0  0  0  0
  2  4  1  0  0  0  0
  2  5  1  0  0  0  0
  1  2  1  0  0  0  0
 24 25  2  0  0  0  0
 24 26  1  0  0  0  0
 20 21  1  0  0  0  0
 20 22  1  0  0  0  0
 20 23  1  0  0  0  0
 16 17  1  0  0  0  0
 16 18  1  0  0  0  0
 16 19  1  0  0  0  0
 14 15  1  0  0  0  0
 14 16  1  0  0  0  0
 14 20  1  0  0  0  0
 11 12  1  0  0  0  0
 11 13  1  0  0  0  0
 11 14  1  0  0  0  0
  9 10  1  0  0  0  0
  9 11  1  0  0  0  0
  9 24  1  0  0  0  0
  7  8  1  0  0  0  0
  7  9  1  0  0  0  0
 28 29  1  0  0  0  0
 28 30  1  0  0  0  0
 28 31  1  0  0  0  0
 26 27  1  0  0  0  0
 26 28  1  0  0  0  0
M  END
$$$$
default_name
  -OEChem-01062215323D

 31 30  0     1  0  0  0  0  0999 V2000
   -3.5895   -3.5013    1.1082 H   0  0  0  0  0  0  0  0  0  0  0  0
   -3.5145   -2.5363    0.6082 C   0  0  0  0  0  0  0  0  0  0  0  0
   -4.2285   -1.8413    1.0452 H   0  0  0  0  0  0  0  0  0  0  0  0
   -3.7155   -2.6583   -0.4538 H   0  0  0  0  0  0  0  0  0  0  0  0
   -2.1155   -1.9963    0.7922 C   0  0  0  0  0  0  0  0  0  0  0  0
   -1.2875   -2.6383    1.4252 O   0  0  0  0  0  0  0  0  0  0  0  0
   -1.8575   -0.8123    0.2402 N   0  0  0  0  0  0  0  0  0  0  0  0
   -2.6005   -0.3333   -0.2478 H   0  0  0  0  0  0  0  0  0  0  0  0
   -0.5675   -0.1203    0.3102 C   0  0  1  0  0  0  0  0  0  0  0  0
    0.2222   -0.8517    0.1347 H   0  0  0  0  0  0  0  0  0  0  0  0
   -0.5204    0.9450   -0.8052 C   0  0  0  0  0  0  0  0  0  0  0  0
   -1.3775    1.6109   -0.6876 H   0  0  0  0  0  0  0  0  0  0  0  0
    0.3836    1.5415   -0.6640 H   0  0  0  0  0  0  0  0  0  0  0  0
   -0.5178    0.4050   -2.2471 C   0  0  0  0  0  0  0  0  0  0  0  0
   -1.3531   -0.2815   -2.3846 H   0  0  0  0  0  0  0  0  0  0  0  0
   -0.6183    1.5260   -3.2857 C   0  0  0  0  0  0  0  0  0  0  0  0
    0.2030    2.2311   -3.1505 H   0  0  0  0  0  0  0  0  0  0  0  0
   -0.5635    1.1029   -4.2890 H   0  0  0  0  0  0  0  0  0  0  0  0
   -1.5625    2.0572   -3.1874 H   0  0  0  0  0  0  0  0  0  0  0  0
    0.7759   -0.3658   -2.5074 C   0  0  0  0  0  0  0  0  0  0  0  0
    0.8588   -1.1919   -1.8012 H   0  0  0  0  0  0  0  0  0  0  0  0
    0.7680   -0.7726   -3.5186 H   0  0  0  0  0  0  0  0  0  0  0  0
    1.6362    0.2943   -2.3917 H   0  0  0  0  0  0  0  0  0  0  0  0
   -0.3639    0.4839    1.7100 C   0  0  0  0  0  0  0  0  0  0  0  0
   -0.7391    1.6296    1.9481 O   0  0  0  0  0  0  0  0  0  0  0  0
    0.2385   -0.2825    2.6285 N   0  0  0  0  0  0  0  0  0  0  0  0
    0.5121   -1.2138    2.3589 H   0  0  0  0  0  0  0  0  0  0  0  0
    0.5191    0.1508    3.9954 C   0  0  0  0  0  0  0  0  0  0  0  0
   -0.4133    0.4249    4.4940 H   0  0  0  0  0  0  0  0  0  0  0  0
    1.0036   -0.6510    4.5548 H   0  0  0  0  0  0  0  0  0  0  0  0
    1.1724    1.0245    3.9781 H   0  0  0  0  0  0  0  0  0  0  0  0
  5  6  2  0  0  0  0
  5  7  1  0  0  0  0
  2  3  1  0  0  0  0
  2  4  1  0  0  0  0
  2  5  1  0  0  0  0
  1  2  1  0  0  0  0
 24 25  2  0  0  0  0
 24 26  1  0  0  0  0
 20 21  1  0  0  0  0
 20 22  1  0  0  0  0
 20 23  1  0  0  0  0
 16 17  1  0  0  0  0
 16 18  1  0  0  0  0
 16 19  1  0  0  0  0
 14 15  1  0  0  0  0
 14 16  1  0  0  0  0
 14 20  1  0  0  0  0
 11 12  1  0  0  0  0
 11 13  1  0  0  0  0
 11 14  1  0  0  0  0
  9 10  1  0  0  0  0
  9 11  1  0  0  0  0
  9 24  1  0  0  0  0
  7  8  1  0  0  0  0
  7  9  1  0  0  0  0
 28 29  1  0  0  0  0
 28 30  1  0  0  0  0
 28 31  1  0  0  0  0
 26 27  1  0  0  0  0
 26 28  1  0  0  0  0
M  END
$$$$
default_name
  -OEChem-01062215323D

 31 30  0     1  0  0  0  0  0999 V2000
   -3.5895   -3.5013    1.1082 H   0  0  0  0  0  0  0  0  0  0  0  0
   -3.5145   -2.5363    0.6082 C   0  0  0  0  0  0  0  0  0  0  0  0
   -4.2285   -1.8413    1.0452 H   0  0  0  0  0  0  0  0  0  0  0  0
   -3.7155   -2.6583   -0.4538 H   0  0  0  0  0  0  0  0  0  0  0  0
   -2.1155   -1.9963    0.7922 C   0  0  0  0  0  0  0  0  0  0  0  0
   -1.2875   -2.6383    1.4252 O   0  0  0  0  0  0  0  0  0  0  0  0
   -1.8575   -0.8123    0.2402 N   0  0  0  0  0  0  0  0  0  0  0  0
   -2.6005   -0.3333   -0.2478 H   0  0  0  0  0  0  0  0  0  0  0  0
   -0.5675   -0.1203    0.3102 C   0  0  1  0  0  0  0  0  0  0  0  0
    0.2222   -0.8517    0.1347 H   0  0  0  0  0  0  0  0  0  0  0  0
   -0.5204    0.9450   -0.8052 C   0  0  0  0  0  0  0  0  0  0  0  0
   -1.3775    1.6109   -0.6876 H   0  0  0  0  0  0  0  0  0  0  0  0
    0.3836    1.5415   -0.6640 H   0  0  0  0  0  0  0  0  0  0  0  0
   -0.5178    0.4050   -2.2471 C   0  0  0  0  0  0  0  0  0  0  0  0
   -1.3531   -0.2815   -2.3846 H   0  0  0  0  0  0  0  0  0  0  0  0
   -0.6183    1.5260   -3.2857 C   0  0  0  0  0  0  0  0  0  0  0  0
    0.2030    2.2311   -3.1505 H   0  0  0  0  0  0  0  0  0  0  0  0
   -0.5635    1.1029   -4.2890 H   0  0  0  0  0  0  0  0  0  0  0  0
   -1.5625    2.0572   -3.1874 H   0  0  0  0  0  0  0  0  0  0  0  0
    0.7759   -0.3658   -2.5074 C   0  0  0  0  0  0  0  0  0  0  0  0
    0.8588   -1.1919   -1.8012 H   0  0  0  0  0  0  0  0  0  0  0  0
    0.7680   -0.7726   -3.5186 H   0  0  0  0  0  0  0  0  0  0  0  0
    1.6362    0.2943   -2.3917 H   0  0  0  0  0  0  0  0  0  0  0  0
   -0.3639    0.4839    1.7100 C   0  0  0  0  0  0  0  0  0  0  0  0
   -0.9692    1.5022    2.0365 O   0  0  0  0  0  0  0  0  0  0  0  0
    0.4947   -0.1377    2.5288 N   0  0  0  0  0  0  0  0  0  0  0  0
    0.9483   -0.9714    2.1908 H   0  0  0  0  0  0  0  0  0  0  0  0
    0.8091    0.3195    3.8804 C   0  0  0  0  0  0  0  0  0  0  0  0
   -0.1034    0.3534    4.4798 H   0  0  0  0  0  0  0  0  0  0  0  0
    1.5239   -0.3566    4.3520 H   0  0  0  0  0  0  0  0  0  0  0  0
    1.2345    1.3235    3.8401 H   0  0  0  0  0  0  0  0  0  0  0  0
  5  6  2  0  0  0  0
  5  7  1  0  0  0  0
  2  3  1  0  0  0  0
  2  4  1  0  0  0  0
  2  5  1  0  0  0  0
  1  2  1  0  0  0  0
 24 25  2  0  0  0  0
 24 26  1  0  0  0  0
 20 21  1  0  0  0  0
 20 22  1  0  0  0  0
 20 23  1  0  0  0  0
 16 17  1  0  0  0  0
 16 18  1  0  0  0  0
 16 19  1  0  0  0  0
 14 15  1  0  0  0  0
 14 16  1  0  0  0  0
 14 20  1  0  0  0  0
 11 12  1  0  0  0  0
 11 13  1  0  0  0  0
 11 14  1  0  0  0  0
  9 10  1  0  0  0  0
  9 11  1  0  0  0  0
  9 24  1  0  0  0  0
  7  8  1  0  0  0  0
  7  9  1  0  0  0  0
 28 29  1  0  0  0  0
 28 30  1  0  0  0  0
 28 31  1  0  0  0  0
 26 27  1  0  0  0  0
 26 28  1  0  0  0  0
M  END
$$$$
default_name
  -OEChem-01062215323D

 31 30  0     1  0  0  0  0  0999 V2000
   -3.5895   -3.5013    1.1082 H   0  0  0  0  0  0  0  0  0  0  0  0
   -3.5145   -2.5363    0.6082 C   0  0  0  0  0  0  0  0  0  0  0  0
   -4.2285   -1.8413    1.0452 H   0  0  0  0  0  0  0  0  0  0  0  0
   -3.7155   -2.6583   -0.4538 H   0  0  0  0  0  0  0  0  0  0  0  0
   -2.1155   -1.9963    0.7922 C   0  0  0  0  0  0  0  0  0  0  0  0
   -1.2875   -2.6383    1.4252 O   0  0  0  0  0  0  0  0  0  0  0  0
   -1.8575   -0.8123    0.2402 N   0  0  0  0  0  0  0  0  0  0  0  0
   -2.6005   -0.3333   -0.2478 H   0  0  0  0  0  0  0  0  0  0  0  0
   -0.5675   -0.1203    0.3102 C   0  0  1  0  0  0  0  0  0  0  0  0
    0.2222   -0.8517    0.1347 H   0  0  0  0  0  0  0  0  0  0  0  0
   -0.5204    0.9450   -0.8052 C   0  0  0  0  0  0  0  0  0  0  0  0
   -1.3775    1.6109   -0.6876 H   0  0  0  0  0  0  0  0  0  0  0  0
    0.3836    1.5415   -0.6640 H   0  0  0  0  0  0  0  0  0  0  0  0
   -0.5178    0.4050   -2.2471 C   0  0  0  0  0  0  0  0  0  0  0  0
   -1.3531   -0.2815   -2.3846 H   0  0  0  0  0  0  0  0  0  0  0  0
   -0.6183    1.5260   -3.2857 C   0  0  0  0  0  0  0  0  0  0  0  0
    0.2030    2.2311   -3.1505 H   0  0  0  0  0  0  0  0  0  0  0  0
   -0.5635    1.1029   -4.2890 H   0  0  0  0  0  0  0  0  0  0  0  0
   -1.5625    2.0572   -3.1874 H   0  0  0  0  0  0  0  0  0  0  0  0
    0.7759   -0.3658   -2.5074 C   0  0  0  0  0  0  0  0  0  0  0  0
    0.8588   -1.1919   -1.8012 H   0  0  0  0  0  0  0  0  0  0  0  0
    0.7680   -0.7726   -3.5186 H   0  0  0  0  0  0  0  0  0  0  0  0
    1.6362    0.2943   -2.3917 H   0  0  0  0  0  0  0  0  0  0  0  0
   -0.3639    0.4839    1.7100 C   0  0  0  0  0  0  0  0  0  0  0  0
   -1.1525    1.3220    2.1410 O   0  0  0  0  0  0  0  0  0  0  0  0
    0.6978    0.0659    2.4113 N   0  0  0  0  0  0  0  0  0  0  0  0
    1.2954   -0.6286    1.9924 H   0  0  0  0  0  0  0  0  0  0  0  0
    1.0378    0.5547    3.7456 C   0  0  0  0  0  0  0  0  0  0  0  0
    0.2113    0.3579    4.4321 H   0  0  0  0  0  0  0  0  0  0  0  0
    1.9366    0.0573    4.1134 H   0  0  0  0  0  0  0  0  0  0  0  0
    1.2100    1.6316    3.7107 H   0  0  0  0  0  0  0  0  0  0  0  0
  5  6  2  0  0  0  0
  5  7  1  0  0  0  0
  2  3  1  0  0  0  0
  2  4  1  0  0  0  0
  2  5  1  0  0  0  0
  1  2  1  0  0  0  0
 24 25  2  0  0  0  0
 24 26  1  0  0  0  0
 20 21  1  0  0  0  0
 20 22  1  0  0  0  0
 20 23  1  0  0  0  0
 16 17  1  0  0  0  0
 16 18  1  0  0  0  0
 16 19  1  0  0  0  0
 14 15  1  0  0  0  0
 14 16  1  0  0  0  0
 14 20  1  0  0  0  0
 11 12  1  0  0  0  0
 11 13  1  0  0  0  0
 11 14  1  0  0  0  0
  9 10  1  0  0  0  0
  9 11  1  0  0  0  0
  9 24  1  0  0  0  0
  7  8  1  0  0  0  0
  7  9  1  0  0  0  0
 28 29  1  0  0  0  0
 28 30  1  0  0  0  0
 28 31  1  0  0  0  0
 26 27  1  0  0  0  0
 26 28  1  0  0  0  0
M  END
$$$$
default_name
  -OEChem-01062215323D

 31 30  0     1  0  0  0  0  0999 V2000
   -3.5895   -3.5013    1.1082 H   0  0  0  0  0  0  0  0  0  0  0  0
   -3.5145   -2.5363    0.6082 C   0  0  0  0  0  0  0  0  0  0  0  0
   -4.2285   -1.8413    1.0452 H   0  0  0  0  0  0  0  0  0  0  0  0
   -3.7155   -2.6583   -0.4538 H   0  0  0  0  0  0  0  0  0  0  0  0
   -2.1155   -1.9963    0.7922 C   0  0  0  0  0  0  0  0  0  0  0  0
   -1.2875   -2.6383    1.4252 O   0  0  0  0  0  0  0  0  0  0  0  0
   -1.8575   -0.8123    0.2402 N   0  0  0  0  0  0  0  0  0  0  0  0
   -2.6005   -0.3333   -0.2478 H   0  0  0  0  0  0  0  0  0  0  0  0
   -0.5675   -0.1203    0.3102 C   0  0  1  0  0  0  0  0  0  0  0  0
    0.2222   -0.8517    0.1347 H   0  0  0  0  0  0  0  0  0  0  0  0
   -0.5204    0.9450   -0.8052 C   0  0  0  0  0  0  0  0  0  0  0  0
   -1.3775    1.6109   -0.6876 H   0  0  0  0  0  0  0  0  0  0  0  0
    0.3836    1.5415   -0.6640 H   0  0  0  0  0  0  0  0  0  0  0  0
   -0.5178    0.4050   -2.2471 C   0  0  0  0  0  0  0  0  0  0  0  0
   -1.3531   -0.2815   -2.3846 H   0  0  0  0  0  0  0  0  0  0  0  0
   -0.6183    1.5260   -3.2857 C   0  0  0  0  0  0  0  0  0  0  0  0
    0.2030    2.2311   -3.1505 H   0  0  0  0  0  0  0  0  0  0  0  0
   -0.5635    1.1029   -4.2890 H   0  0  0  0  0  0  0  0  0  0  0  0
   -1.5625    2.0572   -3.1874 H   0  0  0  0  0  0  0  0  0  0  0  0
    0.7759   -0.3658   -2.5074 C   0  0  0  0  0  0  0  0  0  0  0  0
    0.8588   -1.1919   -1.8012 H   0  0  0  0  0  0  0  0  0  0  0  0
    0.7680   -0.7726   -3.5186 H   0  0  0  0  0  0  0  0  0  0  0  0
    1.6362    0.2943   -2.3917 H   0  0  0  0  0  0  0  0  0  0  0  0
   -0.3639    0.4839    1.7100 C   0  0  0  0  0  0  0  0  0  0  0  0
   -1.2764    1.1012    2.2543 O   0  0  0  0  0  0  0  0  0  0  0  0
    0.8342    0.3144    2.2843 N   0  0  0  0  0  0  0  0  0  0  0  0
    1.5298   -0.2090    1.7772 H   0  0  0  0  0  0  0  0  0  0  0  0
    1.1896    0.8403    3.6002 C   0  0  0  0  0  0  0  0  0  0  0  0
    0.5094    0.4379    4.3542 H   0  0  0  0  0  0  0  0  0  0  0  0
    2.2135    0.5625    3.8551 H   0  0  0  0  0  0  0  0  0  0  0  0
    1.1006    1.9279    3.5987 H   0  0  0  0  0  0  0  0  0  0  0  0
  5  6  2  0  0  0  0
  5  7  1  0  0  0  0
  2  3  1  0  0  0  0
  2  4  1  0  0  0  0
  2  5  1  0  0  0  0
  1  2  1  0  0  0  0
 24 25  2  0  0  0  0
 24 26  1  0  0  0  0
 20 21  1  0  0  0  0
 20 22  1  0  0  0  0
 20 23  1  0  0  0  0
 16 17  1  0  0  0  0
 16 18  1  0  0  0  0
 16 19  1  0  0  0  0
 14 15  1  0  0  0  0
 14 16  1  0  0  0  0
 14 20  1  0  0  0  0
 11 12  1  0  0  0  0
 11 13  1  0  0  0  0
 11 14  1  0  0  0  0
  9 10  1  0  0  0  0
  9 11  1  0  0  0  0
  9 24  1  0  0  0  0
  7  8  1  0  0  0  0
  7  9  1  0  0  0  0
 28 29  1  0  0  0  0
 28 30  1  0  0  0  0
 28 31  1  0  0  0  0
 26 27  1  0  0  0  0
 26 28  1  0  0  0  0
M  END
$$$$
default_name
  -OEChem-01062215323D

 31 30  0     1  0  0  0  0  0999 V2000
   -3.5895   -3.5013    1.1082 H   0  0  0  0  0  0  0  0  0  0  0  0
   -3.5145   -2.5363    0.6082 C   0  0  0  0  0  0  0  0  0  0  0  0
   -4.2285   -1.8413    1.0452 H   0  0  0  0  0  0  0  0  0  0  0  0
   -3.7155   -2.6583   -0.4538 H   0  0  0  0  0  0  0  0  0  0  0  0
   -2.1155   -1.9963    0.7922 C   0  0  0  0  0  0  0  0  0  0  0  0
   -1.2875   -2.6383    1.4252 O   0  0  0  0  0  0  0  0  0  0  0  0
   -1.8575   -0.8123    0.2402 N   0  0  0  0  0  0  0  0  0  0  0  0
   -2.6005   -0.3333   -0.2478 H   0  0  0  0  0  0  0  0  0  0  0  0
   -0.5675   -0.1203    0.3102 C   0  0  1  0  0  0  0  0  0  0  0  0
    0.2222   -0.8517    0.1347 H   0  0  0  0  0  0  0  0  0  0  0  0
   -0.5204    0.9450   -0.8052 C   0  0  0  0  0  0  0  0  0  0  0  0
   -1.3775    1.6109   -0.6876 H   0  0  0  0  0  0  0  0  0  0  0  0
    0.3836    1.5415   -0.6640 H   0  0  0  0  0  0  0  0  0  0  0  0
   -0.5178    0.4050   -2.2471 C   0  0  0  0  0  0  0  0  0  0  0  0
   -1.3531   -0.2815   -2.3846 H   0  0  0  0  0  0  0  0  0  0  0  0
   -0.6183    1.5260   -3.2857 C   0  0  0  0  0  0  0  0  0  0  0  0
    0.2030    2.2311   -3.1505 H   0  0  0  0  0  0  0  0  0  0  0  0
   -0.5635    1.1029   -4.2890 H   0  0  0  0  0  0  0  0  0  0  0  0
   -1.5625    2.0572   -3.1874 H   0  0  0  0  0  0  0  0  0  0  0  0
    0.7759   -0.3658   -2.5074 C   0  0  0  0  0  0  0  0  0  0  0  0
    0.8588   -1.1919   -1.8012 H   0  0  0  0  0  0  0  0  0  0  0  0
    0.7680   -0.7726   -3.5186 H   0  0  0  0  0  0  0  0  0  0  0  0
    1.6362    0.2943   -2.3917 H   0  0  0  0  0  0  0  0  0  0  0  0
   -0.3639    0.4839    1.7100 C   0  0  0  0  0  0  0  0  0  0  0  0
   -1.3327    0.8549    2.3688 O   0  0  0  0  0  0  0  0  0  0  0  0
    0.8944    0.5909    2.1562 N   0  0  0  0  0  0  0  0  0  0  0  0
    1.6355    0.2588    1.5599 H   0  0  0  0  0  0  0  0  0  0  0  0
    1.2542    1.1570    3.4542 C   0  0  0  0  0  0  0  0  0  0  0  0
    0.7705    0.5881    4.2514 H   0  0  0  0  0  0  0  0  0  0  0  0
    2.3357    1.1246    3.5948 H   0  0  0  0  0  0  0  0  0  0  0  0
    0.9137    2.1921    3.5119 H   0  0  0  0  0  0  0  0  0  0  0  0
  5  6  2  0  0  0  0
  5  7  1  0  0  0  0
  2  3  1  0  0  0  0
  2  4  1  0  0  0  0
  2  5  1  0  0  0  0
  1  2  1  0  0  0  0
 24 25  2  0  0  0  0
 24 26  1  0  0  0  0
 20 21  1  0  0  0  0
 20 22  1  0  0  0  0
 20 23  1  0  0  0  0
 16 17  1  0  0  0  0
 16 18  1  0  0  0  0
 16 19  1  0  0  0  0
 14 15  1  0  0  0  0
 14 16  1  0  0  0  0
 14 20  1  0  0  0  0
 11 12  1  0  0  0  0
 11 13  1  0  0  0  0
 11 14  1  0  0  0  0
  9 10  1  0  0  0  0
  9 11  1  0  0  0  0
  9 24  1  0  0  0  0
  7  8  1  0  0  0  0
  7  9  1  0  0  0  0
 28 29  1  0  0  0  0
 28 30  1  0  0  0  0
 28 31  1  0  0  0  0
 26 27  1  0  0  0  0
 26 28  1  0  0  0  0
M  END
$$$$
default_name
  -OEChem-01062215323D

 31 30  0     1  0  0  0  0  0999 V2000
   -3.5895   -3.5013    1.1082 H   0  0  0  0  0  0  0  0  0  0  0  0
   -3.5145   -2.5363    0.6082 C   0  0  0  0  0  0  0  0  0  0  0  0
   -4.2285   -1.8413    1.0452 H   0  0  0  0  0  0  0  0  0  0  0  0
   -3.7155   -2.6583   -0.4538 H   0  0  0  0  0  0  0  0  0  0  0  0
   -2.1155   -1.9963    0.7922 C   0  0  0  0  0  0  0  0  0  0  0  0
   -1.2875   -2.6383    1.4252 O   0  0  0  0  0  0  0  0  0  0  0  0
   -1.8575   -0.8123    0.2402 N   0  0  0  0  0  0  0  0  0  0  0  0
   -2.6005   -0.3333   -0.2478 H   0  0  0  0  0  0  0  0  0  0  0  0
   -0.5675   -0.1203    0.3102 C   0  0  1  0  0  0  0  0  0  0  0  0
    0.2222   -0.8517    0.1347 H   0  0  0  0  0  0  0  0  0  0  0  0
   -0.5204    0.9450   -0.8052 C   0  0  0  0  0  0  0  0  0  0  0  0
   -1.3775    1.6109   -0.6876 H   0  0  0  0  0  0  0  0  0  0  0  0
    0.3836    1.5415   -0.6640 H   0  0  0  0  0  0  0  0  0  0  0  0
   -0.5178    0.4050   -2.2471 C   0  0  0  0  0  0  0  0  0  0  0  0
   -1.3531   -0.2815   -2.3846 H   0  0  0  0  0  0  0  0  0  0  0  0
   -0.6183    1.5260   -3.2857 C   0  0  0  0  0  0  0  0  0  0  0  0
    0.2030    2.2311   -3.1505 H   0  0  0  0  0  0  0  0  0  0  0  0
   -0.5635    1.1029   -4.2890 H   0  0  0  0  0  0  0  0  0  0  0  0
   -1.5625    2.0572   -3.1874 H   0  0  0  0  0  0  0  0  0  0  0  0
    0.7759   -0.3658   -2.5074 C   0  0  0  0  0  0  0  0  0  0  0  0
    0.8588   -1.1919   -1.8012 H   0  0  0  0  0  0  0  0  0  0  0  0
    0.7680   -0.7726   -3.5186 H   0  0  0  0  0  0  0  0  0  0  0  0
    1.6362    0.2943   -2.3917 H   0  0  0  0  0  0  0  0  0  0  0  0
   -0.3639    0.4839    1.7100 C   0  0  0  0  0  0  0  0  0  0  0  0
   -1.3173    0.5997    2.4767 O   0  0  0  0  0  0  0  0  0  0  0  0
    0.8744    0.8766    2.0358 N   0  0  0  0  0  0  0  0  0  0  0  0
    1.6053    0.7431    1.3553 H   0  0  0  0  0  0  0  0  0  0  0  0
    1.2271    1.4831    3.3174 C   0  0  0  0  0  0  0  0  0  0  0  0
    0.9770    0.7983    4.1307 H   0  0  0  0  0  0  0  0  0  0  0  0
    2.2948    1.7051    3.3501 H   0  0  0  0  0  0  0  0  0  0  0  0
    0.6622    2.4063    3.4560 H   0  0  0  0  0  0  0  0  0  0  0  0
  5  6  2  0  0  0  0
  5  7  1  0  0  0  0
  2  3  1  0  0  0  0
  2  4  1  0  0  0  0
  2  5  1  0  0  0  0
  1  2  1  0  0  0  0
 24 25  2  0  0  0  0
 24 26  1  0  0  0  0
 20 21  1  0  0  0  0
 20 22  1  0  0  0  0
 20 23  1  0  0  0  0
 16 17  1  0  0  0  0
 16 18  1  0  0  0  0
 16 19  1  0  0  0  0
 14 15  1  0  0  0  0
 14 16  1  0  0  0  0
 14 20  1  0  0  0  0
 11 12  1  0  0  0  0
 11 13  1  0  0  0  0
 11 14  1  0  0  0  0
  9 10  1  0  0  0  0
  9 11  1  0  0  0  0
  9 24  1  0  0  0  0
  7  8  1  0  0  0  0
  7  9  1  0  0  0  0
 28 29  1  0  0  0  0
 28 30  1  0  0  0  0
 28 31  1  0  0  0  0
 26 27  1  0  0  0  0
 26 28  1  0  0  0  0
M  END
$$$$
default_name
  -OEChem-01062215323D

 31 30  0     1  0  0  0  0  0999 V2000
   -3.5895   -3.5013    1.1082 H   0  0  0  0  0  0  0  0  0  0  0  0
   -3.5145   -2.5363    0.6082 C   0  0  0  0  0  0  0  0  0  0  0  0
   -4.2285   -1.8413    1.0452 H   0  0  0  0  0  0  0  0  0  0  0  0
   -3.7155   -2.6583   -0.4538 H   0  0  0  0  0  0  0  0  0  0  0  0
   -2.1155   -1.9963    0.7922 C   0  0  0  0  0  0  0  0  0  0  0  0
   -1.2875   -2.6383    1.4252 O   0  0  0  0  0  0  0  0  0  0  0  0
   -1.8575   -0.8123    0.2402 N   0  0  0  0  0  0  0  0  0  0  0  0
   -2.6005   -0.3333   -0.2478 H   0  0  0  0  0  0  0  0  0  0  0  0
   -0.5675   -0.1203    0.3102 C   0  0  1  0  0  0  0  0  0  0  0  0
    0.1932   -0.7715   -0.1219 H   0  0  0  0  0  0  0  0  0  0  0  0
   -0.6568    1.1713   -0.5294 C   0  0  0  0  0  0  0  0  0  0  0  0
   -1.4916    1.7701   -0.1601 H   0  0  0  0  0  0  0  0  0  0  0  0
    0.2589    1.7439   -0.3658 H   0  0  0  0  0  0  0  0  0  0  0  0
   -0.8334    0.9731   -2.0461 C   0  0  0  0  0  0  0  0  0  0  0  0
   -1.6806    0.3137   -2.2350 H   0  0  0  0  0  0  0  0  0  0  0  0
   -1.0596    2.2975   -2.7810 C   0  0  0  0  0  0  0  0  0  0  0  0
   -0.2266    2.9750   -2.5884 H   0  0  0  0  0  0  0  0  0  0  0  0
   -1.1299    2.1149   -3.8535 H   0  0  0  0  0  0  0  0  0  0  0  0
   -1.9834    2.7673   -2.4506 H   0  0  0  0  0  0  0  0  0  0  0  0
    0.4167    0.3160   -2.6299 C   0  0  0  0  0  0  0  0  0  0  0  0
    0.5849   -0.6463   -2.1467 H   0  0  0  0  0  0  0  0  0  0  0  0
    0.2832    0.1494   -3.6988 H   0  0  0  0  0  0  0  0  0  0  0  0
    1.2860    0.9552   -2.4712 H   0  0  0  0  0  0  0  0  0  0  0  0
   -0.1913    0.1554    1.7759 C   0  0  0  0  0  0  0  0  0  0  0  0
   -0.9459   -0.1901    2.6821 O   0  0  0  0  0  0  0  0  0  0  0  0
    0.9680    0.7858    2.0048 N   0  0  0  0  0  0  0  0  0  0  0  0
    1.5354    1.0319    1.2095 H   0  0  0  0  0  0  0  0  0  0  0  0
    1.4580    1.1342    3.3365 C   0  0  0  0  0  0  0  0  0  0  0  0
    1.5600    0.2296    3.9402 H   0  0  0  0  0  0  0  0  0  0  0  0
    2.4273    1.6301    3.2655 H   0  0  0  0  0  0  0  0  0  0  0  0
    0.7471    1.8002    3.8280 H   0  0  0  0  0  0  0  0  0  0  0  0
  5  6  2  0  0  0  0
  5  7  1  0  0  0  0
  2  3  1  0  0  0  0
  2  4  1  0  0  0  0
  2  5  1  0  0  0  0
  1  2  1  0  0  0  0
 24 25  2  0  0  0  0
 24 26  1  0  0  0  0
 20 21  1  0  0  0  0
 20 22  1  0  0  0  0
 20 23  1  0  0  0  0
 16 17  1  0  0  0  0
 16 18  1  0  0  0  0
 16 19  1  0  0  0  0
 14 15  1  0  0  0  0
 14 16  1  0  0  0  0
 14 20  1  0  0  0  0
 11 12  1  0  0  0  0
 11 13  1  0  0  0  0
 11 14  1  0  0  0  0
  9 10  1  0  0  0  0
  9 11  1  0  0  0  0
  9 24  1  0  0  0  0
  7  8  1  0  0  0  0
  7  9  1  0  0  0  0
 28 29  1  0  0  0  0
 28 30  1  0  0  0  0
 28 31  1  0  0  0  0
 26 27  1  0  0  0  0
 26 28  1  0  0  0  0
M  END
$$$$
default_name
  -OEChem-01062215323D

 31 30  0     1  0  0  0  0  0999 V2000
   -3.5895   -3.5013    1.1082 H   0  0  0  0  0  0  0  0  0  0  0  0
   -3.5145   -2.5363    0.6082 C   0  0  0  0  0  0  0  0  0  0  0  0
   -4.2285   -1.8413    1.0452 H   0  0  0  0  0  0  0  0  0  0  0  0
   -3.7155   -2.6583   -0.4538 H   0  0  0  0  0  0  0  0  0  0  0  0
   -2.1155   -1.9963    0.7922 C   0  0  0  0  0  0  0  0  0  0  0  0
   -1.2875   -2.6383    1.4252 O   0  0  0  0  0  0  0  0  0  0  0  0
   -1.8575   -0.8123    0.2402 N   0  0  0  0  0  0  0  0  0  0  0  0
   -2.6005   -0.3333   -0.2478 H   0  0  0  0  0  0  0  0  0  0  0  0
   -0.5675   -0.1203    0.3102 C   0  0  1  0  0  0  0  0  0  0  0  0
    0.1932   -0.7715   -0.1219 H   0  0  0  0  0  0  0  0  0  0  0  0
   -0.6568    1.1713   -0.5294 C   0  0  0  0  0  0  0  0  0  0  0  0
   -1.4916    1.7701   -0.1601 H   0  0  0  0  0  0  0  0  0  0  0  0
    0.2589    1.7439   -0.3658 H   0  0  0  0  0  0  0  0  0  0  0  0
   -0.8334    0.9731   -2.0461 C   0  0  0  0  0  0  0  0  0  0  0  0
   -1.6806    0.3137   -2.2350 H   0  0  0  0  0  0  0  0  0  0  0  0
   -1.0596    2.2975   -2.7810 C   0  0  0  0  0  0  0  0  0  0  0  0
   -0.2266    2.9750   -2.5884 H   0  0  0  0  0  0  0  0  0  0  0  0
   -1.1299    2.1149   -3.8535 H   0  0  0  0  0  0  0  0  0  0  0  0
   -1.9834    2.7673   -2.4506 H   0  0  0  0  0  0  0  0  0  0  0  0
    0.4167    0.3160   -2.6299 C   0  0  0  0  0  0  0  0  0  0  0  0
    0.5849   -0.6463   -2.1467 H   0  0  0  0  0  0  0  0  0  0  0  0
    0.2832    0.1494   -3.6988 H   0  0  0  0  0  0  0  0  0  0  0  0
    1.2860    0.9552   -2.4712 H   0  0  0  0  0  0  0  0  0  0  0  0
   -0.1913    0.1554    1.7759 C   0  0  0  0  0  0  0  0  0  0  0  0
   -0.7878   -0.4181    2.6844 O   0  0  0  0  0  0  0  0  0  0  0  0
    0.7888    1.0395    2.0031 N   0  0  0  0  0  0  0  0  0  0  0  0
    1.2345    1.4640    1.2055 H   0  0  0  0  0  0  0  0  0  0  0  0
    1.2500    1.4215    3.3358 C   0  0  0  0  0  0  0  0  0  0  0  0
    1.6033    0.5374    3.8712 H   0  0  0  0  0  0  0  0  0  0  0  0
    2.0628    2.1456    3.2621 H   0  0  0  0  0  0  0  0  0  0  0  0
    0.4253    1.8609    3.8992 H   0  0  0  0  0  0  0  0  0  0  0  0
  5  6  2  0  0  0  0
  5  7  1  0  0  0  0
  2  3  1  0  0  0  0
  2  4  1  0  0  0  0
  2  5  1  0  0  0  0
  1  2  1  0  0  0  0
 24 25  2  0  0  0  0
 24 26  1  0  0  0  0
 20 21  1  0  0  0  0
 20 22  1  0  0  0  0
 20 23  1  0  0  0  0
 16 17  1  0  0  0  0
 16 18  1  0  0  0  0
 16 19  1  0  0  0  0
 14 15  1  0  0  0  0
 14 16  1  0  0  0  0
 14 20  1  0  0  0  0
 11 12  1  0  0  0  0
 11 13  1  0  0  0  0
 11 14  1  0  0  0  0
  9 10  1  0  0  0  0
  9 11  1  0  0  0  0
  9 24  1  0  0  0  0
  7  8  1  0  0  0  0
  7  9  1  0  0  0  0
 28 29  1  0  0  0  0
 28 30  1  0  0  0  0
 28 31  1  0  0  0  0
 26 27  1  0  0  0  0
 26 28  1  0  0  0  0
M  END
$$$$
default_name
  -OEChem-01062215323D

 31 30  0     1  0  0  0  0  0999 V2000
   -3.5895   -3.5013    1.1082 H   0  0  0  0  0  0  0  0  0  0  0  0
   -3.5145   -2.5363    0.6082 C   0  0  0  0  0  0  0  0  0  0  0  0
   -4.2285   -1.8413    1.0452 H   0  0  0  0  0  0  0  0  0  0  0  0
   -3.7155   -2.6583   -0.4538 H   0  0  0  0  0  0  0  0  0  0  0  0
   -2.1155   -1.9963    0.7922 C   0  0  0  0  0  0  0  0  0  0  0  0
   -1.2875   -2.6383    1.4252 O   0  0  0  0  0  0  0  0  0  0  0  0
   -1.8575   -0.8123    0.2402 N   0  0  0  0  0  0  0  0  0  0  0  0
   -2.6005   -0.3333   -0.2478 H   0  0  0  0  0  0  0  0  0  0  0  0
   -0.5675   -0.1203    0.3102 C   0  0  1  0  0  0  0  0  0  0  0  0
    0.1932   -0.7715   -0.1219 H   0  0  0  0  0  0  0  0  0  0  0  0
   -0.6568    1.1713   -0.5294 C   0  0  0  0  0  0  0  0  0  0  0  0
   -1.4916    1.7701   -0.1601 H   0  0  0  0  0  0  0  0  0  0  0  0
    0.2589    1.7439   -0.3658 H   0  0  0  0  0  0  0  0  0  0  0  0
   -0.8334    0.9731   -2.0461 C   0  0  0  0  0  0  0  0  0  0  0  0
   -1.6806    0.3137   -2.2350 H   0  0  0  0  0  0  0  0  0  0  0  0
   -1.0596    2.2975   -2.7810 C   0  0  0  0  0  0  0  0  0  0  0  0
   -0.2266    2.9750   -2.5884 H   0  0  0  0  0  0  0  0  0  0  0  0
   -1.1299    2.1149   -3.8535 H   0  0  0  0  0  0  0  0  0  0  0  0
   -1.9834    2.7673   -2.4506 H   0  0  0  0  0  0  0  0  0  0  0  0
    0.4167    0.3160   -2.6299 C   0  0  0  0  0  0  0  0  0  0  0  0
    0.5849   -0.6463   -2.1467 H   0  0  0  0  0  0  0  0  0  0  0  0
    0.2832    0.1494   -3.6988 H   0  0  0  0  0  0  0  0  0  0  0  0
    1.2860    0.9552   -2.4712 H   0  0  0  0  0  0  0  0  0  0  0  0
   -0.1913    0.1554    1.7759 C   0  0  0  0  0  0  0  0  0  0  0  0
   -0.5788   -0.5994    2.6649 O   0  0  0  0  0  0  0  0  0  0  0  0
    0.5530    1.2405    2.0258 N   0  0  0  0  0  0  0  0  0  0  0  0
    0.8370    1.8074    1.2429 H   0  0  0  0  0  0  0  0  0  0  0  0
    0.9782    1.6477    3.3630 C   0  0  0  0  0  0  0  0  0  0  0  0
    1.5661    0.8496    3.8220 H   0  0  0  0  0  0  0  0  0  0  0  0
    1.5835    2.5539    3.3083 H   0  0  0  0  0  0  0  0  0  0  0  0
    0.1029    1.8356    3.9867 H   0  0  0  0  0  0  0  0  0  0  0  0
  5  6  2  0  0  0  0
  5  7  1  0  0  0  0
  2  3  1  0  0  0  0
  2  4  1  0  0  0  0
  2  5  1  0  0  0  0
  1  2  1  0  0  0  0
 24 25  2  0  0  0  0
 24 26  1  0  0  0  0
 20 21  1  0  0  0  0
 20 22  1  0  0  0  0
 20 23  1  0  0  0  0
 16 17  1  0  0  0  0
 16 18  1  0  0  0  0
 16 19  1  0  0  0  0
 14 15  1  0  0  0  0
 14 16  1  0  0  0  0
 14 20  1  0  0  0  0
 11 12  1  0  0  0  0
 11 13  1  0  0  0  0
 11 14  1  0  0  0  0
  9 10  1  0  0  0  0
  9 11  1  0  0  0  0
  9 24  1  0  0  0  0
  7  8  1  0  0  0  0
  7  9  1  0  0  0  0
 28 29  1  0  0  0  0
 28 30  1  0  0  0  0
 28 31  1  0  0  0  0
 26 27  1  0  0  0  0
 26 28  1  0  0  0  0
M  END
$$$$
default_name
  -OEChem-01062215323D

 31 30  0     1  0  0  0  0  0999 V2000
   -3.5895   -3.5013    1.1082 H   0  0  0  0  0  0  0  0  0  0  0  0
   -3.5145   -2.5363    0.6082 C   0  0  0  0  0  0  0  0  0  0  0  0
   -4.2285   -1.8413    1.0452 H   0  0  0  0  0  0  0  0  0  0  0  0
   -3.7155   -2.6583   -0.4538 H   0  0  0  0  0  0  0  0  0  0  0  0
   -2.1155   -1.9963    0.7922 C   0  0  0  0  0  0  0  0  0  0  0  0
   -1.2875   -2.6383    1.4252 O   0  0  0  0  0  0  0  0  0  0  0  0
   -1.8575   -0.8123    0.2402 N   0  0  0  0  0  0  0  0  0  0  0  0
   -2.6005   -0.3333   -0.2478 H   0  0  0  0  0  0  0  0  0  0  0  0
   -0.5675   -0.1203    0.3102 C   0  0  1  0  0  0  0  0  0  0  0  0
    0.1932   -0.7715   -0.1219 H   0  0  0  0  0  0  0  0  0  0  0  0
   -0.6568    1.1713   -0.5294 C   0  0  0  0  0  0  0  0  0  0  0  0
   -1.4916    1.7701   -0.1601 H   0  0  0  0  0  0  0  0  0  0  0  0
    0.2589    1.7439   -0.3658 H   0  0  0  0  0  0  0  0  0  0  0  0
   -0.8334    0.9731   -2.0461 C   0  0  0  0  0  0  0  0  0  0  0  0
   -1.6806    0.3137   -2.2350 H   0  0  0  0  0  0  0  0  0  0  0  0
   -1.0596    2.2975   -2.7810 C   0  0  0  0  0  0  0  0  0  0  0  0
   -0.2266    2.9750   -2.5884 H   0  0  0  0  0  0  0  0  0  0  0  0
   -1.1299    2.1149   -3.8535 H   0  0  0  0  0  0  0  0  0  0  0  0
   -1.9834    2.7673   -2.4506 H   0  0  0  0  0  0  0  0  0  0  0  0
    0.4167    0.3160   -2.6299 C   0  0  0  0  0  0  0  0  0  0  0  0
    0.5849   -0.6463   -2.1467 H   0  0  0  0  0  0  0  0  0  0  0  0
    0.2832    0.1494   -3.6988 H   0  0  0  0  0  0  0  0  0  0  0  0
    1.2860    0.9552   -2.4712 H   0  0  0  0  0  0  0  0  0  0  0  0
   -0.1913    0.1554    1.7759 C   0  0  0  0  0  0  0  0  0  0  0  0
   -0.3330   -0.7217    2.6248 O   0  0  0  0  0  0  0  0  0  0  0  0
    0.2767    1.3750    2.0714 N   0  0  0  0  0  0  0  0  0  0  0  0
    0.3701    2.0387    1.3192 H   0  0  0  0  0  0  0  0  0  0  0  0
    0.6612    1.7975    3.4162 C   0  0  0  0  0  0  0  0  0  0  0  0
    1.4508    1.1452    3.7960 H   0  0  0  0  0  0  0  0  0  0  0  0
    1.0219    2.8271    3.4010 H   0  0  0  0  0  0  0  0  0  0  0  0
   -0.1983    1.7261    4.0846 H   0  0  0  0  0  0  0  0  0  0  0  0
  5  6  2  0  0  0  0
  5  7  1  0  0  0  0
  2  3  1  0  0  0  0
  2  4  1  0  0  0  0
  2  5  1  0  0  0  0
  1  2  1  0  0  0  0
 24 25  2  0  0  0  0
 24 26  1  0  0  0  0
 20 21  1  0  0  0  0
 20 22  1  0  0  0  0
 20 23  1  0  0  0  0
 16 17  1  0  0  0  0
 16 18  1  0  0  0  0
 16 19  1  0  0  0  0
 14 15  1  0  0  0  0
 14 16  1  0  0  0  0
 14 20  1  0  0  0  0
 11 12  1  0  0  0  0
 11 13  1  0  0  0  0
 11 14  1  0  0  0  0
  9 10  1  0  0  0  0
  9 11  1  0  0  0  0
  9 24  1  0  0  0  0
  7  8  1  0  0  0  0
  7  9  1  0  0  0  0
 28 29  1  0  0  0  0
 28 30  1  0  0  0  0
 28 31  1  0  0  0  0
 26 27  1  0  0  0  0
 26 28  1  0  0  0  0
M  END
$$$$
default_name
  -OEChem-01062215323D

 31 30  0     1  0  0  0  0  0999 V2000
   -3.5895   -3.5013    1.1082 H   0  0  0  0  0  0  0  0  0  0  0  0
   -3.5145   -2.5363    0.6082 C   0  0  0  0  0  0  0  0  0  0  0  0
   -4.2285   -1.8413    1.0452 H   0  0  0  0  0  0  0  0  0  0  0  0
   -3.7155   -2.6583   -0.4538 H   0  0  0  0  0  0  0  0  0  0  0  0
   -2.1155   -1.9963    0.7922 C   0  0  0  0  0  0  0  0  0  0  0  0
   -1.2875   -2.6383    1.4252 O   0  0  0  0  0  0  0  0  0  0  0  0
   -1.8575   -0.8123    0.2402 N   0  0  0  0  0  0  0  0  0  0  0  0
   -2.6005   -0.3333   -0.2478 H   0  0  0  0  0  0  0  0  0  0  0  0
   -0.5675   -0.1203    0.3102 C   0  0  1  0  0  0  0  0  0  0  0  0
    0.1932   -0.7715   -0.1219 H   0  0  0  0  0  0  0  0  0  0  0  0
   -0.6568    1.1713   -0.5294 C   0  0  0  0  0  0  0  0  0  0  0  0
   -1.4916    1.7701   -0.1601 H   0  0  0  0  0  0  0  0  0  0  0  0
    0.2589    1.7439   -0.3658 H   0  0  0  0  0  0  0  0  0  0  0  0
   -0.8334    0.9731   -2.0461 C   0  0  0  0  0  0  0  0  0  0  0  0
   -1.6806    0.3137   -2.2350 H   0  0  0  0  0  0  0  0  0  0  0  0
   -1.0596    2.2975   -2.7810 C   0  0  0  0  0  0  0  0  0  0  0  0
   -0.2266    2.9750   -2.5884 H   0  0  0  0  0  0  0  0  0  0  0  0
   -1.1299    2.1149   -3.8535 H   0  0  0  0  0  0  0  0  0  0  0  0
   -1.9834    2.7673   -2.4506 H   0  0  0  0  0  0  0  0  0  0  0  0
    0.4167    0.3160   -2.6299 C   0  0  0  0  0  0  0  0  0  0  0  0
    0.5849   -0.6463   -2.1467 H   0  0  0  0  0  0  0  0  0  0  0  0
    0.2832    0.1494   -3.6988 H   0  0  0  0  0  0  0  0  0  0  0  0
    1.2860    0.9552   -2.4712 H   0  0  0  0  0  0  0  0  0  0  0  0
   -0.1913    0.1554    1.7759 C   0  0  0  0  0  0  0  0  0  0  0  0
   -0.0673   -0.7768    2.5670 O   0  0  0  0  0  0  0  0  0  0  0  0
   -0.0212    1.4340    2.1367 N   0  0  0  0  0  0  0  0  0  0  0  0
   -0.1343    2.1422    1.4292 H   0  0  0  0  0  0  0  0  0  0  0  0
    0.3205    1.8606    3.4918 C   0  0  0  0  0  0  0  0  0  0  0  0
    1.2653    1.4039    3.7949 H   0  0  0  0  0  0  0  0  0  0  0  0
    0.4164    2.9466    3.5339 H   0  0  0  0  0  0  0  0  0  0  0  0
   -0.4577    1.5399    4.1862 H   0  0  0  0  0  0  0  0  0  0  0  0
  5  6  2  0  0  0  0
  5  7  1  0  0  0  0
  2  3  1  0  0  0  0
  2  4  1  0  0  0  0
  2  5  1  0  0  0  0
  1  2  1  0  0  0  0
 24 25  2  0  0  0  0
 24 26  1  0  0  0  0
 20 21  1  0  0  0  0
 20 22  1  0  0  0  0
 20 23  1  0  0  0  0
 16 17  1  0  0  0  0
 16 18  1  0  0  0  0
 16 19  1  0  0  0  0
 14 15  1  0  0  0  0
 14 16  1  0  0  0  0
 14 20  1  0  0  0  0
 11 12  1  0  0  0  0
 11 13  1  0  0  0  0
 11 14  1  0  0  0  0
  9 10  1  0  0  0  0
  9 11  1  0  0  0  0
  9 24  1  0  0  0  0
  7  8  1  0  0  0  0
  7  9  1  0  0  0  0
 28 29  1  0  0  0  0
 28 30  1  0  0  0  0
 28 31  1  0  0  0  0
 26 27  1  0  0  0  0
 26 28  1  0  0  0  0
M  END
$$$$
default_name
  -OEChem-01062215323D

 31 30  0     1  0  0  0  0  0999 V2000
   -3.5895   -3.5013    1.1082 H   0  0  0  0  0  0  0  0  0  0  0  0
   -3.5145   -2.5363    0.6082 C   0  0  0  0  0  0  0  0  0  0  0  0
   -4.2285   -1.8413    1.0452 H   0  0  0  0  0  0  0  0  0  0  0  0
   -3.7155   -2.6583   -0.4538 H   0  0  0  0  0  0  0  0  0  0  0  0
   -2.1155   -1.9963    0.7922 C   0  0  0  0  0  0  0  0  0  0  0  0
   -1.2875   -2.6383    1.4252 O   0  0  0  0  0  0  0  0  0  0  0  0
   -1.8575   -0.8123    0.2402 N   0  0  0  0  0  0  0  0  0  0  0  0
   -2.6005   -0.3333   -0.2478 H   0  0  0  0  0  0  0  0  0  0  0  0
   -0.5675   -0.1203    0.3102 C   0  0  1  0  0  0  0  0  0  0  0  0
    0.1932   -0.7715   -0.1219 H   0  0  0  0  0  0  0  0  0  0  0  0
   -0.6568    1.1713   -0.5294 C   0  0  0  0  0  0  0  0  0  0  0  0
   -1.4916    1.7701   -0.1601 H   0  0  0  0  0  0  0  0  0  0  0  0
    0.2589    1.7439   -0.3658 H   0  0  0  0  0  0  0  0  0  0  0  0
   -0.8334    0.9731   -2.0461 C   0  0  0  0  0  0  0  0  0  0  0  0
   -1.6806    0.3137   -2.2350 H   0  0  0  0  0  0  0  0  0  0  0  0
   -1.0596    2.2975   -2.7810 C   0  0  0  0  0  0  0  0  0  0  0  0
   -0.2266    2.9750   -2.5884 H   0  0  0  0  0  0  0  0  0  0  0  0
   -1.1299    2.1149   -3.8535 H   0  0  0  0  0  0  0  0  0  0  0  0
   -1.9834    2.7673   -2.4506 H   0  0  0  0  0  0  0  0  0  0  0  0
    0.4167    0.3160   -2.6299 C   0  0  0  0  0  0  0  0  0  0  0  0
    0.5849   -0.6463   -2.1467 H   0  0  0  0  0  0  0  0  0  0  0  0
    0.2832    0.1494   -3.6988 H   0  0  0  0  0  0  0  0  0  0  0  0
    1.2860    0.9552   -2.4712 H   0  0  0  0  0  0  0  0  0  0  0  0
   -0.1913    0.1554    1.7759 C   0  0  0  0  0  0  0  0  0  0  0  0
    0.2002   -0.7607    2.4953 O   0  0  0  0  0  0  0  0  0  0  0  0
   -0.3205    1.4133    2.2174 N   0  0  0  0  0  0  0  0  0  0  0  0
   -0.6420    2.1107    1.5654 H   0  0  0  0  0  0  0  0  0  0  0  0
   -0.0207    1.8327    3.5845 C   0  0  0  0  0  0  0  0  0  0  0  0
    1.0223    1.6081    3.8189 H   0  0  0  0  0  0  0  0  0  0  0  0
   -0.1918    2.9043    3.6979 H   0  0  0  0  0  0  0  0  0  0  0  0
   -0.6576    1.2896    4.2846 H   0  0  0  0  0  0  0  0  0  0  0  0
  5  6  2  0  0  0  0
  5  7  1  0  0  0  0
  2  3  1  0  0  0  0
  2  4  1  0  0  0  0
  2  5  1  0  0  0  0
  1  2  1  0  0  0  0
 24 25  2  0  0  0  0
 24 26  1  0  0  0  0
 20 21  1  0  0  0  0
 20 22  1  0  0  0  0
 20 23  1  0  0  0  0
 16 17  1  0  0  0  0
 16 18  1  0  0  0  0
 16 19  1  0  0  0  0
 14 15  1  0  0  0  0
 14 16  1  0  0  0  0
 14 20  1  0  0  0  0
 11 12  1  0  0  0  0
 11 13  1  0  0  0  0
 11 14  1  0  0  0  0
  9 10  1  0  0  0  0
  9 11  1  0  0  0  0
  9 24  1  0  0  0  0
  7  8  1  0  0  0  0
  7  9  1  0  0  0  0
 28 29  1  0  0  0  0
 28 30  1  0  0  0  0
 28 31  1  0  0  0  0
 26 27  1  0  0  0  0
 26 28  1  0  0  0  0
M  END
$$$$
default_name
  -OEChem-01062215323D

 31 30  0     1  0  0  0  0  0999 V2000
   -3.5895   -3.5013    1.1082 H   0  0  0  0  0  0  0  0  0  0  0  0
   -3.5145   -2.5363    0.6082 C   0  0  0  0  0  0  0  0  0  0  0  0
   -4.2285   -1.8413    1.0452 H   0  0  0  0  0  0  0  0  0  0  0  0
   -3.7155   -2.6583   -0.4538 H   0  0  0  0  0  0  0  0  0  0  0  0
   -2.1155   -1.9963    0.7922 C   0  0  0  0  0  0  0  0  0  0  0  0
   -1.2875   -2.6383    1.4252 O   0  0  0  0  0  0  0  0  0  0  0  0
   -1.8575   -0.8123    0.2402 N   0  0  0  0  0  0  0  0  0  0  0  0
   -2.6005   -0.3333   -0.2478 H   0  0  0  0  0  0  0  0  0  0  0  0
   -0.5675   -0.1203    0.3102 C   0  0  1  0  0  0  0  0  0  0  0  0
    0.1932   -0.7715   -0.1219 H   0  0  0  0  0  0  0  0  0  0  0  0
   -0.6568    1.1713   -0.5294 C   0  0  0  0  0  0  0  0  0  0  0  0
   -1.4916    1.7701   -0.1601 H   0  0  0  0  0  0  0  0  0  0  0  0
    0.2589    1.7439   -0.3658 H   0  0  0  0  0  0  0  0  0  0  0  0
   -0.8334    0.9731   -2.0461 C   0  0  0  0  0  0  0  0  0  0  0  0
   -1.6806    0.3137   -2.2350 H   0  0  0  0  0  0  0  0  0  0  0  0
   -1.0596    2.2975   -2.7810 C   0  0  0  0  0  0  0  0  0  0  0  0
   -0.2266    2.9750   -2.5884 H   0  0  0  0  0  0  0  0  0  0  0  0
   -1.1299    2.1149   -3.8535 H   0  0  0  0  0  0  0  0  0  0  0  0
   -1.9834    2.7673   -2.4506 H   0  0  0  0  0  0  0  0  0  0  0  0
    0.4167    0.3160   -2.6299 C   0  0  0  0  0  0  0  0  0  0  0  0
    0.5849   -0.6463   -2.1467 H   0  0  0  0  0  0  0  0  0  0  0  0
    0.2832    0.1494   -3.6988 H   0  0  0  0  0  0  0  0  0  0  0  0
    1.2860    0.9552   -2.4712 H   0  0  0  0  0  0  0  0  0  0  0  0
   -0.1913    0.1554    1.7759 C   0  0  0  0  0  0  0  0  0  0  0  0
    0.4514   -0.6747    2.4147 O   0  0  0  0  0  0  0  0  0  0  0  0
   -0.6007    1.3144    2.3080 N   0  0  0  0  0  0  0  0  0  0  0  0
   -1.1184    1.9465    1.7185 H   0  0  0  0  0  0  0  0  0  0  0  0
   -0.3391    1.7158    3.6882 C   0  0  0  0  0  0  0  0  0  0  0  0
    0.7383    1.7439    3.8662 H   0  0  0  0  0  0  0  0  0  0  0  0
   -0.7612    2.7031    3.8819 H   0  0  0  0  0  0  0  0  0  0  0  0
   -0.7844    0.9923    4.3730 H   0  0  0  0  0  0  0  0  0  0  0  0
  5  6  2  0  0  0  0
  5  7  1  0  0  0  0
  2  3  1  0  0  0  0
  2  4  1  0  0  0  0
  2  5  1  0  0  0  0
  1  2  1  0  0  0  0
 24 25  2  0  0  0  0
 24 26  1  0  0  0  0
 20 21  1  0  0  0  0
 20 22  1  0  0  0  0
 20 23  1  0  0  0  0
 16 17  1  0  0  0  0
 16 18  1  0  0  0  0
 16 19  1  0  0  0  0
 14 15  1  0  0  0  0
 14 16  1  0  0  0  0
 14 20  1  0  0  0  0
 11 12  1  0  0  0  0
 11 13  1  0  0  0  0
 11 14  1  0  0  0  0
  9 10  1  0  0  0  0
  9 11  1  0  0  0  0
  9 24  1  0  0  0  0
  7  8  1  0  0  0  0
  7  9  1  0  0  0  0
 28 29  1  0  0  0  0
 28 30  1  0  0  0  0
 28 31  1  0  0  0  0
 26 27  1  0  0  0  0
 26 28  1  0  0  0  0
M  END
$$$$
default_name
  -OEChem-01062215323D

 31 30  0     1  0  0  0  0  0999 V2000
   -3.5895   -3.5013    1.1082 H   0  0  0  0  0  0  0  0  0  0  0  0
   -3.5145   -2.5363    0.6082 C   0  0  0  0  0  0  0  0  0  0  0  0
   -4.2285   -1.8413    1.0452 H   0  0  0  0  0  0  0  0  0  0  0  0
   -3.7155   -2.6583   -0.4538 H   0  0  0  0  0  0  0  0  0  0  0  0
   -2.1155   -1.9963    0.7922 C   0  0  0  0  0  0  0  0  0  0  0  0
   -1.2875   -2.6383    1.4252 O   0  0  0  0  0  0  0  0  0  0  0  0
   -1.8575   -0.8123    0.2402 N   0  0  0  0  0  0  0  0  0  0  0  0
   -2.6005   -0.3333   -0.2478 H   0  0  0  0  0  0  0  0  0  0  0  0
   -0.5675   -0.1203    0.3102 C   0  0  1  0  0  0  0  0  0  0  0  0
    0.1932   -0.7715   -0.1219 H   0  0  0  0  0  0  0  0  0  0  0  0
   -0.6568    1.1713   -0.5294 C   0  0  0  0  0  0  0  0  0  0  0  0
   -1.4916    1.7701   -0.1601 H   0  0  0  0  0  0  0  0  0  0  0  0
    0.2589    1.7439   -0.3658 H   0  0  0  0  0  0  0  0  0  0  0  0
   -0.8334    0.9731   -2.0461 C   0  0  0  0  0  0  0  0  0  0  0  0
   -1.6806    0.3137   -2.2350 H   0  0  0  0  0  0  0  0  0  0  0  0
   -1.0596    2.2975   -2.7810 C   0  0  0  0  0  0  0  0  0  0  0  0
   -0.2266    2.9750   -2.5884 H   0  0  0  0  0  0  0  0  0  0  0  0
   -1.1299    2.1149   -3.8535 H   0  0  0  0  0  0  0  0  0  0  0  0
   -1.9834    2.7673   -2.4506 H   0  0  0  0  0  0  0  0  0  0  0  0
    0.4167    0.3160   -2.6299 C   0  0  0  0  0  0  0  0  0  0  0  0
    0.5849   -0.6463   -2.1467 H   0  0  0  0  0  0  0  0  0  0  0  0
    0.2832    0.1494   -3.6988 H   0  0  0  0  0  0  0  0  0  0  0  0
    1.2860    0.9552   -2.4712 H   0  0  0  0  0  0  0  0  0  0  0  0
   -0.1913    0.1554    1.7759 C   0  0  0  0  0  0  0  0  0  0  0  0
    0.6690   -0.5246    2.3306 O   0  0  0  0  0  0  0  0  0  0  0  0
   -0.8428    1.1440    2.4021 N   0  0  0  0  0  0  0  0  0  0  0  0
   -1.5308    1.6607    1.8781 H   0  0  0  0  0  0  0  0  0  0  0  0
   -0.6130    1.5177    3.7958 C   0  0  0  0  0  0  0  0  0  0  0  0
    0.4327    1.8020    3.9337 H   0  0  0  0  0  0  0  0  0  0  0  0
   -1.2530    2.3566    4.0733 H   0  0  0  0  0  0  0  0  0  0  0  0
   -0.8294    0.6683    4.4455 H   0  0  0  0  0  0  0  0  0  0  0  0
  5  6  2  0  0  0  0
  5  7  1  0  0  0  0
  2  3  1  0  0  0  0
  2  4  1  0  0  0  0
  2  5  1  0  0  0  0
  1  2  1  0  0  0  0
 24 25  2  0  0  0  0
 24 26  1  0  0  0  0
 20 21  1  0  0  0  0
 20 22  1  0  0  0  0
 20 23  1  0  0  0  0
 16 17  1  0  0  0  0
 16 18  1  0  0  0  0
 16 19  1  0  0  0  0
 14 15  1  0  0  0  0
 14 16  1  0  0  0  0
 14 20  1  0  0  0  0
 11 12  1  0  0  0  0
 11 13  1  0  0  0  0
 11 14  1  0  0  0  0
  9 10  1  0  0  0  0
  9 11  1  0  0  0  0
  9 24  1  0  0  0  0
  7  8  1  0  0  0  0
  7  9  1  0  0  0  0
 28 29  1  0  0  0  0
 28 30  1  0  0  0  0
 28 31  1  0  0  0  0
 26 27  1  0  0  0  0
 26 28  1  0  0  0  0
M  END
$$$$
default_name
  -OEChem-01062215323D

 31 30  0     1  0  0  0  0  0999 V2000
   -3.5895   -3.5013    1.1082 H   0  0  0  0  0  0  0  0  0  0  0  0
   -3.5145   -2.5363    0.6082 C   0  0  0  0  0  0  0  0  0  0  0  0
   -4.2285   -1.8413    1.0452 H   0  0  0  0  0  0  0  0  0  0  0  0
   -3.7155   -2.6583   -0.4538 H   0  0  0  0  0  0  0  0  0  0  0  0
   -2.1155   -1.9963    0.7922 C   0  0  0  0  0  0  0  0  0  0  0  0
   -1.2875   -2.6383    1.4252 O   0  0  0  0  0  0  0  0  0  0  0  0
   -1.8575   -0.8123    0.2402 N   0  0  0  0  0  0  0  0  0  0  0  0
   -2.6005   -0.3333   -0.2478 H   0  0  0  0  0  0  0  0  0  0  0  0
   -0.5675   -0.1203    0.3102 C   0  0  1  0  0  0  0  0  0  0  0  0
    0.1932   -0.7715   -0.1219 H   0  0  0  0  0  0  0  0  0  0  0  0
   -0.6568    1.1713   -0.5294 C   0  0  0  0  0  0  0  0  0  0  0  0
   -1.4916    1.7701   -0.1601 H   0  0  0  0  0  0  0  0  0  0  0  0
    0.2589    1.7439   -0.3658 H   0  0  0  0  0  0  0  0  0  0  0  0
   -0.8334    0.9731   -2.0461 C   0  0  0  0  0  0  0  0  0  0  0  0
   -1.6806    0.3137   -2.2350 H   0  0  0  0  0  0  0  0  0  0  0  0
   -1.0596    2.2975   -2.7810 C   0  0  0  0  0  0  0  0  0  0  0  0
   -0.2266    2.9750   -2.5884 H   0  0  0  0  0  0  0  0  0  0  0  0
   -1.1299    2.1149   -3.8535 H   0  0  0  0  0  0  0  0  0  0  0  0
   -1.9834    2.7673   -2.4506 H   0  0  0  0  0  0  0  0  0  0  0  0
    0.4167    0.3160   -2.6299 C   0  0  0  0  0  0  0  0  0  0  0  0
    0.5849   -0.6463   -2.1467 H   0  0  0  0  0  0  0  0  0  0  0  0
    0.2832    0.1494   -3.6988 H   0  0  0  0  0  0  0  0  0  0  0  0
    1.2860    0.9552   -2.4712 H   0  0  0  0  0  0  0  0  0  0  0  0
   -0.1913    0.1554    1.7759 C   0  0  0  0  0  0  0  0  0  0  0  0
    0.8383   -0.3206    2.2488 O   0  0  0  0  0  0  0  0  0  0  0  0
   -1.0302    0.9138    2.4935 N   0  0  0  0  0  0  0  0  0  0  0  0
   -1.8514    1.2728    2.0334 H   0  0  0  0  0  0  0  0  0  0  0  0
   -0.8237    1.2521    3.8998 C   0  0  0  0  0  0  0  0  0  0  0  0
    0.1263    1.7785    4.0168 H   0  0  0  0  0  0  0  0  0  0  0  0
   -1.6338    1.8885    4.2591 H   0  0  0  0  0  0  0  0  0  0  0  0
   -0.7896    0.3396    4.4972 H   0  0  0  0  0  0  0  0  0  0  0  0
  5  6  2  0  0  0  0
  5  7  1  0  0  0  0
  2  3  1  0  0  0  0
  2  4  1  0  0  0  0
  2  5  1  0  0  0  0
  1  2  1  0  0  0  0
 24 25  2  0  0  0  0
 24 26  1  0  0  0  0
 20 21  1  0  0  0  0
 20 22  1  0  0  0  0
 20 23  1  0  0  0  0
 16 17  1  0  0  0  0
 16 18  1  0  0  0  0
 16 19  1  0  0  0  0
 14 15  1  0  0  0  0
 14 16  1  0  0  0  0
 14 20  1  0  0  0  0
 11 12  1  0  0  0  0
 11 13  1  0  0  0  0
 11 14  1  0  0  0  0
  9 10  1  0  0  0  0
  9 11  1  0  0  0  0
  9 24  1  0  0  0  0
  7  8  1  0  0  0  0
  7  9  1  0  0  0  0
 28 29  1  0  0  0  0
 28 30  1  0  0  0  0
 28 31  1  0  0  0  0
 26 27  1  0  0  0  0
 26 28  1  0  0  0  0
M  END
$$$$
default_name
  -OEChem-01062215323D

 31 30  0     1  0  0  0  0  0999 V2000
   -3.5895   -3.5013    1.1082 H   0  0  0  0  0  0  0  0  0  0  0  0
   -3.5145   -2.5363    0.6082 C   0  0  0  0  0  0  0  0  0  0  0  0
   -4.2285   -1.8413    1.0452 H   0  0  0  0  0  0  0  0  0  0  0  0
   -3.7155   -2.6583   -0.4538 H   0  0  0  0  0  0  0  0  0  0  0  0
   -2.1155   -1.9963    0.7922 C   0  0  0  0  0  0  0  0  0  0  0  0
   -1.2875   -2.6383    1.4252 O   0  0  0  0  0  0  0  0  0  0  0  0
   -1.8575   -0.8123    0.2402 N   0  0  0  0  0  0  0  0  0  0  0  0
   -2.6005   -0.3333   -0.2478 H   0  0  0  0  0  0  0  0  0  0  0  0
   -0.5675   -0.1203    0.3102 C   0  0  1  0  0  0  0  0  0  0  0  0
    0.1932   -0.7715   -0.1219 H   0  0  0  0  0  0  0  0  0  0  0  0
   -0.6568    1.1713   -0.5294 C   0  0  0  0  0  0  0  0  0  0  0  0
   -1.4916    1.7701   -0.1601 H   0  0  0  0  0  0  0  0  0  0  0  0
    0.2589    1.7439   -0.3658 H   0  0  0  0  0  0  0  0  0  0  0  0
   -0.8334    0.9731   -2.0461 C   0  0  0  0  0  0  0  0  0  0  0  0
   -1.6806    0.3137   -2.2350 H   0  0  0  0  0  0  0  0  0  0  0  0
   -1.0596    2.2975   -2.7810 C   0  0  0  0  0  0  0  0  0  0  0  0
   -0.2266    2.9750   -2.5884 H   0  0  0  0  0  0  0  0  0  0  0  0
   -1.1299    2.1149   -3.8535 H   0  0  0  0  0  0  0  0  0  0  0  0
   -1.9834    2.7673   -2.4506 H   0  0  0  0  0  0  0  0  0  0  0  0
    0.4167    0.3160   -2.6299 C   0  0  0  0  0  0  0  0  0  0  0  0
    0.5849   -0.6463   -2.1467 H   0  0  0  0  0  0  0  0  0  0  0  0
    0.2832    0.1494   -3.6988 H   0  0  0  0  0  0  0  0  0  0  0  0
    1.2860    0.9552   -2.4712 H   0  0  0  0  0  0  0  0  0  0  0  0
   -0.1913    0.1554    1.7759 C   0  0  0  0  0  0  0  0  0  0  0  0
    0.9476   -0.0766    2.1748 O   0  0  0  0  0  0  0  0  0  0  0  0
   -1.1502    0.6393    2.5760 N   0  0  0  0  0  0  0  0  0  0  0  0
   -2.0581    0.8092    2.1736 H   0  0  0  0  0  0  0  0  0  0  0  0
   -0.9568    0.9369    3.9933 C   0  0  0  0  0  0  0  0  0  0  0  0
   -0.1600    1.6750    4.1097 H   0  0  0  0  0  0  0  0  0  0  0  0
   -1.8775    1.3307    4.4266 H   0  0  0  0  0  0  0  0  0  0  0  0
   -0.6678    0.0287    4.5244 H   0  0  0  0  0  0  0  0  0  0  0  0
  5  6  2  0  0  0  0
  5  7  1  0  0  0  0
  2  3  1  0  0  0  0
  2  4  1  0  0  0  0
  2  5  1  0  0  0  0
  1  2  1  0  0  0  0
 24 25  2  0  0  0  0
 24 26  1  0  0  0  0
 20 21  1  0  0  0  0
 20 22  1  0  0  0  0
 20 23  1  0  0  0  0
 16 17  1  0  0  0  0
 16 18  1  0  0  0  0
 16 19  1  0  0  0  0
 14 15  1  0  0  0  0
 14 16  1  0  0  0  0
 14 20  1  0  0  0  0
 11 12  1  0  0  0  0
 11 13  1  0  0  0  0
 11 14  1  0  0  0  0
  9 10  1  0  0  0  0
  9 11  1  0  0  0  0
  9 24  1  0  0  0  0
  7  8  1  0  0  0  0
  7  9  1  0  0  0  0
 28 29  1  0  0  0  0
 28 30  1  0  0  0  0
 28 31  1  0  0  0  0
 26 27  1  0  0  0  0
 26 28  1  0  0  0  0
M  END
$$$$
default_name
  -OEChem-01062215323D

 31 30  0     1  0  0  0  0  0999 V2000
   -3.5895   -3.5013    1.1082 H   0  0  0  0  0  0  0  0  0  0  0  0
   -3.5145   -2.5363    0.6082 C   0  0  0  0  0  0  0  0  0  0  0  0
   -4.2285   -1.8413    1.0452 H   0  0  0  0  0  0  0  0  0  0  0  0
   -3.7155   -2.6583   -0.4538 H   0  0  0  0  0  0  0  0  0  0  0  0
   -2.1155   -1.9963    0.7922 C   0  0  0  0  0  0  0  0  0  0  0  0
   -1.2875   -2.6383    1.4252 O   0  0  0  0  0  0  0  0  0  0  0  0
   -1.8575   -0.8123    0.2402 N   0  0  0  0  0  0  0  0  0  0  0  0
   -2.6005   -0.3333   -0.2478 H   0  0  0  0  0  0  0  0  0  0  0  0
   -0.5675   -0.1203    0.3102 C   0  0  1  0  0  0  0  0  0  0  0  0
    0.1932   -0.7715   -0.1219 H   0  0  0  0  0  0  0  0  0  0  0  0
   -0.6568    1.1713   -0.5294 C   0  0  0  0  0  0  0  0  0  0  0  0
   -1.4916    1.7701   -0.1601 H   0  0  0  0  0  0  0  0  0  0  0  0
    0.2589    1.7439   -0.3658 H   0  0  0  0  0  0  0  0  0  0  0  0
   -0.8334    0.9731   -2.0461 C   0  0  0  0  0  0  0  0  0  0  0  0
   -1.6806    0.3137   -2.2350 H   0  0  0  0  0  0  0  0  0  0  0  0
   -1.0596    2.2975   -2.7810 C   0  0  0  0  0  0  0  0  0  0  0  0
   -0.2266    2.9750   -2.5884 H   0  0  0  0  0  0  0  0  0  0  0  0
   -1.1299    2.1149   -3.8535 H   0  0  0  0  0  0  0  0  0  0  0  0
   -1.9834    2.7673   -2.4506 H   0  0  0  0  0  0  0  0  0  0  0  0
    0.4167    0.3160   -2.6299 C   0  0  0  0  0  0  0  0  0  0  0  0
    0.5849   -0.6463   -2.1467 H   0  0  0  0  0  0  0  0  0  0  0  0
    0.2832    0.1494   -3.6988 H   0  0  0  0  0  0  0  0  0  0  0  0
    1.2860    0.9552   -2.4712 H   0  0  0  0  0  0  0  0  0  0  0  0
   -0.1913    0.1554    1.7759 C   0  0  0  0  0  0  0  0  0  0  0  0
    0.9897    0.1907    2.1137 O   0  0  0  0  0  0  0  0  0  0  0  0
   -1.1947    0.3395    2.6438 N   0  0  0  0  0  0  0  0  0  0  0  0
   -2.1370    0.3016    2.2893 H   0  0  0  0  0  0  0  0  0  0  0  0
   -1.0034    0.5938    4.0698 C   0  0  0  0  0  0  0  0  0  0  0  0
   -0.4067    1.4985    4.2062 H   0  0  0  0  0  0  0  0  0  0  0  0
   -1.9676    0.7212    4.5643 H   0  0  0  0  0  0  0  0  0  0  0  0
   -0.4721   -0.2433    4.5253 H   0  0  0  0  0  0  0  0  0  0  0  0
  5  6  2  0  0  0  0
  5  7  1  0  0  0  0
  2  3  1  0  0  0  0
  2  4  1  0  0  0  0
  2  5  1  0  0  0  0
  1  2  1  0  0  0  0
 24 25  2  0  0  0  0
 24 26  1  0  0  0  0
 20 21  1  0  0  0  0
 20 22  1  0  0  0  0
 20 23  1  0  0  0  0
 16 17  1  0  0  0  0
 16 18  1  0  0  0  0
 16 19  1  0  0  0  0
 14 15  1  0  0  0  0
 14 16  1  0  0  0  0
 14 20  1  0  0  0  0
 11 12  1  0  0  0  0
 11 13  1  0  0  0  0
 11 14  1  0  0  0  0
  9 10  1  0  0  0  0
  9 11  1  0  0  0  0
  9 24  1  0  0  0  0
  7  8  1  0  0  0  0
  7  9  1  0  0  0  0
 28 29  1  0  0  0  0
 28 30  1  0  0  0  0
 28 31  1  0  0  0  0
 26 27  1  0  0  0  0
 26 28  1  0  0  0  0
M  END
$$$$
default_name
  -OEChem-01062215323D

 31 30  0     1  0  0  0  0  0999 V2000
   -3.5895   -3.5013    1.1082 H   0  0  0  0  0  0  0  0  0  0  0  0
   -3.5145   -2.5363    0.6082 C   0  0  0  0  0  0  0  0  0  0  0  0
   -4.2285   -1.8413    1.0452 H   0  0  0  0  0  0  0  0  0  0  0  0
   -3.7155   -2.6583   -0.4538 H   0  0  0  0  0  0  0  0  0  0  0  0
   -2.1155   -1.9963    0.7922 C   0  0  0  0  0  0  0  0  0  0  0  0
   -1.2875   -2.6383    1.4252 O   0  0  0  0  0  0  0  0  0  0  0  0
   -1.8575   -0.8123    0.2402 N   0  0  0  0  0  0  0  0  0  0  0  0
   -2.6005   -0.3333   -0.2478 H   0  0  0  0  0  0  0  0  0  0  0  0
   -0.5675   -0.1203    0.3102 C   0  0  1  0  0  0  0  0  0  0  0  0
    0.1932   -0.7715   -0.1219 H   0  0  0  0  0  0  0  0  0  0  0  0
   -0.6568    1.1713   -0.5294 C   0  0  0  0  0  0  0  0  0  0  0  0
   -1.4916    1.7701   -0.1601 H   0  0  0  0  0  0  0  0  0  0  0  0
    0.2589    1.7439   -0.3658 H   0  0  0  0  0  0  0  0  0  0  0  0
   -0.8334    0.9731   -2.0461 C   0  0  0  0  0  0  0  0  0  0  0  0
   -1.6806    0.3137   -2.2350 H   0  0  0  0  0  0  0  0  0  0  0  0
   -1.0596    2.2975   -2.7810 C   0  0  0  0  0  0  0  0  0  0  0  0
   -0.2266    2.9750   -2.5884 H   0  0  0  0  0  0  0  0  0  0  0  0
   -1.1299    2.1149   -3.8535 H   0  0  0  0  0  0  0  0  0  0  0  0
   -1.9834    2.7673   -2.4506 H   0  0  0  0  0  0  0  0  0  0  0  0
    0.4167    0.3160   -2.6299 C   0  0  0  0  0  0  0  0  0  0  0  0
    0.5849   -0.6463   -2.1467 H   0  0  0  0  0  0  0  0  0  0  0  0
    0.2832    0.1494   -3.6988 H   0  0  0  0  0  0  0  0  0  0  0  0
    1.2860    0.9552   -2.4712 H   0  0  0  0  0  0  0  0  0  0  0  0
   -0.1913    0.1554    1.7759 C   0  0  0  0  0  0  0  0  0  0  0  0
    0.9616    0.4632    2.0697 O   0  0  0  0  0  0  0  0  0  0  0  0
   -1.1605    0.0345    2.6924 N   0  0  0  0  0  0  0  0  0  0  0  0
   -2.0826   -0.2155    2.3727 H   0  0  0  0  0  0  0  0  0  0  0  0
   -0.9602    0.2460    4.1241 C   0  0  0  0  0  0  0  0  0  0  0  0
   -0.5970    1.2611    4.2997 H   0  0  0  0  0  0  0  0  0  0  0  0
   -1.8979    0.1015    4.6630 H   0  0  0  0  0  0  0  0  0  0  0  0
   -0.2160   -0.4579    4.5000 H   0  0  0  0  0  0  0  0  0  0  0  0
  5  6  2  0  0  0  0
  5  7  1  0  0  0  0
  2  3  1  0  0  0  0
  2  4  1  0  0  0  0
  2  5  1  0  0  0  0
  1  2  1  0  0  0  0
 24 25  2  0  0  0  0
 24 26  1  0  0  0  0
 20 21  1  0  0  0  0
 20 22  1  0  0  0  0
 20 23  1  0  0  0  0
 16 17  1  0  0  0  0
 16 18  1  0  0  0  0
 16 19  1  0  0  0  0
 14 15  1  0  0  0  0
 14 16  1  0  0  0  0
 14 20  1  0  0  0  0
 11 12  1  0  0  0  0
 11 13  1  0  0  0  0
 11 14  1  0  0  0  0
  9 10  1  0  0  0  0
  9 11  1  0  0  0  0
  9 24  1  0  0  0  0
  7  8  1  0  0  0  0
  7  9  1  0  0  0  0
 28 29  1  0  0  0  0
 28 30  1  0  0  0  0
 28 31  1  0  0  0  0
 26 27  1  0  0  0  0
 26 28  1  0  0  0  0
M  END
$$$$
default_name
  -OEChem-01062215323D

 31 30  0     1  0  0  0  0  0999 V2000
   -3.5895   -3.5013    1.1082 H   0  0  0  0  0  0  0  0  0  0  0  0
   -3.5145   -2.5363    0.6082 C   0  0  0  0  0  0  0  0  0  0  0  0
   -4.2285   -1.8413    1.0452 H   0  0  0  0  0  0  0  0  0  0  0  0
   -3.7155   -2.6583   -0.4538 H   0  0  0  0  0  0  0  0  0  0  0  0
   -2.1155   -1.9963    0.7922 C   0  0  0  0  0  0  0  0  0  0  0  0
   -1.2875   -2.6383    1.4252 O   0  0  0  0  0  0  0  0  0  0  0  0
   -1.8575   -0.8123    0.2402 N   0  0  0  0  0  0  0  0  0  0  0  0
   -2.6005   -0.3333   -0.2478 H   0  0  0  0  0  0  0  0  0  0  0  0
   -0.5675   -0.1203    0.3102 C   0  0  1  0  0  0  0  0  0  0  0  0
    0.1932   -0.7715   -0.1219 H   0  0  0  0  0  0  0  0  0  0  0  0
   -0.6568    1.1713   -0.5294 C   0  0  0  0  0  0  0  0  0  0  0  0
   -1.4916    1.7701   -0.1601 H   0  0  0  0  0  0  0  0  0  0  0  0
    0.2589    1.7439   -0.3658 H   0  0  0  0  0  0  0  0  0  0  0  0
   -0.8334    0.9731   -2.0461 C   0  0  0  0  0  0  0  0  0  0  0  0
   -1.6806    0.3137   -2.2350 H   0  0  0  0  0  0  0  0  0  0  0  0
   -1.0596    2.2975   -2.7810 C   0  0  0  0  0  0  0  0  0  0  0  0
   -0.2266    2.9750   -2.5884 H   0  0  0  0  0  0  0  0  0  0  0  0
   -1.1299    2.1149   -3.8535 H   0  0  0  0  0  0  0  0  0  0  0  0
   -1.9834    2.7673   -2.4506 H   0  0  0  0  0  0  0  0  0  0  0  0
    0.4167    0.3160   -2.6299 C   0  0  0  0  0  0  0  0  0  0  0  0
    0.5849   -0.6463   -2.1467 H   0  0  0  0  0  0  0  0  0  0  0  0
    0.2832    0.1494   -3.6988 H   0  0  0  0  0  0  0  0  0  0  0  0
    1.2860    0.9552   -2.4712 H   0  0  0  0  0  0  0  0  0  0  0  0
   -0.1913    0.1554    1.7759 C   0  0  0  0  0  0  0  0  0  0  0  0
    0.8652    0.7222    2.0457 O   0  0  0  0  0  0  0  0  0  0  0  0
   -1.0500   -0.2546    2.7184 N   0  0  0  0  0  0  0  0  0  0  0  0
   -1.8986   -0.7069    2.4179 H   0  0  0  0  0  0  0  0  0  0  0  0
   -0.8302   -0.0828    4.1526 C   0  0  0  0  0  0  0  0  0  0  0  0
   -0.7179    0.9789    4.3838 H   0  0  0  0  0  0  0  0  0  0  0  0
   -1.6731   -0.4861    4.7158 H   0  0  0  0  0  0  0  0  0  0  0  0
    0.0832   -0.6003    4.4500 H   0  0  0  0  0  0  0  0  0  0  0  0
  5  6  2  0  0  0  0
  5  7  1  0  0  0  0
  2  3  1  0  0  0  0
  2  4  1  0  0  0  0
  2  5  1  0  0  0  0
  1  2  1  0  0  0  0
 24 25  2  0  0  0  0
 24 26  1  0  0  0  0
 20 21  1  0  0  0  0
 20 22  1  0  0  0  0
 20 23  1  0  0  0  0
 16 17  1  0  0  0  0
 16 18  1  0  0  0  0
 16 19  1  0  0  0  0
 14 15  1  0  0  0  0
 14 16  1  0  0  0  0
 14 20  1  0  0  0  0
 11 12  1  0  0  0  0
 11 13  1  0  0  0  0
 11 14  1  0  0  0  0
  9 10  1  0  0  0  0
  9 11  1  0  0  0  0
  9 24  1  0  0  0  0
  7  8  1  0  0  0  0
  7  9  1  0  0  0  0
 28 29  1  0  0  0  0
 28 30  1  0  0  0  0
 28 31  1  0  0  0  0
 26 27  1  0  0  0  0
 26 28  1  0  0  0  0
M  END
$$$$
default_name
  -OEChem-01062215323D

 31 30  0     1  0  0  0  0  0999 V2000
   -3.5895   -3.5013    1.1082 H   0  0  0  0  0  0  0  0  0  0  0  0
   -3.5145   -2.5363    0.6082 C   0  0  0  0  0  0  0  0  0  0  0  0
   -4.2285   -1.8413    1.0452 H   0  0  0  0  0  0  0  0  0  0  0  0
   -3.7155   -2.6583   -0.4538 H   0  0  0  0  0  0  0  0  0  0  0  0
   -2.1155   -1.9963    0.7922 C   0  0  0  0  0  0  0  0  0  0  0  0
   -1.2875   -2.6383    1.4252 O   0  0  0  0  0  0  0  0  0  0  0  0
   -1.8575   -0.8123    0.2402 N   0  0  0  0  0  0  0  0  0  0  0  0
   -2.6005   -0.3333   -0.2478 H   0  0  0  0  0  0  0  0  0  0  0  0
   -0.5675   -0.1203    0.3102 C   0  0  1  0  0  0  0  0  0  0  0  0
    0.1932   -0.7715   -0.1219 H   0  0  0  0  0  0  0  0  0  0  0  0
   -0.6568    1.1713   -0.5294 C   0  0  0  0  0  0  0  0  0  0  0  0
   -1.4916    1.7701   -0.1601 H   0  0  0  0  0  0  0  0  0  0  0  0
    0.2589    1.7439   -0.3658 H   0  0  0  0  0  0  0  0  0  0  0  0
   -0.8334    0.9731   -2.0461 C   0  0  0  0  0  0  0  0  0  0  0  0
   -1.6806    0.3137   -2.2350 H   0  0  0  0  0  0  0  0  0  0  0  0
   -1.0596    2.2975   -2.7810 C   0  0  0  0  0  0  0  0  0  0  0  0
   -0.2266    2.9750   -2.5884 H   0  0  0  0  0  0  0  0  0  0  0  0
   -1.1299    2.1149   -3.8535 H   0  0  0  0  0  0  0  0  0  0  0  0
   -1.9834    2.7673   -2.4506 H   0  0  0  0  0  0  0  0  0  0  0  0
    0.4167    0.3160   -2.6299 C   0  0  0  0  0  0  0  0  0  0  0  0
    0.5849   -0.6463   -2.1467 H   0  0  0  0  0  0  0  0  0  0  0  0
    0.2832    0.1494   -3.6988 H   0  0  0  0  0  0  0  0  0  0  0  0
    1.2860    0.9552   -2.4712 H   0  0  0  0  0  0  0  0  0  0  0  0
   -0.1913    0.1554    1.7759 C   0  0  0  0  0  0  0  0  0  0  0  0
    0.7070    0.9502    2.0434 O   0  0  0  0  0  0  0  0  0  0  0  0
   -0.8708   -0.5083    2.7201 N   0  0  0  0  0  0  0  0  0  0  0  0
   -1.5977   -1.1390    2.4219 H   0  0  0  0  0  0  0  0  0  0  0  0
   -0.6222   -0.3700    4.1533 C   0  0  0  0  0  0  0  0  0  0  0  0
   -0.7612    0.6712    4.4528 H   0  0  0  0  0  0  0  0  0  0  0  0
   -1.3087   -1.0016    4.7193 H   0  0  0  0  0  0  0  0  0  0  0  0
    0.4050   -0.6610    4.3788 H   0  0  0  0  0  0  0  0  0  0  0  0
  5  6  2  0  0  0  0
  5  7  1  0  0  0  0
  2  3  1  0  0  0  0
  2  4  1  0  0  0  0
  2  5  1  0  0  0  0
  1  2  1  0  0  0  0
 24 25  2  0  0  0  0
 24 26  1  0  0  0  0
 20 21  1  0  0  0  0
 20 22  1  0  0  0  0
 20 23  1  0  0  0  0
 16 17  1  0  0  0  0
 16 18  1  0  0  0  0
 16 19  1  0  0  0  0
 14 15  1  0  0  0  0
 14 16  1  0  0  0  0
 14 20  1  0  0  0  0
 11 12  1  0  0  0  0
 11 13  1  0  0  0  0
 11 14  1  0  0  0  0
  9 10  1  0  0  0  0
  9 11  1  0  0  0  0
  9 24  1  0  0  0  0
  7  8  1  0  0  0  0
  7  9  1  0  0  0  0
 28 29  1  0  0  0  0
 28 30  1  0  0  0  0
 28 31  1  0  0  0  0
 26 27  1  0  0  0  0
 26 28  1  0  0  0  0
M  END
$$$$
default_name
  -OEChem-01062215323D

 31 30  0     1  0  0  0  0  0999 V2000
   -3.5895   -3.5013    1.1082 H   0  0  0  0  0  0  0  0  0  0  0  0
   -3.5145   -2.5363    0.6082 C   0  0  0  0  0  0  0  0  0  0  0  0
   -4.2285   -1.8413    1.0452 H   0  0  0  0  0  0  0  0  0  0  0  0
   -3.7155   -2.6583   -0.4538 H   0  0  0  0  0  0  0  0  0  0  0  0
   -2.1155   -1.9963    0.7922 C   0  0  0  0  0  0  0  0  0  0  0  0
   -1.2875   -2.6383    1.4252 O   0  0  0  0  0  0  0  0  0  0  0  0
   -1.8575   -0.8123    0.2402 N   0  0  0  0  0  0  0  0  0  0  0  0
   -2.6005   -0.3333   -0.2478 H   0  0  0  0  0  0  0  0  0  0  0  0
   -0.5675   -0.1203    0.3102 C   0  0  1  0  0  0  0  0  0  0  0  0
    0.1932   -0.7715   -0.1219 H   0  0  0  0  0  0  0  0  0  0  0  0
   -0.6568    1.1713   -0.5294 C   0  0  0  0  0  0  0  0  0  0  0  0
   -1.4916    1.7701   -0.1601 H   0  0  0  0  0  0  0  0  0  0  0  0
    0.2589    1.7439   -0.3658 H   0  0  0  0  0  0  0  0  0  0  0  0
   -0.8334    0.9731   -2.0461 C   0  0  0  0  0  0  0  0  0  0  0  0
   -1.6806    0.3137   -2.2350 H   0  0  0  0  0  0  0  0  0  0  0  0
   -1.0596    2.2975   -2.7810 C   0  0  0  0  0  0  0  0  0  0  0  0
   -0.2266    2.9750   -2.5884 H   0  0  0  0  0  0  0  0  0  0  0  0
   -1.1299    2.1149   -3.8535 H   0  0  0  0  0  0  0  0  0  0  0  0
   -1.9834    2.7673   -2.4506 H   0  0  0  0  0  0  0  0  0  0  0  0
    0.4167    0.3160   -2.6299 C   0  0  0  0  0  0  0  0  0  0  0  0
    0.5849   -0.6463   -2.1467 H   0  0  0  0  0  0  0  0  0  0  0  0
    0.2832    0.1494   -3.6988 H   0  0  0  0  0  0  0  0  0  0  0  0
    1.2860    0.9552   -2.4712 H   0  0  0  0  0  0  0  0  0  0  0  0
   -0.1913    0.1554    1.7759 C   0  0  0  0  0  0  0  0  0  0  0  0
    0.4980    1.1315    2.0630 O   0  0  0  0  0  0  0  0  0  0  0  0
   -0.6350   -0.7093    2.6974 N   0  0  0  0  0  0  0  0  0  0  0  0
   -1.2002   -1.4824    2.3845 H   0  0  0  0  0  0  0  0  0  0  0  0
   -0.3504   -0.5963    4.1261 C   0  0  0  0  0  0  0  0  0  0  0  0
   -0.7240    0.3589    4.5020 H   0  0  0  0  0  0  0  0  0  0  0  0
   -0.8293   -1.4098    4.6731 H   0  0  0  0  0  0  0  0  0  0  0  0
    0.7274   -0.6357    4.2913 H   0  0  0  0  0  0  0  0  0  0  0  0
  5  6  2  0  0  0  0
  5  7  1  0  0  0  0
  2  3  1  0  0  0  0
  2  4  1  0  0  0  0
  2  5  1  0  0  0  0
  1  2  1  0  0  0  0
 24 25  2  0  0  0  0
 24 26  1  0  0  0  0
 20 21  1  0  0  0  0
 20 22  1  0  0  0  0
 20 23  1  0  0  0  0
 16 17  1  0  0  0  0
 16 18  1  0  0  0  0
 16 19  1  0  0  0  0
 14 15  1  0  0  0  0
 14 16  1  0  0  0  0
 14 20  1  0  0  0  0
 11 12  1  0  0  0  0
 11 13  1  0  0  0  0
 11 14  1  0  0  0  0
  9 10  1  0  0  0  0
  9 11  1  0  0  0  0
  9 24  1  0  0  0  0
  7  8  1  0  0  0  0
  7  9  1  0  0  0  0
 28 29  1  0  0  0  0
 28 30  1  0  0  0  0
 28 31  1  0  0  0  0
 26 27  1  0  0  0  0
 26 28  1  0  0  0  0
M  END
$$$$
default_name
  -OEChem-01062215323D

 31 30  0     1  0  0  0  0  0999 V2000
   -3.5895   -3.5013    1.1082 H   0  0  0  0  0  0  0  0  0  0  0  0
   -3.5145   -2.5363    0.6082 C   0  0  0  0  0  0  0  0  0  0  0  0
   -4.2285   -1.8413    1.0452 H   0  0  0  0  0  0  0  0  0  0  0  0
   -3.7155   -2.6583   -0.4538 H   0  0  0  0  0  0  0  0  0  0  0  0
   -2.1155   -1.9963    0.7922 C   0  0  0  0  0  0  0  0  0  0  0  0
   -1.2875   -2.6383    1.4252 O   0  0  0  0  0  0  0  0  0  0  0  0
   -1.8575   -0.8123    0.2402 N   0  0  0  0  0  0  0  0  0  0  0  0
   -2.6005   -0.3333   -0.2478 H   0  0  0  0  0  0  0  0  0  0  0  0
   -0.5675   -0.1203    0.3102 C   0  0  1  0  0  0  0  0  0  0  0  0
    0.1932   -0.7715   -0.1219 H   0  0  0  0  0  0  0  0  0  0  0  0
   -0.6568    1.1713   -0.5294 C   0  0  0  0  0  0  0  0  0  0  0  0
   -1.4916    1.7701   -0.1601 H   0  0  0  0  0  0  0  0  0  0  0  0
    0.2589    1.7439   -0.3658 H   0  0  0  0  0  0  0  0  0  0  0  0
   -0.8334    0.9731   -2.0461 C   0  0  0  0  0  0  0  0  0  0  0  0
   -1.6806    0.3137   -2.2350 H   0  0  0  0  0  0  0  0  0  0  0  0
   -1.0596    2.2975   -2.7810 C   0  0  0  0  0  0  0  0  0  0  0  0
   -0.2266    2.9750   -2.5884 H   0  0  0  0  0  0  0  0  0  0  0  0
   -1.1299    2.1149   -3.8535 H   0  0  0  0  0  0  0  0  0  0  0  0
   -1.9834    2.7673   -2.4506 H   0  0  0  0  0  0  0  0  0  0  0  0
    0.4167    0.3160   -2.6299 C   0  0  0  0  0  0  0  0  0  0  0  0
    0.5849   -0.6463   -2.1467 H   0  0  0  0  0  0  0  0  0  0  0  0
    0.2832    0.1494   -3.6988 H   0  0  0  0  0  0  0  0  0  0  0  0
    1.2860    0.9552   -2.4712 H   0  0  0  0  0  0  0  0  0  0  0  0
   -0.1913    0.1554    1.7759 C   0  0  0  0  0  0  0  0  0  0  0  0
    0.2522    1.2538    2.1030 O   0  0  0  0  0  0  0  0  0  0  0  0
   -0.3587   -0.8439    2.6518 N   0  0  0  0  0  0  0  0  0  0  0  0
   -0.7333   -1.7137    2.3082 H   0  0  0  0  0  0  0  0  0  0  0  0
   -0.0334   -0.7460    4.0729 C   0  0  0  0  0  0  0  0  0  0  0  0
   -0.6087    0.0633    4.5280 H   0  0  0  0  0  0  0  0  0  0  0  0
   -0.2678   -1.6830    4.5803 H   0  0  0  0  0  0  0  0  0  0  0  0
    1.0286   -0.5262    4.1934 H   0  0  0  0  0  0  0  0  0  0  0  0
  5  6  2  0  0  0  0
  5  7  1  0  0  0  0
  2  3  1  0  0  0  0
  2  4  1  0  0  0  0
  2  5  1  0  0  0  0
  1  2  1  0  0  0  0
 24 25  2  0  0  0  0
 24 26  1  0  0  0  0
 20 21  1  0  0  0  0
 20 22  1  0  0  0  0
 20 23  1  0  0  0  0
 16 17  1  0  0  0  0
 16 18  1  0  0  0  0
 16 19  1  0  0  0  0
 14 15  1  0  0  0  0
 14 16  1  0  0  0  0
 14 20  1  0  0  0  0
 11 12  1  0  0  0  0
 11 13  1  0  0  0  0
 11 14  1  0  0  0  0
  9 10  1  0  0  0  0
  9 11  1  0  0  0  0
  9 24  1  0  0  0  0
  7  8  1  0  0  0  0
  7  9  1  0  0  0  0
 28 29  1  0  0  0  0
 28 30  1  0  0  0  0
 28 31  1  0  0  0  0
 26 27  1  0  0  0  0
 26 28  1  0  0  0  0
M  END
$$$$
default_name
  -OEChem-01062215323D

 31 30  0     1  0  0  0  0  0999 V2000
   -3.5895   -3.5013    1.1082 H   0  0  0  0  0  0  0  0  0  0  0  0
   -3.5145   -2.5363    0.6082 C   0  0  0  0  0  0  0  0  0  0  0  0
   -4.2285   -1.8413    1.0452 H   0  0  0  0  0  0  0  0  0  0  0  0
   -3.7155   -2.6583   -0.4538 H   0  0  0  0  0  0  0  0  0  0  0  0
   -2.1155   -1.9963    0.7922 C   0  0  0  0  0  0  0  0  0  0  0  0
   -1.2875   -2.6383    1.4252 O   0  0  0  0  0  0  0  0  0  0  0  0
   -1.8575   -0.8123    0.2402 N   0  0  0  0  0  0  0  0  0  0  0  0
   -2.6005   -0.3333   -0.2478 H   0  0  0  0  0  0  0  0  0  0  0  0
   -0.5675   -0.1203    0.3102 C   0  0  1  0  0  0  0  0  0  0  0  0
    0.1932   -0.7715   -0.1219 H   0  0  0  0  0  0  0  0  0  0  0  0
   -0.6568    1.1713   -0.5294 C   0  0  0  0  0  0  0  0  0  0  0  0
   -1.4916    1.7701   -0.1601 H   0  0  0  0  0  0  0  0  0  0  0  0
    0.2589    1.7439   -0.3658 H   0  0  0  0  0  0  0  0  0  0  0  0
   -0.8334    0.9731   -2.0461 C   0  0  0  0  0  0  0  0  0  0  0  0
   -1.6806    0.3137   -2.2350 H   0  0  0  0  0  0  0  0  0  0  0  0
   -1.0596    2.2975   -2.7810 C   0  0  0  0  0  0  0  0  0  0  0  0
   -0.2266    2.9750   -2.5884 H   0  0  0  0  0  0  0  0  0  0  0  0
   -1.1299    2.1149   -3.8535 H   0  0  0  0  0  0  0  0  0  0  0  0
   -1.9834    2.7673   -2.4506 H   0  0  0  0  0  0  0  0  0  0  0  0
    0.4167    0.3160   -2.6299 C   0  0  0  0  0  0  0  0  0  0  0  0
    0.5849   -0.6463   -2.1467 H   0  0  0  0  0  0  0  0  0  0  0  0
    0.2832    0.1494   -3.6988 H   0  0  0  0  0  0  0  0  0  0  0  0
    1.2860    0.9552   -2.4712 H   0  0  0  0  0  0  0  0  0  0  0  0
   -0.1913    0.1554    1.7759 C   0  0  0  0  0  0  0  0  0  0  0  0
   -0.0135    1.3088    2.1609 O   0  0  0  0  0  0  0  0  0  0  0  0
   -0.0608   -0.9028    2.5865 N   0  0  0  0  0  0  0  0  0  0  0  0
   -0.2289   -1.8171    2.1982 H   0  0  0  0  0  0  0  0  0  0  0  0
    0.3074   -0.8091    3.9973 C   0  0  0  0  0  0  0  0  0  0  0  0
   -0.4232   -0.1954    4.5291 H   0  0  0  0  0  0  0  0  0  0  0  0
    0.3377   -1.8025    4.4474 H   0  0  0  0  0  0  0  0  0  0  0  0
    1.2880   -0.3400    4.0918 H   0  0  0  0  0  0  0  0  0  0  0  0
  5  6  2  0  0  0  0
  5  7  1  0  0  0  0
  2  3  1  0  0  0  0
  2  4  1  0  0  0  0
  2  5  1  0  0  0  0
  1  2  1  0  0  0  0
 24 25  2  0  0  0  0
 24 26  1  0  0  0  0
 20 21  1  0  0  0  0
 20 22  1  0  0  0  0
 20 23  1  0  0  0  0
 16 17  1  0  0  0  0
 16 18  1  0  0  0  0
 16 19  1  0  0  0  0
 14 15  1  0  0  0  0
 14 16  1  0  0  0  0
 14 20  1  0  0  0  0
 11 12  1  0  0  0  0
 11 13  1  0  0  0  0
 11 14  1  0  0  0  0
  9 10  1  0  0  0  0
  9 11  1  0  0  0  0
  9 24  1  0  0  0  0
  7  8  1  0  0  0  0
  7  9  1  0  0  0  0
 28 29  1  0  0  0  0
 28 30  1  0  0  0  0
 28 31  1  0  0  0  0
 26 27  1  0  0  0  0
 26 28  1  0  0  0  0
M  END
$$$$
default_name
  -OEChem-01062215323D

 31 30  0     1  0  0  0  0  0999 V2000
   -3.5895   -3.5013    1.1082 H   0  0  0  0  0  0  0  0  0  0  0  0
   -3.5145   -2.5363    0.6082 C   0  0  0  0  0  0  0  0  0  0  0  0
   -4.2285   -1.8413    1.0452 H   0  0  0  0  0  0  0  0  0  0  0  0
   -3.7155   -2.6583   -0.4538 H   0  0  0  0  0  0  0  0  0  0  0  0
   -2.1155   -1.9963    0.7922 C   0  0  0  0  0  0  0  0  0  0  0  0
   -1.2875   -2.6383    1.4252 O   0  0  0  0  0  0  0  0  0  0  0  0
   -1.8575   -0.8123    0.2402 N   0  0  0  0  0  0  0  0  0  0  0  0
   -2.6005   -0.3333   -0.2478 H   0  0  0  0  0  0  0  0  0  0  0  0
   -0.5675   -0.1203    0.3102 C   0  0  1  0  0  0  0  0  0  0  0  0
    0.1932   -0.7715   -0.1219 H   0  0  0  0  0  0  0  0  0  0  0  0
   -0.6568    1.1713   -0.5294 C   0  0  0  0  0  0  0  0  0  0  0  0
   -1.4916    1.7701   -0.1601 H   0  0  0  0  0  0  0  0  0  0  0  0
    0.2589    1.7439   -0.3658 H   0  0  0  0  0  0  0  0  0  0  0  0
   -0.8334    0.9731   -2.0461 C   0  0  0  0  0  0  0  0  0  0  0  0
   -1.6806    0.3137   -2.2350 H   0  0  0  0  0  0  0  0  0  0  0  0
   -1.0596    2.2975   -2.7810 C   0  0  0  0  0  0  0  0  0  0  0  0
   -0.2266    2.9750   -2.5884 H   0  0  0  0  0  0  0  0  0  0  0  0
   -1.1299    2.1149   -3.8535 H   0  0  0  0  0  0  0  0  0  0  0  0
   -1.9834    2.7673   -2.4506 H   0  0  0  0  0  0  0  0  0  0  0  0
    0.4167    0.3160   -2.6299 C   0  0  0  0  0  0  0  0  0  0  0  0
    0.5849   -0.6463   -2.1467 H   0  0  0  0  0  0  0  0  0  0  0  0
    0.2832    0.1494   -3.6988 H   0  0  0  0  0  0  0  0  0  0  0  0
    1.2860    0.9552   -2.4712 H   0  0  0  0  0  0  0  0  0  0  0  0
   -0.1913    0.1554    1.7759 C   0  0  0  0  0  0  0  0  0  0  0  0
   -0.2810    1.2928    2.2325 O   0  0  0  0  0  0  0  0  0  0  0  0
    0.2385   -0.8821    2.5058 N   0  0  0  0  0  0  0  0  0  0  0  0
    0.2788   -1.7856    2.0620 H   0  0  0  0  0  0  0  0  0  0  0  0
    0.6485   -0.7812    3.9045 C   0  0  0  0  0  0  0  0  0  0  0  0
   -0.1802   -0.3996    4.5051 H   0  0  0  0  0  0  0  0  0  0  0  0
    0.9459   -1.7602    4.2834 H   0  0  0  0  0  0  0  0  0  0  0  0
    1.4879   -0.0897    3.9935 H   0  0  0  0  0  0  0  0  0  0  0  0
  5  6  2  0  0  0  0
  5  7  1  0  0  0  0
  2  3  1  0  0  0  0
  2  4  1  0  0  0  0
  2  5  1  0  0  0  0
  1  2  1  0  0  0  0
 24 25  2  0  0  0  0
 24 26  1  0  0  0  0
 20 21  1  0  0  0  0
 20 22  1  0  0  0  0
 20 23  1  0  0  0  0
 16 17  1  0  0  0  0
 16 18  1  0  0  0  0
 16 19  1  0  0  0  0
 14 15  1  0  0  0  0
 14 16  1  0  0  0  0
 14 20  1  0  0  0  0
 11 12  1  0  0  0  0
 11 13  1  0  0  0  0
 11 14  1  0  0  0  0
  9 10  1  0  0  0  0
  9 11  1  0  0  0  0
  9 24  1  0  0  0  0
  7  8  1  0  0  0  0
  7  9  1  0  0  0  0
 28 29  1  0  0  0  0
 28 30  1  0  0  0  0
 28 31  1  0  0  0  0
 26 27  1  0  0  0  0
 26 28  1  0  0  0  0
M  END
$$$$
default_name
  -OEChem-01062215323D

 31 30  0     1  0  0  0  0  0999 V2000
   -3.5895   -3.5013    1.1082 H   0  0  0  0  0  0  0  0  0  0  0  0
   -3.5145   -2.5363    0.6082 C   0  0  0  0  0  0  0  0  0  0  0  0
   -4.2285   -1.8413    1.0452 H   0  0  0  0  0  0  0  0  0  0  0  0
   -3.7155   -2.6583   -0.4538 H   0  0  0  0  0  0  0  0  0  0  0  0
   -2.1155   -1.9963    0.7922 C   0  0  0  0  0  0  0  0  0  0  0  0
   -1.2875   -2.6383    1.4252 O   0  0  0  0  0  0  0  0  0  0  0  0
   -1.8575   -0.8123    0.2402 N   0  0  0  0  0  0  0  0  0  0  0  0
   -2.6005   -0.3333   -0.2478 H   0  0  0  0  0  0  0  0  0  0  0  0
   -0.5675   -0.1203    0.3102 C   0  0  1  0  0  0  0  0  0  0  0  0
    0.1932   -0.7715   -0.1219 H   0  0  0  0  0  0  0  0  0  0  0  0
   -0.6568    1.1713   -0.5294 C   0  0  0  0  0  0  0  0  0  0  0  0
   -1.4916    1.7701   -0.1601 H   0  0  0  0  0  0  0  0  0  0  0  0
    0.2589    1.7439   -0.3658 H   0  0  0  0  0  0  0  0  0  0  0  0
   -0.8334    0.9731   -2.0461 C   0  0  0  0  0  0  0  0  0  0  0  0
   -1.6806    0.3137   -2.2350 H   0  0  0  0  0  0  0  0  0  0  0  0
   -1.0596    2.2975   -2.7810 C   0  0  0  0  0  0  0  0  0  0  0  0
   -0.2266    2.9750   -2.5884 H   0  0  0  0  0  0  0  0  0  0  0  0
   -1.1299    2.1149   -3.8535 H   0  0  0  0  0  0  0  0  0  0  0  0
   -1.9834    2.7673   -2.4506 H   0  0  0  0  0  0  0  0  0  0  0  0
    0.4167    0.3160   -2.6299 C   0  0  0  0  0  0  0  0  0  0  0  0
    0.5849   -0.6463   -2.1467 H   0  0  0  0  0  0  0  0  0  0  0  0
    0.2832    0.1494   -3.6988 H   0  0  0  0  0  0  0  0  0  0  0  0
    1.2860    0.9552   -2.4712 H   0  0  0  0  0  0  0  0  0  0  0  0
   -0.1913    0.1554    1.7759 C   0  0  0  0  0  0  0  0  0  0  0  0
   -0.5321    1.2068    2.3132 O   0  0  0  0  0  0  0  0  0  0  0  0
    0.5187   -0.7832    2.4152 N   0  0  0  0  0  0  0  0  0  0  0  0
    0.7552   -1.6214    1.9089 H   0  0  0  0  0  0  0  0  0  0  0  0
    0.9669   -0.6643    3.8008 C   0  0  0  0  0  0  0  0  0  0  0  0
    0.1038   -0.5354    4.4578 H   0  0  0  0  0  0  0  0  0  0  0  0
    1.5153   -1.5590    4.0994 H   0  0  0  0  0  0  0  0  0  0  0  0
    1.6147    0.2076    3.9050 H   0  0  0  0  0  0  0  0  0  0  0  0
  5  6  2  0  0  0  0
  5  7  1  0  0  0  0
  2  3  1  0  0  0  0
  2  4  1  0  0  0  0
  2  5  1  0  0  0  0
  1  2  1  0  0  0  0
 24 25  2  0  0  0  0
 24 26  1  0  0  0  0
 20 21  1  0  0  0  0
 20 22  1  0  0  0  0
 20 23  1  0  0  0  0
 16 17  1  0  0  0  0
 16 18  1  0  0  0  0
 16 19  1  0  0  0  0
 14 15  1  0  0  0  0
 14 16  1  0  0  0  0
 14 20  1  0  0  0  0
 11 12  1  0  0  0  0
 11 13  1  0  0  0  0
 11 14  1  0  0  0  0
  9 10  1  0  0  0  0
  9 11  1  0  0  0  0
  9 24  1  0  0  0  0
  7  8  1  0  0  0  0
  7  9  1  0  0  0  0
 28 29  1  0  0  0  0
 28 30  1  0  0  0  0
 28 31  1  0  0  0  0
 26 27  1  0  0  0  0
 26 28  1  0  0  0  0
M  END
$$$$
default_name
  -OEChem-01062215323D

 31 30  0     1  0  0  0  0  0999 V2000
   -3.5895   -3.5013    1.1082 H   0  0  0  0  0  0  0  0  0  0  0  0
   -3.5145   -2.5363    0.6082 C   0  0  0  0  0  0  0  0  0  0  0  0
   -4.2285   -1.8413    1.0452 H   0  0  0  0  0  0  0  0  0  0  0  0
   -3.7155   -2.6583   -0.4538 H   0  0  0  0  0  0  0  0  0  0  0  0
   -2.1155   -1.9963    0.7922 C   0  0  0  0  0  0  0  0  0  0  0  0
   -1.2875   -2.6383    1.4252 O   0  0  0  0  0  0  0  0  0  0  0  0
   -1.8575   -0.8123    0.2402 N   0  0  0  0  0  0  0  0  0  0  0  0
   -2.6005   -0.3333   -0.2478 H   0  0  0  0  0  0  0  0  0  0  0  0
   -0.5675   -0.1203    0.3102 C   0  0  1  0  0  0  0  0  0  0  0  0
    0.1932   -0.7715   -0.1219 H   0  0  0  0  0  0  0  0  0  0  0  0
   -0.6568    1.1713   -0.5294 C   0  0  0  0  0  0  0  0  0  0  0  0
   -1.4916    1.7701   -0.1601 H   0  0  0  0  0  0  0  0  0  0  0  0
    0.2589    1.7439   -0.3658 H   0  0  0  0  0  0  0  0  0  0  0  0
   -0.8334    0.9731   -2.0461 C   0  0  0  0  0  0  0  0  0  0  0  0
   -1.6806    0.3137   -2.2350 H   0  0  0  0  0  0  0  0  0  0  0  0
   -1.0596    2.2975   -2.7810 C   0  0  0  0  0  0  0  0  0  0  0  0
   -0.2266    2.9750   -2.5884 H   0  0  0  0  0  0  0  0  0  0  0  0
   -1.1299    2.1149   -3.8535 H   0  0  0  0  0  0  0  0  0  0  0  0
   -1.9834    2.7673   -2.4506 H   0  0  0  0  0  0  0  0  0  0  0  0
    0.4167    0.3160   -2.6299 C   0  0  0  0  0  0  0  0  0  0  0  0
    0.5849   -0.6463   -2.1467 H   0  0  0  0  0  0  0  0  0  0  0  0
    0.2832    0.1494   -3.6988 H   0  0  0  0  0  0  0  0  0  0  0  0
    1.2860    0.9552   -2.4712 H   0  0  0  0  0  0  0  0  0  0  0  0
   -0.1913    0.1554    1.7759 C   0  0  0  0  0  0  0  0  0  0  0  0
   -0.7498    1.0567    2.3973 O   0  0  0  0  0  0  0  0  0  0  0  0
    0.7608   -0.6128    2.3211 N   0  0  0  0  0  0  0  0  0  0  0  0
    1.1676   -1.3356    1.7493 H   0  0  0  0  0  0  0  0  0  0  0  0
    1.2408   -0.4663    3.6933 C   0  0  0  0  0  0  0  0  0  0  0  0
    0.4094   -0.5935    4.3903 H   0  0  0  0  0  0  0  0  0  0  0  0
    2.0072   -1.2125    3.9080 H   0  0  0  0  0  0  0  0  0  0  0  0
    1.6597    0.5316    3.8325 H   0  0  0  0  0  0  0  0  0  0  0  0
  5  6  2  0  0  0  0
  5  7  1  0  0  0  0
  2  3  1  0  0  0  0
  2  4  1  0  0  0  0
  2  5  1  0  0  0  0
  1  2  1  0  0  0  0
 24 25  2  0  0  0  0
 24 26  1  0  0  0  0
 20 21  1  0  0  0  0
 20 22  1  0  0  0  0
 20 23  1  0  0  0  0
 16 17  1  0  0  0  0
 16 18  1  0  0  0  0
 16 19  1  0  0  0  0
 14 15  1  0  0  0  0
 14 16  1  0  0  0  0
 14 20  1  0  0  0  0
 11 12  1  0  0  0  0
 11 13  1  0  0  0  0
 11 14  1  0  0  0  0
  9 10  1  0  0  0  0
  9 11  1  0  0  0  0
  9 24  1  0  0  0  0
  7  8  1  0  0  0  0
  7  9  1  0  0  0  0
 28 29  1  0  0  0  0
 28 30  1  0  0  0  0
 28 31  1  0  0  0  0
 26 27  1  0  0  0  0
 26 28  1  0  0  0  0
M  END
$$$$
default_name
  -OEChem-01062215323D

 31 30  0     1  0  0  0  0  0999 V2000
   -3.5895   -3.5013    1.1082 H   0  0  0  0  0  0  0  0  0  0  0  0
   -3.5145   -2.5363    0.6082 C   0  0  0  0  0  0  0  0  0  0  0  0
   -4.2285   -1.8413    1.0452 H   0  0  0  0  0  0  0  0  0  0  0  0
   -3.7155   -2.6583   -0.4538 H   0  0  0  0  0  0  0  0  0  0  0  0
   -2.1155   -1.9963    0.7922 C   0  0  0  0  0  0  0  0  0  0  0  0
   -1.2875   -2.6383    1.4252 O   0  0  0  0  0  0  0  0  0  0  0  0
   -1.8575   -0.8123    0.2402 N   0  0  0  0  0  0  0  0  0  0  0  0
   -2.6005   -0.3333   -0.2478 H   0  0  0  0  0  0  0  0  0  0  0  0
   -0.5675   -0.1203    0.3102 C   0  0  1  0  0  0  0  0  0  0  0  0
    0.1932   -0.7715   -0.1219 H   0  0  0  0  0  0  0  0  0  0  0  0
   -0.6568    1.1713   -0.5294 C   0  0  0  0  0  0  0  0  0  0  0  0
   -1.4916    1.7701   -0.1601 H   0  0  0  0  0  0  0  0  0  0  0  0
    0.2589    1.7439   -0.3658 H   0  0  0  0  0  0  0  0  0  0  0  0
   -0.8334    0.9731   -2.0461 C   0  0  0  0  0  0  0  0  0  0  0  0
   -1.6806    0.3137   -2.2350 H   0  0  0  0  0  0  0  0  0  0  0  0
   -1.0596    2.2975   -2.7810 C   0  0  0  0  0  0  0  0  0  0  0  0
   -0.2266    2.9750   -2.5884 H   0  0  0  0  0  0  0  0  0  0  0  0
   -1.1299    2.1149   -3.8535 H   0  0  0  0  0  0  0  0  0  0  0  0
   -1.9834    2.7673   -2.4506 H   0  0  0  0  0  0  0  0  0  0  0  0
    0.4167    0.3160   -2.6299 C   0  0  0  0  0  0  0  0  0  0  0  0
    0.5849   -0.6463   -2.1467 H   0  0  0  0  0  0  0  0  0  0  0  0
    0.2832    0.1494   -3.6988 H   0  0  0  0  0  0  0  0  0  0  0  0
    1.2860    0.9552   -2.4712 H   0  0  0  0  0  0  0  0  0  0  0  0
   -0.1913    0.1554    1.7759 C   0  0  0  0  0  0  0  0  0  0  0  0
   -0.9190    0.8527    2.4791 O   0  0  0  0  0  0  0  0  0  0  0  0
    0.9482   -0.3826    2.2297 N   0  0  0  0  0  0  0  0  0  0  0  0
    1.4882   -0.9477    1.5940 H   0  0  0  0  0  0  0  0  0  0  0  0
    1.4515   -0.2006    3.5892 C   0  0  0  0  0  0  0  0  0  0  0  0
    0.7158   -0.5700    4.3073 H   0  0  0  0  0  0  0  0  0  0  0  0
    2.3879   -0.7444    3.7223 H   0  0  0  0  0  0  0  0  0  0  0  0
    1.6199    0.8603    3.7809 H   0  0  0  0  0  0  0  0  0  0  0  0
  5  6  2  0  0  0  0
  5  7  1  0  0  0  0
  2  3  1  0  0  0  0
  2  4  1  0  0  0  0
  2  5  1  0  0  0  0
  1  2  1  0  0  0  0
 24 25  2  0  0  0  0
 24 26  1  0  0  0  0
 20 21  1  0  0  0  0
 20 22  1  0  0  0  0
 20 23  1  0  0  0  0
 16 17  1  0  0  0  0
 16 18  1  0  0  0  0
 16 19  1  0  0  0  0
 14 15  1  0  0  0  0
 14 16  1  0  0  0  0
 14 20  1  0  0  0  0
 11 12  1  0  0  0  0
 11 13  1  0  0  0  0
 11 14  1  0  0  0  0
  9 10  1  0  0  0  0
  9 11  1  0  0  0  0
  9 24  1  0  0  0  0
  7  8  1  0  0  0  0
  7  9  1  0  0  0  0
 28 29  1  0  0  0  0
 28 30  1  0  0  0  0
 28 31  1  0  0  0  0
 26 27  1  0  0  0  0
 26 28  1  0  0  0  0
M  END
$$$$
default_name
  -OEChem-01062215323D

 31 30  0     1  0  0  0  0  0999 V2000
   -3.5895   -3.5013    1.1082 H   0  0  0  0  0  0  0  0  0  0  0  0
   -3.5145   -2.5363    0.6082 C   0  0  0  0  0  0  0  0  0  0  0  0
   -4.2285   -1.8413    1.0452 H   0  0  0  0  0  0  0  0  0  0  0  0
   -3.7155   -2.6583   -0.4538 H   0  0  0  0  0  0  0  0  0  0  0  0
   -2.1155   -1.9963    0.7922 C   0  0  0  0  0  0  0  0  0  0  0  0
   -1.2875   -2.6383    1.4252 O   0  0  0  0  0  0  0  0  0  0  0  0
   -1.8575   -0.8123    0.2402 N   0  0  0  0  0  0  0  0  0  0  0  0
   -2.6005   -0.3333   -0.2478 H   0  0  0  0  0  0  0  0  0  0  0  0
   -0.5675   -0.1203    0.3102 C   0  0  1  0  0  0  0  0  0  0  0  0
    0.1932   -0.7715   -0.1219 H   0  0  0  0  0  0  0  0  0  0  0  0
   -0.6568    1.1713   -0.5294 C   0  0  0  0  0  0  0  0  0  0  0  0
   -1.4916    1.7701   -0.1601 H   0  0  0  0  0  0  0  0  0  0  0  0
    0.2589    1.7439   -0.3658 H   0  0  0  0  0  0  0  0  0  0  0  0
   -0.8334    0.9731   -2.0461 C   0  0  0  0  0  0  0  0  0  0  0  0
   -1.6806    0.3137   -2.2350 H   0  0  0  0  0  0  0  0  0  0  0  0
   -1.0596    2.2975   -2.7810 C   0  0  0  0  0  0  0  0  0  0  0  0
   -0.2266    2.9750   -2.5884 H   0  0  0  0  0  0  0  0  0  0  0  0
   -1.1299    2.1149   -3.8535 H   0  0  0  0  0  0  0  0  0  0  0  0
   -1.9834    2.7673   -2.4506 H   0  0  0  0  0  0  0  0  0  0  0  0
    0.4167    0.3160   -2.6299 C   0  0  0  0  0  0  0  0  0  0  0  0
    0.5849   -0.6463   -2.1467 H   0  0  0  0  0  0  0  0  0  0  0  0
    0.2832    0.1494   -3.6988 H   0  0  0  0  0  0  0  0  0  0  0  0
    1.2860    0.9552   -2.4712 H   0  0  0  0  0  0  0  0  0  0  0  0
   -0.1913    0.1554    1.7759 C   0  0  0  0  0  0  0  0  0  0  0  0
   -1.0284    0.6087    2.5530 O   0  0  0  0  0  0  0  0  0  0  0  0
    1.0683   -0.1081    2.1472 N   0  0  0  0  0  0  0  0  0  0  0  0
    1.6949   -0.4842    1.4538 H   0  0  0  0  0  0  0  0  0  0  0  0
    1.5846    0.1145    3.4958 C   0  0  0  0  0  0  0  0  0  0  0  0
    1.0021   -0.4665    4.2143 H   0  0  0  0  0  0  0  0  0  0  0  0
    2.6317   -0.1867    3.5548 H   0  0  0  0  0  0  0  0  0  0  0  0
    1.4981    1.1712    3.7537 H   0  0  0  0  0  0  0  0  0  0  0  0
  5  6  2  0  0  0  0
  5  7  1  0  0  0  0
  2  3  1  0  0  0  0
  2  4  1  0  0  0  0
  2  5  1  0  0  0  0
  1  2  1  0  0  0  0
 24 25  2  0  0  0  0
 24 26  1  0  0  0  0
 20 21  1  0  0  0  0
 20 22  1  0  0  0  0
 20 23  1  0  0  0  0
 16 17  1  0  0  0  0
 16 18  1  0  0  0  0
 16 19  1  0  0  0  0
 14 15  1  0  0  0  0
 14 16  1  0  0  0  0
 14 20  1  0  0  0  0
 11 12  1  0  0  0  0
 11 13  1  0  0  0  0
 11 14  1  0  0  0  0
  9 10  1  0  0  0  0
  9 11  1  0  0  0  0
  9 24  1  0  0  0  0
  7  8  1  0  0  0  0
  7  9  1  0  0  0  0
 28 29  1  0  0  0  0
 28 30  1  0  0  0  0
 28 31  1  0  0  0  0
 26 27  1  0  0  0  0
 26 28  1  0  0  0  0
M  END
$$$$
default_name
  -OEChem-01062215323D

 31 30  0     1  0  0  0  0  0999 V2000
   -3.5895   -3.5013    1.1082 H   0  0  0  0  0  0  0  0  0  0  0  0
   -3.5145   -2.5363    0.6082 C   0  0  0  0  0  0  0  0  0  0  0  0
   -4.2285   -1.8413    1.0452 H   0  0  0  0  0  0  0  0  0  0  0  0
   -3.7155   -2.6583   -0.4538 H   0  0  0  0  0  0  0  0  0  0  0  0
   -2.1155   -1.9963    0.7922 C   0  0  0  0  0  0  0  0  0  0  0  0
   -1.2875   -2.6383    1.4252 O   0  0  0  0  0  0  0  0  0  0  0  0
   -1.8575   -0.8123    0.2402 N   0  0  0  0  0  0  0  0  0  0  0  0
   -2.6005   -0.3333   -0.2478 H   0  0  0  0  0  0  0  0  0  0  0  0
   -0.5675   -0.1203    0.3102 C   0  0  1  0  0  0  0  0  0  0  0  0
    0.1932   -0.7715   -0.1219 H   0  0  0  0  0  0  0  0  0  0  0  0
   -0.6568    1.1713   -0.5294 C   0  0  0  0  0  0  0  0  0  0  0  0
   -1.4916    1.7701   -0.1601 H   0  0  0  0  0  0  0  0  0  0  0  0
    0.2589    1.7439   -0.3658 H   0  0  0  0  0  0  0  0  0  0  0  0
   -0.8334    0.9731   -2.0461 C   0  0  0  0  0  0  0  0  0  0  0  0
   -1.6806    0.3137   -2.2350 H   0  0  0  0  0  0  0  0  0  0  0  0
   -1.0596    2.2975   -2.7810 C   0  0  0  0  0  0  0  0  0  0  0  0
   -0.2266    2.9750   -2.5884 H   0  0  0  0  0  0  0  0  0  0  0  0
   -1.1299    2.1149   -3.8535 H   0  0  0  0  0  0  0  0  0  0  0  0
   -1.9834    2.7673   -2.4506 H   0  0  0  0  0  0  0  0  0  0  0  0
    0.4167    0.3160   -2.6299 C   0  0  0  0  0  0  0  0  0  0  0  0
    0.5849   -0.6463   -2.1467 H   0  0  0  0  0  0  0  0  0  0  0  0
    0.2832    0.1494   -3.6988 H   0  0  0  0  0  0  0  0  0  0  0  0
    1.2860    0.9552   -2.4712 H   0  0  0  0  0  0  0  0  0  0  0  0
   -0.1913    0.1554    1.7759 C   0  0  0  0  0  0  0  0  0  0  0  0
   -1.0705    0.3413    2.6141 O   0  0  0  0  0  0  0  0  0  0  0  0
    1.1127    0.1917    2.0794 N   0  0  0  0  0  0  0  0  0  0  0  0
    1.7738    0.0235    1.3381 H   0  0  0  0  0  0  0  0  0  0  0  0
    1.6312    0.4577    3.4193 C   0  0  0  0  0  0  0  0  0  0  0  0
    1.2488   -0.2900    4.1178 H   0  0  0  0  0  0  0  0  0  0  0  0
    2.7217    0.4229    3.4170 H   0  0  0  0  0  0  0  0  0  0  0  0
    1.3024    1.4432    3.7527 H   0  0  0  0  0  0  0  0  0  0  0  0
  5  6  2  0  0  0  0
  5  7  1  0  0  0  0
  2  3  1  0  0  0  0
  2  4  1  0  0  0  0
  2  5  1  0  0  0  0
  1  2  1  0  0  0  0
 24 25  2  0  0  0  0
 24 26  1  0  0  0  0
 20 21  1  0  0  0  0
 20 22  1  0  0  0  0
 20 23  1  0  0  0  0
 16 17  1  0  0  0  0
 16 18  1  0  0  0  0
 16 19  1  0  0  0  0
 14 15  1  0  0  0  0
 14 16  1  0  0  0  0
 14 20  1  0  0  0  0
 11 12  1  0  0  0  0
 11 13  1  0  0  0  0
 11 14  1  0  0  0  0
  9 10  1  0  0  0  0
  9 11  1  0  0  0  0
  9 24  1  0  0  0  0
  7  8  1  0  0  0  0
  7  9  1  0  0  0  0
 28 29  1  0  0  0  0
 28 30  1  0  0  0  0
 28 31  1  0  0  0  0
 26 27  1  0  0  0  0
 26 28  1  0  0  0  0
M  END
$$$$
default_name
  -OEChem-01062215323D

 31 30  0     1  0  0  0  0  0999 V2000
   -3.5895   -3.5013    1.1082 H   0  0  0  0  0  0  0  0  0  0  0  0
   -3.5145   -2.5363    0.6082 C   0  0  0  0  0  0  0  0  0  0  0  0
   -4.2285   -1.8413    1.0452 H   0  0  0  0  0  0  0  0  0  0  0  0
   -3.7155   -2.6583   -0.4538 H   0  0  0  0  0  0  0  0  0  0  0  0
   -2.1155   -1.9963    0.7922 C   0  0  0  0  0  0  0  0  0  0  0  0
   -1.2875   -2.6383    1.4252 O   0  0  0  0  0  0  0  0  0  0  0  0
   -1.8575   -0.8123    0.2402 N   0  0  0  0  0  0  0  0  0  0  0  0
   -2.6005   -0.3333   -0.2478 H   0  0  0  0  0  0  0  0  0  0  0  0
   -0.5675   -0.1203    0.3102 C   0  0  1  0  0  0  0  0  0  0  0  0
    0.1932   -0.7715   -0.1219 H   0  0  0  0  0  0  0  0  0  0  0  0
   -0.6568    1.1713   -0.5294 C   0  0  0  0  0  0  0  0  0  0  0  0
   -1.4916    1.7701   -0.1601 H   0  0  0  0  0  0  0  0  0  0  0  0
    0.2589    1.7439   -0.3658 H   0  0  0  0  0  0  0  0  0  0  0  0
   -0.8334    0.9731   -2.0461 C   0  0  0  0  0  0  0  0  0  0  0  0
   -1.6806    0.3137   -2.2350 H   0  0  0  0  0  0  0  0  0  0  0  0
   -1.0596    2.2975   -2.7810 C   0  0  0  0  0  0  0  0  0  0  0  0
   -0.2266    2.9750   -2.5884 H   0  0  0  0  0  0  0  0  0  0  0  0
   -1.1299    2.1149   -3.8535 H   0  0  0  0  0  0  0  0  0  0  0  0
   -1.9834    2.7673   -2.4506 H   0  0  0  0  0  0  0  0  0  0  0  0
    0.4167    0.3160   -2.6299 C   0  0  0  0  0  0  0  0  0  0  0  0
    0.5849   -0.6463   -2.1467 H   0  0  0  0  0  0  0  0  0  0  0  0
    0.2832    0.1494   -3.6988 H   0  0  0  0  0  0  0  0  0  0  0  0
    1.2860    0.9552   -2.4712 H   0  0  0  0  0  0  0  0  0  0  0  0
   -0.1913    0.1554    1.7759 C   0  0  0  0  0  0  0  0  0  0  0  0
   -1.0424    0.0689    2.6582 O   0  0  0  0  0  0  0  0  0  0  0  0
    1.0785    0.4966    2.0308 N   0  0  0  0  0  0  0  0  0  0  0  0
    1.7194    0.5406    1.2547 H   0  0  0  0  0  0  0  0  0  0  0  0
    1.5880    0.8055    3.3649 C   0  0  0  0  0  0  0  0  0  0  0  0
    1.4391   -0.0526    4.0243 H   0  0  0  0  0  0  0  0  0  0  0  0
    2.6520    1.0425    3.3184 H   0  0  0  0  0  0  0  0  0  0  0  0
    1.0462    1.6578    3.7781 H   0  0  0  0  0  0  0  0  0  0  0  0
  5  6  2  0  0  0  0
  5  7  1  0  0  0  0
  2  3  1  0  0  0  0
  2  4  1  0  0  0  0
  2  5  1  0  0  0  0
  1  2  1  0  0  0  0
 24 25  2  0  0  0  0
 24 26  1  0  0  0  0
 20 21  1  0  0  0  0
 20 22  1  0  0  0  0
 20 23  1  0  0  0  0
 16 17  1  0  0  0  0
 16 18  1  0  0  0  0
 16 19  1  0  0  0  0
 14 15  1  0  0  0  0
 14 16  1  0  0  0  0
 14 20  1  0  0  0  0
 11 12  1  0  0  0  0
 11 13  1  0  0  0  0
 11 14  1  0  0  0  0
  9 10  1  0  0  0  0
  9 11  1  0  0  0  0
  9 24  1  0  0  0  0
  7  8  1  0  0  0  0
  7  9  1  0  0  0  0
 28 29  1  0  0  0  0
 28 30  1  0  0  0  0
 28 31  1  0  0  0  0
 26 27  1  0  0  0  0
 26 28  1  0  0  0  0
M  END
$$$$
default_name
  -OEChem-01062215323D

 31 30  0     1  0  0  0  0  0999 V2000
   -3.5895   -3.5013    1.1082 H   0  0  0  0  0  0  0  0  0  0  0  0
   -3.5145   -2.5363    0.6082 C   0  0  0  0  0  0  0  0  0  0  0  0
   -4.2285   -1.8413    1.0452 H   0  0  0  0  0  0  0  0  0  0  0  0
   -3.7155   -2.6583   -0.4538 H   0  0  0  0  0  0  0  0  0  0  0  0
   -2.1155   -1.9963    0.7922 C   0  0  0  0  0  0  0  0  0  0  0  0
   -1.2875   -2.6383    1.4252 O   0  0  0  0  0  0  0  0  0  0  0  0
   -1.8575   -0.8123    0.2402 N   0  0  0  0  0  0  0  0  0  0  0  0
   -2.6005   -0.3333   -0.2478 H   0  0  0  0  0  0  0  0  0  0  0  0
   -0.5675   -0.1203    0.3102 C   0  0  1  0  0  0  0  0  0  0  0  0
    0.1327   -0.6360   -0.3479 H   0  0  0  0  0  0  0  0  0  0  0  0
   -0.7575    1.3254   -0.1949 C   0  0  0  0  0  0  0  0  0  0  0  0
   -1.5392    1.8023    0.3996 H   0  0  0  0  0  0  0  0  0  0  0  0
    0.1723    1.8700   -0.0165 H   0  0  0  0  0  0  0  0  0  0  0  0
   -1.1207    1.4720   -1.6840 C   0  0  0  0  0  0  0  0  0  0  0  0
   -1.9859    0.8506   -1.9148 H   0  0  0  0  0  0  0  0  0  0  0  0
   -1.4336    2.9222   -2.0638 C   0  0  0  0  0  0  0  0  0  0  0  0
   -0.5820    3.5602   -1.8235 H   0  0  0  0  0  0  0  0  0  0  0  0
   -1.6364    2.9861   -3.1331 H   0  0  0  0  0  0  0  0  0  0  0  0
   -2.3087    3.2801   -1.5256 H   0  0  0  0  0  0  0  0  0  0  0  0
    0.0465    0.9981   -2.5491 C   0  0  0  0  0  0  0  0  0  0  0  0
    0.2714   -0.0440   -2.3226 H   0  0  0  0  0  0  0  0  0  0  0  0
   -0.2185    1.0750   -3.6036 H   0  0  0  0  0  0  0  0  0  0  0  0
    0.9298    1.6074   -2.3547 H   0  0  0  0  0  0  0  0  0  0  0  0
   -0.0125   -0.1747    1.7437 C   0  0  0  0  0  0  0  0  0  0  0  0
   -0.6499   -0.7369    2.6312 O   0  0  0  0  0  0  0  0  0  0  0  0
    1.1674    0.4178    1.9689 N   0  0  0  0  0  0  0  0  0  0  0  0
    1.6326    0.8530    1.1884 H   0  0  0  0  0  0  0  0  0  0  0  0
    1.8189    0.4676    3.2757 C   0  0  0  0  0  0  0  0  0  0  0  0
    1.9932   -0.5474    3.6398 H   0  0  0  0  0  0  0  0  0  0  0  0
    2.7728    0.9922    3.2035 H   0  0  0  0  0  0  0  0  0  0  0  0
    1.1754    0.9855    3.9887 H   0  0  0  0  0  0  0  0  0  0  0  0
  5  6  2  0  0  0  0
  5  7  1  0  0  0  0
  2  3  1  0  0  0  0
  2  4  1  0  0  0  0
  2  5  1  0  0  0  0
  1  2  1  0  0  0  0
 24 25  2  0  0  0  0
 24 26  1  0  0  0  0
 20 21  1  0  0  0  0
 20 22  1  0  0  0  0
 20 23  1  0  0  0  0
 16 17  1  0  0  0  0
 16 18  1  0  0  0  0
 16 19  1  0  0  0  0
 14 15  1  0  0  0  0
 14 16  1  0  0  0  0
 14 20  1  0  0  0  0
 11 12  1  0  0  0  0
 11 13  1  0  0  0  0
 11 14  1  0  0  0  0
  9 10  1  0  0  0  0
  9 11  1  0  0  0  0
  9 24  1  0  0  0  0
  7  8  1  0  0  0  0
  7  9  1  0  0  0  0
 28 29  1  0  0  0  0
 28 30  1  0  0  0  0
 28 31  1  0  0  0  0
 26 27  1  0  0  0  0
 26 28  1  0  0  0  0
M  END
$$$$
default_name
  -OEChem-01062215323D

 31 30  0     1  0  0  0  0  0999 V2000
   -3.5895   -3.5013    1.1082 H   0  0  0  0  0  0  0  0  0  0  0  0
   -3.5145   -2.5363    0.6082 C   0  0  0  0  0  0  0  0  0  0  0  0
   -4.2285   -1.8413    1.0452 H   0  0  0  0  0  0  0  0  0  0  0  0
   -3.7155   -2.6583   -0.4538 H   0  0  0  0  0  0  0  0  0  0  0  0
   -2.1155   -1.9963    0.7922 C   0  0  0  0  0  0  0  0  0  0  0  0
   -1.2875   -2.6383    1.4252 O   0  0  0  0  0  0  0  0  0  0  0  0
   -1.8575   -0.8123    0.2402 N   0  0  0  0  0  0  0  0  0  0  0  0
   -2.6005   -0.3333   -0.2478 H   0  0  0  0  0  0  0  0  0  0  0  0
   -0.5675   -0.1203    0.3102 C   0  0  1  0  0  0  0  0  0  0  0  0
    0.1327   -0.6360   -0.3479 H   0  0  0  0  0  0  0  0  0  0  0  0
   -0.7575    1.3254   -0.1949 C   0  0  0  0  0  0  0  0  0  0  0  0
   -1.5392    1.8023    0.3996 H   0  0  0  0  0  0  0  0  0  0  0  0
    0.1723    1.8700   -0.0165 H   0  0  0  0  0  0  0  0  0  0  0  0
   -1.1207    1.4720   -1.6840 C   0  0  0  0  0  0  0  0  0  0  0  0
   -1.9859    0.8506   -1.9148 H   0  0  0  0  0  0  0  0  0  0  0  0
   -1.4336    2.9222   -2.0638 C   0  0  0  0  0  0  0  0  0  0  0  0
   -0.5820    3.5602   -1.8235 H   0  0  0  0  0  0  0  0  0  0  0  0
   -1.6364    2.9861   -3.1331 H   0  0  0  0  0  0  0  0  0  0  0  0
   -2.3087    3.2801   -1.5256 H   0  0  0  0  0  0  0  0  0  0  0  0
    0.0465    0.9981   -2.5491 C   0  0  0  0  0  0  0  0  0  0  0  0
    0.2714   -0.0440   -2.3226 H   0  0  0  0  0  0  0  0  0  0  0  0
   -0.2185    1.0750   -3.6036 H   0  0  0  0  0  0  0  0  0  0  0  0
    0.9298    1.6074   -2.3547 H   0  0  0  0  0  0  0  0  0  0  0  0
   -0.0125   -0.1747    1.7437 C   0  0  0  0  0  0  0  0  0  0  0  0
   -0.4931   -0.9551    2.5623 O   0  0  0  0  0  0  0  0  0  0  0  0
    0.9898    0.6604    2.0468 N   0  0  0  0  0  0  0  0  0  0  0  0
    1.3342    1.2666    1.3196 H   0  0  0  0  0  0  0  0  0  0  0  0
    1.6129    0.7419    3.3659 C   0  0  0  0  0  0  0  0  0  0  0  0
    2.0281   -0.2310    3.6383 H   0  0  0  0  0  0  0  0  0  0  0  0
    2.4117    1.4852    3.3620 H   0  0  0  0  0  0  0  0  0  0  0  0
    0.8650    1.0199    4.1102 H   0  0  0  0  0  0  0  0  0  0  0  0
  5  6  2  0  0  0  0
  5  7  1  0  0  0  0
  2  3  1  0  0  0  0
  2  4  1  0  0  0  0
  2  5  1  0  0  0  0
  1  2  1  0  0  0  0
 24 25  2  0  0  0  0
 24 26  1  0  0  0  0
 20 21  1  0  0  0  0
 20 22  1  0  0  0  0
 20 23  1  0  0  0  0
 16 17  1  0  0  0  0
 16 18  1  0  0  0  0
 16 19  1  0  0  0  0
 14 15  1  0  0  0  0
 14 16  1  0  0  0  0
 14 20  1  0  0  0  0
 11 12  1  0  0  0  0
 11 13  1  0  0  0  0
 11 14  1  0  0  0  0
  9 10  1  0  0  0  0
  9 11  1  0  0  0  0
  9 24  1  0  0  0  0
  7  8  1  0  0  0  0
  7  9  1  0  0  0  0
 28 29  1  0  0  0  0
 28 30  1  0  0  0  0
 28 31  1  0  0  0  0
 26 27  1  0  0  0  0
 26 28  1  0  0  0  0
M  END
$$$$
default_name
  -OEChem-01062215323D

 31 30  0     1  0  0  0  0  0999 V2000
   -3.5895   -3.5013    1.1082 H   0  0  0  0  0  0  0  0  0  0  0  0
   -3.5145   -2.5363    0.6082 C   0  0  0  0  0  0  0  0  0  0  0  0
   -4.2285   -1.8413    1.0452 H   0  0  0  0  0  0  0  0  0  0  0  0
   -3.7155   -2.6583   -0.4538 H   0  0  0  0  0  0  0  0  0  0  0  0
   -2.1155   -1.9963    0.7922 C   0  0  0  0  0  0  0  0  0  0  0  0
   -1.2875   -2.6383    1.4252 O   0  0  0  0  0  0  0  0  0  0  0  0
   -1.8575   -0.8123    0.2402 N   0  0  0  0  0  0  0  0  0  0  0  0
   -2.6005   -0.3333   -0.2478 H   0  0  0  0  0  0  0  0  0  0  0  0
   -0.5675   -0.1203    0.3102 C   0  0  1  0  0  0  0  0  0  0  0  0
    0.1327   -0.6360   -0.3479 H   0  0  0  0  0  0  0  0  0  0  0  0
   -0.7575    1.3254   -0.1949 C   0  0  0  0  0  0  0  0  0  0  0  0
   -1.5392    1.8023    0.3996 H   0  0  0  0  0  0  0  0  0  0  0  0
    0.1723    1.8700   -0.0165 H   0  0  0  0  0  0  0  0  0  0  0  0
   -1.1207    1.4720   -1.6840 C   0  0  0  0  0  0  0  0  0  0  0  0
   -1.9859    0.8506   -1.9148 H   0  0  0  0  0  0  0  0  0  0  0  0
   -1.4336    2.9222   -2.0638 C   0  0  0  0  0  0  0  0  0  0  0  0
   -0.5820    3.5602   -1.8235 H   0  0  0  0  0  0  0  0  0  0  0  0
   -1.6364    2.9861   -3.1331 H   0  0  0  0  0  0  0  0  0  0  0  0
   -2.3087    3.2801   -1.5256 H   0  0  0  0  0  0  0  0  0  0  0  0
    0.0465    0.9981   -2.5491 C   0  0  0  0  0  0  0  0  0  0  0  0
    0.2714   -0.0440   -2.3226 H   0  0  0  0  0  0  0  0  0  0  0  0
   -0.2185    1.0750   -3.6036 H   0  0  0  0  0  0  0  0  0  0  0  0
    0.9298    1.6074   -2.3547 H   0  0  0  0  0  0  0  0  0  0  0  0
   -0.0125   -0.1747    1.7437 C   0  0  0  0  0  0  0  0  0  0  0  0
   -0.2884   -1.1216    2.4767 O   0  0  0  0  0  0  0  0  0  0  0  0
    0.7590    0.8447    2.1432 N   0  0  0  0  0  0  0  0  0  0  0  0
    0.9450    1.5819    1.4822 H   0  0  0  0  0  0  0  0  0  0  0  0
    1.3470    0.9488    3.4767 C   0  0  0  0  0  0  0  0  0  0  0  0
    1.9856    0.0832    3.6667 H   0  0  0  0  0  0  0  0  0  0  0  0
    1.9425    1.8594    3.5578 H   0  0  0  0  0  0  0  0  0  0  0  0
    0.5558    0.9668    4.2279 H   0  0  0  0  0  0  0  0  0  0  0  0
  5  6  2  0  0  0  0
  5  7  1  0  0  0  0
  2  3  1  0  0  0  0
  2  4  1  0  0  0  0
  2  5  1  0  0  0  0
  1  2  1  0  0  0  0
 24 25  2  0  0  0  0
 24 26  1  0  0  0  0
 20 21  1  0  0  0  0
 20 22  1  0  0  0  0
 20 23  1  0  0  0  0
 16 17  1  0  0  0  0
 16 18  1  0  0  0  0
 16 19  1  0  0  0  0
 14 15  1  0  0  0  0
 14 16  1  0  0  0  0
 14 20  1  0  0  0  0
 11 12  1  0  0  0  0
 11 13  1  0  0  0  0
 11 14  1  0  0  0  0
  9 10  1  0  0  0  0
  9 11  1  0  0  0  0
  9 24  1  0  0  0  0
  7  8  1  0  0  0  0
  7  9  1  0  0  0  0
 28 29  1  0  0  0  0
 28 30  1  0  0  0  0
 28 31  1  0  0  0  0
 26 27  1  0  0  0  0
 26 28  1  0  0  0  0
M  END
$$$$
default_name
  -OEChem-01062215323D

 31 30  0     1  0  0  0  0  0999 V2000
   -3.5895   -3.5013    1.1082 H   0  0  0  0  0  0  0  0  0  0  0  0
   -3.5145   -2.5363    0.6082 C   0  0  0  0  0  0  0  0  0  0  0  0
   -4.2285   -1.8413    1.0452 H   0  0  0  0  0  0  0  0  0  0  0  0
   -3.7155   -2.6583   -0.4538 H   0  0  0  0  0  0  0  0  0  0  0  0
   -2.1155   -1.9963    0.7922 C   0  0  0  0  0  0  0  0  0  0  0  0
   -1.2875   -2.6383    1.4252 O   0  0  0  0  0  0  0  0  0  0  0  0
   -1.8575   -0.8123    0.2402 N   0  0  0  0  0  0  0  0  0  0  0  0
   -2.6005   -0.3333   -0.2478 H   0  0  0  0  0  0  0  0  0  0  0  0
   -0.5675   -0.1203    0.3102 C   0  0  1  0  0  0  0  0  0  0  0  0
    0.1327   -0.6360   -0.3479 H   0  0  0  0  0  0  0  0  0  0  0  0
   -0.7575    1.3254   -0.1949 C   0  0  0  0  0  0  0  0  0  0  0  0
   -1.5392    1.8023    0.3996 H   0  0  0  0  0  0  0  0  0  0  0  0
    0.1723    1.8700   -0.0165 H   0  0  0  0  0  0  0  0  0  0  0  0
   -1.1207    1.4720   -1.6840 C   0  0  0  0  0  0  0  0  0  0  0  0
   -1.9859    0.8506   -1.9148 H   0  0  0  0  0  0  0  0  0  0  0  0
   -1.4336    2.9222   -2.0638 C   0  0  0  0  0  0  0  0  0  0  0  0
   -0.5820    3.5602   -1.8235 H   0  0  0  0  0  0  0  0  0  0  0  0
   -1.6364    2.9861   -3.1331 H   0  0  0  0  0  0  0  0  0  0  0  0
   -2.3087    3.2801   -1.5256 H   0  0  0  0  0  0  0  0  0  0  0  0
    0.0465    0.9981   -2.5491 C   0  0  0  0  0  0  0  0  0  0  0  0
    0.2714   -0.0440   -2.3226 H   0  0  0  0  0  0  0  0  0  0  0  0
   -0.2185    1.0750   -3.6036 H   0  0  0  0  0  0  0  0  0  0  0  0
    0.9298    1.6074   -2.3547 H   0  0  0  0  0  0  0  0  0  0  0  0
   -0.0125   -0.1747    1.7437 C   0  0  0  0  0  0  0  0  0  0  0  0
   -0.0497   -1.2251    2.3803 O   0  0  0  0  0  0  0  0  0  0  0  0
    0.4907    0.9580    2.2513 N   0  0  0  0  0  0  0  0  0  0  0  0
    0.4916    1.7773    1.6652 H   0  0  0  0  0  0  0  0  0  0  0  0
    1.0392    1.0741    3.6006 C   0  0  0  0  0  0  0  0  0  0  0  0
    1.8685    0.3738    3.7230 H   0  0  0  0  0  0  0  0  0  0  0  0
    1.3972    2.0894    3.7777 H   0  0  0  0  0  0  0  0  0  0  0  0
    0.2689    0.8300    4.3338 H   0  0  0  0  0  0  0  0  0  0  0  0
  5  6  2  0  0  0  0
  5  7  1  0  0  0  0
  2  3  1  0  0  0  0
  2  4  1  0  0  0  0
  2  5  1  0  0  0  0
  1  2  1  0  0  0  0
 24 25  2  0  0  0  0
 24 26  1  0  0  0  0
 20 21  1  0  0  0  0
 20 22  1  0  0  0  0
 20 23  1  0  0  0  0
 16 17  1  0  0  0  0
 16 18  1  0  0  0  0
 16 19  1  0  0  0  0
 14 15  1  0  0  0  0
 14 16  1  0  0  0  0
 14 20  1  0  0  0  0
 11 12  1  0  0  0  0
 11 13  1  0  0  0  0
 11 14  1  0  0  0  0
  9 10  1  0  0  0  0
  9 11  1  0  0  0  0
  9 24  1  0  0  0  0
  7  8  1  0  0  0  0
  7  9  1  0  0  0  0
 28 29  1  0  0  0  0
 28 30  1  0  0  0  0
 28 31  1  0  0  0  0
 26 27  1  0  0  0  0
 26 28  1  0  0  0  0
M  END
$$$$
default_name
  -OEChem-01062215323D

 31 30  0     1  0  0  0  0  0999 V2000
   -3.5895   -3.5013    1.1082 H   0  0  0  0  0  0  0  0  0  0  0  0
   -3.5145   -2.5363    0.6082 C   0  0  0  0  0  0  0  0  0  0  0  0
   -4.2285   -1.8413    1.0452 H   0  0  0  0  0  0  0  0  0  0  0  0
   -3.7155   -2.6583   -0.4538 H   0  0  0  0  0  0  0  0  0  0  0  0
   -2.1155   -1.9963    0.7922 C   0  0  0  0  0  0  0  0  0  0  0  0
   -1.2875   -2.6383    1.4252 O   0  0  0  0  0  0  0  0  0  0  0  0
   -1.8575   -0.8123    0.2402 N   0  0  0  0  0  0  0  0  0  0  0  0
   -2.6005   -0.3333   -0.2478 H   0  0  0  0  0  0  0  0  0  0  0  0
   -0.5675   -0.1203    0.3102 C   0  0  1  0  0  0  0  0  0  0  0  0
    0.1327   -0.6360   -0.3479 H   0  0  0  0  0  0  0  0  0  0  0  0
   -0.7575    1.3254   -0.1949 C   0  0  0  0  0  0  0  0  0  0  0  0
   -1.5392    1.8023    0.3996 H   0  0  0  0  0  0  0  0  0  0  0  0
    0.1723    1.8700   -0.0165 H   0  0  0  0  0  0  0  0  0  0  0  0
   -1.1207    1.4720   -1.6840 C   0  0  0  0  0  0  0  0  0  0  0  0
   -1.9859    0.8506   -1.9148 H   0  0  0  0  0  0  0  0  0  0  0  0
   -1.4336    2.9222   -2.0638 C   0  0  0  0  0  0  0  0  0  0  0  0
   -0.5820    3.5602   -1.8235 H   0  0  0  0  0  0  0  0  0  0  0  0
   -1.6364    2.9861   -3.1331 H   0  0  0  0  0  0  0  0  0  0  0  0
   -2.3087    3.2801   -1.5256 H   0  0  0  0  0  0  0  0  0  0  0  0
    0.0465    0.9981   -2.5491 C   0  0  0  0  0  0  0  0  0  0  0  0
    0.2714   -0.0440   -2.3226 H   0  0  0  0  0  0  0  0  0  0  0  0
   -0.2185    1.0750   -3.6036 H   0  0  0  0  0  0  0  0  0  0  0  0
    0.9298    1.6074   -2.3547 H   0  0  0  0  0  0  0  0  0  0  0  0
   -0.0125   -0.1747    1.7437 C   0  0  0  0  0  0  0  0  0  0  0  0
    0.2067   -1.2585    2.2798 O   0  0  0  0  0  0  0  0  0  0  0  0
    0.2033    0.9926    2.3639 N   0  0  0  0  0  0  0  0  0  0  0  0
    0.0048    1.8397    1.8560 H   0  0  0  0  0  0  0  0  0  0  0  0
    0.7106    1.1093    3.7291 C   0  0  0  0  0  0  0  0  0  0  0  0
    1.6848    0.6209    3.8035 H   0  0  0  0  0  0  0  0  0  0  0  0
    0.8130    2.1596    4.0065 H   0  0  0  0  0  0  0  0  0  0  0  0
    0.0237    0.6188    4.4207 H   0  0  0  0  0  0  0  0  0  0  0  0
  5  6  2  0  0  0  0
  5  7  1  0  0  0  0
  2  3  1  0  0  0  0
  2  4  1  0  0  0  0
  2  5  1  0  0  0  0
  1  2  1  0  0  0  0
 24 25  2  0  0  0  0
 24 26  1  0  0  0  0
 20 21  1  0  0  0  0
 20 22  1  0  0  0  0
 20 23  1  0  0  0  0
 16 17  1  0  0  0  0
 16 18  1  0  0  0  0
 16 19  1  0  0  0  0
 14 15  1  0  0  0  0
 14 16  1  0  0  0  0
 14 20  1  0  0  0  0
 11 12  1  0  0  0  0
 11 13  1  0  0  0  0
 11 14  1  0  0  0  0
  9 10  1  0  0  0  0
  9 11  1  0  0  0  0
  9 24  1  0  0  0  0
  7  8  1  0  0  0  0
  7  9  1  0  0  0  0
 28 29  1  0  0  0  0
 28 30  1  0  0  0  0
 28 31  1  0  0  0  0
 26 27  1  0  0  0  0
 26 28  1  0  0  0  0
M  END
$$$$
default_name
  -OEChem-01062215323D

 31 30  0     1  0  0  0  0  0999 V2000
   -3.5895   -3.5013    1.1082 H   0  0  0  0  0  0  0  0  0  0  0  0
   -3.5145   -2.5363    0.6082 C   0  0  0  0  0  0  0  0  0  0  0  0
   -4.2285   -1.8413    1.0452 H   0  0  0  0  0  0  0  0  0  0  0  0
   -3.7155   -2.6583   -0.4538 H   0  0  0  0  0  0  0  0  0  0  0  0
   -2.1155   -1.9963    0.7922 C   0  0  0  0  0  0  0  0  0  0  0  0
   -1.2875   -2.6383    1.4252 O   0  0  0  0  0  0  0  0  0  0  0  0
   -1.8575   -0.8123    0.2402 N   0  0  0  0  0  0  0  0  0  0  0  0
   -2.6005   -0.3333   -0.2478 H   0  0  0  0  0  0  0  0  0  0  0  0
   -0.5675   -0.1203    0.3102 C   0  0  1  0  0  0  0  0  0  0  0  0
    0.1327   -0.6360   -0.3479 H   0  0  0  0  0  0  0  0  0  0  0  0
   -0.7575    1.3254   -0.1949 C   0  0  0  0  0  0  0  0  0  0  0  0
   -1.5392    1.8023    0.3996 H   0  0  0  0  0  0  0  0  0  0  0  0
    0.1723    1.8700   -0.0165 H   0  0  0  0  0  0  0  0  0  0  0  0
   -1.1207    1.4720   -1.6840 C   0  0  0  0  0  0  0  0  0  0  0  0
   -1.9859    0.8506   -1.9148 H   0  0  0  0  0  0  0  0  0  0  0  0
   -1.4336    2.9222   -2.0638 C   0  0  0  0  0  0  0  0  0  0  0  0
   -0.5820    3.5602   -1.8235 H   0  0  0  0  0  0  0  0  0  0  0  0
   -1.6364    2.9861   -3.1331 H   0  0  0  0  0  0  0  0  0  0  0  0
   -2.3087    3.2801   -1.5256 H   0  0  0  0  0  0  0  0  0  0  0  0
    0.0465    0.9981   -2.5491 C   0  0  0  0  0  0  0  0  0  0  0  0
    0.2714   -0.0440   -2.3226 H   0  0  0  0  0  0  0  0  0  0  0  0
   -0.2185    1.0750   -3.6036 H   0  0  0  0  0  0  0  0  0  0  0  0
    0.9298    1.6074   -2.3547 H   0  0  0  0  0  0  0  0  0  0  0  0
   -0.0125   -0.1747    1.7437 C   0  0  0  0  0  0  0  0  0  0  0  0
    0.4634   -1.2195    2.1819 O   0  0  0  0  0  0  0  0  0  0  0  0
   -0.0838    0.9462    2.4733 N   0  0  0  0  0  0  0  0  0  0  0  0
   -0.4823    1.7647    2.0417 H   0  0  0  0  0  0  0  0  0  0  0  0
    0.3834    1.0521    3.8536 C   0  0  0  0  0  0  0  0  0  0  0  0
    1.4470    0.8079    3.9027 H   0  0  0  0  0  0  0  0  0  0  0  0
    0.2297    2.0650    4.2288 H   0  0  0  0  0  0  0  0  0  0  0  0
   -0.1629    0.3475    4.4826 H   0  0  0  0  0  0  0  0  0  0  0  0
  5  6  2  0  0  0  0
  5  7  1  0  0  0  0
  2  3  1  0  0  0  0
  2  4  1  0  0  0  0
  2  5  1  0  0  0  0
  1  2  1  0  0  0  0
 24 25  2  0  0  0  0
 24 26  1  0  0  0  0
 20 21  1  0  0  0  0
 20 22  1  0  0  0  0
 20 23  1  0  0  0  0
 16 17  1  0  0  0  0
 16 18  1  0  0  0  0
 16 19  1  0  0  0  0
 14 15  1  0  0  0  0
 14 16  1  0  0  0  0
 14 20  1  0  0  0  0
 11 12  1  0  0  0  0
 11 13  1  0  0  0  0
 11 14  1  0  0  0  0
  9 10  1  0  0  0  0
  9 11  1  0  0  0  0
  9 24  1  0  0  0  0
  7  8  1  0  0  0  0
  7  9  1  0  0  0  0
 28 29  1  0  0  0  0
 28 30  1  0  0  0  0
 28 31  1  0  0  0  0
 26 27  1  0  0  0  0
 26 28  1  0  0  0  0
M  END
$$$$
default_name
  -OEChem-01062215323D

 31 30  0     1  0  0  0  0  0999 V2000
   -3.5895   -3.5013    1.1082 H   0  0  0  0  0  0  0  0  0  0  0  0
   -3.5145   -2.5363    0.6082 C   0  0  0  0  0  0  0  0  0  0  0  0
   -4.2285   -1.8413    1.0452 H   0  0  0  0  0  0  0  0  0  0  0  0
   -3.7155   -2.6583   -0.4538 H   0  0  0  0  0  0  0  0  0  0  0  0
   -2.1155   -1.9963    0.7922 C   0  0  0  0  0  0  0  0  0  0  0  0
   -1.2875   -2.6383    1.4252 O   0  0  0  0  0  0  0  0  0  0  0  0
   -1.8575   -0.8123    0.2402 N   0  0  0  0  0  0  0  0  0  0  0  0
   -2.6005   -0.3333   -0.2478 H   0  0  0  0  0  0  0  0  0  0  0  0
   -0.5675   -0.1203    0.3102 C   0  0  1  0  0  0  0  0  0  0  0  0
    0.1327   -0.6360   -0.3479 H   0  0  0  0  0  0  0  0  0  0  0  0
   -0.7575    1.3254   -0.1949 C   0  0  0  0  0  0  0  0  0  0  0  0
   -1.5392    1.8023    0.3996 H   0  0  0  0  0  0  0  0  0  0  0  0
    0.1723    1.8700   -0.0165 H   0  0  0  0  0  0  0  0  0  0  0  0
   -1.1207    1.4720   -1.6840 C   0  0  0  0  0  0  0  0  0  0  0  0
   -1.9859    0.8506   -1.9148 H   0  0  0  0  0  0  0  0  0  0  0  0
   -1.4336    2.9222   -2.0638 C   0  0  0  0  0  0  0  0  0  0  0  0
   -0.5820    3.5602   -1.8235 H   0  0  0  0  0  0  0  0  0  0  0  0
   -1.6364    2.9861   -3.1331 H   0  0  0  0  0  0  0  0  0  0  0  0
   -2.3087    3.2801   -1.5256 H   0  0  0  0  0  0  0  0  0  0  0  0
    0.0465    0.9981   -2.5491 C   0  0  0  0  0  0  0  0  0  0  0  0
    0.2714   -0.0440   -2.3226 H   0  0  0  0  0  0  0  0  0  0  0  0
   -0.2185    1.0750   -3.6036 H   0  0  0  0  0  0  0  0  0  0  0  0
    0.9298    1.6074   -2.3547 H   0  0  0  0  0  0  0  0  0  0  0  0
   -0.0125   -0.1747    1.7437 C   0  0  0  0  0  0  0  0  0  0  0  0
    0.7027   -1.1108    2.0934 O   0  0  0  0  0  0  0  0  0  0  0  0
   -0.3508    0.8219    2.5720 N   0  0  0  0  0  0  0  0  0  0  0  0
   -0.9363    1.5574    2.2096 H   0  0  0  0  0  0  0  0  0  0  0  0
    0.0801    0.9062    3.9655 C   0  0  0  0  0  0  0  0  0  0  0  0
    1.1713    0.9218    4.0138 H   0  0  0  0  0  0  0  0  0  0  0  0
   -0.3130    1.8122    4.4293 H   0  0  0  0  0  0  0  0  0  0  0  0
   -0.2784    0.0346    4.5154 H   0  0  0  0  0  0  0  0  0  0  0  0
  5  6  2  0  0  0  0
  5  7  1  0  0  0  0
  2  3  1  0  0  0  0
  2  4  1  0  0  0  0
  2  5  1  0  0  0  0
  1  2  1  0  0  0  0
 24 25  2  0  0  0  0
 24 26  1  0  0  0  0
 20 21  1  0  0  0  0
 20 22  1  0  0  0  0
 20 23  1  0  0  0  0
 16 17  1  0  0  0  0
 16 18  1  0  0  0  0
 16 19  1  0  0  0  0
 14 15  1  0  0  0  0
 14 16  1  0  0  0  0
 14 20  1  0  0  0  0
 11 12  1  0  0  0  0
 11 13  1  0  0  0  0
 11 14  1  0  0  0  0
  9 10  1  0  0  0  0
  9 11  1  0  0  0  0
  9 24  1  0  0  0  0
  7  8  1  0  0  0  0
  7  9  1  0  0  0  0
 28 29  1  0  0  0  0
 28 30  1  0  0  0  0
 28 31  1  0  0  0  0
 26 27  1  0  0  0  0
 26 28  1  0  0  0  0
M  END
$$$$
default_name
  -OEChem-01062215323D

 31 30  0     1  0  0  0  0  0999 V2000
   -3.5895   -3.5013    1.1082 H   0  0  0  0  0  0  0  0  0  0  0  0
   -3.5145   -2.5363    0.6082 C   0  0  0  0  0  0  0  0  0  0  0  0
   -4.2285   -1.8413    1.0452 H   0  0  0  0  0  0  0  0  0  0  0  0
   -3.7155   -2.6583   -0.4538 H   0  0  0  0  0  0  0  0  0  0  0  0
   -2.1155   -1.9963    0.7922 C   0  0  0  0  0  0  0  0  0  0  0  0
   -1.2875   -2.6383    1.4252 O   0  0  0  0  0  0  0  0  0  0  0  0
   -1.8575   -0.8123    0.2402 N   0  0  0  0  0  0  0  0  0  0  0  0
   -2.6005   -0.3333   -0.2478 H   0  0  0  0  0  0  0  0  0  0  0  0
   -0.5675   -0.1203    0.3102 C   0  0  1  0  0  0  0  0  0  0  0  0
    0.1327   -0.6360   -0.3479 H   0  0  0  0  0  0  0  0  0  0  0  0
   -0.7575    1.3254   -0.1949 C   0  0  0  0  0  0  0  0  0  0  0  0
   -1.5392    1.8023    0.3996 H   0  0  0  0  0  0  0  0  0  0  0  0
    0.1723    1.8700   -0.0165 H   0  0  0  0  0  0  0  0  0  0  0  0
   -1.1207    1.4720   -1.6840 C   0  0  0  0  0  0  0  0  0  0  0  0
   -1.9859    0.8506   -1.9148 H   0  0  0  0  0  0  0  0  0  0  0  0
   -1.4336    2.9222   -2.0638 C   0  0  0  0  0  0  0  0  0  0  0  0
   -0.5820    3.5602   -1.8235 H   0  0  0  0  0  0  0  0  0  0  0  0
   -1.6364    2.9861   -3.1331 H   0  0  0  0  0  0  0  0  0  0  0  0
   -2.3087    3.2801   -1.5256 H   0  0  0  0  0  0  0  0  0  0  0  0
    0.0465    0.9981   -2.5491 C   0  0  0  0  0  0  0  0  0  0  0  0
    0.2714   -0.0440   -2.3226 H   0  0  0  0  0  0  0  0  0  0  0  0
   -0.2185    1.0750   -3.6036 H   0  0  0  0  0  0  0  0  0  0  0  0
    0.9298    1.6074   -2.3547 H   0  0  0  0  0  0  0  0  0  0  0  0
   -0.0125   -0.1747    1.7437 C   0  0  0  0  0  0  0  0  0  0  0  0
    0.9086   -0.9398    2.0202 O   0  0  0  0  0  0  0  0  0  0  0  0
   -0.5797    0.6282    2.6533 N   0  0  0  0  0  0  0  0  0  0  0  0
   -1.3264    1.2320    2.3483 H   0  0  0  0  0  0  0  0  0  0  0  0
   -0.1787    0.6818    4.0572 C   0  0  0  0  0  0  0  0  0  0  0  0
    0.8765    0.9549    4.1292 H   0  0  0  0  0  0  0  0  0  0  0  0
   -0.7780    1.4184    4.5944 H   0  0  0  0  0  0  0  0  0  0  0  0
   -0.3147   -0.2985    4.5169 H   0  0  0  0  0  0  0  0  0  0  0  0
  5  6  2  0  0  0  0
  5  7  1  0  0  0  0
  2  3  1  0  0  0  0
  2  4  1  0  0  0  0
  2  5  1  0  0  0  0
  1  2  1  0  0  0  0
 24 25  2  0  0  0  0
 24 26  1  0  0  0  0
 20 21  1  0  0  0  0
 20 22  1  0  0  0  0
 20 23  1  0  0  0  0
 16 17  1  0  0  0  0
 16 18  1  0  0  0  0
 16 19  1  0  0  0  0
 14 15  1  0  0  0  0
 14 16  1  0  0  0  0
 14 20  1  0  0  0  0
 11 12  1  0  0  0  0
 11 13  1  0  0  0  0
 11 14  1  0  0  0  0
  9 10  1  0  0  0  0
  9 11  1  0  0  0  0
  9 24  1  0  0  0  0
  7  8  1  0  0  0  0
  7  9  1  0  0  0  0
 28 29  1  0  0  0  0
 28 30  1  0  0  0  0
 28 31  1  0  0  0  0
 26 27  1  0  0  0  0
 26 28  1  0  0  0  0
M  END
$$$$
default_name
  -OEChem-01062215323D

 31 30  0     1  0  0  0  0  0999 V2000
   -3.5895   -3.5013    1.1082 H   0  0  0  0  0  0  0  0  0  0  0  0
   -3.5145   -2.5363    0.6082 C   0  0  0  0  0  0  0  0  0  0  0  0
   -4.2285   -1.8413    1.0452 H   0  0  0  0  0  0  0  0  0  0  0  0
   -3.7155   -2.6583   -0.4538 H   0  0  0  0  0  0  0  0  0  0  0  0
   -2.1155   -1.9963    0.7922 C   0  0  0  0  0  0  0  0  0  0  0  0
   -1.2875   -2.6383    1.4252 O   0  0  0  0  0  0  0  0  0  0  0  0
   -1.8575   -0.8123    0.2402 N   0  0  0  0  0  0  0  0  0  0  0  0
   -2.6005   -0.3333   -0.2478 H   0  0  0  0  0  0  0  0  0  0  0  0
   -0.5675   -0.1203    0.3102 C   0  0  1  0  0  0  0  0  0  0  0  0
    0.1327   -0.6360   -0.3479 H   0  0  0  0  0  0  0  0  0  0  0  0
   -0.7575    1.3254   -0.1949 C   0  0  0  0  0  0  0  0  0  0  0  0
   -1.5392    1.8023    0.3996 H   0  0  0  0  0  0  0  0  0  0  0  0
    0.1723    1.8700   -0.0165 H   0  0  0  0  0  0  0  0  0  0  0  0
   -1.1207    1.4720   -1.6840 C   0  0  0  0  0  0  0  0  0  0  0  0
   -1.9859    0.8506   -1.9148 H   0  0  0  0  0  0  0  0  0  0  0  0
   -1.4336    2.9222   -2.0638 C   0  0  0  0  0  0  0  0  0  0  0  0
   -0.5820    3.5602   -1.8235 H   0  0  0  0  0  0  0  0  0  0  0  0
   -1.6364    2.9861   -3.1331 H   0  0  0  0  0  0  0  0  0  0  0  0
   -2.3087    3.2801   -1.5256 H   0  0  0  0  0  0  0  0  0  0  0  0
    0.0465    0.9981   -2.5491 C   0  0  0  0  0  0  0  0  0  0  0  0
    0.2714   -0.0440   -2.3226 H   0  0  0  0  0  0  0  0  0  0  0  0
   -0.2185    1.0750   -3.6036 H   0  0  0  0  0  0  0  0  0  0  0  0
    0.9298    1.6074   -2.3547 H   0  0  0  0  0  0  0  0  0  0  0  0
   -0.0125   -0.1747    1.7437 C   0  0  0  0  0  0  0  0  0  0  0  0
    1.0668   -0.7182    1.9673 O   0  0  0  0  0  0  0  0  0  0  0  0
   -0.7548    0.3784    2.7116 N   0  0  0  0  0  0  0  0  0  0  0  0
   -1.6260    0.8106    2.4483 H   0  0  0  0  0  0  0  0  0  0  0  0
   -0.3754    0.3939    4.1224 C   0  0  0  0  0  0  0  0  0  0  0  0
    0.5827    0.9051    4.2410 H   0  0  0  0  0  0  0  0  0  0  0  0
   -1.1337    0.9105    4.7128 H   0  0  0  0  0  0  0  0  0  0  0  0
   -0.2694   -0.6291    4.4868 H   0  0  0  0  0  0  0  0  0  0  0  0
  5  6  2  0  0  0  0
  5  7  1  0  0  0  0
  2  3  1  0  0  0  0
  2  4  1  0  0  0  0
  2  5  1  0  0  0  0
  1  2  1  0  0  0  0
 24 25  2  0  0  0  0
 24 26  1  0  0  0  0
 20 21  1  0  0  0  0
 20 22  1  0  0  0  0
 20 23  1  0  0  0  0
 16 17  1  0  0  0  0
 16 18  1  0  0  0  0
 16 19  1  0  0  0  0
 14 15  1  0  0  0  0
 14 16  1  0  0  0  0
 14 20  1  0  0  0  0
 11 12  1  0  0  0  0
 11 13  1  0  0  0  0
 11 14  1  0  0  0  0
  9 10  1  0  0  0  0
  9 11  1  0  0  0  0
  9 24  1  0  0  0  0
  7  8  1  0  0  0  0
  7  9  1  0  0  0  0
 28 29  1  0  0  0  0
 28 30  1  0  0  0  0
 28 31  1  0  0  0  0
 26 27  1  0  0  0  0
 26 28  1  0  0  0  0
M  END
$$$$
default_name
  -OEChem-01062215323D

 31 30  0     1  0  0  0  0  0999 V2000
   -3.5895   -3.5013    1.1082 H   0  0  0  0  0  0  0  0  0  0  0  0
   -3.5145   -2.5363    0.6082 C   0  0  0  0  0  0  0  0  0  0  0  0
   -4.2285   -1.8413    1.0452 H   0  0  0  0  0  0  0  0  0  0  0  0
   -3.7155   -2.6583   -0.4538 H   0  0  0  0  0  0  0  0  0  0  0  0
   -2.1155   -1.9963    0.7922 C   0  0  0  0  0  0  0  0  0  0  0  0
   -1.2875   -2.6383    1.4252 O   0  0  0  0  0  0  0  0  0  0  0  0
   -1.8575   -0.8123    0.2402 N   0  0  0  0  0  0  0  0  0  0  0  0
   -2.6005   -0.3333   -0.2478 H   0  0  0  0  0  0  0  0  0  0  0  0
   -0.5675   -0.1203    0.3102 C   0  0  1  0  0  0  0  0  0  0  0  0
    0.1327   -0.6360   -0.3479 H   0  0  0  0  0  0  0  0  0  0  0  0
   -0.7575    1.3254   -0.1949 C   0  0  0  0  0  0  0  0  0  0  0  0
   -1.5392    1.8023    0.3996 H   0  0  0  0  0  0  0  0  0  0  0  0
    0.1723    1.8700   -0.0165 H   0  0  0  0  0  0  0  0  0  0  0  0
   -1.1207    1.4720   -1.6840 C   0  0  0  0  0  0  0  0  0  0  0  0
   -1.9859    0.8506   -1.9148 H   0  0  0  0  0  0  0  0  0  0  0  0
   -1.4336    2.9222   -2.0638 C   0  0  0  0  0  0  0  0  0  0  0  0
   -0.5820    3.5602   -1.8235 H   0  0  0  0  0  0  0  0  0  0  0  0
   -1.6364    2.9861   -3.1331 H   0  0  0  0  0  0  0  0  0  0  0  0
   -2.3087    3.2801   -1.5256 H   0  0  0  0  0  0  0  0  0  0  0  0
    0.0465    0.9981   -2.5491 C   0  0  0  0  0  0  0  0  0  0  0  0
    0.2714   -0.0440   -2.3226 H   0  0  0  0  0  0  0  0  0  0  0  0
   -0.2185    1.0750   -3.6036 H   0  0  0  0  0  0  0  0  0  0  0  0
    0.9298    1.6074   -2.3547 H   0  0  0  0  0  0  0  0  0  0  0  0
   -0.0125   -0.1747    1.7437 C   0  0  0  0  0  0  0  0  0  0  0  0
    1.1666   -0.4609    1.9384 O   0  0  0  0  0  0  0  0  0  0  0  0
   -0.8643    0.0893    2.7430 N   0  0  0  0  0  0  0  0  0  0  0  0
   -1.8146    0.3220    2.5028 H   0  0  0  0  0  0  0  0  0  0  0  0
   -0.4966    0.0624    4.1568 C   0  0  0  0  0  0  0  0  0  0  0  0
    0.3099    0.7756    4.3417 H   0  0  0  0  0  0  0  0  0  0  0  0
   -1.3559    0.3229    4.7765 H   0  0  0  0  0  0  0  0  0  0  0  0
   -0.1457   -0.9348    4.4273 H   0  0  0  0  0  0  0  0  0  0  0  0
  5  6  2  0  0  0  0
  5  7  1  0  0  0  0
  2  3  1  0  0  0  0
  2  4  1  0  0  0  0
  2  5  1  0  0  0  0
  1  2  1  0  0  0  0
 24 25  2  0  0  0  0
 24 26  1  0  0  0  0
 20 21  1  0  0  0  0
 20 22  1  0  0  0  0
 20 23  1  0  0  0  0
 16 17  1  0  0  0  0
 16 18  1  0  0  0  0
 16 19  1  0  0  0  0
 14 15  1  0  0  0  0
 14 16  1  0  0  0  0
 14 20  1  0  0  0  0
 11 12  1  0  0  0  0
 11 13  1  0  0  0  0
 11 14  1  0  0  0  0
  9 10  1  0  0  0  0
  9 11  1  0  0  0  0
  9 24  1  0  0  0  0
  7  8  1  0  0  0  0
  7  9  1  0  0  0  0
 28 29  1  0  0  0  0
 28 30  1  0  0  0  0
 28 31  1  0  0  0  0
 26 27  1  0  0  0  0
 26 28  1  0  0  0  0
M  END
$$$$
default_name
  -OEChem-01062215323D

 31 30  0     1  0  0  0  0  0999 V2000
   -3.5895   -3.5013    1.1082 H   0  0  0  0  0  0  0  0  0  0  0  0
   -3.5145   -2.5363    0.6082 C   0  0  0  0  0  0  0  0  0  0  0  0
   -4.2285   -1.8413    1.0452 H   0  0  0  0  0  0  0  0  0  0  0  0
   -3.7155   -2.6583   -0.4538 H   0  0  0  0  0  0  0  0  0  0  0  0
   -2.1155   -1.9963    0.7922 C   0  0  0  0  0  0  0  0  0  0  0  0
   -1.2875   -2.6383    1.4252 O   0  0  0  0  0  0  0  0  0  0  0  0
   -1.8575   -0.8123    0.2402 N   0  0  0  0  0  0  0  0  0  0  0  0
   -2.6005   -0.3333   -0.2478 H   0  0  0  0  0  0  0  0  0  0  0  0
   -0.5675   -0.1203    0.3102 C   0  0  1  0  0  0  0  0  0  0  0  0
    0.1327   -0.6360   -0.3479 H   0  0  0  0  0  0  0  0  0  0  0  0
   -0.7575    1.3254   -0.1949 C   0  0  0  0  0  0  0  0  0  0  0  0
   -1.5392    1.8023    0.3996 H   0  0  0  0  0  0  0  0  0  0  0  0
    0.1723    1.8700   -0.0165 H   0  0  0  0  0  0  0  0  0  0  0  0
   -1.1207    1.4720   -1.6840 C   0  0  0  0  0  0  0  0  0  0  0  0
   -1.9859    0.8506   -1.9148 H   0  0  0  0  0  0  0  0  0  0  0  0
   -1.4336    2.9222   -2.0638 C   0  0  0  0  0  0  0  0  0  0  0  0
   -0.5820    3.5602   -1.8235 H   0  0  0  0  0  0  0  0  0  0  0  0
   -1.6364    2.9861   -3.1331 H   0  0  0  0  0  0  0  0  0  0  0  0
   -2.3087    3.2801   -1.5256 H   0  0  0  0  0  0  0  0  0  0  0  0
    0.0465    0.9981   -2.5491 C   0  0  0  0  0  0  0  0  0  0  0  0
    0.2714   -0.0440   -2.3226 H   0  0  0  0  0  0  0  0  0  0  0  0
   -0.2185    1.0750   -3.6036 H   0  0  0  0  0  0  0  0  0  0  0  0
    0.9298    1.6074   -2.3547 H   0  0  0  0  0  0  0  0  0  0  0  0
   -0.0125   -0.1747    1.7437 C   0  0  0  0  0  0  0  0  0  0  0  0
    1.2013   -0.1857    1.9355 O   0  0  0  0  0  0  0  0  0  0  0  0
   -0.9005   -0.2192    2.7453 N   0  0  0  0  0  0  0  0  0  0  0  0
   -1.8795   -0.2006    2.5081 H   0  0  0  0  0  0  0  0  0  0  0  0
   -0.5339   -0.2903    4.1579 C   0  0  0  0  0  0  0  0  0  0  0  0
    0.0767    0.5753    4.4244 H   0  0  0  0  0  0  0  0  0  0  0  0
   -1.4293   -0.3041    4.7812 H   0  0  0  0  0  0  0  0  0  0  0  0
    0.0481   -1.1946    4.3424 H   0  0  0  0  0  0  0  0  0  0  0  0
  5  6  2  0  0  0  0
  5  7  1  0  0  0  0
  2  3  1  0  0  0  0
  2  4  1  0  0  0  0
  2  5  1  0  0  0  0
  1  2  1  0  0  0  0
 24 25  2  0  0  0  0
 24 26  1  0  0  0  0
 20 21  1  0  0  0  0
 20 22  1  0  0  0  0
 20 23  1  0  0  0  0
 16 17  1  0  0  0  0
 16 18  1  0  0  0  0
 16 19  1  0  0  0  0
 14 15  1  0  0  0  0
 14 16  1  0  0  0  0
 14 20  1  0  0  0  0
 11 12  1  0  0  0  0
 11 13  1  0  0  0  0
 11 14  1  0  0  0  0
  9 10  1  0  0  0  0
  9 11  1  0  0  0  0
  9 24  1  0  0  0  0
  7  8  1  0  0  0  0
  7  9  1  0  0  0  0
 28 29  1  0  0  0  0
 28 30  1  0  0  0  0
 28 31  1  0  0  0  0
 26 27  1  0  0  0  0
 26 28  1  0  0  0  0
M  END
$$$$
default_name
  -OEChem-01062215323D

 31 30  0     1  0  0  0  0  0999 V2000
   -3.5895   -3.5013    1.1082 H   0  0  0  0  0  0  0  0  0  0  0  0
   -3.5145   -2.5363    0.6082 C   0  0  0  0  0  0  0  0  0  0  0  0
   -4.2285   -1.8413    1.0452 H   0  0  0  0  0  0  0  0  0  0  0  0
   -3.7155   -2.6583   -0.4538 H   0  0  0  0  0  0  0  0  0  0  0  0
   -2.1155   -1.9963    0.7922 C   0  0  0  0  0  0  0  0  0  0  0  0
   -1.2875   -2.6383    1.4252 O   0  0  0  0  0  0  0  0  0  0  0  0
   -1.8575   -0.8123    0.2402 N   0  0  0  0  0  0  0  0  0  0  0  0
   -2.6005   -0.3333   -0.2478 H   0  0  0  0  0  0  0  0  0  0  0  0
   -0.5675   -0.1203    0.3102 C   0  0  1  0  0  0  0  0  0  0  0  0
    0.1327   -0.6360   -0.3479 H   0  0  0  0  0  0  0  0  0  0  0  0
   -0.7575    1.3254   -0.1949 C   0  0  0  0  0  0  0  0  0  0  0  0
   -1.5392    1.8023    0.3996 H   0  0  0  0  0  0  0  0  0  0  0  0
    0.1723    1.8700   -0.0165 H   0  0  0  0  0  0  0  0  0  0  0  0
   -1.1207    1.4720   -1.6840 C   0  0  0  0  0  0  0  0  0  0  0  0
   -1.9859    0.8506   -1.9148 H   0  0  0  0  0  0  0  0  0  0  0  0
   -1.4336    2.9222   -2.0638 C   0  0  0  0  0  0  0  0  0  0  0  0
   -0.5820    3.5602   -1.8235 H   0  0  0  0  0  0  0  0  0  0  0  0
   -1.6364    2.9861   -3.1331 H   0  0  0  0  0  0  0  0  0  0  0  0
   -2.3087    3.2801   -1.5256 H   0  0  0  0  0  0  0  0  0  0  0  0
    0.0465    0.9981   -2.5491 C   0  0  0  0  0  0  0  0  0  0  0  0
    0.2714   -0.0440   -2.3226 H   0  0  0  0  0  0  0  0  0  0  0  0
   -0.2185    1.0750   -3.6036 H   0  0  0  0  0  0  0  0  0  0  0  0
    0.9298    1.6074   -2.3547 H   0  0  0  0  0  0  0  0  0  0  0  0
   -0.0125   -0.1747    1.7437 C   0  0  0  0  0  0  0  0  0  0  0  0
    1.1684    0.0888    1.9586 O   0  0  0  0  0  0  0  0  0  0  0  0
   -0.8611   -0.5262    2.7184 N   0  0  0  0  0  0  0  0  0  0  0  0
   -1.8161   -0.7215    2.4638 H   0  0  0  0  0  0  0  0  0  0  0  0
   -0.4850   -0.6401    4.1256 C   0  0  0  0  0  0  0  0  0  0  0  0
   -0.1010    0.3179    4.4834 H   0  0  0  0  0  0  0  0  0  0  0  0
   -1.3491   -0.9279    4.7264 H   0  0  0  0  0  0  0  0  0  0  0  0
    0.2988   -1.3909    4.2379 H   0  0  0  0  0  0  0  0  0  0  0  0
  5  6  2  0  0  0  0
  5  7  1  0  0  0  0
  2  3  1  0  0  0  0
  2  4  1  0  0  0  0
  2  5  1  0  0  0  0
  1  2  1  0  0  0  0
 24 25  2  0  0  0  0
 24 26  1  0  0  0  0
 20 21  1  0  0  0  0
 20 22  1  0  0  0  0
 20 23  1  0  0  0  0
 16 17  1  0  0  0  0
 16 18  1  0  0  0  0
 16 19  1  0  0  0  0
 14 15  1  0  0  0  0
 14 16  1  0  0  0  0
 14 20  1  0  0  0  0
 11 12  1  0  0  0  0
 11 13  1  0  0  0  0
 11 14  1  0  0  0  0
  9 10  1  0  0  0  0
  9 11  1  0  0  0  0
  9 24  1  0  0  0  0
  7  8  1  0  0  0  0
  7  9  1  0  0  0  0
 28 29  1  0  0  0  0
 28 30  1  0  0  0  0
 28 31  1  0  0  0  0
 26 27  1  0  0  0  0
 26 28  1  0  0  0  0
M  END
$$$$
default_name
  -OEChem-01062215323D

 31 30  0     1  0  0  0  0  0999 V2000
   -3.5895   -3.5013    1.1082 H   0  0  0  0  0  0  0  0  0  0  0  0
   -3.5145   -2.5363    0.6082 C   0  0  0  0  0  0  0  0  0  0  0  0
   -4.2285   -1.8413    1.0452 H   0  0  0  0  0  0  0  0  0  0  0  0
   -3.7155   -2.6583   -0.4538 H   0  0  0  0  0  0  0  0  0  0  0  0
   -2.1155   -1.9963    0.7922 C   0  0  0  0  0  0  0  0  0  0  0  0
   -1.2875   -2.6383    1.4252 O   0  0  0  0  0  0  0  0  0  0  0  0
   -1.8575   -0.8123    0.2402 N   0  0  0  0  0  0  0  0  0  0  0  0
   -2.6005   -0.3333   -0.2478 H   0  0  0  0  0  0  0  0  0  0  0  0
   -0.5675   -0.1203    0.3102 C   0  0  1  0  0  0  0  0  0  0  0  0
    0.1327   -0.6360   -0.3479 H   0  0  0  0  0  0  0  0  0  0  0  0
   -0.7575    1.3254   -0.1949 C   0  0  0  0  0  0  0  0  0  0  0  0
   -1.5392    1.8023    0.3996 H   0  0  0  0  0  0  0  0  0  0  0  0
    0.1723    1.8700   -0.0165 H   0  0  0  0  0  0  0  0  0  0  0  0
   -1.1207    1.4720   -1.6840 C   0  0  0  0  0  0  0  0  0  0  0  0
   -1.9859    0.8506   -1.9148 H   0  0  0  0  0  0  0  0  0  0  0  0
   -1.4336    2.9222   -2.0638 C   0  0  0  0  0  0  0  0  0  0  0  0
   -0.5820    3.5602   -1.8235 H   0  0  0  0  0  0  0  0  0  0  0  0
   -1.6364    2.9861   -3.1331 H   0  0  0  0  0  0  0  0  0  0  0  0
   -2.3087    3.2801   -1.5256 H   0  0  0  0  0  0  0  0  0  0  0  0
    0.0465    0.9981   -2.5491 C   0  0  0  0  0  0  0  0  0  0  0  0
    0.2714   -0.0440   -2.3226 H   0  0  0  0  0  0  0  0  0  0  0  0
   -0.2185    1.0750   -3.6036 H   0  0  0  0  0  0  0  0  0  0  0  0
    0.9298    1.6074   -2.3547 H   0  0  0  0  0  0  0  0  0  0  0  0
   -0.0125   -0.1747    1.7437 C   0  0  0  0  0  0  0  0  0  0  0  0
    1.0703    0.3439    2.0063 O   0  0  0  0  0  0  0  0  0  0  0  0
   -0.7488   -0.8107    2.6641 N   0  0  0  0  0  0  0  0  0  0  0  0
   -1.6289   -1.2052    2.3729 H   0  0  0  0  0  0  0  0  0  0  0  0
   -0.3530   -0.9631    4.0623 C   0  0  0  0  0  0  0  0  0  0  0  0
   -0.2111    0.0209    4.5148 H   0  0  0  0  0  0  0  0  0  0  0  0
   -1.1206   -1.5060    4.6160 H   0  0  0  0  0  0  0  0  0  0  0  0
    0.5892   -1.5103    4.1209 H   0  0  0  0  0  0  0  0  0  0  0  0
  5  6  2  0  0  0  0
  5  7  1  0  0  0  0
  2  3  1  0  0  0  0
  2  4  1  0  0  0  0
  2  5  1  0  0  0  0
  1  2  1  0  0  0  0
 24 25  2  0  0  0  0
 24 26  1  0  0  0  0
 20 21  1  0  0  0  0
 20 22  1  0  0  0  0
 20 23  1  0  0  0  0
 16 17  1  0  0  0  0
 16 18  1  0  0  0  0
 16 19  1  0  0  0  0
 14 15  1  0  0  0  0
 14 16  1  0  0  0  0
 14 20  1  0  0  0  0
 11 12  1  0  0  0  0
 11 13  1  0  0  0  0
 11 14  1  0  0  0  0
  9 10  1  0  0  0  0
  9 11  1  0  0  0  0
  9 24  1  0  0  0  0
  7  8  1  0  0  0  0
  7  9  1  0  0  0  0
 28 29  1  0  0  0  0
 28 30  1  0  0  0  0
 28 31  1  0  0  0  0
 26 27  1  0  0  0  0
 26 28  1  0  0  0  0
M  END
$$$$
default_name
  -OEChem-01062215323D

 31 30  0     1  0  0  0  0  0999 V2000
   -3.5895   -3.5013    1.1082 H   0  0  0  0  0  0  0  0  0  0  0  0
   -3.5145   -2.5363    0.6082 C   0  0  0  0  0  0  0  0  0  0  0  0
   -4.2285   -1.8413    1.0452 H   0  0  0  0  0  0  0  0  0  0  0  0
   -3.7155   -2.6583   -0.4538 H   0  0  0  0  0  0  0  0  0  0  0  0
   -2.1155   -1.9963    0.7922 C   0  0  0  0  0  0  0  0  0  0  0  0
   -1.2875   -2.6383    1.4252 O   0  0  0  0  0  0  0  0  0  0  0  0
   -1.8575   -0.8123    0.2402 N   0  0  0  0  0  0  0  0  0  0  0  0
   -2.6005   -0.3333   -0.2478 H   0  0  0  0  0  0  0  0  0  0  0  0
   -0.5675   -0.1203    0.3102 C   0  0  1  0  0  0  0  0  0  0  0  0
    0.1327   -0.6360   -0.3479 H   0  0  0  0  0  0  0  0  0  0  0  0
   -0.7575    1.3254   -0.1949 C   0  0  0  0  0  0  0  0  0  0  0  0
   -1.5392    1.8023    0.3996 H   0  0  0  0  0  0  0  0  0  0  0  0
    0.1723    1.8700   -0.0165 H   0  0  0  0  0  0  0  0  0  0  0  0
   -1.1207    1.4720   -1.6840 C   0  0  0  0  0  0  0  0  0  0  0  0
   -1.9859    0.8506   -1.9148 H   0  0  0  0  0  0  0  0  0  0  0  0
   -1.4336    2.9222   -2.0638 C   0  0  0  0  0  0  0  0  0  0  0  0
   -0.5820    3.5602   -1.8235 H   0  0  0  0  0  0  0  0  0  0  0  0
   -1.6364    2.9861   -3.1331 H   0  0  0  0  0  0  0  0  0  0  0  0
   -2.3087    3.2801   -1.5256 H   0  0  0  0  0  0  0  0  0  0  0  0
    0.0465    0.9981   -2.5491 C   0  0  0  0  0  0  0  0  0  0  0  0
    0.2714   -0.0440   -2.3226 H   0  0  0  0  0  0  0  0  0  0  0  0
   -0.2185    1.0750   -3.6036 H   0  0  0  0  0  0  0  0  0  0  0  0
    0.9298    1.6074   -2.3547 H   0  0  0  0  0  0  0  0  0  0  0  0
   -0.0125   -0.1747    1.7437 C   0  0  0  0  0  0  0  0  0  0  0  0
    0.9135    0.5621    2.0753 O   0  0  0  0  0  0  0  0  0  0  0  0
   -0.5712   -1.0533    2.5861 N   0  0  0  0  0  0  0  0  0  0  0  0
   -1.3305   -1.6188    2.2417 H   0  0  0  0  0  0  0  0  0  0  0  0
   -0.1471   -1.2374    3.9721 C   0  0  0  0  0  0  0  0  0  0  0  0
   -0.2461   -0.2955    4.5163 H   0  0  0  0  0  0  0  0  0  0  0  0
   -0.7594   -1.9990    4.4575 H   0  0  0  0  0  0  0  0  0  0  0  0
    0.8996   -1.5447    3.9995 H   0  0  0  0  0  0  0  0  0  0  0  0
  5  6  2  0  0  0  0
  5  7  1  0  0  0  0
  2  3  1  0  0  0  0
  2  4  1  0  0  0  0
  2  5  1  0  0  0  0
  1  2  1  0  0  0  0
 24 25  2  0  0  0  0
 24 26  1  0  0  0  0
 20 21  1  0  0  0  0
 20 22  1  0  0  0  0
 20 23  1  0  0  0  0
 16 17  1  0  0  0  0
 16 18  1  0  0  0  0
 16 19  1  0  0  0  0
 14 15  1  0  0  0  0
 14 16  1  0  0  0  0
 14 20  1  0  0  0  0
 11 12  1  0  0  0  0
 11 13  1  0  0  0  0
 11 14  1  0  0  0  0
  9 10  1  0  0  0  0
  9 11  1  0  0  0  0
  9 24  1  0  0  0  0
  7  8  1  0  0  0  0
  7  9  1  0  0  0  0
 28 29  1  0  0  0  0
 28 30  1  0  0  0  0
 28 31  1  0  0  0  0
 26 27  1  0  0  0  0
 26 28  1  0  0  0  0
M  END
$$$$
default_name
  -OEChem-01062215323D

 31 30  0     1  0  0  0  0  0999 V2000
   -3.5895   -3.5013    1.1082 H   0  0  0  0  0  0  0  0  0  0  0  0
   -3.5145   -2.5363    0.6082 C   0  0  0  0  0  0  0  0  0  0  0  0
   -4.2285   -1.8413    1.0452 H   0  0  0  0  0  0  0  0  0  0  0  0
   -3.7155   -2.6583   -0.4538 H   0  0  0  0  0  0  0  0  0  0  0  0
   -2.1155   -1.9963    0.7922 C   0  0  0  0  0  0  0  0  0  0  0  0
   -1.2875   -2.6383    1.4252 O   0  0  0  0  0  0  0  0  0  0  0  0
   -1.8575   -0.8123    0.2402 N   0  0  0  0  0  0  0  0  0  0  0  0
   -2.6005   -0.3333   -0.2478 H   0  0  0  0  0  0  0  0  0  0  0  0
   -0.5675   -0.1203    0.3102 C   0  0  1  0  0  0  0  0  0  0  0  0
    0.1327   -0.6360   -0.3479 H   0  0  0  0  0  0  0  0  0  0  0  0
   -0.7575    1.3254   -0.1949 C   0  0  0  0  0  0  0  0  0  0  0  0
   -1.5392    1.8023    0.3996 H   0  0  0  0  0  0  0  0  0  0  0  0
    0.1723    1.8700   -0.0165 H   0  0  0  0  0  0  0  0  0  0  0  0
   -1.1207    1.4720   -1.6840 C   0  0  0  0  0  0  0  0  0  0  0  0
   -1.9859    0.8506   -1.9148 H   0  0  0  0  0  0  0  0  0  0  0  0
   -1.4336    2.9222   -2.0638 C   0  0  0  0  0  0  0  0  0  0  0  0
   -0.5820    3.5602   -1.8235 H   0  0  0  0  0  0  0  0  0  0  0  0
   -1.6364    2.9861   -3.1331 H   0  0  0  0  0  0  0  0  0  0  0  0
   -2.3087    3.2801   -1.5256 H   0  0  0  0  0  0  0  0  0  0  0  0
    0.0465    0.9981   -2.5491 C   0  0  0  0  0  0  0  0  0  0  0  0
    0.2714   -0.0440   -2.3226 H   0  0  0  0  0  0  0  0  0  0  0  0
   -0.2185    1.0750   -3.6036 H   0  0  0  0  0  0  0  0  0  0  0  0
    0.9298    1.6074   -2.3547 H   0  0  0  0  0  0  0  0  0  0  0  0
   -0.0125   -0.1747    1.7437 C   0  0  0  0  0  0  0  0  0  0  0  0
    0.7088    0.7286    2.1609 O   0  0  0  0  0  0  0  0  0  0  0  0
   -0.3404   -1.2375    2.4898 N   0  0  0  0  0  0  0  0  0  0  0  0
   -0.9413   -1.9340    2.0791 H   0  0  0  0  0  0  0  0  0  0  0  0
    0.1189   -1.4443    3.8613 C   0  0  0  0  0  0  0  0  0  0  0  0
   -0.2036   -0.6097    4.4879 H   0  0  0  0  0  0  0  0  0  0  0  0
   -0.2902   -2.3732    4.2616 H   0  0  0  0  0  0  0  0  0  0  0  0
    1.2088   -1.4916    3.8818 H   0  0  0  0  0  0  0  0  0  0  0  0
  5  6  2  0  0  0  0
  5  7  1  0  0  0  0
  2  3  1  0  0  0  0
  2  4  1  0  0  0  0
  2  5  1  0  0  0  0
  1  2  1  0  0  0  0
 24 25  2  0  0  0  0
 24 26  1  0  0  0  0
 20 21  1  0  0  0  0
 20 22  1  0  0  0  0
 20 23  1  0  0  0  0
 16 17  1  0  0  0  0
 16 18  1  0  0  0  0
 16 19  1  0  0  0  0
 14 15  1  0  0  0  0
 14 16  1  0  0  0  0
 14 20  1  0  0  0  0
 11 12  1  0  0  0  0
 11 13  1  0  0  0  0
 11 14  1  0  0  0  0
  9 10  1  0  0  0  0
  9 11  1  0  0  0  0
  9 24  1  0  0  0  0
  7  8  1  0  0  0  0
  7  9  1  0  0  0  0
 28 29  1  0  0  0  0
 28 30  1  0  0  0  0
 28 31  1  0  0  0  0
 26 27  1  0  0  0  0
 26 28  1  0  0  0  0
M  END
$$$$
default_name
  -OEChem-01062215323D

 31 30  0     1  0  0  0  0  0999 V2000
   -3.5895   -3.5013    1.1082 H   0  0  0  0  0  0  0  0  0  0  0  0
   -3.5145   -2.5363    0.6082 C   0  0  0  0  0  0  0  0  0  0  0  0
   -4.2285   -1.8413    1.0452 H   0  0  0  0  0  0  0  0  0  0  0  0
   -3.7155   -2.6583   -0.4538 H   0  0  0  0  0  0  0  0  0  0  0  0
   -2.1155   -1.9963    0.7922 C   0  0  0  0  0  0  0  0  0  0  0  0
   -1.2875   -2.6383    1.4252 O   0  0  0  0  0  0  0  0  0  0  0  0
   -1.8575   -0.8123    0.2402 N   0  0  0  0  0  0  0  0  0  0  0  0
   -2.6005   -0.3333   -0.2478 H   0  0  0  0  0  0  0  0  0  0  0  0
   -0.5675   -0.1203    0.3102 C   0  0  1  0  0  0  0  0  0  0  0  0
    0.1327   -0.6360   -0.3479 H   0  0  0  0  0  0  0  0  0  0  0  0
   -0.7575    1.3254   -0.1949 C   0  0  0  0  0  0  0  0  0  0  0  0
   -1.5392    1.8023    0.3996 H   0  0  0  0  0  0  0  0  0  0  0  0
    0.1723    1.8700   -0.0165 H   0  0  0  0  0  0  0  0  0  0  0  0
   -1.1207    1.4720   -1.6840 C   0  0  0  0  0  0  0  0  0  0  0  0
   -1.9859    0.8506   -1.9148 H   0  0  0  0  0  0  0  0  0  0  0  0
   -1.4336    2.9222   -2.0638 C   0  0  0  0  0  0  0  0  0  0  0  0
   -0.5820    3.5602   -1.8235 H   0  0  0  0  0  0  0  0  0  0  0  0
   -1.6364    2.9861   -3.1331 H   0  0  0  0  0  0  0  0  0  0  0  0
   -2.3087    3.2801   -1.5256 H   0  0  0  0  0  0  0  0  0  0  0  0
    0.0465    0.9981   -2.5491 C   0  0  0  0  0  0  0  0  0  0  0  0
    0.2714   -0.0440   -2.3226 H   0  0  0  0  0  0  0  0  0  0  0  0
   -0.2185    1.0750   -3.6036 H   0  0  0  0  0  0  0  0  0  0  0  0
    0.9298    1.6074   -2.3547 H   0  0  0  0  0  0  0  0  0  0  0  0
   -0.0125   -0.1747    1.7437 C   0  0  0  0  0  0  0  0  0  0  0  0
    0.4701    0.8321    2.2572 O   0  0  0  0  0  0  0  0  0  0  0  0
   -0.0721   -1.3508    2.3816 N   0  0  0  0  0  0  0  0  0  0  0  0
   -0.4879   -2.1295    1.8961 H   0  0  0  0  0  0  0  0  0  0  0  0
    0.4266   -1.5696    3.7374 C   0  0  0  0  0  0  0  0  0  0  0  0
   -0.0865   -0.9003    4.4316 H   0  0  0  0  0  0  0  0  0  0  0  0
    0.2551   -2.6032    4.0418 H   0  0  0  0  0  0  0  0  0  0  0  0
    1.4957   -1.3548    3.7759 H   0  0  0  0  0  0  0  0  0  0  0  0
  5  6  2  0  0  0  0
  5  7  1  0  0  0  0
  2  3  1  0  0  0  0
  2  4  1  0  0  0  0
  2  5  1  0  0  0  0
  1  2  1  0  0  0  0
 24 25  2  0  0  0  0
 24 26  1  0  0  0  0
 20 21  1  0  0  0  0
 20 22  1  0  0  0  0
 20 23  1  0  0  0  0
 16 17  1  0  0  0  0
 16 18  1  0  0  0  0
 16 19  1  0  0  0  0
 14 15  1  0  0  0  0
 14 16  1  0  0  0  0
 14 20  1  0  0  0  0
 11 12  1  0  0  0  0
 11 13  1  0  0  0  0
 11 14  1  0  0  0  0
  9 10  1  0  0  0  0
  9 11  1  0  0  0  0
  9 24  1  0  0  0  0
  7  8  1  0  0  0  0
  7  9  1  0  0  0  0
 28 29  1  0  0  0  0
 28 30  1  0  0  0  0
 28 31  1  0  0  0  0
 26 27  1  0  0  0  0
 26 28  1  0  0  0  0
M  END
$$$$
default_name
  -OEChem-01062215323D

 31 30  0     1  0  0  0  0  0999 V2000
   -3.5895   -3.5013    1.1082 H   0  0  0  0  0  0  0  0  0  0  0  0
   -3.5145   -2.5363    0.6082 C   0  0  0  0  0  0  0  0  0  0  0  0
   -4.2285   -1.8413    1.0452 H   0  0  0  0  0  0  0  0  0  0  0  0
   -3.7155   -2.6583   -0.4538 H   0  0  0  0  0  0  0  0  0  0  0  0
   -2.1155   -1.9963    0.7922 C   0  0  0  0  0  0  0  0  0  0  0  0
   -1.2875   -2.6383    1.4252 O   0  0  0  0  0  0  0  0  0  0  0  0
   -1.8575   -0.8123    0.2402 N   0  0  0  0  0  0  0  0  0  0  0  0
   -2.6005   -0.3333   -0.2478 H   0  0  0  0  0  0  0  0  0  0  0  0
   -0.5675   -0.1203    0.3102 C   0  0  1  0  0  0  0  0  0  0  0  0
    0.1327   -0.6360   -0.3479 H   0  0  0  0  0  0  0  0  0  0  0  0
   -0.7575    1.3254   -0.1949 C   0  0  0  0  0  0  0  0  0  0  0  0
   -1.5392    1.8023    0.3996 H   0  0  0  0  0  0  0  0  0  0  0  0
    0.1723    1.8700   -0.0165 H   0  0  0  0  0  0  0  0  0  0  0  0
   -1.1207    1.4720   -1.6840 C   0  0  0  0  0  0  0  0  0  0  0  0
   -1.9859    0.8506   -1.9148 H   0  0  0  0  0  0  0  0  0  0  0  0
   -1.4336    2.9222   -2.0638 C   0  0  0  0  0  0  0  0  0  0  0  0
   -0.5820    3.5602   -1.8235 H   0  0  0  0  0  0  0  0  0  0  0  0
   -1.6364    2.9861   -3.1331 H   0  0  0  0  0  0  0  0  0  0  0  0
   -2.3087    3.2801   -1.5256 H   0  0  0  0  0  0  0  0  0  0  0  0
    0.0465    0.9981   -2.5491 C   0  0  0  0  0  0  0  0  0  0  0  0
    0.2714   -0.0440   -2.3226 H   0  0  0  0  0  0  0  0  0  0  0  0
   -0.2185    1.0750   -3.6036 H   0  0  0  0  0  0  0  0  0  0  0  0
    0.9298    1.6074   -2.3547 H   0  0  0  0  0  0  0  0  0  0  0  0
   -0.0125   -0.1747    1.7437 C   0  0  0  0  0  0  0  0  0  0  0  0
    0.2137    0.8655    2.3577 O   0  0  0  0  0  0  0  0  0  0  0  0
    0.2153   -1.3855    2.2690 N   0  0  0  0  0  0  0  0  0  0  0  0
   -0.0011   -2.1919    1.7053 H   0  0  0  0  0  0  0  0  0  0  0  0
    0.7553   -1.6048    3.6088 C   0  0  0  0  0  0  0  0  0  0  0  0
    0.0972   -1.1474    4.3511 H   0  0  0  0  0  0  0  0  0  0  0  0
    0.8393   -2.6733    3.8129 H   0  0  0  0  0  0  0  0  0  0  0  0
    1.7409   -1.1436    3.6890 H   0  0  0  0  0  0  0  0  0  0  0  0
  5  6  2  0  0  0  0
  5  7  1  0  0  0  0
  2  3  1  0  0  0  0
  2  4  1  0  0  0  0
  2  5  1  0  0  0  0
  1  2  1  0  0  0  0
 24 25  2  0  0  0  0
 24 26  1  0  0  0  0
 20 21  1  0  0  0  0
 20 22  1  0  0  0  0
 20 23  1  0  0  0  0
 16 17  1  0  0  0  0
 16 18  1  0  0  0  0
 16 19  1  0  0  0  0
 14 15  1  0  0  0  0
 14 16  1  0  0  0  0
 14 20  1  0  0  0  0
 11 12  1  0  0  0  0
 11 13  1  0  0  0  0
 11 14  1  0  0  0  0
  9 10  1  0  0  0  0
  9 11  1  0  0  0  0
  9 24  1  0  0  0  0
  7  8  1  0  0  0  0
  7  9  1  0  0  0  0
 28 29  1  0  0  0  0
 28 30  1  0  0  0  0
 28 31  1  0  0  0  0
 26 27  1  0  0  0  0
 26 28  1  0  0  0  0
M  END
$$$$
default_name
  -OEChem-01062215323D

 31 30  0     1  0  0  0  0  0999 V2000
   -3.5895   -3.5013    1.1082 H   0  0  0  0  0  0  0  0  0  0  0  0
   -3.5145   -2.5363    0.6082 C   0  0  0  0  0  0  0  0  0  0  0  0
   -4.2285   -1.8413    1.0452 H   0  0  0  0  0  0  0  0  0  0  0  0
   -3.7155   -2.6583   -0.4538 H   0  0  0  0  0  0  0  0  0  0  0  0
   -2.1155   -1.9963    0.7922 C   0  0  0  0  0  0  0  0  0  0  0  0
   -1.2875   -2.6383    1.4252 O   0  0  0  0  0  0  0  0  0  0  0  0
   -1.8575   -0.8123    0.2402 N   0  0  0  0  0  0  0  0  0  0  0  0
   -2.6005   -0.3333   -0.2478 H   0  0  0  0  0  0  0  0  0  0  0  0
   -0.5675   -0.1203    0.3102 C   0  0  1  0  0  0  0  0  0  0  0  0
    0.1327   -0.6360   -0.3479 H   0  0  0  0  0  0  0  0  0  0  0  0
   -0.7575    1.3254   -0.1949 C   0  0  0  0  0  0  0  0  0  0  0  0
   -1.5392    1.8023    0.3996 H   0  0  0  0  0  0  0  0  0  0  0  0
    0.1723    1.8700   -0.0165 H   0  0  0  0  0  0  0  0  0  0  0  0
   -1.1207    1.4720   -1.6840 C   0  0  0  0  0  0  0  0  0  0  0  0
   -1.9859    0.8506   -1.9148 H   0  0  0  0  0  0  0  0  0  0  0  0
   -1.4336    2.9222   -2.0638 C   0  0  0  0  0  0  0  0  0  0  0  0
   -0.5820    3.5602   -1.8235 H   0  0  0  0  0  0  0  0  0  0  0  0
   -1.6364    2.9861   -3.1331 H   0  0  0  0  0  0  0  0  0  0  0  0
   -2.3087    3.2801   -1.5256 H   0  0  0  0  0  0  0  0  0  0  0  0
    0.0465    0.9981   -2.5491 C   0  0  0  0  0  0  0  0  0  0  0  0
    0.2714   -0.0440   -2.3226 H   0  0  0  0  0  0  0  0  0  0  0  0
   -0.2185    1.0750   -3.6036 H   0  0  0  0  0  0  0  0  0  0  0  0
    0.9298    1.6074   -2.3547 H   0  0  0  0  0  0  0  0  0  0  0  0
   -0.0125   -0.1747    1.7437 C   0  0  0  0  0  0  0  0  0  0  0  0
   -0.0430    0.8265    2.4556 O   0  0  0  0  0  0  0  0  0  0  0  0
    0.5024   -1.3390    2.1597 N   0  0  0  0  0  0  0  0  0  0  0  0
    0.4860   -2.1168    1.5196 H   0  0  0  0  0  0  0  0  0  0  0  0
    1.0824   -1.5476    3.4844 C   0  0  0  0  0  0  0  0  0  0  0  0
    0.3350   -1.3344    4.2519 H   0  0  0  0  0  0  0  0  0  0  0  0
    1.4226   -2.5788    3.5907 H   0  0  0  0  0  0  0  0  0  0  0  0
    1.9275   -0.8723    3.6270 H   0  0  0  0  0  0  0  0  0  0  0  0
  5  6  2  0  0  0  0
  5  7  1  0  0  0  0
  2  3  1  0  0  0  0
  2  4  1  0  0  0  0
  2  5  1  0  0  0  0
  1  2  1  0  0  0  0
 24 25  2  0  0  0  0
 24 26  1  0  0  0  0
 20 21  1  0  0  0  0
 20 22  1  0  0  0  0
 20 23  1  0  0  0  0
 16 17  1  0  0  0  0
 16 18  1  0  0  0  0
 16 19  1  0  0  0  0
 14 15  1  0  0  0  0
 14 16  1  0  0  0  0
 14 20  1  0  0  0  0
 11 12  1  0  0  0  0
 11 13  1  0  0  0  0
 11 14  1  0  0  0  0
  9 10  1  0  0  0  0
  9 11  1  0  0  0  0
  9 24  1  0  0  0  0
  7  8  1  0  0  0  0
  7  9  1  0  0  0  0
 28 29  1  0  0  0  0
 28 30  1  0  0  0  0
 28 31  1  0  0  0  0
 26 27  1  0  0  0  0
 26 28  1  0  0  0  0
M  END
$$$$
default_name
  -OEChem-01062215323D

 31 30  0     1  0  0  0  0  0999 V2000
   -3.5895   -3.5013    1.1082 H   0  0  0  0  0  0  0  0  0  0  0  0
   -3.5145   -2.5363    0.6082 C   0  0  0  0  0  0  0  0  0  0  0  0
   -4.2285   -1.8413    1.0452 H   0  0  0  0  0  0  0  0  0  0  0  0
   -3.7155   -2.6583   -0.4538 H   0  0  0  0  0  0  0  0  0  0  0  0
   -2.1155   -1.9963    0.7922 C   0  0  0  0  0  0  0  0  0  0  0  0
   -1.2875   -2.6383    1.4252 O   0  0  0  0  0  0  0  0  0  0  0  0
   -1.8575   -0.8123    0.2402 N   0  0  0  0  0  0  0  0  0  0  0  0
   -2.6005   -0.3333   -0.2478 H   0  0  0  0  0  0  0  0  0  0  0  0
   -0.5675   -0.1203    0.3102 C   0  0  1  0  0  0  0  0  0  0  0  0
    0.1327   -0.6360   -0.3479 H   0  0  0  0  0  0  0  0  0  0  0  0
   -0.7575    1.3254   -0.1949 C   0  0  0  0  0  0  0  0  0  0  0  0
   -1.5392    1.8023    0.3996 H   0  0  0  0  0  0  0  0  0  0  0  0
    0.1723    1.8700   -0.0165 H   0  0  0  0  0  0  0  0  0  0  0  0
   -1.1207    1.4720   -1.6840 C   0  0  0  0  0  0  0  0  0  0  0  0
   -1.9859    0.8506   -1.9148 H   0  0  0  0  0  0  0  0  0  0  0  0
   -1.4336    2.9222   -2.0638 C   0  0  0  0  0  0  0  0  0  0  0  0
   -0.5820    3.5602   -1.8235 H   0  0  0  0  0  0  0  0  0  0  0  0
   -1.6364    2.9861   -3.1331 H   0  0  0  0  0  0  0  0  0  0  0  0
   -2.3087    3.2801   -1.5256 H   0  0  0  0  0  0  0  0  0  0  0  0
    0.0465    0.9981   -2.5491 C   0  0  0  0  0  0  0  0  0  0  0  0
    0.2714   -0.0440   -2.3226 H   0  0  0  0  0  0  0  0  0  0  0  0
   -0.2185    1.0750   -3.6036 H   0  0  0  0  0  0  0  0  0  0  0  0
    0.9298    1.6074   -2.3547 H   0  0  0  0  0  0  0  0  0  0  0  0
   -0.0125   -0.1747    1.7437 C   0  0  0  0  0  0  0  0  0  0  0  0
   -0.2824    0.7178    2.5442 O   0  0  0  0  0  0  0  0  0  0  0  0
    0.7694   -1.2148    2.0610 N   0  0  0  0  0  0  0  0  0  0  0  0
    0.9400   -1.9096    1.3516 H   0  0  0  0  0  0  0  0  0  0  0  0
    1.3857   -1.4017    3.3725 C   0  0  0  0  0  0  0  0  0  0  0  0
    0.6107   -1.4483    4.1408 H   0  0  0  0  0  0  0  0  0  0  0  0
    1.9653   -2.3260    3.3902 H   0  0  0  0  0  0  0  0  0  0  0  0
    2.0430   -0.5594    3.5942 H   0  0  0  0  0  0  0  0  0  0  0  0
  5  6  2  0  0  0  0
  5  7  1  0  0  0  0
  2  3  1  0  0  0  0
  2  4  1  0  0  0  0
  2  5  1  0  0  0  0
  1  2  1  0  0  0  0
 24 25  2  0  0  0  0
 24 26  1  0  0  0  0
 20 21  1  0  0  0  0
 20 22  1  0  0  0  0
 20 23  1  0  0  0  0
 16 17  1  0  0  0  0
 16 18  1  0  0  0  0
 16 19  1  0  0  0  0
 14 15  1  0  0  0  0
 14 16  1  0  0  0  0
 14 20  1  0  0  0  0
 11 12  1  0  0  0  0
 11 13  1  0  0  0  0
 11 14  1  0  0  0  0
  9 10  1  0  0  0  0
  9 11  1  0  0  0  0
  9 24  1  0  0  0  0
  7  8  1  0  0  0  0
  7  9  1  0  0  0  0
 28 29  1  0  0  0  0
 28 30  1  0  0  0  0
 28 31  1  0  0  0  0
 26 27  1  0  0  0  0
 26 28  1  0  0  0  0
M  END
$$$$
default_name
  -OEChem-01062215323D

 31 30  0     1  0  0  0  0  0999 V2000
   -3.5895   -3.5013    1.1082 H   0  0  0  0  0  0  0  0  0  0  0  0
   -3.5145   -2.5363    0.6082 C   0  0  0  0  0  0  0  0  0  0  0  0
   -4.2285   -1.8413    1.0452 H   0  0  0  0  0  0  0  0  0  0  0  0
   -3.7155   -2.6583   -0.4538 H   0  0  0  0  0  0  0  0  0  0  0  0
   -2.1155   -1.9963    0.7922 C   0  0  0  0  0  0  0  0  0  0  0  0
   -1.2875   -2.6383    1.4252 O   0  0  0  0  0  0  0  0  0  0  0  0
   -1.8575   -0.8123    0.2402 N   0  0  0  0  0  0  0  0  0  0  0  0
   -2.6005   -0.3333   -0.2478 H   0  0  0  0  0  0  0  0  0  0  0  0
   -0.5675   -0.1203    0.3102 C   0  0  1  0  0  0  0  0  0  0  0  0
    0.1327   -0.6360   -0.3479 H   0  0  0  0  0  0  0  0  0  0  0  0
   -0.7575    1.3254   -0.1949 C   0  0  0  0  0  0  0  0  0  0  0  0
   -1.5392    1.8023    0.3996 H   0  0  0  0  0  0  0  0  0  0  0  0
    0.1723    1.8700   -0.0165 H   0  0  0  0  0  0  0  0  0  0  0  0
   -1.1207    1.4720   -1.6840 C   0  0  0  0  0  0  0  0  0  0  0  0
   -1.9859    0.8506   -1.9148 H   0  0  0  0  0  0  0  0  0  0  0  0
   -1.4336    2.9222   -2.0638 C   0  0  0  0  0  0  0  0  0  0  0  0
   -0.5820    3.5602   -1.8235 H   0  0  0  0  0  0  0  0  0  0  0  0
   -1.6364    2.9861   -3.1331 H   0  0  0  0  0  0  0  0  0  0  0  0
   -2.3087    3.2801   -1.5256 H   0  0  0  0  0  0  0  0  0  0  0  0
    0.0465    0.9981   -2.5491 C   0  0  0  0  0  0  0  0  0  0  0  0
    0.2714   -0.0440   -2.3226 H   0  0  0  0  0  0  0  0  0  0  0  0
   -0.2185    1.0750   -3.6036 H   0  0  0  0  0  0  0  0  0  0  0  0
    0.9298    1.6074   -2.3547 H   0  0  0  0  0  0  0  0  0  0  0  0
   -0.0125   -0.1747    1.7437 C   0  0  0  0  0  0  0  0  0  0  0  0
   -0.4882    0.5468    2.6174 O   0  0  0  0  0  0  0  0  0  0  0  0
    0.9983   -1.0211    1.9797 N   0  0  0  0  0  0  0  0  0  0  0  0
    1.3301   -1.5842    1.2130 H   0  0  0  0  0  0  0  0  0  0  0  0
    1.6446   -1.1773    3.2808 C   0  0  0  0  0  0  0  0  0  0  0  0
    0.9055   -1.4814    4.0254 H   0  0  0  0  0  0  0  0  0  0  0  0
    2.4303   -1.9322    3.2251 H   0  0  0  0  0  0  0  0  0  0  0  0
    2.0793   -0.2263    3.5928 H   0  0  0  0  0  0  0  0  0  0  0  0
  5  6  2  0  0  0  0
  5  7  1  0  0  0  0
  2  3  1  0  0  0  0
  2  4  1  0  0  0  0
  2  5  1  0  0  0  0
  1  2  1  0  0  0  0
 24 25  2  0  0  0  0
 24 26  1  0  0  0  0
 20 21  1  0  0  0  0
 20 22  1  0  0  0  0
 20 23  1  0  0  0  0
 16 17  1  0  0  0  0
 16 18  1  0  0  0  0
 16 19  1  0  0  0  0
 14 15  1  0  0  0  0
 14 16  1  0  0  0  0
 14 20  1  0  0  0  0
 11 12  1  0  0  0  0
 11 13  1  0  0  0  0
 11 14  1  0  0  0  0
  9 10  1  0  0  0  0
  9 11  1  0  0  0  0
  9 24  1  0  0  0  0
  7  8  1  0  0  0  0
  7  9  1  0  0  0  0
 28 29  1  0  0  0  0
 28 30  1  0  0  0  0
 28 31  1  0  0  0  0
 26 27  1  0  0  0  0
 26 28  1  0  0  0  0
M  END
$$$$
default_name
  -OEChem-01062215323D

 31 30  0     1  0  0  0  0  0999 V2000
   -3.5895   -3.5013    1.1082 H   0  0  0  0  0  0  0  0  0  0  0  0
   -3.5145   -2.5363    0.6082 C   0  0  0  0  0  0  0  0  0  0  0  0
   -4.2285   -1.8413    1.0452 H   0  0  0  0  0  0  0  0  0  0  0  0
   -3.7155   -2.6583   -0.4538 H   0  0  0  0  0  0  0  0  0  0  0  0
   -2.1155   -1.9963    0.7922 C   0  0  0  0  0  0  0  0  0  0  0  0
   -1.2875   -2.6383    1.4252 O   0  0  0  0  0  0  0  0  0  0  0  0
   -1.8575   -0.8123    0.2402 N   0  0  0  0  0  0  0  0  0  0  0  0
   -2.6005   -0.3333   -0.2478 H   0  0  0  0  0  0  0  0  0  0  0  0
   -0.5675   -0.1203    0.3102 C   0  0  1  0  0  0  0  0  0  0  0  0
    0.1327   -0.6360   -0.3479 H   0  0  0  0  0  0  0  0  0  0  0  0
   -0.7575    1.3254   -0.1949 C   0  0  0  0  0  0  0  0  0  0  0  0
   -1.5392    1.8023    0.3996 H   0  0  0  0  0  0  0  0  0  0  0  0
    0.1723    1.8700   -0.0165 H   0  0  0  0  0  0  0  0  0  0  0  0
   -1.1207    1.4720   -1.6840 C   0  0  0  0  0  0  0  0  0  0  0  0
   -1.9859    0.8506   -1.9148 H   0  0  0  0  0  0  0  0  0  0  0  0
   -1.4336    2.9222   -2.0638 C   0  0  0  0  0  0  0  0  0  0  0  0
   -0.5820    3.5602   -1.8235 H   0  0  0  0  0  0  0  0  0  0  0  0
   -1.6364    2.9861   -3.1331 H   0  0  0  0  0  0  0  0  0  0  0  0
   -2.3087    3.2801   -1.5256 H   0  0  0  0  0  0  0  0  0  0  0  0
    0.0465    0.9981   -2.5491 C   0  0  0  0  0  0  0  0  0  0  0  0
    0.2714   -0.0440   -2.3226 H   0  0  0  0  0  0  0  0  0  0  0  0
   -0.2185    1.0750   -3.6036 H   0  0  0  0  0  0  0  0  0  0  0  0
    0.9298    1.6074   -2.3547 H   0  0  0  0  0  0  0  0  0  0  0  0
   -0.0125   -0.1747    1.7437 C   0  0  0  0  0  0  0  0  0  0  0  0
   -0.6464    0.3251    2.6702 O   0  0  0  0  0  0  0  0  0  0  0  0
    1.1734   -0.7712    1.9214 N   0  0  0  0  0  0  0  0  0  0  0  0
    1.6296   -1.1628    1.1130 H   0  0  0  0  0  0  0  0  0  0  0  0
    1.8413   -0.8895    3.2155 C   0  0  0  0  0  0  0  0  0  0  0  0
    1.1994   -1.4316    3.9136 H   0  0  0  0  0  0  0  0  0  0  0  0
    2.7860   -1.4242    3.1067 H   0  0  0  0  0  0  0  0  0  0  0  0
    2.0340    0.1043    3.6228 H   0  0  0  0  0  0  0  0  0  0  0  0
  5  6  2  0  0  0  0
  5  7  1  0  0  0  0
  2  3  1  0  0  0  0
  2  4  1  0  0  0  0
  2  5  1  0  0  0  0
  1  2  1  0  0  0  0
 24 25  2  0  0  0  0
 24 26  1  0  0  0  0
 20 21  1  0  0  0  0
 20 22  1  0  0  0  0
 20 23  1  0  0  0  0
 16 17  1  0  0  0  0
 16 18  1  0  0  0  0
 16 19  1  0  0  0  0
 14 15  1  0  0  0  0
 14 16  1  0  0  0  0
 14 20  1  0  0  0  0
 11 12  1  0  0  0  0
 11 13  1  0  0  0  0
 11 14  1  0  0  0  0
  9 10  1  0  0  0  0
  9 11  1  0  0  0  0
  9 24  1  0  0  0  0
  7  8  1  0  0  0  0
  7  9  1  0  0  0  0
 28 29  1  0  0  0  0
 28 30  1  0  0  0  0
 28 31  1  0  0  0  0
 26 27  1  0  0  0  0
 26 28  1  0  0  0  0
M  END
$$$$
default_name
  -OEChem-01062215323D

 31 30  0     1  0  0  0  0  0999 V2000
   -3.5895   -3.5013    1.1082 H   0  0  0  0  0  0  0  0  0  0  0  0
   -3.5145   -2.5363    0.6082 C   0  0  0  0  0  0  0  0  0  0  0  0
   -4.2285   -1.8413    1.0452 H   0  0  0  0  0  0  0  0  0  0  0  0
   -3.7155   -2.6583   -0.4538 H   0  0  0  0  0  0  0  0  0  0  0  0
   -2.1155   -1.9963    0.7922 C   0  0  0  0  0  0  0  0  0  0  0  0
   -1.2875   -2.6383    1.4252 O   0  0  0  0  0  0  0  0  0  0  0  0
   -1.8575   -0.8123    0.2402 N   0  0  0  0  0  0  0  0  0  0  0  0
   -2.6005   -0.3333   -0.2478 H   0  0  0  0  0  0  0  0  0  0  0  0
   -0.5675   -0.1203    0.3102 C   0  0  1  0  0  0  0  0  0  0  0  0
    0.1327   -0.6360   -0.3479 H   0  0  0  0  0  0  0  0  0  0  0  0
   -0.7575    1.3254   -0.1949 C   0  0  0  0  0  0  0  0  0  0  0  0
   -1.5392    1.8023    0.3996 H   0  0  0  0  0  0  0  0  0  0  0  0
    0.1723    1.8700   -0.0165 H   0  0  0  0  0  0  0  0  0  0  0  0
   -1.1207    1.4720   -1.6840 C   0  0  0  0  0  0  0  0  0  0  0  0
   -1.9859    0.8506   -1.9148 H   0  0  0  0  0  0  0  0  0  0  0  0
   -1.4336    2.9222   -2.0638 C   0  0  0  0  0  0  0  0  0  0  0  0
   -0.5820    3.5602   -1.8235 H   0  0  0  0  0  0  0  0  0  0  0  0
   -1.6364    2.9861   -3.1331 H   0  0  0  0  0  0  0  0  0  0  0  0
   -2.3087    3.2801   -1.5256 H   0  0  0  0  0  0  0  0  0  0  0  0
    0.0465    0.9981   -2.5491 C   0  0  0  0  0  0  0  0  0  0  0  0
    0.2714   -0.0440   -2.3226 H   0  0  0  0  0  0  0  0  0  0  0  0
   -0.2185    1.0750   -3.6036 H   0  0  0  0  0  0  0  0  0  0  0  0
    0.9298    1.6074   -2.3547 H   0  0  0  0  0  0  0  0  0  0  0  0
   -0.0125   -0.1747    1.7437 C   0  0  0  0  0  0  0  0  0  0  0  0
   -0.7463    0.0679    2.6991 O   0  0  0  0  0  0  0  0  0  0  0  0
    1.2829   -0.4822    1.8900 N   0  0  0  0  0  0  0  0  0  0  0  0
    1.8183   -0.6742    1.0585 H   0  0  0  0  0  0  0  0  0  0  0  0
    1.9624   -0.5579    3.1812 C   0  0  0  0  0  0  0  0  0  0  0  0
    1.4722   -1.3021    3.8129 H   0  0  0  0  0  0  0  0  0  0  0  0
    3.0082   -0.8367    3.0429 H   0  0  0  0  0  0  0  0  0  0  0  0
    1.9103    0.4100    3.6823 H   0  0  0  0  0  0  0  0  0  0  0  0
  5  6  2  0  0  0  0
  5  7  1  0  0  0  0
  2  3  1  0  0  0  0
  2  4  1  0  0  0  0
  2  5  1  0  0  0  0
  1  2  1  0  0  0  0
 24 25  2  0  0  0  0
 24 26  1  0  0  0  0
 20 21  1  0  0  0  0
 20 22  1  0  0  0  0
 20 23  1  0  0  0  0
 16 17  1  0  0  0  0
 16 18  1  0  0  0  0
 16 19  1  0  0  0  0
 14 15  1  0  0  0  0
 14 16  1  0  0  0  0
 14 20  1  0  0  0  0
 11 12  1  0  0  0  0
 11 13  1  0  0  0  0
 11 14  1  0  0  0  0
  9 10  1  0  0  0  0
  9 11  1  0  0  0  0
  9 24  1  0  0  0  0
  7  8  1  0  0  0  0
  7  9  1  0  0  0  0
 28 29  1  0  0  0  0
 28 30  1  0  0  0  0
 28 31  1  0  0  0  0
 26 27  1  0  0  0  0
 26 28  1  0  0  0  0
M  END
$$$$
default_name
  -OEChem-01062215323D

 31 30  0     1  0  0  0  0  0999 V2000
   -3.5895   -3.5013    1.1082 H   0  0  0  0  0  0  0  0  0  0  0  0
   -3.5145   -2.5363    0.6082 C   0  0  0  0  0  0  0  0  0  0  0  0
   -4.2285   -1.8413    1.0452 H   0  0  0  0  0  0  0  0  0  0  0  0
   -3.7155   -2.6583   -0.4538 H   0  0  0  0  0  0  0  0  0  0  0  0
   -2.1155   -1.9963    0.7922 C   0  0  0  0  0  0  0  0  0  0  0  0
   -1.2875   -2.6383    1.4252 O   0  0  0  0  0  0  0  0  0  0  0  0
   -1.8575   -0.8123    0.2402 N   0  0  0  0  0  0  0  0  0  0  0  0
   -2.6005   -0.3333   -0.2478 H   0  0  0  0  0  0  0  0  0  0  0  0
   -0.5675   -0.1203    0.3102 C   0  0  1  0  0  0  0  0  0  0  0  0
    0.1327   -0.6360   -0.3479 H   0  0  0  0  0  0  0  0  0  0  0  0
   -0.7575    1.3254   -0.1949 C   0  0  0  0  0  0  0  0  0  0  0  0
   -1.5392    1.8023    0.3996 H   0  0  0  0  0  0  0  0  0  0  0  0
    0.1723    1.8700   -0.0165 H   0  0  0  0  0  0  0  0  0  0  0  0
   -1.1207    1.4720   -1.6840 C   0  0  0  0  0  0  0  0  0  0  0  0
   -1.9859    0.8506   -1.9148 H   0  0  0  0  0  0  0  0  0  0  0  0
   -1.4336    2.9222   -2.0638 C   0  0  0  0  0  0  0  0  0  0  0  0
   -0.5820    3.5602   -1.8235 H   0  0  0  0  0  0  0  0  0  0  0  0
   -1.6364    2.9861   -3.1331 H   0  0  0  0  0  0  0  0  0  0  0  0
   -2.3087    3.2801   -1.5256 H   0  0  0  0  0  0  0  0  0  0  0  0
    0.0465    0.9981   -2.5491 C   0  0  0  0  0  0  0  0  0  0  0  0
    0.2714   -0.0440   -2.3226 H   0  0  0  0  0  0  0  0  0  0  0  0
   -0.2185    1.0750   -3.6036 H   0  0  0  0  0  0  0  0  0  0  0  0
    0.9298    1.6074   -2.3547 H   0  0  0  0  0  0  0  0  0  0  0  0
   -0.0125   -0.1747    1.7437 C   0  0  0  0  0  0  0  0  0  0  0  0
   -0.7809   -0.2073    2.7021 O   0  0  0  0  0  0  0  0  0  0  0  0
    1.3191   -0.1737    1.8877 N   0  0  0  0  0  0  0  0  0  0  0  0
    1.8831   -0.1516    1.0532 H   0  0  0  0  0  0  0  0  0  0  0  0
    1.9998   -0.2052    3.1801 C   0  0  0  0  0  0  0  0  0  0  0  0
    1.7054   -1.1018    3.7302 H   0  0  0  0  0  0  0  0  0  0  0  0
    3.0816   -0.2097    3.0383 H   0  0  0  0  0  0  0  0  0  0  0  0
    1.7165    0.6698    3.7672 H   0  0  0  0  0  0  0  0  0  0  0  0
  5  6  2  0  0  0  0
  5  7  1  0  0  0  0
  2  3  1  0  0  0  0
  2  4  1  0  0  0  0
  2  5  1  0  0  0  0
  1  2  1  0  0  0  0
 24 25  2  0  0  0  0
 24 26  1  0  0  0  0
 20 21  1  0  0  0  0
 20 22  1  0  0  0  0
 20 23  1  0  0  0  0
 16 17  1  0  0  0  0
 16 18  1  0  0  0  0
 16 19  1  0  0  0  0
 14 15  1  0  0  0  0
 14 16  1  0  0  0  0
 14 20  1  0  0  0  0
 11 12  1  0  0  0  0
 11 13  1  0  0  0  0
 11 14  1  0  0  0  0
  9 10  1  0  0  0  0
  9 11  1  0  0  0  0
  9 24  1  0  0  0  0
  7  8  1  0  0  0  0
  7  9  1  0  0  0  0
 28 29  1  0  0  0  0
 28 30  1  0  0  0  0
 28 31  1  0  0  0  0
 26 27  1  0  0  0  0
 26 28  1  0  0  0  0
M  END
$$$$
default_name
  -OEChem-01062215323D

 31 30  0     1  0  0  0  0  0999 V2000
   -3.5895   -3.5013    1.1082 H   0  0  0  0  0  0  0  0  0  0  0  0
   -3.5145   -2.5363    0.6082 C   0  0  0  0  0  0  0  0  0  0  0  0
   -4.2285   -1.8413    1.0452 H   0  0  0  0  0  0  0  0  0  0  0  0
   -3.7155   -2.6583   -0.4538 H   0  0  0  0  0  0  0  0  0  0  0  0
   -2.1155   -1.9963    0.7922 C   0  0  0  0  0  0  0  0  0  0  0  0
   -1.2875   -2.6383    1.4252 O   0  0  0  0  0  0  0  0  0  0  0  0
   -1.8575   -0.8123    0.2402 N   0  0  0  0  0  0  0  0  0  0  0  0
   -2.6005   -0.3333   -0.2478 H   0  0  0  0  0  0  0  0  0  0  0  0
   -0.5675   -0.1203    0.3102 C   0  0  1  0  0  0  0  0  0  0  0  0
    0.1327   -0.6360   -0.3479 H   0  0  0  0  0  0  0  0  0  0  0  0
   -0.7575    1.3254   -0.1949 C   0  0  0  0  0  0  0  0  0  0  0  0
   -1.5392    1.8023    0.3996 H   0  0  0  0  0  0  0  0  0  0  0  0
    0.1723    1.8700   -0.0165 H   0  0  0  0  0  0  0  0  0  0  0  0
   -1.1207    1.4720   -1.6840 C   0  0  0  0  0  0  0  0  0  0  0  0
   -1.9859    0.8506   -1.9148 H   0  0  0  0  0  0  0  0  0  0  0  0
   -1.4336    2.9222   -2.0638 C   0  0  0  0  0  0  0  0  0  0  0  0
   -0.5820    3.5602   -1.8235 H   0  0  0  0  0  0  0  0  0  0  0  0
   -1.6364    2.9861   -3.1331 H   0  0  0  0  0  0  0  0  0  0  0  0
   -2.3087    3.2801   -1.5256 H   0  0  0  0  0  0  0  0  0  0  0  0
    0.0465    0.9981   -2.5491 C   0  0  0  0  0  0  0  0  0  0  0  0
    0.2714   -0.0440   -2.3226 H   0  0  0  0  0  0  0  0  0  0  0  0
   -0.2185    1.0750   -3.6036 H   0  0  0  0  0  0  0  0  0  0  0  0
    0.9298    1.6074   -2.3547 H   0  0  0  0  0  0  0  0  0  0  0  0
   -0.0125   -0.1747    1.7437 C   0  0  0  0  0  0  0  0  0  0  0  0
   -0.7481   -0.4818    2.6789 O   0  0  0  0  0  0  0  0  0  0  0  0
    1.2797    0.1333    1.9146 N   0  0  0  0  0  0  0  0  0  0  0  0
    1.8198    0.3693    1.0975 H   0  0  0  0  0  0  0  0  0  0  0  0
    1.9509    0.1446    3.2124 C   0  0  0  0  0  0  0  0  0  0  0  0
    1.8831   -0.8444    3.6712 H   0  0  0  0  0  0  0  0  0  0  0  0
    3.0013    0.4141    3.0931 H   0  0  0  0  0  0  0  0  0  0  0  0
    1.4658    0.8661    3.8717 H   0  0  0  0  0  0  0  0  0  0  0  0
  5  6  2  0  0  0  0
  5  7  1  0  0  0  0
  2  3  1  0  0  0  0
  2  4  1  0  0  0  0
  2  5  1  0  0  0  0
  1  2  1  0  0  0  0
 24 25  2  0  0  0  0
 24 26  1  0  0  0  0
 20 21  1  0  0  0  0
 20 22  1  0  0  0  0
 20 23  1  0  0  0  0
 16 17  1  0  0  0  0
 16 18  1  0  0  0  0
 16 19  1  0  0  0  0
 14 15  1  0  0  0  0
 14 16  1  0  0  0  0
 14 20  1  0  0  0  0
 11 12  1  0  0  0  0
 11 13  1  0  0  0  0
 11 14  1  0  0  0  0
  9 10  1  0  0  0  0
  9 11  1  0  0  0  0
  9 24  1  0  0  0  0
  7  8  1  0  0  0  0
  7  9  1  0  0  0  0
 28 29  1  0  0  0  0
 28 30  1  0  0  0  0
 28 31  1  0  0  0  0
 26 27  1  0  0  0  0
 26 28  1  0  0  0  0
M  END
$$$$
default_name
  -OEChem-01062215323D

 31 30  0     1  0  0  0  0  0999 V2000
   -3.5895   -3.5013    1.1082 H   0  0  0  0  0  0  0  0  0  0  0  0
   -3.5145   -2.5363    0.6082 C   0  0  0  0  0  0  0  0  0  0  0  0
   -4.2285   -1.8413    1.0452 H   0  0  0  0  0  0  0  0  0  0  0  0
   -3.7155   -2.6583   -0.4538 H   0  0  0  0  0  0  0  0  0  0  0  0
   -2.1155   -1.9963    0.7922 C   0  0  0  0  0  0  0  0  0  0  0  0
   -1.2875   -2.6383    1.4252 O   0  0  0  0  0  0  0  0  0  0  0  0
   -1.8575   -0.8123    0.2402 N   0  0  0  0  0  0  0  0  0  0  0  0
   -2.6005   -0.3333   -0.2478 H   0  0  0  0  0  0  0  0  0  0  0  0
   -0.5675   -0.1203    0.3102 C   0  0  1  0  0  0  0  0  0  0  0  0
    0.0451   -0.4544   -0.5280 H   0  0  0  0  0  0  0  0  0  0  0  0
   -0.8159    1.3967    0.1757 C   0  0  0  0  0  0  0  0  0  0  0  0
   -1.5173    1.7053    0.9534 H   0  0  0  0  0  0  0  0  0  0  0  0
    0.1298    1.9111    0.3602 H   0  0  0  0  0  0  0  0  0  0  0  0
   -1.3602    1.8680   -1.1854 C   0  0  0  0  0  0  0  0  0  0  0  0
   -2.2484    1.2924   -1.4459 H   0  0  0  0  0  0  0  0  0  0  0  0
   -1.7150    3.3577   -1.1830 C   0  0  0  0  0  0  0  0  0  0  0  0
   -0.8391    3.9468   -0.9079 H   0  0  0  0  0  0  0  0  0  0  0  0
   -2.0483    3.6573   -2.1769 H   0  0  0  0  0  0  0  0  0  0  0  0
   -2.5162    3.5607   -0.4756 H   0  0  0  0  0  0  0  0  0  0  0  0
   -0.3098    1.6340   -2.2704 C   0  0  0  0  0  0  0  0  0  0  0  0
   -0.0605    0.5740   -2.3169 H   0  0  0  0  0  0  0  0  0  0  0  0
   -0.7030    1.9413   -3.2395 H   0  0  0  0  0  0  0  0  0  0  0  0
    0.5919    2.2064   -2.0500 H   0  0  0  0  0  0  0  0  0  0  0  0
    0.1604   -0.4840    1.6155 C   0  0  0  0  0  0  0  0  0  0  0  0
   -0.3634   -1.2497    2.4214 O   0  0  0  0  0  0  0  0  0  0  0  0
    1.3601    0.0730    1.8259 N   0  0  0  0  0  0  0  0  0  0  0  0
    1.7260    0.6862    1.1153 H   0  0  0  0  0  0  0  0  0  0  0  0
    2.1683   -0.1580    3.0211 C   0  0  0  0  0  0  0  0  0  0  0  0
    2.3844   -1.2241    3.1197 H   0  0  0  0  0  0  0  0  0  0  0  0
    3.1069    0.3944    2.9560 H   0  0  0  0  0  0  0  0  0  0  0  0
    1.6188    0.1673    3.9059 H   0  0  0  0  0  0  0  0  0  0  0  0
  5  6  2  0  0  0  0
  5  7  1  0  0  0  0
  2  3  1  0  0  0  0
  2  4  1  0  0  0  0
  2  5  1  0  0  0  0
  1  2  1  0  0  0  0
 24 25  2  0  0  0  0
 24 26  1  0  0  0  0
 20 21  1  0  0  0  0
 20 22  1  0  0  0  0
 20 23  1  0  0  0  0
 16 17  1  0  0  0  0
 16 18  1  0  0  0  0
 16 19  1  0  0  0  0
 14 15  1  0  0  0  0
 14 16  1  0  0  0  0
 14 20  1  0  0  0  0
 11 12  1  0  0  0  0
 11 13  1  0  0  0  0
 11 14  1  0  0  0  0
  9 10  1  0  0  0  0
  9 11  1  0  0  0  0
  9 24  1  0  0  0  0
  7  8  1  0  0  0  0
  7  9  1  0  0  0  0
 28 29  1  0  0  0  0
 28 30  1  0  0  0  0
 28 31  1  0  0  0  0
 26 27  1  0  0  0  0
 26 28  1  0  0  0  0
M  END
$$$$
default_name
  -OEChem-01062215323D

 31 30  0     1  0  0  0  0  0999 V2000
   -3.5895   -3.5013    1.1082 H   0  0  0  0  0  0  0  0  0  0  0  0
   -3.5145   -2.5363    0.6082 C   0  0  0  0  0  0  0  0  0  0  0  0
   -4.2285   -1.8413    1.0452 H   0  0  0  0  0  0  0  0  0  0  0  0
   -3.7155   -2.6583   -0.4538 H   0  0  0  0  0  0  0  0  0  0  0  0
   -2.1155   -1.9963    0.7922 C   0  0  0  0  0  0  0  0  0  0  0  0
   -1.2875   -2.6383    1.4252 O   0  0  0  0  0  0  0  0  0  0  0  0
   -1.8575   -0.8123    0.2402 N   0  0  0  0  0  0  0  0  0  0  0  0
   -2.6005   -0.3333   -0.2478 H   0  0  0  0  0  0  0  0  0  0  0  0
   -0.5675   -0.1203    0.3102 C   0  0  1  0  0  0  0  0  0  0  0  0
    0.0451   -0.4544   -0.5280 H   0  0  0  0  0  0  0  0  0  0  0  0
   -0.8159    1.3967    0.1757 C   0  0  0  0  0  0  0  0  0  0  0  0
   -1.5173    1.7053    0.9534 H   0  0  0  0  0  0  0  0  0  0  0  0
    0.1298    1.9111    0.3602 H   0  0  0  0  0  0  0  0  0  0  0  0
   -1.3602    1.8680   -1.1854 C   0  0  0  0  0  0  0  0  0  0  0  0
   -2.2484    1.2924   -1.4459 H   0  0  0  0  0  0  0  0  0  0  0  0
   -1.7150    3.3577   -1.1830 C   0  0  0  0  0  0  0  0  0  0  0  0
   -0.8391    3.9468   -0.9079 H   0  0  0  0  0  0  0  0  0  0  0  0
   -2.0483    3.6573   -2.1769 H   0  0  0  0  0  0  0  0  0  0  0  0
   -2.5162    3.5607   -0.4756 H   0  0  0  0  0  0  0  0  0  0  0  0
   -0.3098    1.6340   -2.2704 C   0  0  0  0  0  0  0  0  0  0  0  0
   -0.0605    0.5740   -2.3169 H   0  0  0  0  0  0  0  0  0  0  0  0
   -0.7030    1.9413   -3.2395 H   0  0  0  0  0  0  0  0  0  0  0  0
    0.5919    2.2064   -2.0500 H   0  0  0  0  0  0  0  0  0  0  0  0
    0.1604   -0.4840    1.6155 C   0  0  0  0  0  0  0  0  0  0  0  0
   -0.2167   -1.4424    2.2859 O   0  0  0  0  0  0  0  0  0  0  0  0
    1.1940    0.2868    1.9782 N   0  0  0  0  0  0  0  0  0  0  0  0
    1.4469    1.0511    1.3726 H   0  0  0  0  0  0  0  0  0  0  0  0
    1.9756    0.0831    3.1957 C   0  0  0  0  0  0  0  0  0  0  0  0
    2.4195   -0.9149    3.1863 H   0  0  0  0  0  0  0  0  0  0  0  0
    2.7690    0.8288    3.2654 H   0  0  0  0  0  0  0  0  0  0  0  0
    1.3259    0.1649    4.0686 H   0  0  0  0  0  0  0  0  0  0  0  0
  5  6  2  0  0  0  0
  5  7  1  0  0  0  0
  2  3  1  0  0  0  0
  2  4  1  0  0  0  0
  2  5  1  0  0  0  0
  1  2  1  0  0  0  0
 24 25  2  0  0  0  0
 24 26  1  0  0  0  0
 20 21  1  0  0  0  0
 20 22  1  0  0  0  0
 20 23  1  0  0  0  0
 16 17  1  0  0  0  0
 16 18  1  0  0  0  0
 16 19  1  0  0  0  0
 14 15  1  0  0  0  0
 14 16  1  0  0  0  0
 14 20  1  0  0  0  0
 11 12  1  0  0  0  0
 11 13  1  0  0  0  0
 11 14  1  0  0  0  0
  9 10  1  0  0  0  0
  9 11  1  0  0  0  0
  9 24  1  0  0  0  0
  7  8  1  0  0  0  0
  7  9  1  0  0  0  0
 28 29  1  0  0  0  0
 28 30  1  0  0  0  0
 28 31  1  0  0  0  0
 26 27  1  0  0  0  0
 26 28  1  0  0  0  0
M  END
$$$$
default_name
  -OEChem-01062215323D

 31 30  0     1  0  0  0  0  0999 V2000
   -3.5895   -3.5013    1.1082 H   0  0  0  0  0  0  0  0  0  0  0  0
   -3.5145   -2.5363    0.6082 C   0  0  0  0  0  0  0  0  0  0  0  0
   -4.2285   -1.8413    1.0452 H   0  0  0  0  0  0  0  0  0  0  0  0
   -3.7155   -2.6583   -0.4538 H   0  0  0  0  0  0  0  0  0  0  0  0
   -2.1155   -1.9963    0.7922 C   0  0  0  0  0  0  0  0  0  0  0  0
   -1.2875   -2.6383    1.4252 O   0  0  0  0  0  0  0  0  0  0  0  0
   -1.8575   -0.8123    0.2402 N   0  0  0  0  0  0  0  0  0  0  0  0
   -2.6005   -0.3333   -0.2478 H   0  0  0  0  0  0  0  0  0  0  0  0
   -0.5675   -0.1203    0.3102 C   0  0  1  0  0  0  0  0  0  0  0  0
    0.0451   -0.4544   -0.5280 H   0  0  0  0  0  0  0  0  0  0  0  0
   -0.8159    1.3967    0.1757 C   0  0  0  0  0  0  0  0  0  0  0  0
   -1.5173    1.7053    0.9534 H   0  0  0  0  0  0  0  0  0  0  0  0
    0.1298    1.9111    0.3602 H   0  0  0  0  0  0  0  0  0  0  0  0
   -1.3602    1.8680   -1.1854 C   0  0  0  0  0  0  0  0  0  0  0  0
   -2.2484    1.2924   -1.4459 H   0  0  0  0  0  0  0  0  0  0  0  0
   -1.7150    3.3577   -1.1830 C   0  0  0  0  0  0  0  0  0  0  0  0
   -0.8391    3.9468   -0.9079 H   0  0  0  0  0  0  0  0  0  0  0  0
   -2.0483    3.6573   -2.1769 H   0  0  0  0  0  0  0  0  0  0  0  0
   -2.5162    3.5607   -0.4756 H   0  0  0  0  0  0  0  0  0  0  0  0
   -0.3098    1.6340   -2.2704 C   0  0  0  0  0  0  0  0  0  0  0  0
   -0.0605    0.5740   -2.3169 H   0  0  0  0  0  0  0  0  0  0  0  0
   -0.7030    1.9413   -3.2395 H   0  0  0  0  0  0  0  0  0  0  0  0
    0.5919    2.2064   -2.0500 H   0  0  0  0  0  0  0  0  0  0  0  0
    0.1604   -0.4840    1.6155 C   0  0  0  0  0  0  0  0  0  0  0  0
   -0.0245   -1.5796    2.1404 O   0  0  0  0  0  0  0  0  0  0  0  0
    0.9772    0.4381    2.1412 N   0  0  0  0  0  0  0  0  0  0  0  0
    1.0814    1.3108    1.6488 H   0  0  0  0  0  0  0  0  0  0  0  0
    1.7257    0.2523    3.3822 C   0  0  0  0  0  0  0  0  0  0  0  0
    2.3814   -0.6166    3.2907 H   0  0  0  0  0  0  0  0  0  0  0  0
    2.3283    1.1362    3.5968 H   0  0  0  0  0  0  0  0  0  0  0  0
    1.0335    0.0783    4.2075 H   0  0  0  0  0  0  0  0  0  0  0  0
  5  6  2  0  0  0  0
  5  7  1  0  0  0  0
  2  3  1  0  0  0  0
  2  4  1  0  0  0  0
  2  5  1  0  0  0  0
  1  2  1  0  0  0  0
 24 25  2  0  0  0  0
 24 26  1  0  0  0  0
 20 21  1  0  0  0  0
 20 22  1  0  0  0  0
 20 23  1  0  0  0  0
 16 17  1  0  0  0  0
 16 18  1  0  0  0  0
 16 19  1  0  0  0  0
 14 15  1  0  0  0  0
 14 16  1  0  0  0  0
 14 20  1  0  0  0  0
 11 12  1  0  0  0  0
 11 13  1  0  0  0  0
 11 14  1  0  0  0  0
  9 10  1  0  0  0  0
  9 11  1  0  0  0  0
  9 24  1  0  0  0  0
  7  8  1  0  0  0  0
  7  9  1  0  0  0  0
 28 29  1  0  0  0  0
 28 30  1  0  0  0  0
 28 31  1  0  0  0  0
 26 27  1  0  0  0  0
 26 28  1  0  0  0  0
M  END
$$$$
default_name
  -OEChem-01062215323D

 31 30  0     1  0  0  0  0  0999 V2000
   -3.5895   -3.5013    1.1082 H   0  0  0  0  0  0  0  0  0  0  0  0
   -3.5145   -2.5363    0.6082 C   0  0  0  0  0  0  0  0  0  0  0  0
   -4.2285   -1.8413    1.0452 H   0  0  0  0  0  0  0  0  0  0  0  0
   -3.7155   -2.6583   -0.4538 H   0  0  0  0  0  0  0  0  0  0  0  0
   -2.1155   -1.9963    0.7922 C   0  0  0  0  0  0  0  0  0  0  0  0
   -1.2875   -2.6383    1.4252 O   0  0  0  0  0  0  0  0  0  0  0  0
   -1.8575   -0.8123    0.2402 N   0  0  0  0  0  0  0  0  0  0  0  0
   -2.6005   -0.3333   -0.2478 H   0  0  0  0  0  0  0  0  0  0  0  0
   -0.5675   -0.1203    0.3102 C   0  0  1  0  0  0  0  0  0  0  0  0
    0.0451   -0.4544   -0.5280 H   0  0  0  0  0  0  0  0  0  0  0  0
   -0.8159    1.3967    0.1757 C   0  0  0  0  0  0  0  0  0  0  0  0
   -1.5173    1.7053    0.9534 H   0  0  0  0  0  0  0  0  0  0  0  0
    0.1298    1.9111    0.3602 H   0  0  0  0  0  0  0  0  0  0  0  0
   -1.3602    1.8680   -1.1854 C   0  0  0  0  0  0  0  0  0  0  0  0
   -2.2484    1.2924   -1.4459 H   0  0  0  0  0  0  0  0  0  0  0  0
   -1.7150    3.3577   -1.1830 C   0  0  0  0  0  0  0  0  0  0  0  0
   -0.8391    3.9468   -0.9079 H   0  0  0  0  0  0  0  0  0  0  0  0
   -2.0483    3.6573   -2.1769 H   0  0  0  0  0  0  0  0  0  0  0  0
   -2.5162    3.5607   -0.4756 H   0  0  0  0  0  0  0  0  0  0  0  0
   -0.3098    1.6340   -2.2704 C   0  0  0  0  0  0  0  0  0  0  0  0
   -0.0605    0.5740   -2.3169 H   0  0  0  0  0  0  0  0  0  0  0  0
   -0.7030    1.9413   -3.2395 H   0  0  0  0  0  0  0  0  0  0  0  0
    0.5919    2.2064   -2.0500 H   0  0  0  0  0  0  0  0  0  0  0  0
    0.1604   -0.4840    1.6155 C   0  0  0  0  0  0  0  0  0  0  0  0
    0.2003   -1.6522    1.9949 O   0  0  0  0  0  0  0  0  0  0  0  0
    0.7245    0.5167    2.3040 N   0  0  0  0  0  0  0  0  0  0  0  0
    0.6544    1.4475    1.9250 H   0  0  0  0  0  0  0  0  0  0  0  0
    1.4359    0.3380    3.5677 C   0  0  0  0  0  0  0  0  0  0  0  0
    2.2727   -0.3496    3.4257 H   0  0  0  0  0  0  0  0  0  0  0  0
    1.8148    1.2957    3.9276 H   0  0  0  0  0  0  0  0  0  0  0  0
    0.7616   -0.0865    4.3132 H   0  0  0  0  0  0  0  0  0  0  0  0
  5  6  2  0  0  0  0
  5  7  1  0  0  0  0
  2  3  1  0  0  0  0
  2  4  1  0  0  0  0
  2  5  1  0  0  0  0
  1  2  1  0  0  0  0
 24 25  2  0  0  0  0
 24 26  1  0  0  0  0
 20 21  1  0  0  0  0
 20 22  1  0  0  0  0
 20 23  1  0  0  0  0
 16 17  1  0  0  0  0
 16 18  1  0  0  0  0
 16 19  1  0  0  0  0
 14 15  1  0  0  0  0
 14 16  1  0  0  0  0
 14 20  1  0  0  0  0
 11 12  1  0  0  0  0
 11 13  1  0  0  0  0
 11 14  1  0  0  0  0
  9 10  1  0  0  0  0
  9 11  1  0  0  0  0
  9 24  1  0  0  0  0
  7  8  1  0  0  0  0
  7  9  1  0  0  0  0
 28 29  1  0  0  0  0
 28 30  1  0  0  0  0
 28 31  1  0  0  0  0
 26 27  1  0  0  0  0
 26 28  1  0  0  0  0
M  END
$$$$
default_name
  -OEChem-01062215323D

 31 30  0     1  0  0  0  0  0999 V2000
   -3.5895   -3.5013    1.1082 H   0  0  0  0  0  0  0  0  0  0  0  0
   -3.5145   -2.5363    0.6082 C   0  0  0  0  0  0  0  0  0  0  0  0
   -4.2285   -1.8413    1.0452 H   0  0  0  0  0  0  0  0  0  0  0  0
   -3.7155   -2.6583   -0.4538 H   0  0  0  0  0  0  0  0  0  0  0  0
   -2.1155   -1.9963    0.7922 C   0  0  0  0  0  0  0  0  0  0  0  0
   -1.2875   -2.6383    1.4252 O   0  0  0  0  0  0  0  0  0  0  0  0
   -1.8575   -0.8123    0.2402 N   0  0  0  0  0  0  0  0  0  0  0  0
   -2.6005   -0.3333   -0.2478 H   0  0  0  0  0  0  0  0  0  0  0  0
   -0.5675   -0.1203    0.3102 C   0  0  1  0  0  0  0  0  0  0  0  0
    0.0451   -0.4544   -0.5280 H   0  0  0  0  0  0  0  0  0  0  0  0
   -0.8159    1.3967    0.1757 C   0  0  0  0  0  0  0  0  0  0  0  0
   -1.5173    1.7053    0.9534 H   0  0  0  0  0  0  0  0  0  0  0  0
    0.1298    1.9111    0.3602 H   0  0  0  0  0  0  0  0  0  0  0  0
   -1.3602    1.8680   -1.1854 C   0  0  0  0  0  0  0  0  0  0  0  0
   -2.2484    1.2924   -1.4459 H   0  0  0  0  0  0  0  0  0  0  0  0
   -1.7150    3.3577   -1.1830 C   0  0  0  0  0  0  0  0  0  0  0  0
   -0.8391    3.9468   -0.9079 H   0  0  0  0  0  0  0  0  0  0  0  0
   -2.0483    3.6573   -2.1769 H   0  0  0  0  0  0  0  0  0  0  0  0
   -2.5162    3.5607   -0.4756 H   0  0  0  0  0  0  0  0  0  0  0  0
   -0.3098    1.6340   -2.2704 C   0  0  0  0  0  0  0  0  0  0  0  0
   -0.0605    0.5740   -2.3169 H   0  0  0  0  0  0  0  0  0  0  0  0
   -0.7030    1.9413   -3.2395 H   0  0  0  0  0  0  0  0  0  0  0  0
    0.5919    2.2064   -2.0500 H   0  0  0  0  0  0  0  0  0  0  0  0
    0.1604   -0.4840    1.6155 C   0  0  0  0  0  0  0  0  0  0  0  0
    0.4422   -1.6551    1.8592 O   0  0  0  0  0  0  0  0  0  0  0  0
    0.4533    0.5173    2.4554 N   0  0  0  0  0  0  0  0  0  0  0  0
    0.1950    1.4520    2.1824 H   0  0  0  0  0  0  0  0  0  0  0  0
    1.1257    0.3344    3.7396 C   0  0  0  0  0  0  0  0  0  0  0  0
    2.1008   -0.1321    3.5822 H   0  0  0  0  0  0  0  0  0  0  0  0
    1.2635    1.2966    4.2353 H   0  0  0  0  0  0  0  0  0  0  0  0
    0.5287   -0.3184    4.3785 H   0  0  0  0  0  0  0  0  0  0  0  0
  5  6  2  0  0  0  0
  5  7  1  0  0  0  0
  2  3  1  0  0  0  0
  2  4  1  0  0  0  0
  2  5  1  0  0  0  0
  1  2  1  0  0  0  0
 24 25  2  0  0  0  0
 24 26  1  0  0  0  0
 20 21  1  0  0  0  0
 20 22  1  0  0  0  0
 20 23  1  0  0  0  0
 16 17  1  0  0  0  0
 16 18  1  0  0  0  0
 16 19  1  0  0  0  0
 14 15  1  0  0  0  0
 14 16  1  0  0  0  0
 14 20  1  0  0  0  0
 11 12  1  0  0  0  0
 11 13  1  0  0  0  0
 11 14  1  0  0  0  0
  9 10  1  0  0  0  0
  9 11  1  0  0  0  0
  9 24  1  0  0  0  0
  7  8  1  0  0  0  0
  7  9  1  0  0  0  0
 28 29  1  0  0  0  0
 28 30  1  0  0  0  0
 28 31  1  0  0  0  0
 26 27  1  0  0  0  0
 26 28  1  0  0  0  0
M  END
$$$$
default_name
  -OEChem-01062215323D

 31 30  0     1  0  0  0  0  0999 V2000
   -3.5895   -3.5013    1.1082 H   0  0  0  0  0  0  0  0  0  0  0  0
   -3.5145   -2.5363    0.6082 C   0  0  0  0  0  0  0  0  0  0  0  0
   -4.2285   -1.8413    1.0452 H   0  0  0  0  0  0  0  0  0  0  0  0
   -3.7155   -2.6583   -0.4538 H   0  0  0  0  0  0  0  0  0  0  0  0
   -2.1155   -1.9963    0.7922 C   0  0  0  0  0  0  0  0  0  0  0  0
   -1.2875   -2.6383    1.4252 O   0  0  0  0  0  0  0  0  0  0  0  0
   -1.8575   -0.8123    0.2402 N   0  0  0  0  0  0  0  0  0  0  0  0
   -2.6005   -0.3333   -0.2478 H   0  0  0  0  0  0  0  0  0  0  0  0
   -0.5675   -0.1203    0.3102 C   0  0  1  0  0  0  0  0  0  0  0  0
    0.0451   -0.4544   -0.5280 H   0  0  0  0  0  0  0  0  0  0  0  0
   -0.8159    1.3967    0.1757 C   0  0  0  0  0  0  0  0  0  0  0  0
   -1.5173    1.7053    0.9534 H   0  0  0  0  0  0  0  0  0  0  0  0
    0.1298    1.9111    0.3602 H   0  0  0  0  0  0  0  0  0  0  0  0
   -1.3602    1.8680   -1.1854 C   0  0  0  0  0  0  0  0  0  0  0  0
   -2.2484    1.2924   -1.4459 H   0  0  0  0  0  0  0  0  0  0  0  0
   -1.7150    3.3577   -1.1830 C   0  0  0  0  0  0  0  0  0  0  0  0
   -0.8391    3.9468   -0.9079 H   0  0  0  0  0  0  0  0  0  0  0  0
   -2.0483    3.6573   -2.1769 H   0  0  0  0  0  0  0  0  0  0  0  0
   -2.5162    3.5607   -0.4756 H   0  0  0  0  0  0  0  0  0  0  0  0
   -0.3098    1.6340   -2.2704 C   0  0  0  0  0  0  0  0  0  0  0  0
   -0.0605    0.5740   -2.3169 H   0  0  0  0  0  0  0  0  0  0  0  0
   -0.7030    1.9413   -3.2395 H   0  0  0  0  0  0  0  0  0  0  0  0
    0.5919    2.2064   -2.0500 H   0  0  0  0  0  0  0  0  0  0  0  0
    0.1604   -0.4840    1.6155 C   0  0  0  0  0  0  0  0  0  0  0  0
    0.6849   -1.5881    1.7425 O   0  0  0  0  0  0  0  0  0  0  0  0
    0.1819    0.4396    2.5851 N   0  0  0  0  0  0  0  0  0  0  0  0
   -0.2654    1.3239    2.4034 H   0  0  0  0  0  0  0  0  0  0  0  0
    0.8164    0.2417    3.8863 C   0  0  0  0  0  0  0  0  0  0  0  0
    1.8774    0.0210    3.7494 H   0  0  0  0  0  0  0  0  0  0  0  0
    0.7120    1.1386    4.4988 H   0  0  0  0  0  0  0  0  0  0  0  0
    0.3507   -0.6015    4.3988 H   0  0  0  0  0  0  0  0  0  0  0  0
  5  6  2  0  0  0  0
  5  7  1  0  0  0  0
  2  3  1  0  0  0  0
  2  4  1  0  0  0  0
  2  5  1  0  0  0  0
  1  2  1  0  0  0  0
 24 25  2  0  0  0  0
 24 26  1  0  0  0  0
 20 21  1  0  0  0  0
 20 22  1  0  0  0  0
 20 23  1  0  0  0  0
 16 17  1  0  0  0  0
 16 18  1  0  0  0  0
 16 19  1  0  0  0  0
 14 15  1  0  0  0  0
 14 16  1  0  0  0  0
 14 20  1  0  0  0  0
 11 12  1  0  0  0  0
 11 13  1  0  0  0  0
 11 14  1  0  0  0  0
  9 10  1  0  0  0  0
  9 11  1  0  0  0  0
  9 24  1  0  0  0  0
  7  8  1  0  0  0  0
  7  9  1  0  0  0  0
 28 29  1  0  0  0  0
 28 30  1  0  0  0  0
 28 31  1  0  0  0  0
 26 27  1  0  0  0  0
 26 28  1  0  0  0  0
M  END
$$$$
default_name
  -OEChem-01062215323D

 31 30  0     1  0  0  0  0  0999 V2000
   -3.5895   -3.5013    1.1082 H   0  0  0  0  0  0  0  0  0  0  0  0
   -3.5145   -2.5363    0.6082 C   0  0  0  0  0  0  0  0  0  0  0  0
   -4.2285   -1.8413    1.0452 H   0  0  0  0  0  0  0  0  0  0  0  0
   -3.7155   -2.6583   -0.4538 H   0  0  0  0  0  0  0  0  0  0  0  0
   -2.1155   -1.9963    0.7922 C   0  0  0  0  0  0  0  0  0  0  0  0
   -1.2875   -2.6383    1.4252 O   0  0  0  0  0  0  0  0  0  0  0  0
   -1.8575   -0.8123    0.2402 N   0  0  0  0  0  0  0  0  0  0  0  0
   -2.6005   -0.3333   -0.2478 H   0  0  0  0  0  0  0  0  0  0  0  0
   -0.5675   -0.1203    0.3102 C   0  0  1  0  0  0  0  0  0  0  0  0
    0.0451   -0.4544   -0.5280 H   0  0  0  0  0  0  0  0  0  0  0  0
   -0.8159    1.3967    0.1757 C   0  0  0  0  0  0  0  0  0  0  0  0
   -1.5173    1.7053    0.9534 H   0  0  0  0  0  0  0  0  0  0  0  0
    0.1298    1.9111    0.3602 H   0  0  0  0  0  0  0  0  0  0  0  0
   -1.3602    1.8680   -1.1854 C   0  0  0  0  0  0  0  0  0  0  0  0
   -2.2484    1.2924   -1.4459 H   0  0  0  0  0  0  0  0  0  0  0  0
   -1.7150    3.3577   -1.1830 C   0  0  0  0  0  0  0  0  0  0  0  0
   -0.8391    3.9468   -0.9079 H   0  0  0  0  0  0  0  0  0  0  0  0
   -2.0483    3.6573   -2.1769 H   0  0  0  0  0  0  0  0  0  0  0  0
   -2.5162    3.5607   -0.4756 H   0  0  0  0  0  0  0  0  0  0  0  0
   -0.3098    1.6340   -2.2704 C   0  0  0  0  0  0  0  0  0  0  0  0
   -0.0605    0.5740   -2.3169 H   0  0  0  0  0  0  0  0  0  0  0  0
   -0.7030    1.9413   -3.2395 H   0  0  0  0  0  0  0  0  0  0  0  0
    0.5919    2.2064   -2.0500 H   0  0  0  0  0  0  0  0  0  0  0  0
    0.1604   -0.4840    1.6155 C   0  0  0  0  0  0  0  0  0  0  0  0
    0.9117   -1.4558    1.6529 O   0  0  0  0  0  0  0  0  0  0  0  0
   -0.0712    0.2892    2.6843 N   0  0  0  0  0  0  0  0  0  0  0  0
   -0.6956    1.0719    2.5731 H   0  0  0  0  0  0  0  0  0  0  0  0
    0.5290    0.0663    3.9977 C   0  0  0  0  0  0  0  0  0  0  0  0
    1.6177    0.0994    3.9161 H   0  0  0  0  0  0  0  0  0  0  0  0
    0.1978    0.8326    4.7002 H   0  0  0  0  0  0  0  0  0  0  0  0
    0.2396   -0.9166    4.3730 H   0  0  0  0  0  0  0  0  0  0  0  0
  5  6  2  0  0  0  0
  5  7  1  0  0  0  0
  2  3  1  0  0  0  0
  2  4  1  0  0  0  0
  2  5  1  0  0  0  0
  1  2  1  0  0  0  0
 24 25  2  0  0  0  0
 24 26  1  0  0  0  0
 20 21  1  0  0  0  0
 20 22  1  0  0  0  0
 20 23  1  0  0  0  0
 16 17  1  0  0  0  0
 16 18  1  0  0  0  0
 16 19  1  0  0  0  0
 14 15  1  0  0  0  0
 14 16  1  0  0  0  0
 14 20  1  0  0  0  0
 11 12  1  0  0  0  0
 11 13  1  0  0  0  0
 11 14  1  0  0  0  0
  9 10  1  0  0  0  0
  9 11  1  0  0  0  0
  9 24  1  0  0  0  0
  7  8  1  0  0  0  0
  7  9  1  0  0  0  0
 28 29  1  0  0  0  0
 28 30  1  0  0  0  0
 28 31  1  0  0  0  0
 26 27  1  0  0  0  0
 26 28  1  0  0  0  0
M  END
$$$$
default_name
  -OEChem-01062215323D

 31 30  0     1  0  0  0  0  0999 V2000
   -3.5895   -3.5013    1.1082 H   0  0  0  0  0  0  0  0  0  0  0  0
   -3.5145   -2.5363    0.6082 C   0  0  0  0  0  0  0  0  0  0  0  0
   -4.2285   -1.8413    1.0452 H   0  0  0  0  0  0  0  0  0  0  0  0
   -3.7155   -2.6583   -0.4538 H   0  0  0  0  0  0  0  0  0  0  0  0
   -2.1155   -1.9963    0.7922 C   0  0  0  0  0  0  0  0  0  0  0  0
   -1.2875   -2.6383    1.4252 O   0  0  0  0  0  0  0  0  0  0  0  0
   -1.8575   -0.8123    0.2402 N   0  0  0  0  0  0  0  0  0  0  0  0
   -2.6005   -0.3333   -0.2478 H   0  0  0  0  0  0  0  0  0  0  0  0
   -0.5675   -0.1203    0.3102 C   0  0  1  0  0  0  0  0  0  0  0  0
    0.0451   -0.4544   -0.5280 H   0  0  0  0  0  0  0  0  0  0  0  0
   -0.8159    1.3967    0.1757 C   0  0  0  0  0  0  0  0  0  0  0  0
   -1.5173    1.7053    0.9534 H   0  0  0  0  0  0  0  0  0  0  0  0
    0.1298    1.9111    0.3602 H   0  0  0  0  0  0  0  0  0  0  0  0
   -1.3602    1.8680   -1.1854 C   0  0  0  0  0  0  0  0  0  0  0  0
   -2.2484    1.2924   -1.4459 H   0  0  0  0  0  0  0  0  0  0  0  0
   -1.7150    3.3577   -1.1830 C   0  0  0  0  0  0  0  0  0  0  0  0
   -0.8391    3.9468   -0.9079 H   0  0  0  0  0  0  0  0  0  0  0  0
   -2.0483    3.6573   -2.1769 H   0  0  0  0  0  0  0  0  0  0  0  0
   -2.5162    3.5607   -0.4756 H   0  0  0  0  0  0  0  0  0  0  0  0
   -0.3098    1.6340   -2.2704 C   0  0  0  0  0  0  0  0  0  0  0  0
   -0.0605    0.5740   -2.3169 H   0  0  0  0  0  0  0  0  0  0  0  0
   -0.7030    1.9413   -3.2395 H   0  0  0  0  0  0  0  0  0  0  0  0
    0.5919    2.2064   -2.0500 H   0  0  0  0  0  0  0  0  0  0  0  0
    0.1604   -0.4840    1.6155 C   0  0  0  0  0  0  0  0  0  0  0  0
    1.1072   -1.2672    1.5964 O   0  0  0  0  0  0  0  0  0  0  0  0
   -0.2886    0.0761    2.7462 N   0  0  0  0  0  0  0  0  0  0  0  0
   -1.0661    0.7133    2.6798 H   0  0  0  0  0  0  0  0  0  0  0  0
    0.2831   -0.1799    4.0662 C   0  0  0  0  0  0  0  0  0  0  0  0
    1.3395    0.0977    4.0707 H   0  0  0  0  0  0  0  0  0  0  0  0
   -0.2440    0.3994    4.8259 H   0  0  0  0  0  0  0  0  0  0  0  0
    0.2032   -1.2422    4.3026 H   0  0  0  0  0  0  0  0  0  0  0  0
  5  6  2  0  0  0  0
  5  7  1  0  0  0  0
  2  3  1  0  0  0  0
  2  4  1  0  0  0  0
  2  5  1  0  0  0  0
  1  2  1  0  0  0  0
 24 25  2  0  0  0  0
 24 26  1  0  0  0  0
 20 21  1  0  0  0  0
 20 22  1  0  0  0  0
 20 23  1  0  0  0  0
 16 17  1  0  0  0  0
 16 18  1  0  0  0  0
 16 19  1  0  0  0  0
 14 15  1  0  0  0  0
 14 16  1  0  0  0  0
 14 20  1  0  0  0  0
 11 12  1  0  0  0  0
 11 13  1  0  0  0  0
 11 14  1  0  0  0  0
  9 10  1  0  0  0  0
  9 11  1  0  0  0  0
  9 24  1  0  0  0  0
  7  8  1  0  0  0  0
  7  9  1  0  0  0  0
 28 29  1  0  0  0  0
 28 30  1  0  0  0  0
 28 31  1  0  0  0  0
 26 27  1  0  0  0  0
 26 28  1  0  0  0  0
M  END
$$$$
default_name
  -OEChem-01062215323D

 31 30  0     1  0  0  0  0  0999 V2000
   -3.5895   -3.5013    1.1082 H   0  0  0  0  0  0  0  0  0  0  0  0
   -3.5145   -2.5363    0.6082 C   0  0  0  0  0  0  0  0  0  0  0  0
   -4.2285   -1.8413    1.0452 H   0  0  0  0  0  0  0  0  0  0  0  0
   -3.7155   -2.6583   -0.4538 H   0  0  0  0  0  0  0  0  0  0  0  0
   -2.1155   -1.9963    0.7922 C   0  0  0  0  0  0  0  0  0  0  0  0
   -1.2875   -2.6383    1.4252 O   0  0  0  0  0  0  0  0  0  0  0  0
   -1.8575   -0.8123    0.2402 N   0  0  0  0  0  0  0  0  0  0  0  0
   -2.6005   -0.3333   -0.2478 H   0  0  0  0  0  0  0  0  0  0  0  0
   -0.5675   -0.1203    0.3102 C   0  0  1  0  0  0  0  0  0  0  0  0
    0.0451   -0.4544   -0.5280 H   0  0  0  0  0  0  0  0  0  0  0  0
   -0.8159    1.3967    0.1757 C   0  0  0  0  0  0  0  0  0  0  0  0
   -1.5173    1.7053    0.9534 H   0  0  0  0  0  0  0  0  0  0  0  0
    0.1298    1.9111    0.3602 H   0  0  0  0  0  0  0  0  0  0  0  0
   -1.3602    1.8680   -1.1854 C   0  0  0  0  0  0  0  0  0  0  0  0
   -2.2484    1.2924   -1.4459 H   0  0  0  0  0  0  0  0  0  0  0  0
   -1.7150    3.3577   -1.1830 C   0  0  0  0  0  0  0  0  0  0  0  0
   -0.8391    3.9468   -0.9079 H   0  0  0  0  0  0  0  0  0  0  0  0
   -2.0483    3.6573   -2.1769 H   0  0  0  0  0  0  0  0  0  0  0  0
   -2.5162    3.5607   -0.4756 H   0  0  0  0  0  0  0  0  0  0  0  0
   -0.3098    1.6340   -2.2704 C   0  0  0  0  0  0  0  0  0  0  0  0
   -0.0605    0.5740   -2.3169 H   0  0  0  0  0  0  0  0  0  0  0  0
   -0.7030    1.9413   -3.2395 H   0  0  0  0  0  0  0  0  0  0  0  0
    0.5919    2.2064   -2.0500 H   0  0  0  0  0  0  0  0  0  0  0  0
    0.1604   -0.4840    1.6155 C   0  0  0  0  0  0  0  0  0  0  0  0
    1.2581   -1.0352    1.5770 O   0  0  0  0  0  0  0  0  0  0  0  0
   -0.4556   -0.1850    2.7665 N   0  0  0  0  0  0  0  0  0  0  0  0
   -1.3518    0.2724    2.7162 H   0  0  0  0  0  0  0  0  0  0  0  0
    0.0954   -0.4801    4.0872 C   0  0  0  0  0  0  0  0  0  0  0  0
    1.0617    0.0159    4.2029 H   0  0  0  0  0  0  0  0  0  0  0  0
   -0.5832   -0.1315    4.8671 H   0  0  0  0  0  0  0  0  0  0  0  0
    0.2438   -1.5560    4.1925 H   0  0  0  0  0  0  0  0  0  0  0  0
  5  6  2  0  0  0  0
  5  7  1  0  0  0  0
  2  3  1  0  0  0  0
  2  4  1  0  0  0  0
  2  5  1  0  0  0  0
  1  2  1  0  0  0  0
 24 25  2  0  0  0  0
 24 26  1  0  0  0  0
 20 21  1  0  0  0  0
 20 22  1  0  0  0  0
 20 23  1  0  0  0  0
 16 17  1  0  0  0  0
 16 18  1  0  0  0  0
 16 19  1  0  0  0  0
 14 15  1  0  0  0  0
 14 16  1  0  0  0  0
 14 20  1  0  0  0  0
 11 12  1  0  0  0  0
 11 13  1  0  0  0  0
 11 14  1  0  0  0  0
  9 10  1  0  0  0  0
  9 11  1  0  0  0  0
  9 24  1  0  0  0  0
  7  8  1  0  0  0  0
  7  9  1  0  0  0  0
 28 29  1  0  0  0  0
 28 30  1  0  0  0  0
 28 31  1  0  0  0  0
 26 27  1  0  0  0  0
 26 28  1  0  0  0  0
M  END
$$$$
default_name
  -OEChem-01062215323D

 31 30  0     1  0  0  0  0  0999 V2000
   -3.5895   -3.5013    1.1082 H   0  0  0  0  0  0  0  0  0  0  0  0
   -3.5145   -2.5363    0.6082 C   0  0  0  0  0  0  0  0  0  0  0  0
   -4.2285   -1.8413    1.0452 H   0  0  0  0  0  0  0  0  0  0  0  0
   -3.7155   -2.6583   -0.4538 H   0  0  0  0  0  0  0  0  0  0  0  0
   -2.1155   -1.9963    0.7922 C   0  0  0  0  0  0  0  0  0  0  0  0
   -1.2875   -2.6383    1.4252 O   0  0  0  0  0  0  0  0  0  0  0  0
   -1.8575   -0.8123    0.2402 N   0  0  0  0  0  0  0  0  0  0  0  0
   -2.6005   -0.3333   -0.2478 H   0  0  0  0  0  0  0  0  0  0  0  0
   -0.5675   -0.1203    0.3102 C   0  0  1  0  0  0  0  0  0  0  0  0
    0.0451   -0.4544   -0.5280 H   0  0  0  0  0  0  0  0  0  0  0  0
   -0.8159    1.3967    0.1757 C   0  0  0  0  0  0  0  0  0  0  0  0
   -1.5173    1.7053    0.9534 H   0  0  0  0  0  0  0  0  0  0  0  0
    0.1298    1.9111    0.3602 H   0  0  0  0  0  0  0  0  0  0  0  0
   -1.3602    1.8680   -1.1854 C   0  0  0  0  0  0  0  0  0  0  0  0
   -2.2484    1.2924   -1.4459 H   0  0  0  0  0  0  0  0  0  0  0  0
   -1.7150    3.3577   -1.1830 C   0  0  0  0  0  0  0  0  0  0  0  0
   -0.8391    3.9468   -0.9079 H   0  0  0  0  0  0  0  0  0  0  0  0
   -2.0483    3.6573   -2.1769 H   0  0  0  0  0  0  0  0  0  0  0  0
   -2.5162    3.5607   -0.4756 H   0  0  0  0  0  0  0  0  0  0  0  0
   -0.3098    1.6340   -2.2704 C   0  0  0  0  0  0  0  0  0  0  0  0
   -0.0605    0.5740   -2.3169 H   0  0  0  0  0  0  0  0  0  0  0  0
   -0.7030    1.9413   -3.2395 H   0  0  0  0  0  0  0  0  0  0  0  0
    0.5919    2.2064   -2.0500 H   0  0  0  0  0  0  0  0  0  0  0  0
    0.1604   -0.4840    1.6155 C   0  0  0  0  0  0  0  0  0  0  0  0
    1.3540   -0.7756    1.5958 O   0  0  0  0  0  0  0  0  0  0  0  0
   -0.5608   -0.4765    2.7440 N   0  0  0  0  0  0  0  0  0  0  0  0
   -1.5331   -0.2206    2.6800 H   0  0  0  0  0  0  0  0  0  0  0  0
   -0.0212   -0.8139    4.0592 C   0  0  0  0  0  0  0  0  0  0  0  0
    0.8032   -0.1402    4.3035 H   0  0  0  0  0  0  0  0  0  0  0  0
   -0.7968   -0.7238    4.8212 H   0  0  0  0  0  0  0  0  0  0  0  0
    0.3587   -1.8368    4.0502 H   0  0  0  0  0  0  0  0  0  0  0  0
  5  6  2  0  0  0  0
  5  7  1  0  0  0  0
  2  3  1  0  0  0  0
  2  4  1  0  0  0  0
  2  5  1  0  0  0  0
  1  2  1  0  0  0  0
 24 25  2  0  0  0  0
 24 26  1  0  0  0  0
 20 21  1  0  0  0  0
 20 22  1  0  0  0  0
 20 23  1  0  0  0  0
 16 17  1  0  0  0  0
 16 18  1  0  0  0  0
 16 19  1  0  0  0  0
 14 15  1  0  0  0  0
 14 16  1  0  0  0  0
 14 20  1  0  0  0  0
 11 12  1  0  0  0  0
 11 13  1  0  0  0  0
 11 14  1  0  0  0  0
  9 10  1  0  0  0  0
  9 11  1  0  0  0  0
  9 24  1  0  0  0  0
  7  8  1  0  0  0  0
  7  9  1  0  0  0  0
 28 29  1  0  0  0  0
 28 30  1  0  0  0  0
 28 31  1  0  0  0  0
 26 27  1  0  0  0  0
 26 28  1  0  0  0  0
M  END
$$$$
default_name
  -OEChem-01062215323D

 31 30  0     1  0  0  0  0  0999 V2000
   -3.5895   -3.5013    1.1082 H   0  0  0  0  0  0  0  0  0  0  0  0
   -3.5145   -2.5363    0.6082 C   0  0  0  0  0  0  0  0  0  0  0  0
   -4.2285   -1.8413    1.0452 H   0  0  0  0  0  0  0  0  0  0  0  0
   -3.7155   -2.6583   -0.4538 H   0  0  0  0  0  0  0  0  0  0  0  0
   -2.1155   -1.9963    0.7922 C   0  0  0  0  0  0  0  0  0  0  0  0
   -1.2875   -2.6383    1.4252 O   0  0  0  0  0  0  0  0  0  0  0  0
   -1.8575   -0.8123    0.2402 N   0  0  0  0  0  0  0  0  0  0  0  0
   -2.6005   -0.3333   -0.2478 H   0  0  0  0  0  0  0  0  0  0  0  0
   -0.5675   -0.1203    0.3102 C   0  0  1  0  0  0  0  0  0  0  0  0
    0.0451   -0.4544   -0.5280 H   0  0  0  0  0  0  0  0  0  0  0  0
   -0.8159    1.3967    0.1757 C   0  0  0  0  0  0  0  0  0  0  0  0
   -1.5173    1.7053    0.9534 H   0  0  0  0  0  0  0  0  0  0  0  0
    0.1298    1.9111    0.3602 H   0  0  0  0  0  0  0  0  0  0  0  0
   -1.3602    1.8680   -1.1854 C   0  0  0  0  0  0  0  0  0  0  0  0
   -2.2484    1.2924   -1.4459 H   0  0  0  0  0  0  0  0  0  0  0  0
   -1.7150    3.3577   -1.1830 C   0  0  0  0  0  0  0  0  0  0  0  0
   -0.8391    3.9468   -0.9079 H   0  0  0  0  0  0  0  0  0  0  0  0
   -2.0483    3.6573   -2.1769 H   0  0  0  0  0  0  0  0  0  0  0  0
   -2.5162    3.5607   -0.4756 H   0  0  0  0  0  0  0  0  0  0  0  0
   -0.3098    1.6340   -2.2704 C   0  0  0  0  0  0  0  0  0  0  0  0
   -0.0605    0.5740   -2.3169 H   0  0  0  0  0  0  0  0  0  0  0  0
   -0.7030    1.9413   -3.2395 H   0  0  0  0  0  0  0  0  0  0  0  0
    0.5919    2.2064   -2.0500 H   0  0  0  0  0  0  0  0  0  0  0  0
    0.1604   -0.4840    1.6155 C   0  0  0  0  0  0  0  0  0  0  0  0
    1.3886   -0.5061    1.6516 O   0  0  0  0  0  0  0  0  0  0  0  0
   -0.5970   -0.7783    2.6801 N   0  0  0  0  0  0  0  0  0  0  0  0
   -1.5978   -0.7323    2.5734 H   0  0  0  0  0  0  0  0  0  0  0  0
   -0.0588   -1.1585    3.9841 C   0  0  0  0  0  0  0  0  0  0  0  0
    0.5816   -0.3601    4.3657 H   0  0  0  0  0  0  0  0  0  0  0  0
   -0.8703   -1.3372    4.6912 H   0  0  0  0  0  0  0  0  0  0  0  0
    0.5400   -2.0653    3.8854 H   0  0  0  0  0  0  0  0  0  0  0  0
  5  6  2  0  0  0  0
  5  7  1  0  0  0  0
  2  3  1  0  0  0  0
  2  4  1  0  0  0  0
  2  5  1  0  0  0  0
  1  2  1  0  0  0  0
 24 25  2  0  0  0  0
 24 26  1  0  0  0  0
 20 21  1  0  0  0  0
 20 22  1  0  0  0  0
 20 23  1  0  0  0  0
 16 17  1  0  0  0  0
 16 18  1  0  0  0  0
 16 19  1  0  0  0  0
 14 15  1  0  0  0  0
 14 16  1  0  0  0  0
 14 20  1  0  0  0  0
 11 12  1  0  0  0  0
 11 13  1  0  0  0  0
 11 14  1  0  0  0  0
  9 10  1  0  0  0  0
  9 11  1  0  0  0  0
  9 24  1  0  0  0  0
  7  8  1  0  0  0  0
  7  9  1  0  0  0  0
 28 29  1  0  0  0  0
 28 30  1  0  0  0  0
 28 31  1  0  0  0  0
 26 27  1  0  0  0  0
 26 28  1  0  0  0  0
M  END
$$$$
default_name
  -OEChem-01062215323D

 31 30  0     1  0  0  0  0  0999 V2000
   -3.5895   -3.5013    1.1082 H   0  0  0  0  0  0  0  0  0  0  0  0
   -3.5145   -2.5363    0.6082 C   0  0  0  0  0  0  0  0  0  0  0  0
   -4.2285   -1.8413    1.0452 H   0  0  0  0  0  0  0  0  0  0  0  0
   -3.7155   -2.6583   -0.4538 H   0  0  0  0  0  0  0  0  0  0  0  0
   -2.1155   -1.9963    0.7922 C   0  0  0  0  0  0  0  0  0  0  0  0
   -1.2875   -2.6383    1.4252 O   0  0  0  0  0  0  0  0  0  0  0  0
   -1.8575   -0.8123    0.2402 N   0  0  0  0  0  0  0  0  0  0  0  0
   -2.6005   -0.3333   -0.2478 H   0  0  0  0  0  0  0  0  0  0  0  0
   -0.5675   -0.1203    0.3102 C   0  0  1  0  0  0  0  0  0  0  0  0
    0.0451   -0.4544   -0.5280 H   0  0  0  0  0  0  0  0  0  0  0  0
   -0.8159    1.3967    0.1757 C   0  0  0  0  0  0  0  0  0  0  0  0
   -1.5173    1.7053    0.9534 H   0  0  0  0  0  0  0  0  0  0  0  0
    0.1298    1.9111    0.3602 H   0  0  0  0  0  0  0  0  0  0  0  0
   -1.3602    1.8680   -1.1854 C   0  0  0  0  0  0  0  0  0  0  0  0
   -2.2484    1.2924   -1.4459 H   0  0  0  0  0  0  0  0  0  0  0  0
   -1.7150    3.3577   -1.1830 C   0  0  0  0  0  0  0  0  0  0  0  0
   -0.8391    3.9468   -0.9079 H   0  0  0  0  0  0  0  0  0  0  0  0
   -2.0483    3.6573   -2.1769 H   0  0  0  0  0  0  0  0  0  0  0  0
   -2.5162    3.5607   -0.4756 H   0  0  0  0  0  0  0  0  0  0  0  0
   -0.3098    1.6340   -2.2704 C   0  0  0  0  0  0  0  0  0  0  0  0
   -0.0605    0.5740   -2.3169 H   0  0  0  0  0  0  0  0  0  0  0  0
   -0.7030    1.9413   -3.2395 H   0  0  0  0  0  0  0  0  0  0  0  0
    0.5919    2.2064   -2.0500 H   0  0  0  0  0  0  0  0  0  0  0  0
    0.1604   -0.4840    1.6155 C   0  0  0  0  0  0  0  0  0  0  0  0
    1.3593   -0.2450    1.7407 O   0  0  0  0  0  0  0  0  0  0  0  0
   -0.5618   -1.0700    2.5792 N   0  0  0  0  0  0  0  0  0  0  0  0
   -1.5413   -1.2276    2.4039 H   0  0  0  0  0  0  0  0  0  0  0  0
   -0.0148   -1.4904    3.8671 C   0  0  0  0  0  0  0  0  0  0  0  0
    0.4121   -0.6289    4.3854 H   0  0  0  0  0  0  0  0  0  0  0  0
   -0.7985   -1.9299    4.4861 H   0  0  0  0  0  0  0  0  0  0  0  0
    0.7755   -2.2261    3.7093 H   0  0  0  0  0  0  0  0  0  0  0  0
  5  6  2  0  0  0  0
  5  7  1  0  0  0  0
  2  3  1  0  0  0  0
  2  4  1  0  0  0  0
  2  5  1  0  0  0  0
  1  2  1  0  0  0  0
 24 25  2  0  0  0  0
 24 26  1  0  0  0  0
 20 21  1  0  0  0  0
 20 22  1  0  0  0  0
 20 23  1  0  0  0  0
 16 17  1  0  0  0  0
 16 18  1  0  0  0  0
 16 19  1  0  0  0  0
 14 15  1  0  0  0  0
 14 16  1  0  0  0  0
 14 20  1  0  0  0  0
 11 12  1  0  0  0  0
 11 13  1  0  0  0  0
 11 14  1  0  0  0  0
  9 10  1  0  0  0  0
  9 11  1  0  0  0  0
  9 24  1  0  0  0  0
  7  8  1  0  0  0  0
  7  9  1  0  0  0  0
 28 29  1  0  0  0  0
 28 30  1  0  0  0  0
 28 31  1  0  0  0  0
 26 27  1  0  0  0  0
 26 28  1  0  0  0  0
M  END
$$$$
default_name
  -OEChem-01062215323D

 31 30  0     1  0  0  0  0  0999 V2000
   -3.5895   -3.5013    1.1082 H   0  0  0  0  0  0  0  0  0  0  0  0
   -3.5145   -2.5363    0.6082 C   0  0  0  0  0  0  0  0  0  0  0  0
   -4.2285   -1.8413    1.0452 H   0  0  0  0  0  0  0  0  0  0  0  0
   -3.7155   -2.6583   -0.4538 H   0  0  0  0  0  0  0  0  0  0  0  0
   -2.1155   -1.9963    0.7922 C   0  0  0  0  0  0  0  0  0  0  0  0
   -1.2875   -2.6383    1.4252 O   0  0  0  0  0  0  0  0  0  0  0  0
   -1.8575   -0.8123    0.2402 N   0  0  0  0  0  0  0  0  0  0  0  0
   -2.6005   -0.3333   -0.2478 H   0  0  0  0  0  0  0  0  0  0  0  0
   -0.5675   -0.1203    0.3102 C   0  0  1  0  0  0  0  0  0  0  0  0
    0.0451   -0.4544   -0.5280 H   0  0  0  0  0  0  0  0  0  0  0  0
   -0.8159    1.3967    0.1757 C   0  0  0  0  0  0  0  0  0  0  0  0
   -1.5173    1.7053    0.9534 H   0  0  0  0  0  0  0  0  0  0  0  0
    0.1298    1.9111    0.3602 H   0  0  0  0  0  0  0  0  0  0  0  0
   -1.3602    1.8680   -1.1854 C   0  0  0  0  0  0  0  0  0  0  0  0
   -2.2484    1.2924   -1.4459 H   0  0  0  0  0  0  0  0  0  0  0  0
   -1.7150    3.3577   -1.1830 C   0  0  0  0  0  0  0  0  0  0  0  0
   -0.8391    3.9468   -0.9079 H   0  0  0  0  0  0  0  0  0  0  0  0
   -2.0483    3.6573   -2.1769 H   0  0  0  0  0  0  0  0  0  0  0  0
   -2.5162    3.5607   -0.4756 H   0  0  0  0  0  0  0  0  0  0  0  0
   -0.3098    1.6340   -2.2704 C   0  0  0  0  0  0  0  0  0  0  0  0
   -0.0605    0.5740   -2.3169 H   0  0  0  0  0  0  0  0  0  0  0  0
   -0.7030    1.9413   -3.2395 H   0  0  0  0  0  0  0  0  0  0  0  0
    0.5919    2.2064   -2.0500 H   0  0  0  0  0  0  0  0  0  0  0  0
    0.1604   -0.4840    1.6155 C   0  0  0  0  0  0  0  0  0  0  0  0
    1.2682   -0.0101    1.8569 O   0  0  0  0  0  0  0  0  0  0  0  0
   -0.4576   -1.3316    2.4482 N   0  0  0  0  0  0  0  0  0  0  0  0
   -1.3676   -1.6730    2.1830 H   0  0  0  0  0  0  0  0  0  0  0  0
    0.1077   -1.7870    3.7162 C   0  0  0  0  0  0  0  0  0  0  0  0
    0.3062   -0.9281    4.3611 H   0  0  0  0  0  0  0  0  0  0  0  0
   -0.5865   -2.4616    4.2197 H   0  0  0  0  0  0  0  0  0  0  0  0
    1.0490   -2.3080    3.5340 H   0  0  0  0  0  0  0  0  0  0  0  0
  5  6  2  0  0  0  0
  5  7  1  0  0  0  0
  2  3  1  0  0  0  0
  2  4  1  0  0  0  0
  2  5  1  0  0  0  0
  1  2  1  0  0  0  0
 24 25  2  0  0  0  0
 24 26  1  0  0  0  0
 20 21  1  0  0  0  0
 20 22  1  0  0  0  0
 20 23  1  0  0  0  0
 16 17  1  0  0  0  0
 16 18  1  0  0  0  0
 16 19  1  0  0  0  0
 14 15  1  0  0  0  0
 14 16  1  0  0  0  0
 14 20  1  0  0  0  0
 11 12  1  0  0  0  0
 11 13  1  0  0  0  0
 11 14  1  0  0  0  0
  9 10  1  0  0  0  0
  9 11  1  0  0  0  0
  9 24  1  0  0  0  0
  7  8  1  0  0  0  0
  7  9  1  0  0  0  0
 28 29  1  0  0  0  0
 28 30  1  0  0  0  0
 28 31  1  0  0  0  0
 26 27  1  0  0  0  0
 26 28  1  0  0  0  0
M  END
$$$$
default_name
  -OEChem-01062215323D

 31 30  0     1  0  0  0  0  0999 V2000
   -3.5895   -3.5013    1.1082 H   0  0  0  0  0  0  0  0  0  0  0  0
   -3.5145   -2.5363    0.6082 C   0  0  0  0  0  0  0  0  0  0  0  0
   -4.2285   -1.8413    1.0452 H   0  0  0  0  0  0  0  0  0  0  0  0
   -3.7155   -2.6583   -0.4538 H   0  0  0  0  0  0  0  0  0  0  0  0
   -2.1155   -1.9963    0.7922 C   0  0  0  0  0  0  0  0  0  0  0  0
   -1.2875   -2.6383    1.4252 O   0  0  0  0  0  0  0  0  0  0  0  0
   -1.8575   -0.8123    0.2402 N   0  0  0  0  0  0  0  0  0  0  0  0
   -2.6005   -0.3333   -0.2478 H   0  0  0  0  0  0  0  0  0  0  0  0
   -0.5675   -0.1203    0.3102 C   0  0  1  0  0  0  0  0  0  0  0  0
    0.0451   -0.4544   -0.5280 H   0  0  0  0  0  0  0  0  0  0  0  0
   -0.8159    1.3967    0.1757 C   0  0  0  0  0  0  0  0  0  0  0  0
   -1.5173    1.7053    0.9534 H   0  0  0  0  0  0  0  0  0  0  0  0
    0.1298    1.9111    0.3602 H   0  0  0  0  0  0  0  0  0  0  0  0
   -1.3602    1.8680   -1.1854 C   0  0  0  0  0  0  0  0  0  0  0  0
   -2.2484    1.2924   -1.4459 H   0  0  0  0  0  0  0  0  0  0  0  0
   -1.7150    3.3577   -1.1830 C   0  0  0  0  0  0  0  0  0  0  0  0
   -0.8391    3.9468   -0.9079 H   0  0  0  0  0  0  0  0  0  0  0  0
   -2.0483    3.6573   -2.1769 H   0  0  0  0  0  0  0  0  0  0  0  0
   -2.5162    3.5607   -0.4756 H   0  0  0  0  0  0  0  0  0  0  0  0
   -0.3098    1.6340   -2.2704 C   0  0  0  0  0  0  0  0  0  0  0  0
   -0.0605    0.5740   -2.3169 H   0  0  0  0  0  0  0  0  0  0  0  0
   -0.7030    1.9413   -3.2395 H   0  0  0  0  0  0  0  0  0  0  0  0
    0.5919    2.2064   -2.0500 H   0  0  0  0  0  0  0  0  0  0  0  0
    0.1604   -0.4840    1.6155 C   0  0  0  0  0  0  0  0  0  0  0  0
    1.1216    0.1825    1.9924 O   0  0  0  0  0  0  0  0  0  0  0  0
   -0.2914   -1.5454    2.2959 N   0  0  0  0  0  0  0  0  0  0  0  0
   -1.0885   -2.0379    1.9257 H   0  0  0  0  0  0  0  0  0  0  0  0
    0.3005   -2.0281    3.5415 C   0  0  0  0  0  0  0  0  0  0  0  0
    0.2711   -1.2373    4.2945 H   0  0  0  0  0  0  0  0  0  0  0  0
   -0.2485   -2.8959    3.9102 H   0  0  0  0  0  0  0  0  0  0  0  0
    1.3419   -2.3057    3.3713 H   0  0  0  0  0  0  0  0  0  0  0  0
  5  6  2  0  0  0  0
  5  7  1  0  0  0  0
  2  3  1  0  0  0  0
  2  4  1  0  0  0  0
  2  5  1  0  0  0  0
  1  2  1  0  0  0  0
 24 25  2  0  0  0  0
 24 26  1  0  0  0  0
 20 21  1  0  0  0  0
 20 22  1  0  0  0  0
 20 23  1  0  0  0  0
 16 17  1  0  0  0  0
 16 18  1  0  0  0  0
 16 19  1  0  0  0  0
 14 15  1  0  0  0  0
 14 16  1  0  0  0  0
 14 20  1  0  0  0  0
 11 12  1  0  0  0  0
 11 13  1  0  0  0  0
 11 14  1  0  0  0  0
  9 10  1  0  0  0  0
  9 11  1  0  0  0  0
  9 24  1  0  0  0  0
  7  8  1  0  0  0  0
  7  9  1  0  0  0  0
 28 29  1  0  0  0  0
 28 30  1  0  0  0  0
 28 31  1  0  0  0  0
 26 27  1  0  0  0  0
 26 28  1  0  0  0  0
M  END
$$$$
default_name
  -OEChem-01062215323D

 31 30  0     1  0  0  0  0  0999 V2000
   -3.5895   -3.5013    1.1082 H   0  0  0  0  0  0  0  0  0  0  0  0
   -3.5145   -2.5363    0.6082 C   0  0  0  0  0  0  0  0  0  0  0  0
   -4.2285   -1.8413    1.0452 H   0  0  0  0  0  0  0  0  0  0  0  0
   -3.7155   -2.6583   -0.4538 H   0  0  0  0  0  0  0  0  0  0  0  0
   -2.1155   -1.9963    0.7922 C   0  0  0  0  0  0  0  0  0  0  0  0
   -1.2875   -2.6383    1.4252 O   0  0  0  0  0  0  0  0  0  0  0  0
   -1.8575   -0.8123    0.2402 N   0  0  0  0  0  0  0  0  0  0  0  0
   -2.6005   -0.3333   -0.2478 H   0  0  0  0  0  0  0  0  0  0  0  0
   -0.5675   -0.1203    0.3102 C   0  0  1  0  0  0  0  0  0  0  0  0
    0.0451   -0.4544   -0.5280 H   0  0  0  0  0  0  0  0  0  0  0  0
   -0.8159    1.3967    0.1757 C   0  0  0  0  0  0  0  0  0  0  0  0
   -1.5173    1.7053    0.9534 H   0  0  0  0  0  0  0  0  0  0  0  0
    0.1298    1.9111    0.3602 H   0  0  0  0  0  0  0  0  0  0  0  0
   -1.3602    1.8680   -1.1854 C   0  0  0  0  0  0  0  0  0  0  0  0
   -2.2484    1.2924   -1.4459 H   0  0  0  0  0  0  0  0  0  0  0  0
   -1.7150    3.3577   -1.1830 C   0  0  0  0  0  0  0  0  0  0  0  0
   -0.8391    3.9468   -0.9079 H   0  0  0  0  0  0  0  0  0  0  0  0
   -2.0483    3.6573   -2.1769 H   0  0  0  0  0  0  0  0  0  0  0  0
   -2.5162    3.5607   -0.4756 H   0  0  0  0  0  0  0  0  0  0  0  0
   -0.3098    1.6340   -2.2704 C   0  0  0  0  0  0  0  0  0  0  0  0
   -0.0605    0.5740   -2.3169 H   0  0  0  0  0  0  0  0  0  0  0  0
   -0.7030    1.9413   -3.2395 H   0  0  0  0  0  0  0  0  0  0  0  0
    0.5919    2.2064   -2.0500 H   0  0  0  0  0  0  0  0  0  0  0  0
    0.1604   -0.4840    1.6155 C   0  0  0  0  0  0  0  0  0  0  0  0
    0.9293    0.3198    2.1378 O   0  0  0  0  0  0  0  0  0  0  0  0
   -0.0746   -1.6968    2.1329 N   0  0  0  0  0  0  0  0  0  0  0  0
   -0.7230   -2.2976    1.6495 H   0  0  0  0  0  0  0  0  0  0  0  0
    0.5503   -2.1973    3.3551 C   0  0  0  0  0  0  0  0  0  0  0  0
    0.3092   -1.5356    4.1901 H   0  0  0  0  0  0  0  0  0  0  0  0
    0.1922   -3.2034    3.5788 H   0  0  0  0  0  0  0  0  0  0  0  0
    1.6343   -2.2191    3.2323 H   0  0  0  0  0  0  0  0  0  0  0  0
  5  6  2  0  0  0  0
  5  7  1  0  0  0  0
  2  3  1  0  0  0  0
  2  4  1  0  0  0  0
  2  5  1  0  0  0  0
  1  2  1  0  0  0  0
 24 25  2  0  0  0  0
 24 26  1  0  0  0  0
 20 21  1  0  0  0  0
 20 22  1  0  0  0  0
 20 23  1  0  0  0  0
 16 17  1  0  0  0  0
 16 18  1  0  0  0  0
 16 19  1  0  0  0  0
 14 15  1  0  0  0  0
 14 16  1  0  0  0  0
 14 20  1  0  0  0  0
 11 12  1  0  0  0  0
 11 13  1  0  0  0  0
 11 14  1  0  0  0  0
  9 10  1  0  0  0  0
  9 11  1  0  0  0  0
  9 24  1  0  0  0  0
  7  8  1  0  0  0  0
  7  9  1  0  0  0  0
 28 29  1  0  0  0  0
 28 30  1  0  0  0  0
 28 31  1  0  0  0  0
 26 27  1  0  0  0  0
 26 28  1  0  0  0  0
M  END
$$$$
default_name
  -OEChem-01062215323D

 31 30  0     1  0  0  0  0  0999 V2000
   -3.5895   -3.5013    1.1082 H   0  0  0  0  0  0  0  0  0  0  0  0
   -3.5145   -2.5363    0.6082 C   0  0  0  0  0  0  0  0  0  0  0  0
   -4.2285   -1.8413    1.0452 H   0  0  0  0  0  0  0  0  0  0  0  0
   -3.7155   -2.6583   -0.4538 H   0  0  0  0  0  0  0  0  0  0  0  0
   -2.1155   -1.9963    0.7922 C   0  0  0  0  0  0  0  0  0  0  0  0
   -1.2875   -2.6383    1.4252 O   0  0  0  0  0  0  0  0  0  0  0  0
   -1.8575   -0.8123    0.2402 N   0  0  0  0  0  0  0  0  0  0  0  0
   -2.6005   -0.3333   -0.2478 H   0  0  0  0  0  0  0  0  0  0  0  0
   -0.5675   -0.1203    0.3102 C   0  0  1  0  0  0  0  0  0  0  0  0
    0.0451   -0.4544   -0.5280 H   0  0  0  0  0  0  0  0  0  0  0  0
   -0.8159    1.3967    0.1757 C   0  0  0  0  0  0  0  0  0  0  0  0
   -1.5173    1.7053    0.9534 H   0  0  0  0  0  0  0  0  0  0  0  0
    0.1298    1.9111    0.3602 H   0  0  0  0  0  0  0  0  0  0  0  0
   -1.3602    1.8680   -1.1854 C   0  0  0  0  0  0  0  0  0  0  0  0
   -2.2484    1.2924   -1.4459 H   0  0  0  0  0  0  0  0  0  0  0  0
   -1.7150    3.3577   -1.1830 C   0  0  0  0  0  0  0  0  0  0  0  0
   -0.8391    3.9468   -0.9079 H   0  0  0  0  0  0  0  0  0  0  0  0
   -2.0483    3.6573   -2.1769 H   0  0  0  0  0  0  0  0  0  0  0  0
   -2.5162    3.5607   -0.4756 H   0  0  0  0  0  0  0  0  0  0  0  0
   -0.3098    1.6340   -2.2704 C   0  0  0  0  0  0  0  0  0  0  0  0
   -0.0605    0.5740   -2.3169 H   0  0  0  0  0  0  0  0  0  0  0  0
   -0.7030    1.9413   -3.2395 H   0  0  0  0  0  0  0  0  0  0  0  0
    0.5919    2.2064   -2.0500 H   0  0  0  0  0  0  0  0  0  0  0  0
    0.1604   -0.4840    1.6155 C   0  0  0  0  0  0  0  0  0  0  0  0
    0.7046    0.3923    2.2834 O   0  0  0  0  0  0  0  0  0  0  0  0
    0.1780   -1.7754    1.9701 N   0  0  0  0  0  0  0  0  0  0  0  0
   -0.2960   -2.4343    1.3733 H   0  0  0  0  0  0  0  0  0  0  0  0
    0.8401   -2.2830    3.1695 C   0  0  0  0  0  0  0  0  0  0  0  0
    0.4180   -1.8026    4.0551 H   0  0  0  0  0  0  0  0  0  0  0  0
    0.7057   -3.3629    3.2480 H   0  0  0  0  0  0  0  0  0  0  0  0
    1.9062   -2.0543    3.1267 H   0  0  0  0  0  0  0  0  0  0  0  0
  5  6  2  0  0  0  0
  5  7  1  0  0  0  0
  2  3  1  0  0  0  0
  2  4  1  0  0  0  0
  2  5  1  0  0  0  0
  1  2  1  0  0  0  0
 24 25  2  0  0  0  0
 24 26  1  0  0  0  0
 20 21  1  0  0  0  0
 20 22  1  0  0  0  0
 20 23  1  0  0  0  0
 16 17  1  0  0  0  0
 16 18  1  0  0  0  0
 16 19  1  0  0  0  0
 14 15  1  0  0  0  0
 14 16  1  0  0  0  0
 14 20  1  0  0  0  0
 11 12  1  0  0  0  0
 11 13  1  0  0  0  0
 11 14  1  0  0  0  0
  9 10  1  0  0  0  0
  9 11  1  0  0  0  0
  9 24  1  0  0  0  0
  7  8  1  0  0  0  0
  7  9  1  0  0  0  0
 28 29  1  0  0  0  0
 28 30  1  0  0  0  0
 28 31  1  0  0  0  0
 26 27  1  0  0  0  0
 26 28  1  0  0  0  0
M  END
$$$$
default_name
  -OEChem-01062215323D

 31 30  0     1  0  0  0  0  0999 V2000
   -3.5895   -3.5013    1.1082 H   0  0  0  0  0  0  0  0  0  0  0  0
   -3.5145   -2.5363    0.6082 C   0  0  0  0  0  0  0  0  0  0  0  0
   -4.2285   -1.8413    1.0452 H   0  0  0  0  0  0  0  0  0  0  0  0
   -3.7155   -2.6583   -0.4538 H   0  0  0  0  0  0  0  0  0  0  0  0
   -2.1155   -1.9963    0.7922 C   0  0  0  0  0  0  0  0  0  0  0  0
   -1.2875   -2.6383    1.4252 O   0  0  0  0  0  0  0  0  0  0  0  0
   -1.8575   -0.8123    0.2402 N   0  0  0  0  0  0  0  0  0  0  0  0
   -2.6005   -0.3333   -0.2478 H   0  0  0  0  0  0  0  0  0  0  0  0
   -0.5675   -0.1203    0.3102 C   0  0  1  0  0  0  0  0  0  0  0  0
    0.0451   -0.4544   -0.5280 H   0  0  0  0  0  0  0  0  0  0  0  0
   -0.8159    1.3967    0.1757 C   0  0  0  0  0  0  0  0  0  0  0  0
   -1.5173    1.7053    0.9534 H   0  0  0  0  0  0  0  0  0  0  0  0
    0.1298    1.9111    0.3602 H   0  0  0  0  0  0  0  0  0  0  0  0
   -1.3602    1.8680   -1.1854 C   0  0  0  0  0  0  0  0  0  0  0  0
   -2.2484    1.2924   -1.4459 H   0  0  0  0  0  0  0  0  0  0  0  0
   -1.7150    3.3577   -1.1830 C   0  0  0  0  0  0  0  0  0  0  0  0
   -0.8391    3.9468   -0.9079 H   0  0  0  0  0  0  0  0  0  0  0  0
   -2.0483    3.6573   -2.1769 H   0  0  0  0  0  0  0  0  0  0  0  0
   -2.5162    3.5607   -0.4756 H   0  0  0  0  0  0  0  0  0  0  0  0
   -0.3098    1.6340   -2.2704 C   0  0  0  0  0  0  0  0  0  0  0  0
   -0.0605    0.5740   -2.3169 H   0  0  0  0  0  0  0  0  0  0  0  0
   -0.7030    1.9413   -3.2395 H   0  0  0  0  0  0  0  0  0  0  0  0
    0.5919    2.2064   -2.0500 H   0  0  0  0  0  0  0  0  0  0  0  0
    0.1604   -0.4840    1.6155 C   0  0  0  0  0  0  0  0  0  0  0  0
    0.4626    0.3952    2.4191 O   0  0  0  0  0  0  0  0  0  0  0  0
    0.4493   -1.7759    1.8187 N   0  0  0  0  0  0  0  0  0  0  0  0
    0.1634   -2.4388    1.1159 H   0  0  0  0  0  0  0  0  0  0  0  0
    1.1503   -2.2794    2.9976 C   0  0  0  0  0  0  0  0  0  0  0  0
    0.5899   -2.0201    3.8986 H   0  0  0  0  0  0  0  0  0  0  0  0
    1.2570   -3.3637    2.9404 H   0  0  0  0  0  0  0  0  0  0  0  0
    2.1391   -1.8224    3.0614 H   0  0  0  0  0  0  0  0  0  0  0  0
  5  6  2  0  0  0  0
  5  7  1  0  0  0  0
  2  3  1  0  0  0  0
  2  4  1  0  0  0  0
  2  5  1  0  0  0  0
  1  2  1  0  0  0  0
 24 25  2  0  0  0  0
 24 26  1  0  0  0  0
 20 21  1  0  0  0  0
 20 22  1  0  0  0  0
 20 23  1  0  0  0  0
 16 17  1  0  0  0  0
 16 18  1  0  0  0  0
 16 19  1  0  0  0  0
 14 15  1  0  0  0  0
 14 16  1  0  0  0  0
 14 20  1  0  0  0  0
 11 12  1  0  0  0  0
 11 13  1  0  0  0  0
 11 14  1  0  0  0  0
  9 10  1  0  0  0  0
  9 11  1  0  0  0  0
  9 24  1  0  0  0  0
  7  8  1  0  0  0  0
  7  9  1  0  0  0  0
 28 29  1  0  0  0  0
 28 30  1  0  0  0  0
 28 31  1  0  0  0  0
 26 27  1  0  0  0  0
 26 28  1  0  0  0  0
M  END
$$$$
default_name
  -OEChem-01062215323D

 31 30  0     1  0  0  0  0  0999 V2000
   -3.5895   -3.5013    1.1082 H   0  0  0  0  0  0  0  0  0  0  0  0
   -3.5145   -2.5363    0.6082 C   0  0  0  0  0  0  0  0  0  0  0  0
   -4.2285   -1.8413    1.0452 H   0  0  0  0  0  0  0  0  0  0  0  0
   -3.7155   -2.6583   -0.4538 H   0  0  0  0  0  0  0  0  0  0  0  0
   -2.1155   -1.9963    0.7922 C   0  0  0  0  0  0  0  0  0  0  0  0
   -1.2875   -2.6383    1.4252 O   0  0  0  0  0  0  0  0  0  0  0  0
   -1.8575   -0.8123    0.2402 N   0  0  0  0  0  0  0  0  0  0  0  0
   -2.6005   -0.3333   -0.2478 H   0  0  0  0  0  0  0  0  0  0  0  0
   -0.5675   -0.1203    0.3102 C   0  0  1  0  0  0  0  0  0  0  0  0
    0.0451   -0.4544   -0.5280 H   0  0  0  0  0  0  0  0  0  0  0  0
   -0.8159    1.3967    0.1757 C   0  0  0  0  0  0  0  0  0  0  0  0
   -1.5173    1.7053    0.9534 H   0  0  0  0  0  0  0  0  0  0  0  0
    0.1298    1.9111    0.3602 H   0  0  0  0  0  0  0  0  0  0  0  0
   -1.3602    1.8680   -1.1854 C   0  0  0  0  0  0  0  0  0  0  0  0
   -2.2484    1.2924   -1.4459 H   0  0  0  0  0  0  0  0  0  0  0  0
   -1.7150    3.3577   -1.1830 C   0  0  0  0  0  0  0  0  0  0  0  0
   -0.8391    3.9468   -0.9079 H   0  0  0  0  0  0  0  0  0  0  0  0
   -2.0483    3.6573   -2.1769 H   0  0  0  0  0  0  0  0  0  0  0  0
   -2.5162    3.5607   -0.4756 H   0  0  0  0  0  0  0  0  0  0  0  0
   -0.3098    1.6340   -2.2704 C   0  0  0  0  0  0  0  0  0  0  0  0
   -0.0605    0.5740   -2.3169 H   0  0  0  0  0  0  0  0  0  0  0  0
   -0.7030    1.9413   -3.2395 H   0  0  0  0  0  0  0  0  0  0  0  0
    0.5919    2.2064   -2.0500 H   0  0  0  0  0  0  0  0  0  0  0  0
    0.1604   -0.4840    1.6155 C   0  0  0  0  0  0  0  0  0  0  0  0
    0.2200    0.3282    2.5357 O   0  0  0  0  0  0  0  0  0  0  0  0
    0.7206   -1.6983    1.6890 N   0  0  0  0  0  0  0  0  0  0  0  0
    0.6238   -2.3106    0.8948 H   0  0  0  0  0  0  0  0  0  0  0  0
    1.4596   -2.1867    2.8509 C   0  0  0  0  0  0  0  0  0  0  0  0
    0.8133   -2.1732    3.7314 H   0  0  0  0  0  0  0  0  0  0  0  0
    1.8085   -3.2057    2.6768 H   0  0  0  0  0  0  0  0  0  0  0  0
    2.3171   -1.5393    3.0410 H   0  0  0  0  0  0  0  0  0  0  0  0
  5  6  2  0  0  0  0
  5  7  1  0  0  0  0
  2  3  1  0  0  0  0
  2  4  1  0  0  0  0
  2  5  1  0  0  0  0
  1  2  1  0  0  0  0
 24 25  2  0  0  0  0
 24 26  1  0  0  0  0
 20 21  1  0  0  0  0
 20 22  1  0  0  0  0
 20 23  1  0  0  0  0
 16 17  1  0  0  0  0
 16 18  1  0  0  0  0
 16 19  1  0  0  0  0
 14 15  1  0  0  0  0
 14 16  1  0  0  0  0
 14 20  1  0  0  0  0
 11 12  1  0  0  0  0
 11 13  1  0  0  0  0
 11 14  1  0  0  0  0
  9 10  1  0  0  0  0
  9 11  1  0  0  0  0
  9 24  1  0  0  0  0
  7  8  1  0  0  0  0
  7  9  1  0  0  0  0
 28 29  1  0  0  0  0
 28 30  1  0  0  0  0
 28 31  1  0  0  0  0
 26 27  1  0  0  0  0
 26 28  1  0  0  0  0
M  END
$$$$
default_name
  -OEChem-01062215323D

 31 30  0     1  0  0  0  0  0999 V2000
   -3.5895   -3.5013    1.1082 H   0  0  0  0  0  0  0  0  0  0  0  0
   -3.5145   -2.5363    0.6082 C   0  0  0  0  0  0  0  0  0  0  0  0
   -4.2285   -1.8413    1.0452 H   0  0  0  0  0  0  0  0  0  0  0  0
   -3.7155   -2.6583   -0.4538 H   0  0  0  0  0  0  0  0  0  0  0  0
   -2.1155   -1.9963    0.7922 C   0  0  0  0  0  0  0  0  0  0  0  0
   -1.2875   -2.6383    1.4252 O   0  0  0  0  0  0  0  0  0  0  0  0
   -1.8575   -0.8123    0.2402 N   0  0  0  0  0  0  0  0  0  0  0  0
   -2.6005   -0.3333   -0.2478 H   0  0  0  0  0  0  0  0  0  0  0  0
   -0.5675   -0.1203    0.3102 C   0  0  1  0  0  0  0  0  0  0  0  0
    0.0451   -0.4544   -0.5280 H   0  0  0  0  0  0  0  0  0  0  0  0
   -0.8159    1.3967    0.1757 C   0  0  0  0  0  0  0  0  0  0  0  0
   -1.5173    1.7053    0.9534 H   0  0  0  0  0  0  0  0  0  0  0  0
    0.1298    1.9111    0.3602 H   0  0  0  0  0  0  0  0  0  0  0  0
   -1.3602    1.8680   -1.1854 C   0  0  0  0  0  0  0  0  0  0  0  0
   -2.2484    1.2924   -1.4459 H   0  0  0  0  0  0  0  0  0  0  0  0
   -1.7150    3.3577   -1.1830 C   0  0  0  0  0  0  0  0  0  0  0  0
   -0.8391    3.9468   -0.9079 H   0  0  0  0  0  0  0  0  0  0  0  0
   -2.0483    3.6573   -2.1769 H   0  0  0  0  0  0  0  0  0  0  0  0
   -2.5162    3.5607   -0.4756 H   0  0  0  0  0  0  0  0  0  0  0  0
   -0.3098    1.6340   -2.2704 C   0  0  0  0  0  0  0  0  0  0  0  0
   -0.0605    0.5740   -2.3169 H   0  0  0  0  0  0  0  0  0  0  0  0
   -0.7030    1.9413   -3.2395 H   0  0  0  0  0  0  0  0  0  0  0  0
    0.5919    2.2064   -2.0500 H   0  0  0  0  0  0  0  0  0  0  0  0
    0.1604   -0.4840    1.6155 C   0  0  0  0  0  0  0  0  0  0  0  0
   -0.0068    0.1959    2.6254 O   0  0  0  0  0  0  0  0  0  0  0  0
    0.9737   -1.5479    1.5898 N   0  0  0  0  0  0  0  0  0  0  0  0
    1.0540   -2.0587    0.7252 H   0  0  0  0  0  0  0  0  0  0  0  0
    1.7471   -2.0113    2.7395 C   0  0  0  0  0  0  0  0  0  0  0  0
    1.0729   -2.2516    3.5648 H   0  0  0  0  0  0  0  0  0  0  0  0
    2.3227   -2.8997    2.4754 H   0  0  0  0  0  0  0  0  0  0  0  0
    2.4282   -1.2242    3.0669 H   0  0  0  0  0  0  0  0  0  0  0  0
  5  6  2  0  0  0  0
  5  7  1  0  0  0  0
  2  3  1  0  0  0  0
  2  4  1  0  0  0  0
  2  5  1  0  0  0  0
  1  2  1  0  0  0  0
 24 25  2  0  0  0  0
 24 26  1  0  0  0  0
 20 21  1  0  0  0  0
 20 22  1  0  0  0  0
 20 23  1  0  0  0  0
 16 17  1  0  0  0  0
 16 18  1  0  0  0  0
 16 19  1  0  0  0  0
 14 15  1  0  0  0  0
 14 16  1  0  0  0  0
 14 20  1  0  0  0  0
 11 12  1  0  0  0  0
 11 13  1  0  0  0  0
 11 14  1  0  0  0  0
  9 10  1  0  0  0  0
  9 11  1  0  0  0  0
  9 24  1  0  0  0  0
  7  8  1  0  0  0  0
  7  9  1  0  0  0  0
 28 29  1  0  0  0  0
 28 30  1  0  0  0  0
 28 31  1  0  0  0  0
 26 27  1  0  0  0  0
 26 28  1  0  0  0  0
M  END
$$$$
default_name
  -OEChem-01062215323D

 31 30  0     1  0  0  0  0  0999 V2000
   -3.5895   -3.5013    1.1082 H   0  0  0  0  0  0  0  0  0  0  0  0
   -3.5145   -2.5363    0.6082 C   0  0  0  0  0  0  0  0  0  0  0  0
   -4.2285   -1.8413    1.0452 H   0  0  0  0  0  0  0  0  0  0  0  0
   -3.7155   -2.6583   -0.4538 H   0  0  0  0  0  0  0  0  0  0  0  0
   -2.1155   -1.9963    0.7922 C   0  0  0  0  0  0  0  0  0  0  0  0
   -1.2875   -2.6383    1.4252 O   0  0  0  0  0  0  0  0  0  0  0  0
   -1.8575   -0.8123    0.2402 N   0  0  0  0  0  0  0  0  0  0  0  0
   -2.6005   -0.3333   -0.2478 H   0  0  0  0  0  0  0  0  0  0  0  0
   -0.5675   -0.1203    0.3102 C   0  0  1  0  0  0  0  0  0  0  0  0
    0.0451   -0.4544   -0.5280 H   0  0  0  0  0  0  0  0  0  0  0  0
   -0.8159    1.3967    0.1757 C   0  0  0  0  0  0  0  0  0  0  0  0
   -1.5173    1.7053    0.9534 H   0  0  0  0  0  0  0  0  0  0  0  0
    0.1298    1.9111    0.3602 H   0  0  0  0  0  0  0  0  0  0  0  0
   -1.3602    1.8680   -1.1854 C   0  0  0  0  0  0  0  0  0  0  0  0
   -2.2484    1.2924   -1.4459 H   0  0  0  0  0  0  0  0  0  0  0  0
   -1.7150    3.3577   -1.1830 C   0  0  0  0  0  0  0  0  0  0  0  0
   -0.8391    3.9468   -0.9079 H   0  0  0  0  0  0  0  0  0  0  0  0
   -2.0483    3.6573   -2.1769 H   0  0  0  0  0  0  0  0  0  0  0  0
   -2.5162    3.5607   -0.4756 H   0  0  0  0  0  0  0  0  0  0  0  0
   -0.3098    1.6340   -2.2704 C   0  0  0  0  0  0  0  0  0  0  0  0
   -0.0605    0.5740   -2.3169 H   0  0  0  0  0  0  0  0  0  0  0  0
   -0.7030    1.9413   -3.2395 H   0  0  0  0  0  0  0  0  0  0  0  0
    0.5919    2.2064   -2.0500 H   0  0  0  0  0  0  0  0  0  0  0  0
    0.1604   -0.4840    1.6155 C   0  0  0  0  0  0  0  0  0  0  0  0
   -0.2023    0.0074    2.6818 O   0  0  0  0  0  0  0  0  0  0  0  0
    1.1911   -1.3348    1.5279 N   0  0  0  0  0  0  0  0  0  0  0  0
    1.4245   -1.7000    0.6185 H   0  0  0  0  0  0  0  0  0  0  0  0
    1.9930   -1.7651    2.6710 C   0  0  0  0  0  0  0  0  0  0  0  0
    1.3511   -2.2499    3.4101 H   0  0  0  0  0  0  0  0  0  0  0  0
    2.7644   -2.4665    2.3498 H   0  0  0  0  0  0  0  0  0  0  0  0
    2.4646   -0.8986    3.1373 H   0  0  0  0  0  0  0  0  0  0  0  0
  5  6  2  0  0  0  0
  5  7  1  0  0  0  0
  2  3  1  0  0  0  0
  2  4  1  0  0  0  0
  2  5  1  0  0  0  0
  1  2  1  0  0  0  0
 24 25  2  0  0  0  0
 24 26  1  0  0  0  0
 20 21  1  0  0  0  0
 20 22  1  0  0  0  0
 20 23  1  0  0  0  0
 16 17  1  0  0  0  0
 16 18  1  0  0  0  0
 16 19  1  0  0  0  0
 14 15  1  0  0  0  0
 14 16  1  0  0  0  0
 14 20  1  0  0  0  0
 11 12  1  0  0  0  0
 11 13  1  0  0  0  0
 11 14  1  0  0  0  0
  9 10  1  0  0  0  0
  9 11  1  0  0  0  0
  9 24  1  0  0  0  0
  7  8  1  0  0  0  0
  7  9  1  0  0  0  0
 28 29  1  0  0  0  0
 28 30  1  0  0  0  0
 28 31  1  0  0  0  0
 26 27  1  0  0  0  0
 26 28  1  0  0  0  0
M  END
$$$$
default_name
  -OEChem-01062215323D

 31 30  0     1  0  0  0  0  0999 V2000
   -3.5895   -3.5013    1.1082 H   0  0  0  0  0  0  0  0  0  0  0  0
   -3.5145   -2.5363    0.6082 C   0  0  0  0  0  0  0  0  0  0  0  0
   -4.2285   -1.8413    1.0452 H   0  0  0  0  0  0  0  0  0  0  0  0
   -3.7155   -2.6583   -0.4538 H   0  0  0  0  0  0  0  0  0  0  0  0
   -2.1155   -1.9963    0.7922 C   0  0  0  0  0  0  0  0  0  0  0  0
   -1.2875   -2.6383    1.4252 O   0  0  0  0  0  0  0  0  0  0  0  0
   -1.8575   -0.8123    0.2402 N   0  0  0  0  0  0  0  0  0  0  0  0
   -2.6005   -0.3333   -0.2478 H   0  0  0  0  0  0  0  0  0  0  0  0
   -0.5675   -0.1203    0.3102 C   0  0  1  0  0  0  0  0  0  0  0  0
    0.0451   -0.4544   -0.5280 H   0  0  0  0  0  0  0  0  0  0  0  0
   -0.8159    1.3967    0.1757 C   0  0  0  0  0  0  0  0  0  0  0  0
   -1.5173    1.7053    0.9534 H   0  0  0  0  0  0  0  0  0  0  0  0
    0.1298    1.9111    0.3602 H   0  0  0  0  0  0  0  0  0  0  0  0
   -1.3602    1.8680   -1.1854 C   0  0  0  0  0  0  0  0  0  0  0  0
   -2.2484    1.2924   -1.4459 H   0  0  0  0  0  0  0  0  0  0  0  0
   -1.7150    3.3577   -1.1830 C   0  0  0  0  0  0  0  0  0  0  0  0
   -0.8391    3.9468   -0.9079 H   0  0  0  0  0  0  0  0  0  0  0  0
   -2.0483    3.6573   -2.1769 H   0  0  0  0  0  0  0  0  0  0  0  0
   -2.5162    3.5607   -0.4756 H   0  0  0  0  0  0  0  0  0  0  0  0
   -0.3098    1.6340   -2.2704 C   0  0  0  0  0  0  0  0  0  0  0  0
   -0.0605    0.5740   -2.3169 H   0  0  0  0  0  0  0  0  0  0  0  0
   -0.7030    1.9413   -3.2395 H   0  0  0  0  0  0  0  0  0  0  0  0
    0.5919    2.2064   -2.0500 H   0  0  0  0  0  0  0  0  0  0  0  0
    0.1604   -0.4840    1.6155 C   0  0  0  0  0  0  0  0  0  0  0  0
   -0.3532   -0.2246    2.7013 O   0  0  0  0  0  0  0  0  0  0  0  0
    1.3581   -1.0736    1.5076 N   0  0  0  0  0  0  0  0  0  0  0  0
    1.7102   -1.2592    0.5820 H   0  0  0  0  0  0  0  0  0  0  0  0
    2.1806   -1.4649    2.6500 C   0  0  0  0  0  0  0  0  0  0  0  0
    1.6290   -2.1681    3.2780 H   0  0  0  0  0  0  0  0  0  0  0  0
    3.1037   -1.9357    2.3085 H   0  0  0  0  0  0  0  0  0  0  0  0
    2.4240   -0.5848    3.2474 H   0  0  0  0  0  0  0  0  0  0  0  0
  5  6  2  0  0  0  0
  5  7  1  0  0  0  0
  2  3  1  0  0  0  0
  2  4  1  0  0  0  0
  2  5  1  0  0  0  0
  1  2  1  0  0  0  0
 24 25  2  0  0  0  0
 24 26  1  0  0  0  0
 20 21  1  0  0  0  0
 20 22  1  0  0  0  0
 20 23  1  0  0  0  0
 16 17  1  0  0  0  0
 16 18  1  0  0  0  0
 16 19  1  0  0  0  0
 14 15  1  0  0  0  0
 14 16  1  0  0  0  0
 14 20  1  0  0  0  0
 11 12  1  0  0  0  0
 11 13  1  0  0  0  0
 11 14  1  0  0  0  0
  9 10  1  0  0  0  0
  9 11  1  0  0  0  0
  9 24  1  0  0  0  0
  7  8  1  0  0  0  0
  7  9  1  0  0  0  0
 28 29  1  0  0  0  0
 28 30  1  0  0  0  0
 28 31  1  0  0  0  0
 26 27  1  0  0  0  0
 26 28  1  0  0  0  0
M  END
$$$$
default_name
  -OEChem-01062215323D

 31 30  0     1  0  0  0  0  0999 V2000
   -3.5895   -3.5013    1.1082 H   0  0  0  0  0  0  0  0  0  0  0  0
   -3.5145   -2.5363    0.6082 C   0  0  0  0  0  0  0  0  0  0  0  0
   -4.2285   -1.8413    1.0452 H   0  0  0  0  0  0  0  0  0  0  0  0
   -3.7155   -2.6583   -0.4538 H   0  0  0  0  0  0  0  0  0  0  0  0
   -2.1155   -1.9963    0.7922 C   0  0  0  0  0  0  0  0  0  0  0  0
   -1.2875   -2.6383    1.4252 O   0  0  0  0  0  0  0  0  0  0  0  0
   -1.8575   -0.8123    0.2402 N   0  0  0  0  0  0  0  0  0  0  0  0
   -2.6005   -0.3333   -0.2478 H   0  0  0  0  0  0  0  0  0  0  0  0
   -0.5675   -0.1203    0.3102 C   0  0  1  0  0  0  0  0  0  0  0  0
    0.0451   -0.4544   -0.5280 H   0  0  0  0  0  0  0  0  0  0  0  0
   -0.8159    1.3967    0.1757 C   0  0  0  0  0  0  0  0  0  0  0  0
   -1.5173    1.7053    0.9534 H   0  0  0  0  0  0  0  0  0  0  0  0
    0.1298    1.9111    0.3602 H   0  0  0  0  0  0  0  0  0  0  0  0
   -1.3602    1.8680   -1.1854 C   0  0  0  0  0  0  0  0  0  0  0  0
   -2.2484    1.2924   -1.4459 H   0  0  0  0  0  0  0  0  0  0  0  0
   -1.7150    3.3577   -1.1830 C   0  0  0  0  0  0  0  0  0  0  0  0
   -0.8391    3.9468   -0.9079 H   0  0  0  0  0  0  0  0  0  0  0  0
   -2.0483    3.6573   -2.1769 H   0  0  0  0  0  0  0  0  0  0  0  0
   -2.5162    3.5607   -0.4756 H   0  0  0  0  0  0  0  0  0  0  0  0
   -0.3098    1.6340   -2.2704 C   0  0  0  0  0  0  0  0  0  0  0  0
   -0.0605    0.5740   -2.3169 H   0  0  0  0  0  0  0  0  0  0  0  0
   -0.7030    1.9413   -3.2395 H   0  0  0  0  0  0  0  0  0  0  0  0
    0.5919    2.2064   -2.0500 H   0  0  0  0  0  0  0  0  0  0  0  0
    0.1604   -0.4840    1.6155 C   0  0  0  0  0  0  0  0  0  0  0  0
   -0.4492   -0.4842    2.6825 O   0  0  0  0  0  0  0  0  0  0  0  0
    1.4633   -0.7822    1.5301 N   0  0  0  0  0  0  0  0  0  0  0  0
    1.8915   -0.7661    0.6183 H   0  0  0  0  0  0  0  0  0  0  0  0
    2.2972   -1.1311    2.6780 C   0  0  0  0  0  0  0  0  0  0  0  0
    1.8875   -2.0120    3.1773 H   0  0  0  0  0  0  0  0  0  0  0  0
    3.3173   -1.3434    2.3544 H   0  0  0  0  0  0  0  0  0  0  0  0
    2.3092   -0.3040    3.3897 H   0  0  0  0  0  0  0  0  0  0  0  0
  5  6  2  0  0  0  0
  5  7  1  0  0  0  0
  2  3  1  0  0  0  0
  2  4  1  0  0  0  0
  2  5  1  0  0  0  0
  1  2  1  0  0  0  0
 24 25  2  0  0  0  0
 24 26  1  0  0  0  0
 20 21  1  0  0  0  0
 20 22  1  0  0  0  0
 20 23  1  0  0  0  0
 16 17  1  0  0  0  0
 16 18  1  0  0  0  0
 16 19  1  0  0  0  0
 14 15  1  0  0  0  0
 14 16  1  0  0  0  0
 14 20  1  0  0  0  0
 11 12  1  0  0  0  0
 11 13  1  0  0  0  0
 11 14  1  0  0  0  0
  9 10  1  0  0  0  0
  9 11  1  0  0  0  0
  9 24  1  0  0  0  0
  7  8  1  0  0  0  0
  7  9  1  0  0  0  0
 28 29  1  0  0  0  0
 28 30  1  0  0  0  0
 28 31  1  0  0  0  0
 26 27  1  0  0  0  0
 26 28  1  0  0  0  0
M  END
$$$$
default_name
  -OEChem-01062215323D

 31 30  0     1  0  0  0  0  0999 V2000
   -3.5895   -3.5013    1.1082 H   0  0  0  0  0  0  0  0  0  0  0  0
   -3.5145   -2.5363    0.6082 C   0  0  0  0  0  0  0  0  0  0  0  0
   -4.2285   -1.8413    1.0452 H   0  0  0  0  0  0  0  0  0  0  0  0
   -3.7155   -2.6583   -0.4538 H   0  0  0  0  0  0  0  0  0  0  0  0
   -2.1155   -1.9963    0.7922 C   0  0  0  0  0  0  0  0  0  0  0  0
   -1.2875   -2.6383    1.4252 O   0  0  0  0  0  0  0  0  0  0  0  0
   -1.8575   -0.8123    0.2402 N   0  0  0  0  0  0  0  0  0  0  0  0
   -2.6005   -0.3333   -0.2478 H   0  0  0  0  0  0  0  0  0  0  0  0
   -0.5675   -0.1203    0.3102 C   0  0  1  0  0  0  0  0  0  0  0  0
    0.0451   -0.4544   -0.5280 H   0  0  0  0  0  0  0  0  0  0  0  0
   -0.8159    1.3967    0.1757 C   0  0  0  0  0  0  0  0  0  0  0  0
   -1.5173    1.7053    0.9534 H   0  0  0  0  0  0  0  0  0  0  0  0
    0.1298    1.9111    0.3602 H   0  0  0  0  0  0  0  0  0  0  0  0
   -1.3602    1.8680   -1.1854 C   0  0  0  0  0  0  0  0  0  0  0  0
   -2.2484    1.2924   -1.4459 H   0  0  0  0  0  0  0  0  0  0  0  0
   -1.7150    3.3577   -1.1830 C   0  0  0  0  0  0  0  0  0  0  0  0
   -0.8391    3.9468   -0.9079 H   0  0  0  0  0  0  0  0  0  0  0  0
   -2.0483    3.6573   -2.1769 H   0  0  0  0  0  0  0  0  0  0  0  0
   -2.5162    3.5607   -0.4756 H   0  0  0  0  0  0  0  0  0  0  0  0
   -0.3098    1.6340   -2.2704 C   0  0  0  0  0  0  0  0  0  0  0  0
   -0.0605    0.5740   -2.3169 H   0  0  0  0  0  0  0  0  0  0  0  0
   -0.7030    1.9413   -3.2395 H   0  0  0  0  0  0  0  0  0  0  0  0
    0.5919    2.2064   -2.0500 H   0  0  0  0  0  0  0  0  0  0  0  0
    0.1604   -0.4840    1.6155 C   0  0  0  0  0  0  0  0  0  0  0  0
   -0.4837   -0.7538    2.6267 O   0  0  0  0  0  0  0  0  0  0  0  0
    1.4996   -0.4804    1.5940 N   0  0  0  0  0  0  0  0  0  0  0  0
    1.9562   -0.2545    0.7248 H   0  0  0  0  0  0  0  0  0  0  0  0
    2.3348   -0.7865    2.7531 C   0  0  0  0  0  0  0  0  0  0  0  0
    2.1090   -1.7921    3.1151 H   0  0  0  0  0  0  0  0  0  0  0  0
    3.3908   -0.7300    2.4844 H   0  0  0  0  0  0  0  0  0  0  0  0
    2.1278   -0.0755    3.5545 H   0  0  0  0  0  0  0  0  0  0  0  0
  5  6  2  0  0  0  0
  5  7  1  0  0  0  0
  2  3  1  0  0  0  0
  2  4  1  0  0  0  0
  2  5  1  0  0  0  0
  1  2  1  0  0  0  0
 24 25  2  0  0  0  0
 24 26  1  0  0  0  0
 20 21  1  0  0  0  0
 20 22  1  0  0  0  0
 20 23  1  0  0  0  0
 16 17  1  0  0  0  0
 16 18  1  0  0  0  0
 16 19  1  0  0  0  0
 14 15  1  0  0  0  0
 14 16  1  0  0  0  0
 14 20  1  0  0  0  0
 11 12  1  0  0  0  0
 11 13  1  0  0  0  0
 11 14  1  0  0  0  0
  9 10  1  0  0  0  0
  9 11  1  0  0  0  0
  9 24  1  0  0  0  0
  7  8  1  0  0  0  0
  7  9  1  0  0  0  0
 28 29  1  0  0  0  0
 28 30  1  0  0  0  0
 28 31  1  0  0  0  0
 26 27  1  0  0  0  0
 26 28  1  0  0  0  0
M  END
$$$$
default_name
  -OEChem-01062215323D

 31 30  0     1  0  0  0  0  0999 V2000
   -3.5895   -3.5013    1.1082 H   0  0  0  0  0  0  0  0  0  0  0  0
   -3.5145   -2.5363    0.6082 C   0  0  0  0  0  0  0  0  0  0  0  0
   -4.2285   -1.8413    1.0452 H   0  0  0  0  0  0  0  0  0  0  0  0
   -3.7155   -2.6583   -0.4538 H   0  0  0  0  0  0  0  0  0  0  0  0
   -2.1155   -1.9963    0.7922 C   0  0  0  0  0  0  0  0  0  0  0  0
   -1.2875   -2.6383    1.4252 O   0  0  0  0  0  0  0  0  0  0  0  0
   -1.8575   -0.8123    0.2402 N   0  0  0  0  0  0  0  0  0  0  0  0
   -2.6005   -0.3333   -0.2478 H   0  0  0  0  0  0  0  0  0  0  0  0
   -0.5675   -0.1203    0.3102 C   0  0  1  0  0  0  0  0  0  0  0  0
    0.0451   -0.4544   -0.5280 H   0  0  0  0  0  0  0  0  0  0  0  0
   -0.8159    1.3967    0.1757 C   0  0  0  0  0  0  0  0  0  0  0  0
   -1.5173    1.7053    0.9534 H   0  0  0  0  0  0  0  0  0  0  0  0
    0.1298    1.9111    0.3602 H   0  0  0  0  0  0  0  0  0  0  0  0
   -1.3602    1.8680   -1.1854 C   0  0  0  0  0  0  0  0  0  0  0  0
   -2.2484    1.2924   -1.4459 H   0  0  0  0  0  0  0  0  0  0  0  0
   -1.7150    3.3577   -1.1830 C   0  0  0  0  0  0  0  0  0  0  0  0
   -0.8391    3.9468   -0.9079 H   0  0  0  0  0  0  0  0  0  0  0  0
   -2.0483    3.6573   -2.1769 H   0  0  0  0  0  0  0  0  0  0  0  0
   -2.5162    3.5607   -0.4756 H   0  0  0  0  0  0  0  0  0  0  0  0
   -0.3098    1.6340   -2.2704 C   0  0  0  0  0  0  0  0  0  0  0  0
   -0.0605    0.5740   -2.3169 H   0  0  0  0  0  0  0  0  0  0  0  0
   -0.7030    1.9413   -3.2395 H   0  0  0  0  0  0  0  0  0  0  0  0
    0.5919    2.2064   -2.0500 H   0  0  0  0  0  0  0  0  0  0  0  0
    0.1604   -0.4840    1.6155 C   0  0  0  0  0  0  0  0  0  0  0  0
   -0.4545   -1.0149    2.5376 O   0  0  0  0  0  0  0  0  0  0  0  0
    1.4644   -0.1887    1.6949 N   0  0  0  0  0  0  0  0  0  0  0  0
    1.8997    0.2409    0.8943 H   0  0  0  0  0  0  0  0  0  0  0  0
    2.2908   -0.4546    2.8701 C   0  0  0  0  0  0  0  0  0  0  0  0
    2.2785   -1.5233    3.0954 H   0  0  0  0  0  0  0  0  0  0  0  0
    3.3190   -0.1372    2.6896 H   0  0  0  0  0  0  0  0  0  0  0  0
    1.8924    0.0853    3.7305 H   0  0  0  0  0  0  0  0  0  0  0  0
  5  6  2  0  0  0  0
  5  7  1  0  0  0  0
  2  3  1  0  0  0  0
  2  4  1  0  0  0  0
  2  5  1  0  0  0  0
  1  2  1  0  0  0  0
 24 25  2  0  0  0  0
 24 26  1  0  0  0  0
 20 21  1  0  0  0  0
 20 22  1  0  0  0  0
 20 23  1  0  0  0  0
 16 17  1  0  0  0  0
 16 18  1  0  0  0  0
 16 19  1  0  0  0  0
 14 15  1  0  0  0  0
 14 16  1  0  0  0  0
 14 20  1  0  0  0  0
 11 12  1  0  0  0  0
 11 13  1  0  0  0  0
 11 14  1  0  0  0  0
  9 10  1  0  0  0  0
  9 11  1  0  0  0  0
  9 24  1  0  0  0  0
  7  8  1  0  0  0  0
  7  9  1  0  0  0  0
 28 29  1  0  0  0  0
 28 30  1  0  0  0  0
 28 31  1  0  0  0  0
 26 27  1  0  0  0  0
 26 28  1  0  0  0  0
M  END
$$$$
default_name
  -OEChem-01062215323D

 31 30  0     1  0  0  0  0  0999 V2000
   -3.5895   -3.5013    1.1082 H   0  0  0  0  0  0  0  0  0  0  0  0
   -3.5145   -2.5363    0.6082 C   0  0  0  0  0  0  0  0  0  0  0  0
   -4.2285   -1.8413    1.0452 H   0  0  0  0  0  0  0  0  0  0  0  0
   -3.7155   -2.6583   -0.4538 H   0  0  0  0  0  0  0  0  0  0  0  0
   -2.1155   -1.9963    0.7922 C   0  0  0  0  0  0  0  0  0  0  0  0
   -1.2875   -2.6383    1.4252 O   0  0  0  0  0  0  0  0  0  0  0  0
   -1.8575   -0.8123    0.2402 N   0  0  0  0  0  0  0  0  0  0  0  0
   -2.6005   -0.3333   -0.2478 H   0  0  0  0  0  0  0  0  0  0  0  0
   -0.5675   -0.1203    0.3102 C   0  0  1  0  0  0  0  0  0  0  0  0
   -0.0639   -0.2390   -0.6498 H   0  0  0  0  0  0  0  0  0  0  0  0
   -0.8279    1.3805    0.5571 C   0  0  0  0  0  0  0  0  0  0  0  0
   -1.4272    1.4858    1.4635 H   0  0  0  0  0  0  0  0  0  0  0  0
    0.1343    1.8644    0.7386 H   0  0  0  0  0  0  0  0  0  0  0  0
   -1.5354    2.1338   -0.5843 C   0  0  0  0  0  0  0  0  0  0  0  0
   -2.4501    1.6091   -0.8603 H   0  0  0  0  0  0  0  0  0  0  0  0
   -1.8846    3.5742   -0.1986 C   0  0  0  0  0  0  0  0  0  0  0  0
   -0.9803    4.1085    0.0960 H   0  0  0  0  0  0  0  0  0  0  0  0
   -2.3377    4.0827   -1.0500 H   0  0  0  0  0  0  0  0  0  0  0  0
   -2.5918    3.5899    0.6278 H   0  0  0  0  0  0  0  0  0  0  0  0
   -0.6276    2.1803   -1.8128 C   0  0  0  0  0  0  0  0  0  0  0  0
   -0.3879    1.1655   -2.1302 H   0  0  0  0  0  0  0  0  0  0  0  0
   -1.1371    2.6890   -2.6312 H   0  0  0  0  0  0  0  0  0  0  0  0
    0.2954    2.7115   -1.5779 H   0  0  0  0  0  0  0  0  0  0  0  0
    0.3156   -0.7514    1.4001 C   0  0  0  0  0  0  0  0  0  0  0  0
   -0.1060   -1.6938    2.0668 O   0  0  0  0  0  0  0  0  0  0  0  0
    1.5331   -0.2252    1.5858 N   0  0  0  0  0  0  0  0  0  0  0  0
    1.8094    0.5429    0.9953 H   0  0  0  0  0  0  0  0  0  0  0  0
    2.4824   -0.6999    2.5899 C   0  0  0  0  0  0  0  0  0  0  0  0
    2.7072   -1.7545    2.4154 H   0  0  0  0  0  0  0  0  0  0  0  0
    3.4068   -0.1225    2.5399 H   0  0  0  0  0  0  0  0  0  0  0  0
    2.0472   -0.5988    3.5853 H   0  0  0  0  0  0  0  0  0  0  0  0
  5  6  2  0  0  0  0
  5  7  1  0  0  0  0
  2  3  1  0  0  0  0
  2  4  1  0  0  0  0
  2  5  1  0  0  0  0
  1  2  1  0  0  0  0
 24 25  2  0  0  0  0
 24 26  1  0  0  0  0
 20 21  1  0  0  0  0
 20 22  1  0  0  0  0
 20 23  1  0  0  0  0
 16 17  1  0  0  0  0
 16 18  1  0  0  0  0
 16 19  1  0  0  0  0
 14 15  1  0  0  0  0
 14 16  1  0  0  0  0
 14 20  1  0  0  0  0
 11 12  1  0  0  0  0
 11 13  1  0  0  0  0
 11 14  1  0  0  0  0
  9 10  1  0  0  0  0
  9 11  1  0  0  0  0
  9 24  1  0  0  0  0
  7  8  1  0  0  0  0
  7  9  1  0  0  0  0
 28 29  1  0  0  0  0
 28 30  1  0  0  0  0
 28 31  1  0  0  0  0
 26 27  1  0  0  0  0
 26 28  1  0  0  0  0
M  END
$$$$
default_name
  -OEChem-01062215323D

 31 30  0     1  0  0  0  0  0999 V2000
   -3.5895   -3.5013    1.1082 H   0  0  0  0  0  0  0  0  0  0  0  0
   -3.5145   -2.5363    0.6082 C   0  0  0  0  0  0  0  0  0  0  0  0
   -4.2285   -1.8413    1.0452 H   0  0  0  0  0  0  0  0  0  0  0  0
   -3.7155   -2.6583   -0.4538 H   0  0  0  0  0  0  0  0  0  0  0  0
   -2.1155   -1.9963    0.7922 C   0  0  0  0  0  0  0  0  0  0  0  0
   -1.2875   -2.6383    1.4252 O   0  0  0  0  0  0  0  0  0  0  0  0
   -1.8575   -0.8123    0.2402 N   0  0  0  0  0  0  0  0  0  0  0  0
   -2.6005   -0.3333   -0.2478 H   0  0  0  0  0  0  0  0  0  0  0  0
   -0.5675   -0.1203    0.3102 C   0  0  1  0  0  0  0  0  0  0  0  0
   -0.0639   -0.2390   -0.6498 H   0  0  0  0  0  0  0  0  0  0  0  0
   -0.8279    1.3805    0.5571 C   0  0  0  0  0  0  0  0  0  0  0  0
   -1.4272    1.4858    1.4635 H   0  0  0  0  0  0  0  0  0  0  0  0
    0.1343    1.8644    0.7386 H   0  0  0  0  0  0  0  0  0  0  0  0
   -1.5354    2.1338   -0.5843 C   0  0  0  0  0  0  0  0  0  0  0  0
   -2.4501    1.6091   -0.8603 H   0  0  0  0  0  0  0  0  0  0  0  0
   -1.8846    3.5742   -0.1986 C   0  0  0  0  0  0  0  0  0  0  0  0
   -0.9803    4.1085    0.0960 H   0  0  0  0  0  0  0  0  0  0  0  0
   -2.3377    4.0827   -1.0500 H   0  0  0  0  0  0  0  0  0  0  0  0
   -2.5918    3.5899    0.6278 H   0  0  0  0  0  0  0  0  0  0  0  0
   -0.6276    2.1803   -1.8128 C   0  0  0  0  0  0  0  0  0  0  0  0
   -0.3879    1.1655   -2.1302 H   0  0  0  0  0  0  0  0  0  0  0  0
   -1.1371    2.6890   -2.6312 H   0  0  0  0  0  0  0  0  0  0  0  0
    0.2954    2.7115   -1.5779 H   0  0  0  0  0  0  0  0  0  0  0  0
    0.3156   -0.7514    1.4001 C   0  0  0  0  0  0  0  0  0  0  0  0
    0.0225   -1.8466    1.8742 O   0  0  0  0  0  0  0  0  0  0  0  0
    1.3874   -0.0560    1.8018 N   0  0  0  0  0  0  0  0  0  0  0  0
    1.5649    0.8323    1.3610 H   0  0  0  0  0  0  0  0  0  0  0  0
    2.3132   -0.5100    2.8370 C   0  0  0  0  0  0  0  0  0  0  0  0
    2.7508   -1.4676    2.5462 H   0  0  0  0  0  0  0  0  0  0  0  0
    3.1105    0.2212    2.9789 H   0  0  0  0  0  0  0  0  0  0  0  0
    1.7766   -0.6458    3.7773 H   0  0  0  0  0  0  0  0  0  0  0  0
  5  6  2  0  0  0  0
  5  7  1  0  0  0  0
  2  3  1  0  0  0  0
  2  4  1  0  0  0  0
  2  5  1  0  0  0  0
  1  2  1  0  0  0  0
 24 25  2  0  0  0  0
 24 26  1  0  0  0  0
 20 21  1  0  0  0  0
 20 22  1  0  0  0  0
 20 23  1  0  0  0  0
 16 17  1  0  0  0  0
 16 18  1  0  0  0  0
 16 19  1  0  0  0  0
 14 15  1  0  0  0  0
 14 16  1  0  0  0  0
 14 20  1  0  0  0  0
 11 12  1  0  0  0  0
 11 13  1  0  0  0  0
 11 14  1  0  0  0  0
  9 10  1  0  0  0  0
  9 11  1  0  0  0  0
  9 24  1  0  0  0  0
  7  8  1  0  0  0  0
  7  9  1  0  0  0  0
 28 29  1  0  0  0  0
 28 30  1  0  0  0  0
 28 31  1  0  0  0  0
 26 27  1  0  0  0  0
 26 28  1  0  0  0  0
M  END
$$$$
default_name
  -OEChem-01062215323D

 31 30  0     1  0  0  0  0  0999 V2000
   -3.5895   -3.5013    1.1082 H   0  0  0  0  0  0  0  0  0  0  0  0
   -3.5145   -2.5363    0.6082 C   0  0  0  0  0  0  0  0  0  0  0  0
   -4.2285   -1.8413    1.0452 H   0  0  0  0  0  0  0  0  0  0  0  0
   -3.7155   -2.6583   -0.4538 H   0  0  0  0  0  0  0  0  0  0  0  0
   -2.1155   -1.9963    0.7922 C   0  0  0  0  0  0  0  0  0  0  0  0
   -1.2875   -2.6383    1.4252 O   0  0  0  0  0  0  0  0  0  0  0  0
   -1.8575   -0.8123    0.2402 N   0  0  0  0  0  0  0  0  0  0  0  0
   -2.6005   -0.3333   -0.2478 H   0  0  0  0  0  0  0  0  0  0  0  0
   -0.5675   -0.1203    0.3102 C   0  0  1  0  0  0  0  0  0  0  0  0
   -0.0639   -0.2390   -0.6498 H   0  0  0  0  0  0  0  0  0  0  0  0
   -0.8279    1.3805    0.5571 C   0  0  0  0  0  0  0  0  0  0  0  0
   -1.4272    1.4858    1.4635 H   0  0  0  0  0  0  0  0  0  0  0  0
    0.1343    1.8644    0.7386 H   0  0  0  0  0  0  0  0  0  0  0  0
   -1.5354    2.1338   -0.5843 C   0  0  0  0  0  0  0  0  0  0  0  0
   -2.4501    1.6091   -0.8603 H   0  0  0  0  0  0  0  0  0  0  0  0
   -1.8846    3.5742   -0.1986 C   0  0  0  0  0  0  0  0  0  0  0  0
   -0.9803    4.1085    0.0960 H   0  0  0  0  0  0  0  0  0  0  0  0
   -2.3377    4.0827   -1.0500 H   0  0  0  0  0  0  0  0  0  0  0  0
   -2.5918    3.5899    0.6278 H   0  0  0  0  0  0  0  0  0  0  0  0
   -0.6276    2.1803   -1.8128 C   0  0  0  0  0  0  0  0  0  0  0  0
   -0.3879    1.1655   -2.1302 H   0  0  0  0  0  0  0  0  0  0  0  0
   -1.1371    2.6890   -2.6312 H   0  0  0  0  0  0  0  0  0  0  0  0
    0.2954    2.7115   -1.5779 H   0  0  0  0  0  0  0  0  0  0  0  0
    0.3156   -0.7514    1.4001 C   0  0  0  0  0  0  0  0  0  0  0  0
    0.1950   -1.9422    1.6790 O   0  0  0  0  0  0  0  0  0  0  0  0
    1.1927    0.0486    2.0201 N   0  0  0  0  0  0  0  0  0  0  0  0
    1.2368    1.0127    1.7312 H   0  0  0  0  0  0  0  0  0  0  0  0
    2.0886   -0.3942    3.0859 C   0  0  0  0  0  0  0  0  0  0  0  0
    2.7264   -1.2019    2.7198 H   0  0  0  0  0  0  0  0  0  0  0  0
    2.7147    0.4335    3.4226 H   0  0  0  0  0  0  0  0  0  0  0  0
    1.5035   -0.7693    3.9270 H   0  0  0  0  0  0  0  0  0  0  0  0
  5  6  2  0  0  0  0
  5  7  1  0  0  0  0
  2  3  1  0  0  0  0
  2  4  1  0  0  0  0
  2  5  1  0  0  0  0
  1  2  1  0  0  0  0
 24 25  2  0  0  0  0
 24 26  1  0  0  0  0
 20 21  1  0  0  0  0
 20 22  1  0  0  0  0
 20 23  1  0  0  0  0
 16 17  1  0  0  0  0
 16 18  1  0  0  0  0
 16 19  1  0  0  0  0
 14 15  1  0  0  0  0
 14 16  1  0  0  0  0
 14 20  1  0  0  0  0
 11 12  1  0  0  0  0
 11 13  1  0  0  0  0
 11 14  1  0  0  0  0
  9 10  1  0  0  0  0
  9 11  1  0  0  0  0
  9 24  1  0  0  0  0
  7  8  1  0  0  0  0
  7  9  1  0  0  0  0
 28 29  1  0  0  0  0
 28 30  1  0  0  0  0
 28 31  1  0  0  0  0
 26 27  1  0  0  0  0
 26 28  1  0  0  0  0
M  END
$$$$
default_name
  -OEChem-01062215323D

 31 30  0     1  0  0  0  0  0999 V2000
   -3.5895   -3.5013    1.1082 H   0  0  0  0  0  0  0  0  0  0  0  0
   -3.5145   -2.5363    0.6082 C   0  0  0  0  0  0  0  0  0  0  0  0
   -4.2285   -1.8413    1.0452 H   0  0  0  0  0  0  0  0  0  0  0  0
   -3.7155   -2.6583   -0.4538 H   0  0  0  0  0  0  0  0  0  0  0  0
   -2.1155   -1.9963    0.7922 C   0  0  0  0  0  0  0  0  0  0  0  0
   -1.2875   -2.6383    1.4252 O   0  0  0  0  0  0  0  0  0  0  0  0
   -1.8575   -0.8123    0.2402 N   0  0  0  0  0  0  0  0  0  0  0  0
   -2.6005   -0.3333   -0.2478 H   0  0  0  0  0  0  0  0  0  0  0  0
   -0.5675   -0.1203    0.3102 C   0  0  1  0  0  0  0  0  0  0  0  0
   -0.0639   -0.2390   -0.6498 H   0  0  0  0  0  0  0  0  0  0  0  0
   -0.8279    1.3805    0.5571 C   0  0  0  0  0  0  0  0  0  0  0  0
   -1.4272    1.4858    1.4635 H   0  0  0  0  0  0  0  0  0  0  0  0
    0.1343    1.8644    0.7386 H   0  0  0  0  0  0  0  0  0  0  0  0
   -1.5354    2.1338   -0.5843 C   0  0  0  0  0  0  0  0  0  0  0  0
   -2.4501    1.6091   -0.8603 H   0  0  0  0  0  0  0  0  0  0  0  0
   -1.8846    3.5742   -0.1986 C   0  0  0  0  0  0  0  0  0  0  0  0
   -0.9803    4.1085    0.0960 H   0  0  0  0  0  0  0  0  0  0  0  0
   -2.3377    4.0827   -1.0500 H   0  0  0  0  0  0  0  0  0  0  0  0
   -2.5918    3.5899    0.6278 H   0  0  0  0  0  0  0  0  0  0  0  0
   -0.6276    2.1803   -1.8128 C   0  0  0  0  0  0  0  0  0  0  0  0
   -0.3879    1.1655   -2.1302 H   0  0  0  0  0  0  0  0  0  0  0  0
   -1.1371    2.6890   -2.6312 H   0  0  0  0  0  0  0  0  0  0  0  0
    0.2954    2.7115   -1.5779 H   0  0  0  0  0  0  0  0  0  0  0  0
    0.3156   -0.7514    1.4001 C   0  0  0  0  0  0  0  0  0  0  0  0
    0.4000   -1.9738    1.4947 O   0  0  0  0  0  0  0  0  0  0  0  0
    0.9623    0.0814    2.2258 N   0  0  0  0  0  0  0  0  0  0  0  0
    0.8475    1.0718    2.0809 H   0  0  0  0  0  0  0  0  0  0  0  0
    1.8241   -0.3606    3.3197 C   0  0  0  0  0  0  0  0  0  0  0  0
    2.6357   -0.9756    2.9244 H   0  0  0  0  0  0  0  0  0  0  0  0
    2.2463    0.5001    3.8406 H   0  0  0  0  0  0  0  0  0  0  0  0
    1.2464   -0.9610    4.0243 H   0  0  0  0  0  0  0  0  0  0  0  0
  5  6  2  0  0  0  0
  5  7  1  0  0  0  0
  2  3  1  0  0  0  0
  2  4  1  0  0  0  0
  2  5  1  0  0  0  0
  1  2  1  0  0  0  0
 24 25  2  0  0  0  0
 24 26  1  0  0  0  0
 20 21  1  0  0  0  0
 20 22  1  0  0  0  0
 20 23  1  0  0  0  0
 16 17  1  0  0  0  0
 16 18  1  0  0  0  0
 16 19  1  0  0  0  0
 14 15  1  0  0  0  0
 14 16  1  0  0  0  0
 14 20  1  0  0  0  0
 11 12  1  0  0  0  0
 11 13  1  0  0  0  0
 11 14  1  0  0  0  0
  9 10  1  0  0  0  0
  9 11  1  0  0  0  0
  9 24  1  0  0  0  0
  7  8  1  0  0  0  0
  7  9  1  0  0  0  0
 28 29  1  0  0  0  0
 28 30  1  0  0  0  0
 28 31  1  0  0  0  0
 26 27  1  0  0  0  0
 26 28  1  0  0  0  0
M  END
$$$$
default_name
  -OEChem-01062215323D

 31 30  0     1  0  0  0  0  0999 V2000
   -3.5895   -3.5013    1.1082 H   0  0  0  0  0  0  0  0  0  0  0  0
   -3.5145   -2.5363    0.6082 C   0  0  0  0  0  0  0  0  0  0  0  0
   -4.2285   -1.8413    1.0452 H   0  0  0  0  0  0  0  0  0  0  0  0
   -3.7155   -2.6583   -0.4538 H   0  0  0  0  0  0  0  0  0  0  0  0
   -2.1155   -1.9963    0.7922 C   0  0  0  0  0  0  0  0  0  0  0  0
   -1.2875   -2.6383    1.4252 O   0  0  0  0  0  0  0  0  0  0  0  0
   -1.8575   -0.8123    0.2402 N   0  0  0  0  0  0  0  0  0  0  0  0
   -2.6005   -0.3333   -0.2478 H   0  0  0  0  0  0  0  0  0  0  0  0
   -0.5675   -0.1203    0.3102 C   0  0  1  0  0  0  0  0  0  0  0  0
   -0.0639   -0.2390   -0.6498 H   0  0  0  0  0  0  0  0  0  0  0  0
   -0.8279    1.3805    0.5571 C   0  0  0  0  0  0  0  0  0  0  0  0
   -1.4272    1.4858    1.4635 H   0  0  0  0  0  0  0  0  0  0  0  0
    0.1343    1.8644    0.7386 H   0  0  0  0  0  0  0  0  0  0  0  0
   -1.5354    2.1338   -0.5843 C   0  0  0  0  0  0  0  0  0  0  0  0
   -2.4501    1.6091   -0.8603 H   0  0  0  0  0  0  0  0  0  0  0  0
   -1.8846    3.5742   -0.1986 C   0  0  0  0  0  0  0  0  0  0  0  0
   -0.9803    4.1085    0.0960 H   0  0  0  0  0  0  0  0  0  0  0  0
   -2.3377    4.0827   -1.0500 H   0  0  0  0  0  0  0  0  0  0  0  0
   -2.5918    3.5899    0.6278 H   0  0  0  0  0  0  0  0  0  0  0  0
   -0.6276    2.1803   -1.8128 C   0  0  0  0  0  0  0  0  0  0  0  0
   -0.3879    1.1655   -2.1302 H   0  0  0  0  0  0  0  0  0  0  0  0
   -1.1371    2.6890   -2.6312 H   0  0  0  0  0  0  0  0  0  0  0  0
    0.2954    2.7115   -1.5779 H   0  0  0  0  0  0  0  0  0  0  0  0
    0.3156   -0.7514    1.4001 C   0  0  0  0  0  0  0  0  0  0  0  0
    0.6233   -1.9393    1.3337 O   0  0  0  0  0  0  0  0  0  0  0  0
    0.7118    0.0404    2.4050 N   0  0  0  0  0  0  0  0  0  0  0  0
    0.4235    1.0055    2.3860 H   0  0  0  0  0  0  0  0  0  0  0  0
    1.5375   -0.4114    3.5225 C   0  0  0  0  0  0  0  0  0  0  0  0
    2.4848   -0.8039    3.1460 H   0  0  0  0  0  0  0  0  0  0  0  0
    1.7373    0.4164    4.2046 H   0  0  0  0  0  0  0  0  0  0  0  0
    1.0230   -1.2077    4.0625 H   0  0  0  0  0  0  0  0  0  0  0  0
  5  6  2  0  0  0  0
  5  7  1  0  0  0  0
  2  3  1  0  0  0  0
  2  4  1  0  0  0  0
  2  5  1  0  0  0  0
  1  2  1  0  0  0  0
 24 25  2  0  0  0  0
 24 26  1  0  0  0  0
 20 21  1  0  0  0  0
 20 22  1  0  0  0  0
 20 23  1  0  0  0  0
 16 17  1  0  0  0  0
 16 18  1  0  0  0  0
 16 19  1  0  0  0  0
 14 15  1  0  0  0  0
 14 16  1  0  0  0  0
 14 20  1  0  0  0  0
 11 12  1  0  0  0  0
 11 13  1  0  0  0  0
 11 14  1  0  0  0  0
  9 10  1  0  0  0  0
  9 11  1  0  0  0  0
  9 24  1  0  0  0  0
  7  8  1  0  0  0  0
  7  9  1  0  0  0  0
 28 29  1  0  0  0  0
 28 30  1  0  0  0  0
 28 31  1  0  0  0  0
 26 27  1  0  0  0  0
 26 28  1  0  0  0  0
M  END
$$$$
default_name
  -OEChem-01062215323D

 31 30  0     1  0  0  0  0  0999 V2000
   -3.5895   -3.5013    1.1082 H   0  0  0  0  0  0  0  0  0  0  0  0
   -3.5145   -2.5363    0.6082 C   0  0  0  0  0  0  0  0  0  0  0  0
   -4.2285   -1.8413    1.0452 H   0  0  0  0  0  0  0  0  0  0  0  0
   -3.7155   -2.6583   -0.4538 H   0  0  0  0  0  0  0  0  0  0  0  0
   -2.1155   -1.9963    0.7922 C   0  0  0  0  0  0  0  0  0  0  0  0
   -1.2875   -2.6383    1.4252 O   0  0  0  0  0  0  0  0  0  0  0  0
   -1.8575   -0.8123    0.2402 N   0  0  0  0  0  0  0  0  0  0  0  0
   -2.6005   -0.3333   -0.2478 H   0  0  0  0  0  0  0  0  0  0  0  0
   -0.5675   -0.1203    0.3102 C   0  0  1  0  0  0  0  0  0  0  0  0
   -0.0639   -0.2390   -0.6498 H   0  0  0  0  0  0  0  0  0  0  0  0
   -0.8279    1.3805    0.5571 C   0  0  0  0  0  0  0  0  0  0  0  0
   -1.4272    1.4858    1.4635 H   0  0  0  0  0  0  0  0  0  0  0  0
    0.1343    1.8644    0.7386 H   0  0  0  0  0  0  0  0  0  0  0  0
   -1.5354    2.1338   -0.5843 C   0  0  0  0  0  0  0  0  0  0  0  0
   -2.4501    1.6091   -0.8603 H   0  0  0  0  0  0  0  0  0  0  0  0
   -1.8846    3.5742   -0.1986 C   0  0  0  0  0  0  0  0  0  0  0  0
   -0.9803    4.1085    0.0960 H   0  0  0  0  0  0  0  0  0  0  0  0
   -2.3377    4.0827   -1.0500 H   0  0  0  0  0  0  0  0  0  0  0  0
   -2.5918    3.5899    0.6278 H   0  0  0  0  0  0  0  0  0  0  0  0
   -0.6276    2.1803   -1.8128 C   0  0  0  0  0  0  0  0  0  0  0  0
   -0.3879    1.1655   -2.1302 H   0  0  0  0  0  0  0  0  0  0  0  0
   -1.1371    2.6890   -2.6312 H   0  0  0  0  0  0  0  0  0  0  0  0
    0.2954    2.7115   -1.5779 H   0  0  0  0  0  0  0  0  0  0  0  0
    0.3156   -0.7514    1.4001 C   0  0  0  0  0  0  0  0  0  0  0  0
    0.8497   -1.8412    1.2071 O   0  0  0  0  0  0  0  0  0  0  0  0
    0.4584   -0.0718    2.5453 N   0  0  0  0  0  0  0  0  0  0  0  0
   -0.0063    0.8184    2.6259 H   0  0  0  0  0  0  0  0  0  0  0  0
    1.2486   -0.5431    3.6803 C   0  0  0  0  0  0  0  0  0  0  0  0
    2.2841   -0.6987    3.3695 H   0  0  0  0  0  0  0  0  0  0  0  0
    1.2223    0.1882    4.4896 H   0  0  0  0  0  0  0  0  0  0  0  0
    0.8483   -1.4927    4.0390 H   0  0  0  0  0  0  0  0  0  0  0  0
  5  6  2  0  0  0  0
  5  7  1  0  0  0  0
  2  3  1  0  0  0  0
  2  4  1  0  0  0  0
  2  5  1  0  0  0  0
  1  2  1  0  0  0  0
 24 25  2  0  0  0  0
 24 26  1  0  0  0  0
 20 21  1  0  0  0  0
 20 22  1  0  0  0  0
 20 23  1  0  0  0  0
 16 17  1  0  0  0  0
 16 18  1  0  0  0  0
 16 19  1  0  0  0  0
 14 15  1  0  0  0  0
 14 16  1  0  0  0  0
 14 20  1  0  0  0  0
 11 12  1  0  0  0  0
 11 13  1  0  0  0  0
 11 14  1  0  0  0  0
  9 10  1  0  0  0  0
  9 11  1  0  0  0  0
  9 24  1  0  0  0  0
  7  8  1  0  0  0  0
  7  9  1  0  0  0  0
 28 29  1  0  0  0  0
 28 30  1  0  0  0  0
 28 31  1  0  0  0  0
 26 27  1  0  0  0  0
 26 28  1  0  0  0  0
M  END
$$$$
default_name
  -OEChem-01062215323D

 31 30  0     1  0  0  0  0  0999 V2000
   -3.5895   -3.5013    1.1082 H   0  0  0  0  0  0  0  0  0  0  0  0
   -3.5145   -2.5363    0.6082 C   0  0  0  0  0  0  0  0  0  0  0  0
   -4.2285   -1.8413    1.0452 H   0  0  0  0  0  0  0  0  0  0  0  0
   -3.7155   -2.6583   -0.4538 H   0  0  0  0  0  0  0  0  0  0  0  0
   -2.1155   -1.9963    0.7922 C   0  0  0  0  0  0  0  0  0  0  0  0
   -1.2875   -2.6383    1.4252 O   0  0  0  0  0  0  0  0  0  0  0  0
   -1.8575   -0.8123    0.2402 N   0  0  0  0  0  0  0  0  0  0  0  0
   -2.6005   -0.3333   -0.2478 H   0  0  0  0  0  0  0  0  0  0  0  0
   -0.5675   -0.1203    0.3102 C   0  0  1  0  0  0  0  0  0  0  0  0
   -0.0639   -0.2390   -0.6498 H   0  0  0  0  0  0  0  0  0  0  0  0
   -0.8279    1.3805    0.5571 C   0  0  0  0  0  0  0  0  0  0  0  0
   -1.4272    1.4858    1.4635 H   0  0  0  0  0  0  0  0  0  0  0  0
    0.1343    1.8644    0.7386 H   0  0  0  0  0  0  0  0  0  0  0  0
   -1.5354    2.1338   -0.5843 C   0  0  0  0  0  0  0  0  0  0  0  0
   -2.4501    1.6091   -0.8603 H   0  0  0  0  0  0  0  0  0  0  0  0
   -1.8846    3.5742   -0.1986 C   0  0  0  0  0  0  0  0  0  0  0  0
   -0.9803    4.1085    0.0960 H   0  0  0  0  0  0  0  0  0  0  0  0
   -2.3377    4.0827   -1.0500 H   0  0  0  0  0  0  0  0  0  0  0  0
   -2.5918    3.5899    0.6278 H   0  0  0  0  0  0  0  0  0  0  0  0
   -0.6276    2.1803   -1.8128 C   0  0  0  0  0  0  0  0  0  0  0  0
   -0.3879    1.1655   -2.1302 H   0  0  0  0  0  0  0  0  0  0  0  0
   -1.1371    2.6890   -2.6312 H   0  0  0  0  0  0  0  0  0  0  0  0
    0.2954    2.7115   -1.5779 H   0  0  0  0  0  0  0  0  0  0  0  0
    0.3156   -0.7514    1.4001 C   0  0  0  0  0  0  0  0  0  0  0  0
    1.0640   -1.6861    1.1234 O   0  0  0  0  0  0  0  0  0  0  0  0
    0.2193   -0.2475    2.6372 N   0  0  0  0  0  0  0  0  0  0  0  0
   -0.4127    0.5232    2.7841 H   0  0  0  0  0  0  0  0  0  0  0  0
    0.9768   -0.7468    3.7826 C   0  0  0  0  0  0  0  0  0  0  0  0
    2.0472   -0.6672    3.5798 H   0  0  0  0  0  0  0  0  0  0  0  0
    0.7364   -0.1691    4.6764 H   0  0  0  0  0  0  0  0  0  0  0  0
    0.7343   -1.7965    3.9553 H   0  0  0  0  0  0  0  0  0  0  0  0
  5  6  2  0  0  0  0
  5  7  1  0  0  0  0
  2  3  1  0  0  0  0
  2  4  1  0  0  0  0
  2  5  1  0  0  0  0
  1  2  1  0  0  0  0
 24 25  2  0  0  0  0
 24 26  1  0  0  0  0
 20 21  1  0  0  0  0
 20 22  1  0  0  0  0
 20 23  1  0  0  0  0
 16 17  1  0  0  0  0
 16 18  1  0  0  0  0
 16 19  1  0  0  0  0
 14 15  1  0  0  0  0
 14 16  1  0  0  0  0
 14 20  1  0  0  0  0
 11 12  1  0  0  0  0
 11 13  1  0  0  0  0
 11 14  1  0  0  0  0
  9 10  1  0  0  0  0
  9 11  1  0  0  0  0
  9 24  1  0  0  0  0
  7  8  1  0  0  0  0
  7  9  1  0  0  0  0
 28 29  1  0  0  0  0
 28 30  1  0  0  0  0
 28 31  1  0  0  0  0
 26 27  1  0  0  0  0
 26 28  1  0  0  0  0
M  END
$$$$
default_name
  -OEChem-01062215323D

 31 30  0     1  0  0  0  0  0999 V2000
   -3.5895   -3.5013    1.1082 H   0  0  0  0  0  0  0  0  0  0  0  0
   -3.5145   -2.5363    0.6082 C   0  0  0  0  0  0  0  0  0  0  0  0
   -4.2285   -1.8413    1.0452 H   0  0  0  0  0  0  0  0  0  0  0  0
   -3.7155   -2.6583   -0.4538 H   0  0  0  0  0  0  0  0  0  0  0  0
   -2.1155   -1.9963    0.7922 C   0  0  0  0  0  0  0  0  0  0  0  0
   -1.2875   -2.6383    1.4252 O   0  0  0  0  0  0  0  0  0  0  0  0
   -1.8575   -0.8123    0.2402 N   0  0  0  0  0  0  0  0  0  0  0  0
   -2.6005   -0.3333   -0.2478 H   0  0  0  0  0  0  0  0  0  0  0  0
   -0.5675   -0.1203    0.3102 C   0  0  1  0  0  0  0  0  0  0  0  0
   -0.0639   -0.2390   -0.6498 H   0  0  0  0  0  0  0  0  0  0  0  0
   -0.8279    1.3805    0.5571 C   0  0  0  0  0  0  0  0  0  0  0  0
   -1.4272    1.4858    1.4635 H   0  0  0  0  0  0  0  0  0  0  0  0
    0.1343    1.8644    0.7386 H   0  0  0  0  0  0  0  0  0  0  0  0
   -1.5354    2.1338   -0.5843 C   0  0  0  0  0  0  0  0  0  0  0  0
   -2.4501    1.6091   -0.8603 H   0  0  0  0  0  0  0  0  0  0  0  0
   -1.8846    3.5742   -0.1986 C   0  0  0  0  0  0  0  0  0  0  0  0
   -0.9803    4.1085    0.0960 H   0  0  0  0  0  0  0  0  0  0  0  0
   -2.3377    4.0827   -1.0500 H   0  0  0  0  0  0  0  0  0  0  0  0
   -2.5918    3.5899    0.6278 H   0  0  0  0  0  0  0  0  0  0  0  0
   -0.6276    2.1803   -1.8128 C   0  0  0  0  0  0  0  0  0  0  0  0
   -0.3879    1.1655   -2.1302 H   0  0  0  0  0  0  0  0  0  0  0  0
   -1.1371    2.6890   -2.6312 H   0  0  0  0  0  0  0  0  0  0  0  0
    0.2954    2.7115   -1.5779 H   0  0  0  0  0  0  0  0  0  0  0  0
    0.3156   -0.7514    1.4001 C   0  0  0  0  0  0  0  0  0  0  0  0
    1.2513   -1.4845    1.0883 O   0  0  0  0  0  0  0  0  0  0  0  0
    0.0108   -0.4748    2.6746 N   0  0  0  0  0  0  0  0  0  0  0  0
   -0.7678    0.1400    2.8500 H   0  0  0  0  0  0  0  0  0  0  0  0
    0.7408   -1.0086    3.8222 C   0  0  0  0  0  0  0  0  0  0  0  0
    1.7902   -0.7113    3.7624 H   0  0  0  0  0  0  0  0  0  0  0  0
    0.3128   -0.6311    4.7521 H   0  0  0  0  0  0  0  0  0  0  0  0
    0.6889   -2.0985    3.8173 H   0  0  0  0  0  0  0  0  0  0  0  0
  5  6  2  0  0  0  0
  5  7  1  0  0  0  0
  2  3  1  0  0  0  0
  2  4  1  0  0  0  0
  2  5  1  0  0  0  0
  1  2  1  0  0  0  0
 24 25  2  0  0  0  0
 24 26  1  0  0  0  0
 20 21  1  0  0  0  0
 20 22  1  0  0  0  0
 20 23  1  0  0  0  0
 16 17  1  0  0  0  0
 16 18  1  0  0  0  0
 16 19  1  0  0  0  0
 14 15  1  0  0  0  0
 14 16  1  0  0  0  0
 14 20  1  0  0  0  0
 11 12  1  0  0  0  0
 11 13  1  0  0  0  0
 11 14  1  0  0  0  0
  9 10  1  0  0  0  0
  9 11  1  0  0  0  0
  9 24  1  0  0  0  0
  7  8  1  0  0  0  0
  7  9  1  0  0  0  0
 28 29  1  0  0  0  0
 28 30  1  0  0  0  0
 28 31  1  0  0  0  0
 26 27  1  0  0  0  0
 26 28  1  0  0  0  0
M  END
$$$$
default_name
  -OEChem-01062215323D

 31 30  0     1  0  0  0  0  0999 V2000
   -3.5895   -3.5013    1.1082 H   0  0  0  0  0  0  0  0  0  0  0  0
   -3.5145   -2.5363    0.6082 C   0  0  0  0  0  0  0  0  0  0  0  0
   -4.2285   -1.8413    1.0452 H   0  0  0  0  0  0  0  0  0  0  0  0
   -3.7155   -2.6583   -0.4538 H   0  0  0  0  0  0  0  0  0  0  0  0
   -2.1155   -1.9963    0.7922 C   0  0  0  0  0  0  0  0  0  0  0  0
   -1.2875   -2.6383    1.4252 O   0  0  0  0  0  0  0  0  0  0  0  0
   -1.8575   -0.8123    0.2402 N   0  0  0  0  0  0  0  0  0  0  0  0
   -2.6005   -0.3333   -0.2478 H   0  0  0  0  0  0  0  0  0  0  0  0
   -0.5675   -0.1203    0.3102 C   0  0  1  0  0  0  0  0  0  0  0  0
   -0.0639   -0.2390   -0.6498 H   0  0  0  0  0  0  0  0  0  0  0  0
   -0.8279    1.3805    0.5571 C   0  0  0  0  0  0  0  0  0  0  0  0
   -1.4272    1.4858    1.4635 H   0  0  0  0  0  0  0  0  0  0  0  0
    0.1343    1.8644    0.7386 H   0  0  0  0  0  0  0  0  0  0  0  0
   -1.5354    2.1338   -0.5843 C   0  0  0  0  0  0  0  0  0  0  0  0
   -2.4501    1.6091   -0.8603 H   0  0  0  0  0  0  0  0  0  0  0  0
   -1.8846    3.5742   -0.1986 C   0  0  0  0  0  0  0  0  0  0  0  0
   -0.9803    4.1085    0.0960 H   0  0  0  0  0  0  0  0  0  0  0  0
   -2.3377    4.0827   -1.0500 H   0  0  0  0  0  0  0  0  0  0  0  0
   -2.5918    3.5899    0.6278 H   0  0  0  0  0  0  0  0  0  0  0  0
   -0.6276    2.1803   -1.8128 C   0  0  0  0  0  0  0  0  0  0  0  0
   -0.3879    1.1655   -2.1302 H   0  0  0  0  0  0  0  0  0  0  0  0
   -1.1371    2.6890   -2.6312 H   0  0  0  0  0  0  0  0  0  0  0  0
    0.2954    2.7115   -1.5779 H   0  0  0  0  0  0  0  0  0  0  0  0
    0.3156   -0.7514    1.4001 C   0  0  0  0  0  0  0  0  0  0  0  0
    1.3990   -1.2502    1.1043 O   0  0  0  0  0  0  0  0  0  0  0  0
   -0.1529   -0.7381    2.6547 N   0  0  0  0  0  0  0  0  0  0  0  0
   -1.0476   -0.3051    2.8189 H   0  0  0  0  0  0  0  0  0  0  0  0
    0.5567   -1.3106    3.7965 C   0  0  0  0  0  0  0  0  0  0  0  0
    1.5307   -0.8283    3.9049 H   0  0  0  0  0  0  0  0  0  0  0  0
   -0.0197   -1.1662    4.7116 H   0  0  0  0  0  0  0  0  0  0  0  0
    0.7150   -2.3780    3.6343 H   0  0  0  0  0  0  0  0  0  0  0  0
  5  6  2  0  0  0  0
  5  7  1  0  0  0  0
  2  3  1  0  0  0  0
  2  4  1  0  0  0  0
  2  5  1  0  0  0  0
  1  2  1  0  0  0  0
 24 25  2  0  0  0  0
 24 26  1  0  0  0  0
 20 21  1  0  0  0  0
 20 22  1  0  0  0  0
 20 23  1  0  0  0  0
 16 17  1  0  0  0  0
 16 18  1  0  0  0  0
 16 19  1  0  0  0  0
 14 15  1  0  0  0  0
 14 16  1  0  0  0  0
 14 20  1  0  0  0  0
 11 12  1  0  0  0  0
 11 13  1  0  0  0  0
 11 14  1  0  0  0  0
  9 10  1  0  0  0  0
  9 11  1  0  0  0  0
  9 24  1  0  0  0  0
  7  8  1  0  0  0  0
  7  9  1  0  0  0  0
 28 29  1  0  0  0  0
 28 30  1  0  0  0  0
 28 31  1  0  0  0  0
 26 27  1  0  0  0  0
 26 28  1  0  0  0  0
M  END
$$$$
default_name
  -OEChem-01062215323D

 31 30  0     1  0  0  0  0  0999 V2000
   -3.5895   -3.5013    1.1082 H   0  0  0  0  0  0  0  0  0  0  0  0
   -3.5145   -2.5363    0.6082 C   0  0  0  0  0  0  0  0  0  0  0  0
   -4.2285   -1.8413    1.0452 H   0  0  0  0  0  0  0  0  0  0  0  0
   -3.7155   -2.6583   -0.4538 H   0  0  0  0  0  0  0  0  0  0  0  0
   -2.1155   -1.9963    0.7922 C   0  0  0  0  0  0  0  0  0  0  0  0
   -1.2875   -2.6383    1.4252 O   0  0  0  0  0  0  0  0  0  0  0  0
   -1.8575   -0.8123    0.2402 N   0  0  0  0  0  0  0  0  0  0  0  0
   -2.6005   -0.3333   -0.2478 H   0  0  0  0  0  0  0  0  0  0  0  0
   -0.5675   -0.1203    0.3102 C   0  0  1  0  0  0  0  0  0  0  0  0
   -0.0639   -0.2390   -0.6498 H   0  0  0  0  0  0  0  0  0  0  0  0
   -0.8279    1.3805    0.5571 C   0  0  0  0  0  0  0  0  0  0  0  0
   -1.4272    1.4858    1.4635 H   0  0  0  0  0  0  0  0  0  0  0  0
    0.1343    1.8644    0.7386 H   0  0  0  0  0  0  0  0  0  0  0  0
   -1.5354    2.1338   -0.5843 C   0  0  0  0  0  0  0  0  0  0  0  0
   -2.4501    1.6091   -0.8603 H   0  0  0  0  0  0  0  0  0  0  0  0
   -1.8846    3.5742   -0.1986 C   0  0  0  0  0  0  0  0  0  0  0  0
   -0.9803    4.1085    0.0960 H   0  0  0  0  0  0  0  0  0  0  0  0
   -2.3377    4.0827   -1.0500 H   0  0  0  0  0  0  0  0  0  0  0  0
   -2.5918    3.5899    0.6278 H   0  0  0  0  0  0  0  0  0  0  0  0
   -0.6276    2.1803   -1.8128 C   0  0  0  0  0  0  0  0  0  0  0  0
   -0.3879    1.1655   -2.1302 H   0  0  0  0  0  0  0  0  0  0  0  0
   -1.1371    2.6890   -2.6312 H   0  0  0  0  0  0  0  0  0  0  0  0
    0.2954    2.7115   -1.5779 H   0  0  0  0  0  0  0  0  0  0  0  0
    0.3156   -0.7514    1.4001 C   0  0  0  0  0  0  0  0  0  0  0  0
    1.4971   -0.9992    1.1702 O   0  0  0  0  0  0  0  0  0  0  0  0
   -0.2606   -1.0194    2.5791 N   0  0  0  0  0  0  0  0  0  0  0  0
   -1.2329   -0.7816    2.6931 H   0  0  0  0  0  0  0  0  0  0  0  0
    0.4369   -1.6323    3.7072 C   0  0  0  0  0  0  0  0  0  0  0  0
    1.2864   -1.0100    3.9976 H   0  0  0  0  0  0  0  0  0  0  0  0
   -0.2384   -1.7381    4.5576 H   0  0  0  0  0  0  0  0  0  0  0  0
    0.8109   -2.6159    3.4188 H   0  0  0  0  0  0  0  0  0  0  0  0
  5  6  2  0  0  0  0
  5  7  1  0  0  0  0
  2  3  1  0  0  0  0
  2  4  1  0  0  0  0
  2  5  1  0  0  0  0
  1  2  1  0  0  0  0
 24 25  2  0  0  0  0
 24 26  1  0  0  0  0
 20 21  1  0  0  0  0
 20 22  1  0  0  0  0
 20 23  1  0  0  0  0
 16 17  1  0  0  0  0
 16 18  1  0  0  0  0
 16 19  1  0  0  0  0
 14 15  1  0  0  0  0
 14 16  1  0  0  0  0
 14 20  1  0  0  0  0
 11 12  1  0  0  0  0
 11 13  1  0  0  0  0
 11 14  1  0  0  0  0
  9 10  1  0  0  0  0
  9 11  1  0  0  0  0
  9 24  1  0  0  0  0
  7  8  1  0  0  0  0
  7  9  1  0  0  0  0
 28 29  1  0  0  0  0
 28 30  1  0  0  0  0
 28 31  1  0  0  0  0
 26 27  1  0  0  0  0
 26 28  1  0  0  0  0
M  END
$$$$
default_name
  -OEChem-01062215323D

 31 30  0     1  0  0  0  0  0999 V2000
   -3.5895   -3.5013    1.1082 H   0  0  0  0  0  0  0  0  0  0  0  0
   -3.5145   -2.5363    0.6082 C   0  0  0  0  0  0  0  0  0  0  0  0
   -4.2285   -1.8413    1.0452 H   0  0  0  0  0  0  0  0  0  0  0  0
   -3.7155   -2.6583   -0.4538 H   0  0  0  0  0  0  0  0  0  0  0  0
   -2.1155   -1.9963    0.7922 C   0  0  0  0  0  0  0  0  0  0  0  0
   -1.2875   -2.6383    1.4252 O   0  0  0  0  0  0  0  0  0  0  0  0
   -1.8575   -0.8123    0.2402 N   0  0  0  0  0  0  0  0  0  0  0  0
   -2.6005   -0.3333   -0.2478 H   0  0  0  0  0  0  0  0  0  0  0  0
   -0.5675   -0.1203    0.3102 C   0  0  1  0  0  0  0  0  0  0  0  0
   -0.0639   -0.2390   -0.6498 H   0  0  0  0  0  0  0  0  0  0  0  0
   -0.8279    1.3805    0.5571 C   0  0  0  0  0  0  0  0  0  0  0  0
   -1.4272    1.4858    1.4635 H   0  0  0  0  0  0  0  0  0  0  0  0
    0.1343    1.8644    0.7386 H   0  0  0  0  0  0  0  0  0  0  0  0
   -1.5354    2.1338   -0.5843 C   0  0  0  0  0  0  0  0  0  0  0  0
   -2.4501    1.6091   -0.8603 H   0  0  0  0  0  0  0  0  0  0  0  0
   -1.8846    3.5742   -0.1986 C   0  0  0  0  0  0  0  0  0  0  0  0
   -0.9803    4.1085    0.0960 H   0  0  0  0  0  0  0  0  0  0  0  0
   -2.3377    4.0827   -1.0500 H   0  0  0  0  0  0  0  0  0  0  0  0
   -2.5918    3.5899    0.6278 H   0  0  0  0  0  0  0  0  0  0  0  0
   -0.6276    2.1803   -1.8128 C   0  0  0  0  0  0  0  0  0  0  0  0
   -0.3879    1.1655   -2.1302 H   0  0  0  0  0  0  0  0  0  0  0  0
   -1.1371    2.6890   -2.6312 H   0  0  0  0  0  0  0  0  0  0  0  0
    0.2954    2.7115   -1.5779 H   0  0  0  0  0  0  0  0  0  0  0  0
    0.3156   -0.7514    1.4001 C   0  0  0  0  0  0  0  0  0  0  0  0
    1.5387   -0.7486    1.2816 O   0  0  0  0  0  0  0  0  0  0  0  0
   -0.3050   -1.2997    2.4527 N   0  0  0  0  0  0  0  0  0  0  0  0
   -1.3111   -1.2573    2.4810 H   0  0  0  0  0  0  0  0  0  0  0  0
    0.3897   -1.9517    3.5605 C   0  0  0  0  0  0  0  0  0  0  0  0
    1.0738   -1.2441    4.0343 H   0  0  0  0  0  0  0  0  0  0  0  0
   -0.3285   -2.3077    4.3007 H   0  0  0  0  0  0  0  0  0  0  0  0
    0.9701   -2.7962    3.1855 H   0  0  0  0  0  0  0  0  0  0  0  0
  5  6  2  0  0  0  0
  5  7  1  0  0  0  0
  2  3  1  0  0  0  0
  2  4  1  0  0  0  0
  2  5  1  0  0  0  0
  1  2  1  0  0  0  0
 24 25  2  0  0  0  0
 24 26  1  0  0  0  0
 20 21  1  0  0  0  0
 20 22  1  0  0  0  0
 20 23  1  0  0  0  0
 16 17  1  0  0  0  0
 16 18  1  0  0  0  0
 16 19  1  0  0  0  0
 14 15  1  0  0  0  0
 14 16  1  0  0  0  0
 14 20  1  0  0  0  0
 11 12  1  0  0  0  0
 11 13  1  0  0  0  0
 11 14  1  0  0  0  0
  9 10  1  0  0  0  0
  9 11  1  0  0  0  0
  9 24  1  0  0  0  0
  7  8  1  0  0  0  0
  7  9  1  0  0  0  0
 28 29  1  0  0  0  0
 28 30  1  0  0  0  0
 28 31  1  0  0  0  0
 26 27  1  0  0  0  0
 26 28  1  0  0  0  0
M  END
$$$$
default_name
  -OEChem-01062215323D

 31 30  0     1  0  0  0  0  0999 V2000
   -3.5895   -3.5013    1.1082 H   0  0  0  0  0  0  0  0  0  0  0  0
   -3.5145   -2.5363    0.6082 C   0  0  0  0  0  0  0  0  0  0  0  0
   -4.2285   -1.8413    1.0452 H   0  0  0  0  0  0  0  0  0  0  0  0
   -3.7155   -2.6583   -0.4538 H   0  0  0  0  0  0  0  0  0  0  0  0
   -2.1155   -1.9963    0.7922 C   0  0  0  0  0  0  0  0  0  0  0  0
   -1.2875   -2.6383    1.4252 O   0  0  0  0  0  0  0  0  0  0  0  0
   -1.8575   -0.8123    0.2402 N   0  0  0  0  0  0  0  0  0  0  0  0
   -2.6005   -0.3333   -0.2478 H   0  0  0  0  0  0  0  0  0  0  0  0
   -0.5675   -0.1203    0.3102 C   0  0  1  0  0  0  0  0  0  0  0  0
   -0.0639   -0.2390   -0.6498 H   0  0  0  0  0  0  0  0  0  0  0  0
   -0.8279    1.3805    0.5571 C   0  0  0  0  0  0  0  0  0  0  0  0
   -1.4272    1.4858    1.4635 H   0  0  0  0  0  0  0  0  0  0  0  0
    0.1343    1.8644    0.7386 H   0  0  0  0  0  0  0  0  0  0  0  0
   -1.5354    2.1338   -0.5843 C   0  0  0  0  0  0  0  0  0  0  0  0
   -2.4501    1.6091   -0.8603 H   0  0  0  0  0  0  0  0  0  0  0  0
   -1.8846    3.5742   -0.1986 C   0  0  0  0  0  0  0  0  0  0  0  0
   -0.9803    4.1085    0.0960 H   0  0  0  0  0  0  0  0  0  0  0  0
   -2.3377    4.0827   -1.0500 H   0  0  0  0  0  0  0  0  0  0  0  0
   -2.5918    3.5899    0.6278 H   0  0  0  0  0  0  0  0  0  0  0  0
   -0.6276    2.1803   -1.8128 C   0  0  0  0  0  0  0  0  0  0  0  0
   -0.3879    1.1655   -2.1302 H   0  0  0  0  0  0  0  0  0  0  0  0
   -1.1371    2.6890   -2.6312 H   0  0  0  0  0  0  0  0  0  0  0  0
    0.2954    2.7115   -1.5779 H   0  0  0  0  0  0  0  0  0  0  0  0
    0.3156   -0.7514    1.4001 C   0  0  0  0  0  0  0  0  0  0  0  0
    1.5212   -0.5154    1.4309 O   0  0  0  0  0  0  0  0  0  0  0  0
   -0.2831   -1.5599    2.2843 N   0  0  0  0  0  0  0  0  0  0  0  0
   -1.2770   -1.6995    2.1973 H   0  0  0  0  0  0  0  0  0  0  0  0
    0.4183   -2.2471    3.3663 C   0  0  0  0  0  0  0  0  0  0  0  0
    0.9076   -1.5147    4.0123 H   0  0  0  0  0  0  0  0  0  0  0  0
   -0.2837   -2.8363    3.9583 H   0  0  0  0  0  0  0  0  0  0  0  0
    1.1816   -2.9064    2.9502 H   0  0  0  0  0  0  0  0  0  0  0  0
  5  6  2  0  0  0  0
  5  7  1  0  0  0  0
  2  3  1  0  0  0  0
  2  4  1  0  0  0  0
  2  5  1  0  0  0  0
  1  2  1  0  0  0  0
 24 25  2  0  0  0  0
 24 26  1  0  0  0  0
 20 21  1  0  0  0  0
 20 22  1  0  0  0  0
 20 23  1  0  0  0  0
 16 17  1  0  0  0  0
 16 18  1  0  0  0  0
 16 19  1  0  0  0  0
 14 15  1  0  0  0  0
 14 16  1  0  0  0  0
 14 20  1  0  0  0  0
 11 12  1  0  0  0  0
 11 13  1  0  0  0  0
 11 14  1  0  0  0  0
  9 10  1  0  0  0  0
  9 11  1  0  0  0  0
  9 24  1  0  0  0  0
  7  8  1  0  0  0  0
  7  9  1  0  0  0  0
 28 29  1  0  0  0  0
 28 30  1  0  0  0  0
 28 31  1  0  0  0  0
 26 27  1  0  0  0  0
 26 28  1  0  0  0  0
M  END
$$$$
default_name
  -OEChem-01062215323D

 31 30  0     1  0  0  0  0  0999 V2000
   -3.5895   -3.5013    1.1082 H   0  0  0  0  0  0  0  0  0  0  0  0
   -3.5145   -2.5363    0.6082 C   0  0  0  0  0  0  0  0  0  0  0  0
   -4.2285   -1.8413    1.0452 H   0  0  0  0  0  0  0  0  0  0  0  0
   -3.7155   -2.6583   -0.4538 H   0  0  0  0  0  0  0  0  0  0  0  0
   -2.1155   -1.9963    0.7922 C   0  0  0  0  0  0  0  0  0  0  0  0
   -1.2875   -2.6383    1.4252 O   0  0  0  0  0  0  0  0  0  0  0  0
   -1.8575   -0.8123    0.2402 N   0  0  0  0  0  0  0  0  0  0  0  0
   -2.6005   -0.3333   -0.2478 H   0  0  0  0  0  0  0  0  0  0  0  0
   -0.5675   -0.1203    0.3102 C   0  0  1  0  0  0  0  0  0  0  0  0
   -0.0639   -0.2390   -0.6498 H   0  0  0  0  0  0  0  0  0  0  0  0
   -0.8279    1.3805    0.5571 C   0  0  0  0  0  0  0  0  0  0  0  0
   -1.4272    1.4858    1.4635 H   0  0  0  0  0  0  0  0  0  0  0  0
    0.1343    1.8644    0.7386 H   0  0  0  0  0  0  0  0  0  0  0  0
   -1.5354    2.1338   -0.5843 C   0  0  0  0  0  0  0  0  0  0  0  0
   -2.4501    1.6091   -0.8603 H   0  0  0  0  0  0  0  0  0  0  0  0
   -1.8846    3.5742   -0.1986 C   0  0  0  0  0  0  0  0  0  0  0  0
   -0.9803    4.1085    0.0960 H   0  0  0  0  0  0  0  0  0  0  0  0
   -2.3377    4.0827   -1.0500 H   0  0  0  0  0  0  0  0  0  0  0  0
   -2.5918    3.5899    0.6278 H   0  0  0  0  0  0  0  0  0  0  0  0
   -0.6276    2.1803   -1.8128 C   0  0  0  0  0  0  0  0  0  0  0  0
   -0.3879    1.1655   -2.1302 H   0  0  0  0  0  0  0  0  0  0  0  0
   -1.1371    2.6890   -2.6312 H   0  0  0  0  0  0  0  0  0  0  0  0
    0.2954    2.7115   -1.5779 H   0  0  0  0  0  0  0  0  0  0  0  0
    0.3156   -0.7514    1.4001 C   0  0  0  0  0  0  0  0  0  0  0  0
    1.4456   -0.3155    1.6078 O   0  0  0  0  0  0  0  0  0  0  0  0
   -0.1963   -1.7821    2.0853 N   0  0  0  0  0  0  0  0  0  0  0  0
   -1.1327   -2.0783    1.8611 H   0  0  0  0  0  0  0  0  0  0  0  0
    0.5207   -2.4983    3.1378 C   0  0  0  0  0  0  0  0  0  0  0  0
    0.7989   -1.8032    3.9332 H   0  0  0  0  0  0  0  0  0  0  0  0
   -0.1071   -3.2878    3.5539 H   0  0  0  0  0  0  0  0  0  0  0  0
    1.4312   -2.9392    2.7291 H   0  0  0  0  0  0  0  0  0  0  0  0
  5  6  2  0  0  0  0
  5  7  1  0  0  0  0
  2  3  1  0  0  0  0
  2  4  1  0  0  0  0
  2  5  1  0  0  0  0
  1  2  1  0  0  0  0
 24 25  2  0  0  0  0
 24 26  1  0  0  0  0
 20 21  1  0  0  0  0
 20 22  1  0  0  0  0
 20 23  1  0  0  0  0
 16 17  1  0  0  0  0
 16 18  1  0  0  0  0
 16 19  1  0  0  0  0
 14 15  1  0  0  0  0
 14 16  1  0  0  0  0
 14 20  1  0  0  0  0
 11 12  1  0  0  0  0
 11 13  1  0  0  0  0
 11 14  1  0  0  0  0
  9 10  1  0  0  0  0
  9 11  1  0  0  0  0
  9 24  1  0  0  0  0
  7  8  1  0  0  0  0
  7  9  1  0  0  0  0
 28 29  1  0  0  0  0
 28 30  1  0  0  0  0
 28 31  1  0  0  0  0
 26 27  1  0  0  0  0
 26 28  1  0  0  0  0
M  END
$$$$
default_name
  -OEChem-01062215323D

 31 30  0     1  0  0  0  0  0999 V2000
   -3.5895   -3.5013    1.1082 H   0  0  0  0  0  0  0  0  0  0  0  0
   -3.5145   -2.5363    0.6082 C   0  0  0  0  0  0  0  0  0  0  0  0
   -4.2285   -1.8413    1.0452 H   0  0  0  0  0  0  0  0  0  0  0  0
   -3.7155   -2.6583   -0.4538 H   0  0  0  0  0  0  0  0  0  0  0  0
   -2.1155   -1.9963    0.7922 C   0  0  0  0  0  0  0  0  0  0  0  0
   -1.2875   -2.6383    1.4252 O   0  0  0  0  0  0  0  0  0  0  0  0
   -1.8575   -0.8123    0.2402 N   0  0  0  0  0  0  0  0  0  0  0  0
   -2.6005   -0.3333   -0.2478 H   0  0  0  0  0  0  0  0  0  0  0  0
   -0.5675   -0.1203    0.3102 C   0  0  1  0  0  0  0  0  0  0  0  0
   -0.0639   -0.2390   -0.6498 H   0  0  0  0  0  0  0  0  0  0  0  0
   -0.8279    1.3805    0.5571 C   0  0  0  0  0  0  0  0  0  0  0  0
   -1.4272    1.4858    1.4635 H   0  0  0  0  0  0  0  0  0  0  0  0
    0.1343    1.8644    0.7386 H   0  0  0  0  0  0  0  0  0  0  0  0
   -1.5354    2.1338   -0.5843 C   0  0  0  0  0  0  0  0  0  0  0  0
   -2.4501    1.6091   -0.8603 H   0  0  0  0  0  0  0  0  0  0  0  0
   -1.8846    3.5742   -0.1986 C   0  0  0  0  0  0  0  0  0  0  0  0
   -0.9803    4.1085    0.0960 H   0  0  0  0  0  0  0  0  0  0  0  0
   -2.3377    4.0827   -1.0500 H   0  0  0  0  0  0  0  0  0  0  0  0
   -2.5918    3.5899    0.6278 H   0  0  0  0  0  0  0  0  0  0  0  0
   -0.6276    2.1803   -1.8128 C   0  0  0  0  0  0  0  0  0  0  0  0
   -0.3879    1.1655   -2.1302 H   0  0  0  0  0  0  0  0  0  0  0  0
   -1.1371    2.6890   -2.6312 H   0  0  0  0  0  0  0  0  0  0  0  0
    0.2954    2.7115   -1.5779 H   0  0  0  0  0  0  0  0  0  0  0  0
    0.3156   -0.7514    1.4001 C   0  0  0  0  0  0  0  0  0  0  0  0
    1.3172   -0.1626    1.8004 O   0  0  0  0  0  0  0  0  0  0  0  0
   -0.0506   -1.9512    1.8693 N   0  0  0  0  0  0  0  0  0  0  0  0
   -0.8882   -2.3677    1.4953 H   0  0  0  0  0  0  0  0  0  0  0  0
    0.6899   -2.6883    2.8907 C   0  0  0  0  0  0  0  0  0  0  0  0
    0.7553   -2.0901    3.8024 H   0  0  0  0  0  0  0  0  0  0  0  0
    0.1891   -3.6314    3.1149 H   0  0  0  0  0  0  0  0  0  0  0  0
    1.7018   -2.8922    2.5371 H   0  0  0  0  0  0  0  0  0  0  0  0
  5  6  2  0  0  0  0
  5  7  1  0  0  0  0
  2  3  1  0  0  0  0
  2  4  1  0  0  0  0
  2  5  1  0  0  0  0
  1  2  1  0  0  0  0
 24 25  2  0  0  0  0
 24 26  1  0  0  0  0
 20 21  1  0  0  0  0
 20 22  1  0  0  0  0
 20 23  1  0  0  0  0
 16 17  1  0  0  0  0
 16 18  1  0  0  0  0
 16 19  1  0  0  0  0
 14 15  1  0  0  0  0
 14 16  1  0  0  0  0
 14 20  1  0  0  0  0
 11 12  1  0  0  0  0
 11 13  1  0  0  0  0
 11 14  1  0  0  0  0
  9 10  1  0  0  0  0
  9 11  1  0  0  0  0
  9 24  1  0  0  0  0
  7  8  1  0  0  0  0
  7  9  1  0  0  0  0
 28 29  1  0  0  0  0
 28 30  1  0  0  0  0
 28 31  1  0  0  0  0
 26 27  1  0  0  0  0
 26 28  1  0  0  0  0
M  END
$$$$
default_name
  -OEChem-01062215323D

 31 30  0     1  0  0  0  0  0999 V2000
   -3.5895   -3.5013    1.1082 H   0  0  0  0  0  0  0  0  0  0  0  0
   -3.5145   -2.5363    0.6082 C   0  0  0  0  0  0  0  0  0  0  0  0
   -4.2285   -1.8413    1.0452 H   0  0  0  0  0  0  0  0  0  0  0  0
   -3.7155   -2.6583   -0.4538 H   0  0  0  0  0  0  0  0  0  0  0  0
   -2.1155   -1.9963    0.7922 C   0  0  0  0  0  0  0  0  0  0  0  0
   -1.2875   -2.6383    1.4252 O   0  0  0  0  0  0  0  0  0  0  0  0
   -1.8575   -0.8123    0.2402 N   0  0  0  0  0  0  0  0  0  0  0  0
   -2.6005   -0.3333   -0.2478 H   0  0  0  0  0  0  0  0  0  0  0  0
   -0.5675   -0.1203    0.3102 C   0  0  1  0  0  0  0  0  0  0  0  0
   -0.0639   -0.2390   -0.6498 H   0  0  0  0  0  0  0  0  0  0  0  0
   -0.8279    1.3805    0.5571 C   0  0  0  0  0  0  0  0  0  0  0  0
   -1.4272    1.4858    1.4635 H   0  0  0  0  0  0  0  0  0  0  0  0
    0.1343    1.8644    0.7386 H   0  0  0  0  0  0  0  0  0  0  0  0
   -1.5354    2.1338   -0.5843 C   0  0  0  0  0  0  0  0  0  0  0  0
   -2.4501    1.6091   -0.8603 H   0  0  0  0  0  0  0  0  0  0  0  0
   -1.8846    3.5742   -0.1986 C   0  0  0  0  0  0  0  0  0  0  0  0
   -0.9803    4.1085    0.0960 H   0  0  0  0  0  0  0  0  0  0  0  0
   -2.3377    4.0827   -1.0500 H   0  0  0  0  0  0  0  0  0  0  0  0
   -2.5918    3.5899    0.6278 H   0  0  0  0  0  0  0  0  0  0  0  0
   -0.6276    2.1803   -1.8128 C   0  0  0  0  0  0  0  0  0  0  0  0
   -0.3879    1.1655   -2.1302 H   0  0  0  0  0  0  0  0  0  0  0  0
   -1.1371    2.6890   -2.6312 H   0  0  0  0  0  0  0  0  0  0  0  0
    0.2954    2.7115   -1.5779 H   0  0  0  0  0  0  0  0  0  0  0  0
    0.3156   -0.7514    1.4001 C   0  0  0  0  0  0  0  0  0  0  0  0
    1.1446   -0.0671    1.9955 O   0  0  0  0  0  0  0  0  0  0  0  0
    0.1441   -2.0558    1.6510 N   0  0  0  0  0  0  0  0  0  0  0  0
   -0.5601   -2.5481    1.1251 H   0  0  0  0  0  0  0  0  0  0  0  0
    0.9144   -2.8040    2.6418 C   0  0  0  0  0  0  0  0  0  0  0  0
    0.7797   -2.3558    3.6288 H   0  0  0  0  0  0  0  0  0  0  0  0
    0.5849   -3.8437    2.6712 H   0  0  0  0  0  0  0  0  0  0  0  0
    1.9749   -2.7686    2.3873 H   0  0  0  0  0  0  0  0  0  0  0  0
  5  6  2  0  0  0  0
  5  7  1  0  0  0  0
  2  3  1  0  0  0  0
  2  4  1  0  0  0  0
  2  5  1  0  0  0  0
  1  2  1  0  0  0  0
 24 25  2  0  0  0  0
 24 26  1  0  0  0  0
 20 21  1  0  0  0  0
 20 22  1  0  0  0  0
 20 23  1  0  0  0  0
 16 17  1  0  0  0  0
 16 18  1  0  0  0  0
 16 19  1  0  0  0  0
 14 15  1  0  0  0  0
 14 16  1  0  0  0  0
 14 20  1  0  0  0  0
 11 12  1  0  0  0  0
 11 13  1  0  0  0  0
 11 14  1  0  0  0  0
  9 10  1  0  0  0  0
  9 11  1  0  0  0  0
  9 24  1  0  0  0  0
  7  8  1  0  0  0  0
  7  9  1  0  0  0  0
 28 29  1  0  0  0  0
 28 30  1  0  0  0  0
 28 31  1  0  0  0  0
 26 27  1  0  0  0  0
 26 28  1  0  0  0  0
M  END
$$$$
default_name
  -OEChem-01062215323D

 31 30  0     1  0  0  0  0  0999 V2000
   -3.5895   -3.5013    1.1082 H   0  0  0  0  0  0  0  0  0  0  0  0
   -3.5145   -2.5363    0.6082 C   0  0  0  0  0  0  0  0  0  0  0  0
   -4.2285   -1.8413    1.0452 H   0  0  0  0  0  0  0  0  0  0  0  0
   -3.7155   -2.6583   -0.4538 H   0  0  0  0  0  0  0  0  0  0  0  0
   -2.1155   -1.9963    0.7922 C   0  0  0  0  0  0  0  0  0  0  0  0
   -1.2875   -2.6383    1.4252 O   0  0  0  0  0  0  0  0  0  0  0  0
   -1.8575   -0.8123    0.2402 N   0  0  0  0  0  0  0  0  0  0  0  0
   -2.6005   -0.3333   -0.2478 H   0  0  0  0  0  0  0  0  0  0  0  0
   -0.5675   -0.1203    0.3102 C   0  0  1  0  0  0  0  0  0  0  0  0
   -0.0639   -0.2390   -0.6498 H   0  0  0  0  0  0  0  0  0  0  0  0
   -0.8279    1.3805    0.5571 C   0  0  0  0  0  0  0  0  0  0  0  0
   -1.4272    1.4858    1.4635 H   0  0  0  0  0  0  0  0  0  0  0  0
    0.1343    1.8644    0.7386 H   0  0  0  0  0  0  0  0  0  0  0  0
   -1.5354    2.1338   -0.5843 C   0  0  0  0  0  0  0  0  0  0  0  0
   -2.4501    1.6091   -0.8603 H   0  0  0  0  0  0  0  0  0  0  0  0
   -1.8846    3.5742   -0.1986 C   0  0  0  0  0  0  0  0  0  0  0  0
   -0.9803    4.1085    0.0960 H   0  0  0  0  0  0  0  0  0  0  0  0
   -2.3377    4.0827   -1.0500 H   0  0  0  0  0  0  0  0  0  0  0  0
   -2.5918    3.5899    0.6278 H   0  0  0  0  0  0  0  0  0  0  0  0
   -0.6276    2.1803   -1.8128 C   0  0  0  0  0  0  0  0  0  0  0  0
   -0.3879    1.1655   -2.1302 H   0  0  0  0  0  0  0  0  0  0  0  0
   -1.1371    2.6890   -2.6312 H   0  0  0  0  0  0  0  0  0  0  0  0
    0.2954    2.7115   -1.5779 H   0  0  0  0  0  0  0  0  0  0  0  0
    0.3156   -0.7514    1.4001 C   0  0  0  0  0  0  0  0  0  0  0  0
    0.9397   -0.0355    2.1799 O   0  0  0  0  0  0  0  0  0  0  0  0
    0.3745   -2.0887    1.4453 N   0  0  0  0  0  0  0  0  0  0  0  0
   -0.1708   -2.6072    0.7754 H   0  0  0  0  0  0  0  0  0  0  0  0
    1.1790   -2.8376    2.4080 C   0  0  0  0  0  0  0  0  0  0  0  0
    0.8704   -2.5822    3.4242 H   0  0  0  0  0  0  0  0  0  0  0  0
    1.0533   -3.9103    2.2532 H   0  0  0  0  0  0  0  0  0  0  0  0
    2.2320   -2.5770    2.2901 H   0  0  0  0  0  0  0  0  0  0  0  0
  5  6  2  0  0  0  0
  5  7  1  0  0  0  0
  2  3  1  0  0  0  0
  2  4  1  0  0  0  0
  2  5  1  0  0  0  0
  1  2  1  0  0  0  0
 24 25  2  0  0  0  0
 24 26  1  0  0  0  0
 20 21  1  0  0  0  0
 20 22  1  0  0  0  0
 20 23  1  0  0  0  0
 16 17  1  0  0  0  0
 16 18  1  0  0  0  0
 16 19  1  0  0  0  0
 14 15  1  0  0  0  0
 14 16  1  0  0  0  0
 14 20  1  0  0  0  0
 11 12  1  0  0  0  0
 11 13  1  0  0  0  0
 11 14  1  0  0  0  0
  9 10  1  0  0  0  0
  9 11  1  0  0  0  0
  9 24  1  0  0  0  0
  7  8  1  0  0  0  0
  7  9  1  0  0  0  0
 28 29  1  0  0  0  0
 28 30  1  0  0  0  0
 28 31  1  0  0  0  0
 26 27  1  0  0  0  0
 26 28  1  0  0  0  0
M  END
$$$$
default_name
  -OEChem-01062215323D

 31 30  0     1  0  0  0  0  0999 V2000
   -3.5895   -3.5013    1.1082 H   0  0  0  0  0  0  0  0  0  0  0  0
   -3.5145   -2.5363    0.6082 C   0  0  0  0  0  0  0  0  0  0  0  0
   -4.2285   -1.8413    1.0452 H   0  0  0  0  0  0  0  0  0  0  0  0
   -3.7155   -2.6583   -0.4538 H   0  0  0  0  0  0  0  0  0  0  0  0
   -2.1155   -1.9963    0.7922 C   0  0  0  0  0  0  0  0  0  0  0  0
   -1.2875   -2.6383    1.4252 O   0  0  0  0  0  0  0  0  0  0  0  0
   -1.8575   -0.8123    0.2402 N   0  0  0  0  0  0  0  0  0  0  0  0
   -2.6005   -0.3333   -0.2478 H   0  0  0  0  0  0  0  0  0  0  0  0
   -0.5675   -0.1203    0.3102 C   0  0  1  0  0  0  0  0  0  0  0  0
   -0.0639   -0.2390   -0.6498 H   0  0  0  0  0  0  0  0  0  0  0  0
   -0.8279    1.3805    0.5571 C   0  0  0  0  0  0  0  0  0  0  0  0
   -1.4272    1.4858    1.4635 H   0  0  0  0  0  0  0  0  0  0  0  0
    0.1343    1.8644    0.7386 H   0  0  0  0  0  0  0  0  0  0  0  0
   -1.5354    2.1338   -0.5843 C   0  0  0  0  0  0  0  0  0  0  0  0
   -2.4501    1.6091   -0.8603 H   0  0  0  0  0  0  0  0  0  0  0  0
   -1.8846    3.5742   -0.1986 C   0  0  0  0  0  0  0  0  0  0  0  0
   -0.9803    4.1085    0.0960 H   0  0  0  0  0  0  0  0  0  0  0  0
   -2.3377    4.0827   -1.0500 H   0  0  0  0  0  0  0  0  0  0  0  0
   -2.5918    3.5899    0.6278 H   0  0  0  0  0  0  0  0  0  0  0  0
   -0.6276    2.1803   -1.8128 C   0  0  0  0  0  0  0  0  0  0  0  0
   -0.3879    1.1655   -2.1302 H   0  0  0  0  0  0  0  0  0  0  0  0
   -1.1371    2.6890   -2.6312 H   0  0  0  0  0  0  0  0  0  0  0  0
    0.2954    2.7115   -1.5779 H   0  0  0  0  0  0  0  0  0  0  0  0
    0.3156   -0.7514    1.4001 C   0  0  0  0  0  0  0  0  0  0  0  0
    0.7164   -0.0699    2.3408 O   0  0  0  0  0  0  0  0  0  0  0  0
    0.6250   -2.0476    1.2662 N   0  0  0  0  0  0  0  0  0  0  0  0
    0.2532   -2.5409    0.4703 H   0  0  0  0  0  0  0  0  0  0  0  0
    1.4655   -2.7868    2.2052 C   0  0  0  0  0  0  0  0  0  0  0  0
    1.0213   -2.7538    3.2026 H   0  0  0  0  0  0  0  0  0  0  0  0
    1.5624   -3.8266    1.8892 H   0  0  0  0  0  0  0  0  0  0  0  0
    2.4554   -2.3302    2.2519 H   0  0  0  0  0  0  0  0  0  0  0  0
  5  6  2  0  0  0  0
  5  7  1  0  0  0  0
  2  3  1  0  0  0  0
  2  4  1  0  0  0  0
  2  5  1  0  0  0  0
  1  2  1  0  0  0  0
 24 25  2  0  0  0  0
 24 26  1  0  0  0  0
 20 21  1  0  0  0  0
 20 22  1  0  0  0  0
 20 23  1  0  0  0  0
 16 17  1  0  0  0  0
 16 18  1  0  0  0  0
 16 19  1  0  0  0  0
 14 15  1  0  0  0  0
 14 16  1  0  0  0  0
 14 20  1  0  0  0  0
 11 12  1  0  0  0  0
 11 13  1  0  0  0  0
 11 14  1  0  0  0  0
  9 10  1  0  0  0  0
  9 11  1  0  0  0  0
  9 24  1  0  0  0  0
  7  8  1  0  0  0  0
  7  9  1  0  0  0  0
 28 29  1  0  0  0  0
 28 30  1  0  0  0  0
 28 31  1  0  0  0  0
 26 27  1  0  0  0  0
 26 28  1  0  0  0  0
M  END
$$$$
default_name
  -OEChem-01062215323D

 31 30  0     1  0  0  0  0  0999 V2000
   -3.5895   -3.5013    1.1082 H   0  0  0  0  0  0  0  0  0  0  0  0
   -3.5145   -2.5363    0.6082 C   0  0  0  0  0  0  0  0  0  0  0  0
   -4.2285   -1.8413    1.0452 H   0  0  0  0  0  0  0  0  0  0  0  0
   -3.7155   -2.6583   -0.4538 H   0  0  0  0  0  0  0  0  0  0  0  0
   -2.1155   -1.9963    0.7922 C   0  0  0  0  0  0  0  0  0  0  0  0
   -1.2875   -2.6383    1.4252 O   0  0  0  0  0  0  0  0  0  0  0  0
   -1.8575   -0.8123    0.2402 N   0  0  0  0  0  0  0  0  0  0  0  0
   -2.6005   -0.3333   -0.2478 H   0  0  0  0  0  0  0  0  0  0  0  0
   -0.5675   -0.1203    0.3102 C   0  0  1  0  0  0  0  0  0  0  0  0
   -0.0639   -0.2390   -0.6498 H   0  0  0  0  0  0  0  0  0  0  0  0
   -0.8279    1.3805    0.5571 C   0  0  0  0  0  0  0  0  0  0  0  0
   -1.4272    1.4858    1.4635 H   0  0  0  0  0  0  0  0  0  0  0  0
    0.1343    1.8644    0.7386 H   0  0  0  0  0  0  0  0  0  0  0  0
   -1.5354    2.1338   -0.5843 C   0  0  0  0  0  0  0  0  0  0  0  0
   -2.4501    1.6091   -0.8603 H   0  0  0  0  0  0  0  0  0  0  0  0
   -1.8846    3.5742   -0.1986 C   0  0  0  0  0  0  0  0  0  0  0  0
   -0.9803    4.1085    0.0960 H   0  0  0  0  0  0  0  0  0  0  0  0
   -2.3377    4.0827   -1.0500 H   0  0  0  0  0  0  0  0  0  0  0  0
   -2.5918    3.5899    0.6278 H   0  0  0  0  0  0  0  0  0  0  0  0
   -0.6276    2.1803   -1.8128 C   0  0  0  0  0  0  0  0  0  0  0  0
   -0.3879    1.1655   -2.1302 H   0  0  0  0  0  0  0  0  0  0  0  0
   -1.1371    2.6890   -2.6312 H   0  0  0  0  0  0  0  0  0  0  0  0
    0.2954    2.7115   -1.5779 H   0  0  0  0  0  0  0  0  0  0  0  0
    0.3156   -0.7514    1.4001 C   0  0  0  0  0  0  0  0  0  0  0  0
    0.4899   -0.1681    2.4675 O   0  0  0  0  0  0  0  0  0  0  0  0
    0.8784   -1.9354    1.1258 N   0  0  0  0  0  0  0  0  0  0  0  0
    0.6830   -2.3538    0.2304 H   0  0  0  0  0  0  0  0  0  0  0  0
    1.7545   -2.6551    2.0474 C   0  0  0  0  0  0  0  0  0  0  0  0
    1.2220   -2.8590    2.9790 H   0  0  0  0  0  0  0  0  0  0  0  0
    2.0773   -3.5984    1.6041 H   0  0  0  0  0  0  0  0  0  0  0  0
    2.6301   -2.0452    2.2754 H   0  0  0  0  0  0  0  0  0  0  0  0
  5  6  2  0  0  0  0
  5  7  1  0  0  0  0
  2  3  1  0  0  0  0
  2  4  1  0  0  0  0
  2  5  1  0  0  0  0
  1  2  1  0  0  0  0
 24 25  2  0  0  0  0
 24 26  1  0  0  0  0
 20 21  1  0  0  0  0
 20 22  1  0  0  0  0
 20 23  1  0  0  0  0
 16 17  1  0  0  0  0
 16 18  1  0  0  0  0
 16 19  1  0  0  0  0
 14 15  1  0  0  0  0
 14 16  1  0  0  0  0
 14 20  1  0  0  0  0
 11 12  1  0  0  0  0
 11 13  1  0  0  0  0
 11 14  1  0  0  0  0
  9 10  1  0  0  0  0
  9 11  1  0  0  0  0
  9 24  1  0  0  0  0
  7  8  1  0  0  0  0
  7  9  1  0  0  0  0
 28 29  1  0  0  0  0
 28 30  1  0  0  0  0
 28 31  1  0  0  0  0
 26 27  1  0  0  0  0
 26 28  1  0  0  0  0
M  END
$$$$
default_name
  -OEChem-01062215323D

 31 30  0     1  0  0  0  0  0999 V2000
   -3.5895   -3.5013    1.1082 H   0  0  0  0  0  0  0  0  0  0  0  0
   -3.5145   -2.5363    0.6082 C   0  0  0  0  0  0  0  0  0  0  0  0
   -4.2285   -1.8413    1.0452 H   0  0  0  0  0  0  0  0  0  0  0  0
   -3.7155   -2.6583   -0.4538 H   0  0  0  0  0  0  0  0  0  0  0  0
   -2.1155   -1.9963    0.7922 C   0  0  0  0  0  0  0  0  0  0  0  0
   -1.2875   -2.6383    1.4252 O   0  0  0  0  0  0  0  0  0  0  0  0
   -1.8575   -0.8123    0.2402 N   0  0  0  0  0  0  0  0  0  0  0  0
   -2.6005   -0.3333   -0.2478 H   0  0  0  0  0  0  0  0  0  0  0  0
   -0.5675   -0.1203    0.3102 C   0  0  1  0  0  0  0  0  0  0  0  0
   -0.0639   -0.2390   -0.6498 H   0  0  0  0  0  0  0  0  0  0  0  0
   -0.8279    1.3805    0.5571 C   0  0  0  0  0  0  0  0  0  0  0  0
   -1.4272    1.4858    1.4635 H   0  0  0  0  0  0  0  0  0  0  0  0
    0.1343    1.8644    0.7386 H   0  0  0  0  0  0  0  0  0  0  0  0
   -1.5354    2.1338   -0.5843 C   0  0  0  0  0  0  0  0  0  0  0  0
   -2.4501    1.6091   -0.8603 H   0  0  0  0  0  0  0  0  0  0  0  0
   -1.8846    3.5742   -0.1986 C   0  0  0  0  0  0  0  0  0  0  0  0
   -0.9803    4.1085    0.0960 H   0  0  0  0  0  0  0  0  0  0  0  0
   -2.3377    4.0827   -1.0500 H   0  0  0  0  0  0  0  0  0  0  0  0
   -2.5918    3.5899    0.6278 H   0  0  0  0  0  0  0  0  0  0  0  0
   -0.6276    2.1803   -1.8128 C   0  0  0  0  0  0  0  0  0  0  0  0
   -0.3879    1.1655   -2.1302 H   0  0  0  0  0  0  0  0  0  0  0  0
   -1.1371    2.6890   -2.6312 H   0  0  0  0  0  0  0  0  0  0  0  0
    0.2954    2.7115   -1.5779 H   0  0  0  0  0  0  0  0  0  0  0  0
    0.3156   -0.7514    1.4001 C   0  0  0  0  0  0  0  0  0  0  0  0
    0.2757   -0.3232    2.5512 O   0  0  0  0  0  0  0  0  0  0  0  0
    1.1175   -1.7597    1.0339 N   0  0  0  0  0  0  0  0  0  0  0  0
    1.0893   -2.0586    0.0722 H   0  0  0  0  0  0  0  0  0  0  0  0
    2.0263   -2.4514    1.9452 C   0  0  0  0  0  0  0  0  0  0  0  0
    1.4589   -2.8906    2.7688 H   0  0  0  0  0  0  0  0  0  0  0  0
    2.5632   -3.2411    1.4174 H   0  0  0  0  0  0  0  0  0  0  0  0
    2.7440   -1.7414    2.3590 H   0  0  0  0  0  0  0  0  0  0  0  0
  5  6  2  0  0  0  0
  5  7  1  0  0  0  0
  2  3  1  0  0  0  0
  2  4  1  0  0  0  0
  2  5  1  0  0  0  0
  1  2  1  0  0  0  0
 24 25  2  0  0  0  0
 24 26  1  0  0  0  0
 20 21  1  0  0  0  0
 20 22  1  0  0  0  0
 20 23  1  0  0  0  0
 16 17  1  0  0  0  0
 16 18  1  0  0  0  0
 16 19  1  0  0  0  0
 14 15  1  0  0  0  0
 14 16  1  0  0  0  0
 14 20  1  0  0  0  0
 11 12  1  0  0  0  0
 11 13  1  0  0  0  0
 11 14  1  0  0  0  0
  9 10  1  0  0  0  0
  9 11  1  0  0  0  0
  9 24  1  0  0  0  0
  7  8  1  0  0  0  0
  7  9  1  0  0  0  0
 28 29  1  0  0  0  0
 28 30  1  0  0  0  0
 28 31  1  0  0  0  0
 26 27  1  0  0  0  0
 26 28  1  0  0  0  0
M  END
$$$$
default_name
  -OEChem-01062215323D

 31 30  0     1  0  0  0  0  0999 V2000
   -3.5895   -3.5013    1.1082 H   0  0  0  0  0  0  0  0  0  0  0  0
   -3.5145   -2.5363    0.6082 C   0  0  0  0  0  0  0  0  0  0  0  0
   -4.2285   -1.8413    1.0452 H   0  0  0  0  0  0  0  0  0  0  0  0
   -3.7155   -2.6583   -0.4538 H   0  0  0  0  0  0  0  0  0  0  0  0
   -2.1155   -1.9963    0.7922 C   0  0  0  0  0  0  0  0  0  0  0  0
   -1.2875   -2.6383    1.4252 O   0  0  0  0  0  0  0  0  0  0  0  0
   -1.8575   -0.8123    0.2402 N   0  0  0  0  0  0  0  0  0  0  0  0
   -2.6005   -0.3333   -0.2478 H   0  0  0  0  0  0  0  0  0  0  0  0
   -0.5675   -0.1203    0.3102 C   0  0  1  0  0  0  0  0  0  0  0  0
   -0.0639   -0.2390   -0.6498 H   0  0  0  0  0  0  0  0  0  0  0  0
   -0.8279    1.3805    0.5571 C   0  0  0  0  0  0  0  0  0  0  0  0
   -1.4272    1.4858    1.4635 H   0  0  0  0  0  0  0  0  0  0  0  0
    0.1343    1.8644    0.7386 H   0  0  0  0  0  0  0  0  0  0  0  0
   -1.5354    2.1338   -0.5843 C   0  0  0  0  0  0  0  0  0  0  0  0
   -2.4501    1.6091   -0.8603 H   0  0  0  0  0  0  0  0  0  0  0  0
   -1.8846    3.5742   -0.1986 C   0  0  0  0  0  0  0  0  0  0  0  0
   -0.9803    4.1085    0.0960 H   0  0  0  0  0  0  0  0  0  0  0  0
   -2.3377    4.0827   -1.0500 H   0  0  0  0  0  0  0  0  0  0  0  0
   -2.5918    3.5899    0.6278 H   0  0  0  0  0  0  0  0  0  0  0  0
   -0.6276    2.1803   -1.8128 C   0  0  0  0  0  0  0  0  0  0  0  0
   -0.3879    1.1655   -2.1302 H   0  0  0  0  0  0  0  0  0  0  0  0
   -1.1371    2.6890   -2.6312 H   0  0  0  0  0  0  0  0  0  0  0  0
    0.2954    2.7115   -1.5779 H   0  0  0  0  0  0  0  0  0  0  0  0
    0.3156   -0.7514    1.4001 C   0  0  0  0  0  0  0  0  0  0  0  0
    0.0883   -0.5248    2.5863 O   0  0  0  0  0  0  0  0  0  0  0  0
    1.3260   -1.5325    0.9965 N   0  0  0  0  0  0  0  0  0  0  0  0
    1.4445   -1.6754    0.0063 H   0  0  0  0  0  0  0  0  0  0  0  0
    2.2623   -2.1896    1.9056 C   0  0  0  0  0  0  0  0  0  0  0  0
    1.7159   -2.8464    2.5862 H   0  0  0  0  0  0  0  0  0  0  0  0
    2.9868   -2.7791    1.3417 H   0  0  0  0  0  0  0  0  0  0  0  0
    2.7895   -1.4395    2.4970 H   0  0  0  0  0  0  0  0  0  0  0  0
  5  6  2  0  0  0  0
  5  7  1  0  0  0  0
  2  3  1  0  0  0  0
  2  4  1  0  0  0  0
  2  5  1  0  0  0  0
  1  2  1  0  0  0  0
 24 25  2  0  0  0  0
 24 26  1  0  0  0  0
 20 21  1  0  0  0  0
 20 22  1  0  0  0  0
 20 23  1  0  0  0  0
 16 17  1  0  0  0  0
 16 18  1  0  0  0  0
 16 19  1  0  0  0  0
 14 15  1  0  0  0  0
 14 16  1  0  0  0  0
 14 20  1  0  0  0  0
 11 12  1  0  0  0  0
 11 13  1  0  0  0  0
 11 14  1  0  0  0  0
  9 10  1  0  0  0  0
  9 11  1  0  0  0  0
  9 24  1  0  0  0  0
  7  8  1  0  0  0  0
  7  9  1  0  0  0  0
 28 29  1  0  0  0  0
 28 30  1  0  0  0  0
 28 31  1  0  0  0  0
 26 27  1  0  0  0  0
 26 28  1  0  0  0  0
M  END
$$$$
default_name
  -OEChem-01062215323D

 31 30  0     1  0  0  0  0  0999 V2000
   -3.5895   -3.5013    1.1082 H   0  0  0  0  0  0  0  0  0  0  0  0
   -3.5145   -2.5363    0.6082 C   0  0  0  0  0  0  0  0  0  0  0  0
   -4.2285   -1.8413    1.0452 H   0  0  0  0  0  0  0  0  0  0  0  0
   -3.7155   -2.6583   -0.4538 H   0  0  0  0  0  0  0  0  0  0  0  0
   -2.1155   -1.9963    0.7922 C   0  0  0  0  0  0  0  0  0  0  0  0
   -1.2875   -2.6383    1.4252 O   0  0  0  0  0  0  0  0  0  0  0  0
   -1.8575   -0.8123    0.2402 N   0  0  0  0  0  0  0  0  0  0  0  0
   -2.6005   -0.3333   -0.2478 H   0  0  0  0  0  0  0  0  0  0  0  0
   -0.5675   -0.1203    0.3102 C   0  0  1  0  0  0  0  0  0  0  0  0
   -0.0639   -0.2390   -0.6498 H   0  0  0  0  0  0  0  0  0  0  0  0
   -0.8279    1.3805    0.5571 C   0  0  0  0  0  0  0  0  0  0  0  0
   -1.4272    1.4858    1.4635 H   0  0  0  0  0  0  0  0  0  0  0  0
    0.1343    1.8644    0.7386 H   0  0  0  0  0  0  0  0  0  0  0  0
   -1.5354    2.1338   -0.5843 C   0  0  0  0  0  0  0  0  0  0  0  0
   -2.4501    1.6091   -0.8603 H   0  0  0  0  0  0  0  0  0  0  0  0
   -1.8846    3.5742   -0.1986 C   0  0  0  0  0  0  0  0  0  0  0  0
   -0.9803    4.1085    0.0960 H   0  0  0  0  0  0  0  0  0  0  0  0
   -2.3377    4.0827   -1.0500 H   0  0  0  0  0  0  0  0  0  0  0  0
   -2.5918    3.5899    0.6278 H   0  0  0  0  0  0  0  0  0  0  0  0
   -0.6276    2.1803   -1.8128 C   0  0  0  0  0  0  0  0  0  0  0  0
   -0.3879    1.1655   -2.1302 H   0  0  0  0  0  0  0  0  0  0  0  0
   -1.1371    2.6890   -2.6312 H   0  0  0  0  0  0  0  0  0  0  0  0
    0.2954    2.7115   -1.5779 H   0  0  0  0  0  0  0  0  0  0  0  0
    0.3156   -0.7514    1.4001 C   0  0  0  0  0  0  0  0  0  0  0  0
   -0.0594   -0.7591    2.5703 O   0  0  0  0  0  0  0  0  0  0  0  0
    1.4897   -1.2692    1.0164 N   0  0  0  0  0  0  0  0  0  0  0  0
    1.7243   -1.2303    0.0374 H   0  0  0  0  0  0  0  0  0  0  0  0
    2.4464   -1.8876    1.9313 C   0  0  0  0  0  0  0  0  0  0  0  0
    1.9754   -2.7295    2.4437 H   0  0  0  0  0  0  0  0  0  0  0  0
    3.3193   -2.2440    1.3822 H   0  0  0  0  0  0  0  0  0  0  0  0
    2.7634   -1.1600    2.6800 H   0  0  0  0  0  0  0  0  0  0  0  0
  5  6  2  0  0  0  0
  5  7  1  0  0  0  0
  2  3  1  0  0  0  0
  2  4  1  0  0  0  0
  2  5  1  0  0  0  0
  1  2  1  0  0  0  0
 24 25  2  0  0  0  0
 24 26  1  0  0  0  0
 20 21  1  0  0  0  0
 20 22  1  0  0  0  0
 20 23  1  0  0  0  0
 16 17  1  0  0  0  0
 16 18  1  0  0  0  0
 16 19  1  0  0  0  0
 14 15  1  0  0  0  0
 14 16  1  0  0  0  0
 14 20  1  0  0  0  0
 11 12  1  0  0  0  0
 11 13  1  0  0  0  0
 11 14  1  0  0  0  0
  9 10  1  0  0  0  0
  9 11  1  0  0  0  0
  9 24  1  0  0  0  0
  7  8  1  0  0  0  0
  7  9  1  0  0  0  0
 28 29  1  0  0  0  0
 28 30  1  0  0  0  0
 28 31  1  0  0  0  0
 26 27  1  0  0  0  0
 26 28  1  0  0  0  0
M  END
$$$$
default_name
  -OEChem-01062215323D

 31 30  0     1  0  0  0  0  0999 V2000
   -3.5895   -3.5013    1.1082 H   0  0  0  0  0  0  0  0  0  0  0  0
   -3.5145   -2.5363    0.6082 C   0  0  0  0  0  0  0  0  0  0  0  0
   -4.2285   -1.8413    1.0452 H   0  0  0  0  0  0  0  0  0  0  0  0
   -3.7155   -2.6583   -0.4538 H   0  0  0  0  0  0  0  0  0  0  0  0
   -2.1155   -1.9963    0.7922 C   0  0  0  0  0  0  0  0  0  0  0  0
   -1.2875   -2.6383    1.4252 O   0  0  0  0  0  0  0  0  0  0  0  0
   -1.8575   -0.8123    0.2402 N   0  0  0  0  0  0  0  0  0  0  0  0
   -2.6005   -0.3333   -0.2478 H   0  0  0  0  0  0  0  0  0  0  0  0
   -0.5675   -0.1203    0.3102 C   0  0  1  0  0  0  0  0  0  0  0  0
   -0.0639   -0.2390   -0.6498 H   0  0  0  0  0  0  0  0  0  0  0  0
   -0.8279    1.3805    0.5571 C   0  0  0  0  0  0  0  0  0  0  0  0
   -1.4272    1.4858    1.4635 H   0  0  0  0  0  0  0  0  0  0  0  0
    0.1343    1.8644    0.7386 H   0  0  0  0  0  0  0  0  0  0  0  0
   -1.5354    2.1338   -0.5843 C   0  0  0  0  0  0  0  0  0  0  0  0
   -2.4501    1.6091   -0.8603 H   0  0  0  0  0  0  0  0  0  0  0  0
   -1.8846    3.5742   -0.1986 C   0  0  0  0  0  0  0  0  0  0  0  0
   -0.9803    4.1085    0.0960 H   0  0  0  0  0  0  0  0  0  0  0  0
   -2.3377    4.0827   -1.0500 H   0  0  0  0  0  0  0  0  0  0  0  0
   -2.5918    3.5899    0.6278 H   0  0  0  0  0  0  0  0  0  0  0  0
   -0.6276    2.1803   -1.8128 C   0  0  0  0  0  0  0  0  0  0  0  0
   -0.3879    1.1655   -2.1302 H   0  0  0  0  0  0  0  0  0  0  0  0
   -1.1371    2.6890   -2.6312 H   0  0  0  0  0  0  0  0  0  0  0  0
    0.2954    2.7115   -1.5779 H   0  0  0  0  0  0  0  0  0  0  0  0
    0.3156   -0.7514    1.4001 C   0  0  0  0  0  0  0  0  0  0  0  0
   -0.1574   -1.0101    2.5044 O   0  0  0  0  0  0  0  0  0  0  0  0
    1.5974   -0.9878    1.0921 N   0  0  0  0  0  0  0  0  0  0  0  0
    1.9096   -0.7538    0.1632 H   0  0  0  0  0  0  0  0  0  0  0  0
    2.5662   -1.5660    2.0205 C   0  0  0  0  0  0  0  0  0  0  0  0
    2.2197   -2.5478    2.3509 H   0  0  0  0  0  0  0  0  0  0  0  0
    3.5381   -1.6721    1.5362 H   0  0  0  0  0  0  0  0  0  0  0  0
    2.6675   -0.9220    2.8955 H   0  0  0  0  0  0  0  0  0  0  0  0
  5  6  2  0  0  0  0
  5  7  1  0  0  0  0
  2  3  1  0  0  0  0
  2  4  1  0  0  0  0
  2  5  1  0  0  0  0
  1  2  1  0  0  0  0
 24 25  2  0  0  0  0
 24 26  1  0  0  0  0
 20 21  1  0  0  0  0
 20 22  1  0  0  0  0
 20 23  1  0  0  0  0
 16 17  1  0  0  0  0
 16 18  1  0  0  0  0
 16 19  1  0  0  0  0
 14 15  1  0  0  0  0
 14 16  1  0  0  0  0
 14 20  1  0  0  0  0
 11 12  1  0  0  0  0
 11 13  1  0  0  0  0
 11 14  1  0  0  0  0
  9 10  1  0  0  0  0
  9 11  1  0  0  0  0
  9 24  1  0  0  0  0
  7  8  1  0  0  0  0
  7  9  1  0  0  0  0
 28 29  1  0  0  0  0
 28 30  1  0  0  0  0
 28 31  1  0  0  0  0
 26 27  1  0  0  0  0
 26 28  1  0  0  0  0
M  END
$$$$
default_name
  -OEChem-01062215323D

 31 30  0     1  0  0  0  0  0999 V2000
   -3.5895   -3.5013    1.1082 H   0  0  0  0  0  0  0  0  0  0  0  0
   -3.5145   -2.5363    0.6082 C   0  0  0  0  0  0  0  0  0  0  0  0
   -4.2285   -1.8413    1.0452 H   0  0  0  0  0  0  0  0  0  0  0  0
   -3.7155   -2.6583   -0.4538 H   0  0  0  0  0  0  0  0  0  0  0  0
   -2.1155   -1.9963    0.7922 C   0  0  0  0  0  0  0  0  0  0  0  0
   -1.2875   -2.6383    1.4252 O   0  0  0  0  0  0  0  0  0  0  0  0
   -1.8575   -0.8123    0.2402 N   0  0  0  0  0  0  0  0  0  0  0  0
   -2.6005   -0.3333   -0.2478 H   0  0  0  0  0  0  0  0  0  0  0  0
   -0.5675   -0.1203    0.3102 C   0  0  1  0  0  0  0  0  0  0  0  0
   -0.0639   -0.2390   -0.6498 H   0  0  0  0  0  0  0  0  0  0  0  0
   -0.8279    1.3805    0.5571 C   0  0  0  0  0  0  0  0  0  0  0  0
   -1.4272    1.4858    1.4635 H   0  0  0  0  0  0  0  0  0  0  0  0
    0.1343    1.8644    0.7386 H   0  0  0  0  0  0  0  0  0  0  0  0
   -1.5354    2.1338   -0.5843 C   0  0  0  0  0  0  0  0  0  0  0  0
   -2.4501    1.6091   -0.8603 H   0  0  0  0  0  0  0  0  0  0  0  0
   -1.8846    3.5742   -0.1986 C   0  0  0  0  0  0  0  0  0  0  0  0
   -0.9803    4.1085    0.0960 H   0  0  0  0  0  0  0  0  0  0  0  0
   -2.3377    4.0827   -1.0500 H   0  0  0  0  0  0  0  0  0  0  0  0
   -2.5918    3.5899    0.6278 H   0  0  0  0  0  0  0  0  0  0  0  0
   -0.6276    2.1803   -1.8128 C   0  0  0  0  0  0  0  0  0  0  0  0
   -0.3879    1.1655   -2.1302 H   0  0  0  0  0  0  0  0  0  0  0  0
   -1.1371    2.6890   -2.6312 H   0  0  0  0  0  0  0  0  0  0  0  0
    0.2954    2.7115   -1.5779 H   0  0  0  0  0  0  0  0  0  0  0  0
    0.3156   -0.7514    1.4001 C   0  0  0  0  0  0  0  0  0  0  0  0
   -0.1991   -1.2607    2.3930 O   0  0  0  0  0  0  0  0  0  0  0  0
    1.6418   -0.7075    1.2184 N   0  0  0  0  0  0  0  0  0  0  0  0
    1.9878   -0.2781    0.3753 H   0  0  0  0  0  0  0  0  0  0  0  0
    2.6134   -1.2465    2.1672 C   0  0  0  0  0  0  0  0  0  0  0  0
    2.4323   -2.3137    2.3143 H   0  0  0  0  0  0  0  0  0  0  0  0
    3.6281   -1.1025    1.7931 H   0  0  0  0  0  0  0  0  0  0  0  0
    2.5083   -0.7418    3.1289 H   0  0  0  0  0  0  0  0  0  0  0  0
  5  6  2  0  0  0  0
  5  7  1  0  0  0  0
  2  3  1  0  0  0  0
  2  4  1  0  0  0  0
  2  5  1  0  0  0  0
  1  2  1  0  0  0  0
 24 25  2  0  0  0  0
 24 26  1  0  0  0  0
 20 21  1  0  0  0  0
 20 22  1  0  0  0  0
 20 23  1  0  0  0  0
 16 17  1  0  0  0  0
 16 18  1  0  0  0  0
 16 19  1  0  0  0  0
 14 15  1  0  0  0  0
 14 16  1  0  0  0  0
 14 20  1  0  0  0  0
 11 12  1  0  0  0  0
 11 13  1  0  0  0  0
 11 14  1  0  0  0  0
  9 10  1  0  0  0  0
  9 11  1  0  0  0  0
  9 24  1  0  0  0  0
  7  8  1  0  0  0  0
  7  9  1  0  0  0  0
 28 29  1  0  0  0  0
 28 30  1  0  0  0  0
 28 31  1  0  0  0  0
 26 27  1  0  0  0  0
 26 28  1  0  0  0  0
M  END
$$$$
default_name
  -OEChem-01062215323D

 31 30  0     1  0  0  0  0  0999 V2000
   -3.5895   -3.5013    1.1082 H   0  0  0  0  0  0  0  0  0  0  0  0
   -3.5145   -2.5363    0.6082 C   0  0  0  0  0  0  0  0  0  0  0  0
   -4.2285   -1.8413    1.0452 H   0  0  0  0  0  0  0  0  0  0  0  0
   -3.7155   -2.6583   -0.4538 H   0  0  0  0  0  0  0  0  0  0  0  0
   -2.1155   -1.9963    0.7922 C   0  0  0  0  0  0  0  0  0  0  0  0
   -1.2875   -2.6383    1.4252 O   0  0  0  0  0  0  0  0  0  0  0  0
   -1.8575   -0.8123    0.2402 N   0  0  0  0  0  0  0  0  0  0  0  0
   -2.6005   -0.3333   -0.2478 H   0  0  0  0  0  0  0  0  0  0  0  0
   -0.5675   -0.1203    0.3102 C   0  0  1  0  0  0  0  0  0  0  0  0
   -0.0639   -0.2390   -0.6498 H   0  0  0  0  0  0  0  0  0  0  0  0
   -0.8279    1.3805    0.5571 C   0  0  0  0  0  0  0  0  0  0  0  0
   -1.4272    1.4858    1.4635 H   0  0  0  0  0  0  0  0  0  0  0  0
    0.1343    1.8644    0.7386 H   0  0  0  0  0  0  0  0  0  0  0  0
   -1.5354    2.1338   -0.5843 C   0  0  0  0  0  0  0  0  0  0  0  0
   -2.4501    1.6091   -0.8603 H   0  0  0  0  0  0  0  0  0  0  0  0
   -1.8846    3.5742   -0.1986 C   0  0  0  0  0  0  0  0  0  0  0  0
   -0.9803    4.1085    0.0960 H   0  0  0  0  0  0  0  0  0  0  0  0
   -2.3377    4.0827   -1.0500 H   0  0  0  0  0  0  0  0  0  0  0  0
   -2.5918    3.5899    0.6278 H   0  0  0  0  0  0  0  0  0  0  0  0
   -0.6276    2.1803   -1.8128 C   0  0  0  0  0  0  0  0  0  0  0  0
   -0.3879    1.1655   -2.1302 H   0  0  0  0  0  0  0  0  0  0  0  0
   -1.1371    2.6890   -2.6312 H   0  0  0  0  0  0  0  0  0  0  0  0
    0.2954    2.7115   -1.5779 H   0  0  0  0  0  0  0  0  0  0  0  0
    0.3156   -0.7514    1.4001 C   0  0  0  0  0  0  0  0  0  0  0  0
   -0.1815   -1.4939    2.2437 O   0  0  0  0  0  0  0  0  0  0  0  0
    1.6199   -0.4474    1.3868 N   0  0  0  0  0  0  0  0  0  0  0  0
    1.9536    0.1641    0.6590 H   0  0  0  0  0  0  0  0  0  0  0  0
    2.5848   -0.9511    2.3614 C   0  0  0  0  0  0  0  0  0  0  0  0
    2.5985   -2.0431    2.3363 H   0  0  0  0  0  0  0  0  0  0  0  0
    3.5833   -0.5739    2.1354 H   0  0  0  0  0  0  0  0  0  0  0  0
    2.2967   -0.6315    3.3642 H   0  0  0  0  0  0  0  0  0  0  0  0
  5  6  2  0  0  0  0
  5  7  1  0  0  0  0
  2  3  1  0  0  0  0
  2  4  1  0  0  0  0
  2  5  1  0  0  0  0
  1  2  1  0  0  0  0
 24 25  2  0  0  0  0
 24 26  1  0  0  0  0
 20 21  1  0  0  0  0
 20 22  1  0  0  0  0
 20 23  1  0  0  0  0
 16 17  1  0  0  0  0
 16 18  1  0  0  0  0
 16 19  1  0  0  0  0
 14 15  1  0  0  0  0
 14 16  1  0  0  0  0
 14 20  1  0  0  0  0
 11 12  1  0  0  0  0
 11 13  1  0  0  0  0
 11 14  1  0  0  0  0
  9 10  1  0  0  0  0
  9 11  1  0  0  0  0
  9 24  1  0  0  0  0
  7  8  1  0  0  0  0
  7  9  1  0  0  0  0
 28 29  1  0  0  0  0
 28 30  1  0  0  0  0
 28 31  1  0  0  0  0
 26 27  1  0  0  0  0
 26 28  1  0  0  0  0
M  END
$$$$
default_name
  -OEChem-01062215323D

 31 30  0     1  0  0  0  0  0999 V2000
   -3.5895   -3.5013    1.1082 H   0  0  0  0  0  0  0  0  0  0  0  0
   -3.5145   -2.5363    0.6082 C   0  0  0  0  0  0  0  0  0  0  0  0
   -4.2285   -1.8413    1.0452 H   0  0  0  0  0  0  0  0  0  0  0  0
   -3.7155   -2.6583   -0.4538 H   0  0  0  0  0  0  0  0  0  0  0  0
   -2.1155   -1.9963    0.7922 C   0  0  0  0  0  0  0  0  0  0  0  0
   -1.2875   -2.6383    1.4252 O   0  0  0  0  0  0  0  0  0  0  0  0
   -1.8575   -0.8123    0.2402 N   0  0  0  0  0  0  0  0  0  0  0  0
   -2.6005   -0.3333   -0.2478 H   0  0  0  0  0  0  0  0  0  0  0  0
   -0.5675   -0.1203    0.3102 C   0  0  1  0  0  0  0  0  0  0  0  0
   -0.1866   -0.0045   -0.7052 H   0  0  0  0  0  0  0  0  0  0  0  0
   -0.7927    1.2778    0.9232 C   0  0  0  0  0  0  0  0  0  0  0  0
   -1.2751    1.1586    1.8953 H   0  0  0  0  0  0  0  0  0  0  0  0
    0.1854    1.7332    1.0930 H   0  0  0  0  0  0  0  0  0  0  0  0
   -1.6345    2.2516    0.0783 C   0  0  0  0  0  0  0  0  0  0  0  0
   -2.5772    1.7792   -0.1978 H   0  0  0  0  0  0  0  0  0  0  0  0
   -1.9307    3.5570    0.8222 C   0  0  0  0  0  0  0  0  0  0  0  0
   -0.9960    4.0342    1.1197 H   0  0  0  0  0  0  0  0  0  0  0  0
   -2.4847    4.2332    0.1708 H   0  0  0  0  0  0  0  0  0  0  0  0
   -2.5303    3.3659    1.7096 H   0  0  0  0  0  0  0  0  0  0  0  0
   -0.8855    2.5998   -1.2075 C   0  0  0  0  0  0  0  0  0  0  0  0
   -0.6887    1.6903   -1.7750 H   0  0  0  0  0  0  0  0  0  0  0  0
   -1.4913    3.2673   -1.8202 H   0  0  0  0  0  0  0  0  0  0  0  0
    0.0605    3.0881   -0.9707 H   0  0  0  0  0  0  0  0  0  0  0  0
    0.4424   -0.9588    1.1121 C   0  0  0  0  0  0  0  0  0  0  0  0
    0.1048   -2.0387    1.5916 O   0  0  0  0  0  0  0  0  0  0  0  0
    1.6745   -0.4563    1.2647 N   0  0  0  0  0  0  0  0  0  0  0  0
    1.8771    0.4328    0.8365 H   0  0  0  0  0  0  0  0  0  0  0  0
    2.7398   -1.1213    2.0115 C   0  0  0  0  0  0  0  0  0  0  0  0
    2.9394   -2.1024    1.5748 H   0  0  0  0  0  0  0  0  0  0  0  0
    3.6520   -0.5232    1.9836 H   0  0  0  0  0  0  0  0  0  0  0  0
    2.4312   -1.2604    3.0488 H   0  0  0  0  0  0  0  0  0  0  0  0
  5  6  2  0  0  0  0
  5  7  1  0  0  0  0
  2  3  1  0  0  0  0
  2  4  1  0  0  0  0
  2  5  1  0  0  0  0
  1  2  1  0  0  0  0
 24 25  2  0  0  0  0
 24 26  1  0  0  0  0
 20 21  1  0  0  0  0
 20 22  1  0  0  0  0
 20 23  1  0  0  0  0
 16 17  1  0  0  0  0
 16 18  1  0  0  0  0
 16 19  1  0  0  0  0
 14 15  1  0  0  0  0
 14 16  1  0  0  0  0
 14 20  1  0  0  0  0
 11 12  1  0  0  0  0
 11 13  1  0  0  0  0
 11 14  1  0  0  0  0
  9 10  1  0  0  0  0
  9 11  1  0  0  0  0
  9 24  1  0  0  0  0
  7  8  1  0  0  0  0
  7  9  1  0  0  0  0
 28 29  1  0  0  0  0
 28 30  1  0  0  0  0
 28 31  1  0  0  0  0
 26 27  1  0  0  0  0
 26 28  1  0  0  0  0
M  END
$$$$
default_name
  -OEChem-01062215323D

 31 30  0     1  0  0  0  0  0999 V2000
   -3.5895   -3.5013    1.1082 H   0  0  0  0  0  0  0  0  0  0  0  0
   -3.5145   -2.5363    0.6082 C   0  0  0  0  0  0  0  0  0  0  0  0
   -4.2285   -1.8413    1.0452 H   0  0  0  0  0  0  0  0  0  0  0  0
   -3.7155   -2.6583   -0.4538 H   0  0  0  0  0  0  0  0  0  0  0  0
   -2.1155   -1.9963    0.7922 C   0  0  0  0  0  0  0  0  0  0  0  0
   -1.2875   -2.6383    1.4252 O   0  0  0  0  0  0  0  0  0  0  0  0
   -1.8575   -0.8123    0.2402 N   0  0  0  0  0  0  0  0  0  0  0  0
   -2.6005   -0.3333   -0.2478 H   0  0  0  0  0  0  0  0  0  0  0  0
   -0.5675   -0.1203    0.3102 C   0  0  1  0  0  0  0  0  0  0  0  0
   -0.1866   -0.0045   -0.7052 H   0  0  0  0  0  0  0  0  0  0  0  0
   -0.7927    1.2778    0.9232 C   0  0  0  0  0  0  0  0  0  0  0  0
   -1.2751    1.1586    1.8953 H   0  0  0  0  0  0  0  0  0  0  0  0
    0.1854    1.7332    1.0930 H   0  0  0  0  0  0  0  0  0  0  0  0
   -1.6345    2.2516    0.0783 C   0  0  0  0  0  0  0  0  0  0  0  0
   -2.5772    1.7792   -0.1978 H   0  0  0  0  0  0  0  0  0  0  0  0
   -1.9307    3.5570    0.8222 C   0  0  0  0  0  0  0  0  0  0  0  0
   -0.9960    4.0342    1.1197 H   0  0  0  0  0  0  0  0  0  0  0  0
   -2.4847    4.2332    0.1708 H   0  0  0  0  0  0  0  0  0  0  0  0
   -2.5303    3.3659    1.7096 H   0  0  0  0  0  0  0  0  0  0  0  0
   -0.8855    2.5998   -1.2075 C   0  0  0  0  0  0  0  0  0  0  0  0
   -0.6887    1.6903   -1.7750 H   0  0  0  0  0  0  0  0  0  0  0  0
   -1.4913    3.2673   -1.8202 H   0  0  0  0  0  0  0  0  0  0  0  0
    0.0605    3.0881   -0.9707 H   0  0  0  0  0  0  0  0  0  0  0  0
    0.4424   -0.9588    1.1121 C   0  0  0  0  0  0  0  0  0  0  0  0
    0.2082   -2.1404    1.3551 O   0  0  0  0  0  0  0  0  0  0  0  0
    1.5569   -0.3445    1.5297 N   0  0  0  0  0  0  0  0  0  0  0  0
    1.6802    0.6251    1.2854 H   0  0  0  0  0  0  0  0  0  0  0  0
    2.6028   -0.9969    2.3141 C   0  0  0  0  0  0  0  0  0  0  0  0
    2.9993   -1.8516    1.7614 H   0  0  0  0  0  0  0  0  0  0  0  0
    3.4129   -0.2963    2.5220 H   0  0  0  0  0  0  0  0  0  0  0  0
    2.1863   -1.3569    3.2562 H   0  0  0  0  0  0  0  0  0  0  0  0
  5  6  2  0  0  0  0
  5  7  1  0  0  0  0
  2  3  1  0  0  0  0
  2  4  1  0  0  0  0
  2  5  1  0  0  0  0
  1  2  1  0  0  0  0
 24 25  2  0  0  0  0
 24 26  1  0  0  0  0
 20 21  1  0  0  0  0
 20 22  1  0  0  0  0
 20 23  1  0  0  0  0
 16 17  1  0  0  0  0
 16 18  1  0  0  0  0
 16 19  1  0  0  0  0
 14 15  1  0  0  0  0
 14 16  1  0  0  0  0
 14 20  1  0  0  0  0
 11 12  1  0  0  0  0
 11 13  1  0  0  0  0
 11 14  1  0  0  0  0
  9 10  1  0  0  0  0
  9 11  1  0  0  0  0
  9 24  1  0  0  0  0
  7  8  1  0  0  0  0
  7  9  1  0  0  0  0
 28 29  1  0  0  0  0
 28 30  1  0  0  0  0
 28 31  1  0  0  0  0
 26 27  1  0  0  0  0
 26 28  1  0  0  0  0
M  END
$$$$
default_name
  -OEChem-01062215323D

 31 30  0     1  0  0  0  0  0999 V2000
   -3.5895   -3.5013    1.1082 H   0  0  0  0  0  0  0  0  0  0  0  0
   -3.5145   -2.5363    0.6082 C   0  0  0  0  0  0  0  0  0  0  0  0
   -4.2285   -1.8413    1.0452 H   0  0  0  0  0  0  0  0  0  0  0  0
   -3.7155   -2.6583   -0.4538 H   0  0  0  0  0  0  0  0  0  0  0  0
   -2.1155   -1.9963    0.7922 C   0  0  0  0  0  0  0  0  0  0  0  0
   -1.2875   -2.6383    1.4252 O   0  0  0  0  0  0  0  0  0  0  0  0
   -1.8575   -0.8123    0.2402 N   0  0  0  0  0  0  0  0  0  0  0  0
   -2.6005   -0.3333   -0.2478 H   0  0  0  0  0  0  0  0  0  0  0  0
   -0.5675   -0.1203    0.3102 C   0  0  1  0  0  0  0  0  0  0  0  0
   -0.1866   -0.0045   -0.7052 H   0  0  0  0  0  0  0  0  0  0  0  0
   -0.7927    1.2778    0.9232 C   0  0  0  0  0  0  0  0  0  0  0  0
   -1.2751    1.1586    1.8953 H   0  0  0  0  0  0  0  0  0  0  0  0
    0.1854    1.7332    1.0930 H   0  0  0  0  0  0  0  0  0  0  0  0
   -1.6345    2.2516    0.0783 C   0  0  0  0  0  0  0  0  0  0  0  0
   -2.5772    1.7792   -0.1978 H   0  0  0  0  0  0  0  0  0  0  0  0
   -1.9307    3.5570    0.8222 C   0  0  0  0  0  0  0  0  0  0  0  0
   -0.9960    4.0342    1.1197 H   0  0  0  0  0  0  0  0  0  0  0  0
   -2.4847    4.2332    0.1708 H   0  0  0  0  0  0  0  0  0  0  0  0
   -2.5303    3.3659    1.7096 H   0  0  0  0  0  0  0  0  0  0  0  0
   -0.8855    2.5998   -1.2075 C   0  0  0  0  0  0  0  0  0  0  0  0
   -0.6887    1.6903   -1.7750 H   0  0  0  0  0  0  0  0  0  0  0  0
   -1.4913    3.2673   -1.8202 H   0  0  0  0  0  0  0  0  0  0  0  0
    0.0605    3.0881   -0.9707 H   0  0  0  0  0  0  0  0  0  0  0  0
    0.4424   -0.9588    1.1121 C   0  0  0  0  0  0  0  0  0  0  0  0
    0.3552   -2.1845    1.1240 O   0  0  0  0  0  0  0  0  0  0  0  0
    1.3909   -0.2975    1.7880 N   0  0  0  0  0  0  0  0  0  0  0  0
    1.4007    0.7079    1.7240 H   0  0  0  0  0  0  0  0  0  0  0  0
    2.4110   -0.9468    2.6082 C   0  0  0  0  0  0  0  0  0  0  0  0
    2.9971   -1.6330    1.9928 H   0  0  0  0  0  0  0  0  0  0  0  0
    3.0753   -0.2008    3.0469 H   0  0  0  0  0  0  0  0  0  0  0  0
    1.9336   -1.5184    3.4056 H   0  0  0  0  0  0  0  0  0  0  0  0
  5  6  2  0  0  0  0
  5  7  1  0  0  0  0
  2  3  1  0  0  0  0
  2  4  1  0  0  0  0
  2  5  1  0  0  0  0
  1  2  1  0  0  0  0
 24 25  2  0  0  0  0
 24 26  1  0  0  0  0
 20 21  1  0  0  0  0
 20 22  1  0  0  0  0
 20 23  1  0  0  0  0
 16 17  1  0  0  0  0
 16 18  1  0  0  0  0
 16 19  1  0  0  0  0
 14 15  1  0  0  0  0
 14 16  1  0  0  0  0
 14 20  1  0  0  0  0
 11 12  1  0  0  0  0
 11 13  1  0  0  0  0
 11 14  1  0  0  0  0
  9 10  1  0  0  0  0
  9 11  1  0  0  0  0
  9 24  1  0  0  0  0
  7  8  1  0  0  0  0
  7  9  1  0  0  0  0
 28 29  1  0  0  0  0
 28 30  1  0  0  0  0
 28 31  1  0  0  0  0
 26 27  1  0  0  0  0
 26 28  1  0  0  0  0
M  END
$$$$
default_name
  -OEChem-01062215323D

 31 30  0     1  0  0  0  0  0999 V2000
   -3.5895   -3.5013    1.1082 H   0  0  0  0  0  0  0  0  0  0  0  0
   -3.5145   -2.5363    0.6082 C   0  0  0  0  0  0  0  0  0  0  0  0
   -4.2285   -1.8413    1.0452 H   0  0  0  0  0  0  0  0  0  0  0  0
   -3.7155   -2.6583   -0.4538 H   0  0  0  0  0  0  0  0  0  0  0  0
   -2.1155   -1.9963    0.7922 C   0  0  0  0  0  0  0  0  0  0  0  0
   -1.2875   -2.6383    1.4252 O   0  0  0  0  0  0  0  0  0  0  0  0
   -1.8575   -0.8123    0.2402 N   0  0  0  0  0  0  0  0  0  0  0  0
   -2.6005   -0.3333   -0.2478 H   0  0  0  0  0  0  0  0  0  0  0  0
   -0.5675   -0.1203    0.3102 C   0  0  1  0  0  0  0  0  0  0  0  0
   -0.1866   -0.0045   -0.7052 H   0  0  0  0  0  0  0  0  0  0  0  0
   -0.7927    1.2778    0.9232 C   0  0  0  0  0  0  0  0  0  0  0  0
   -1.2751    1.1586    1.8953 H   0  0  0  0  0  0  0  0  0  0  0  0
    0.1854    1.7332    1.0930 H   0  0  0  0  0  0  0  0  0  0  0  0
   -1.6345    2.2516    0.0783 C   0  0  0  0  0  0  0  0  0  0  0  0
   -2.5772    1.7792   -0.1978 H   0  0  0  0  0  0  0  0  0  0  0  0
   -1.9307    3.5570    0.8222 C   0  0  0  0  0  0  0  0  0  0  0  0
   -0.9960    4.0342    1.1197 H   0  0  0  0  0  0  0  0  0  0  0  0
   -2.4847    4.2332    0.1708 H   0  0  0  0  0  0  0  0  0  0  0  0
   -2.5303    3.3659    1.7096 H   0  0  0  0  0  0  0  0  0  0  0  0
   -0.8855    2.5998   -1.2075 C   0  0  0  0  0  0  0  0  0  0  0  0
   -0.6887    1.6903   -1.7750 H   0  0  0  0  0  0  0  0  0  0  0  0
   -1.4913    3.2673   -1.8202 H   0  0  0  0  0  0  0  0  0  0  0  0
    0.0605    3.0881   -0.9707 H   0  0  0  0  0  0  0  0  0  0  0  0
    0.4424   -0.9588    1.1121 C   0  0  0  0  0  0  0  0  0  0  0  0
    0.5357   -2.1680    0.9139 O   0  0  0  0  0  0  0  0  0  0  0  0
    1.1878   -0.3183    2.0221 N   0  0  0  0  0  0  0  0  0  0  0  0
    1.0577    0.6757    2.1223 H   0  0  0  0  0  0  0  0  0  0  0  0
    2.1774   -0.9741    2.8737 C   0  0  0  0  0  0  0  0  0  0  0  0
    2.9328   -1.4615    2.2531 H   0  0  0  0  0  0  0  0  0  0  0  0
    2.6624   -0.2433    3.5226 H   0  0  0  0  0  0  0  0  0  0  0  0
    1.6902   -1.7339    3.4868 H   0  0  0  0  0  0  0  0  0  0  0  0
  5  6  2  0  0  0  0
  5  7  1  0  0  0  0
  2  3  1  0  0  0  0
  2  4  1  0  0  0  0
  2  5  1  0  0  0  0
  1  2  1  0  0  0  0
 24 25  2  0  0  0  0
 24 26  1  0  0  0  0
 20 21  1  0  0  0  0
 20 22  1  0  0  0  0
 20 23  1  0  0  0  0
 16 17  1  0  0  0  0
 16 18  1  0  0  0  0
 16 19  1  0  0  0  0
 14 15  1  0  0  0  0
 14 16  1  0  0  0  0
 14 20  1  0  0  0  0
 11 12  1  0  0  0  0
 11 13  1  0  0  0  0
 11 14  1  0  0  0  0
  9 10  1  0  0  0  0
  9 11  1  0  0  0  0
  9 24  1  0  0  0  0
  7  8  1  0  0  0  0
  7  9  1  0  0  0  0
 28 29  1  0  0  0  0
 28 30  1  0  0  0  0
 28 31  1  0  0  0  0
 26 27  1  0  0  0  0
 26 28  1  0  0  0  0
M  END
$$$$
default_name
  -OEChem-01062215323D

 31 30  0     1  0  0  0  0  0999 V2000
   -3.5895   -3.5013    1.1082 H   0  0  0  0  0  0  0  0  0  0  0  0
   -3.5145   -2.5363    0.6082 C   0  0  0  0  0  0  0  0  0  0  0  0
   -4.2285   -1.8413    1.0452 H   0  0  0  0  0  0  0  0  0  0  0  0
   -3.7155   -2.6583   -0.4538 H   0  0  0  0  0  0  0  0  0  0  0  0
   -2.1155   -1.9963    0.7922 C   0  0  0  0  0  0  0  0  0  0  0  0
   -1.2875   -2.6383    1.4252 O   0  0  0  0  0  0  0  0  0  0  0  0
   -1.8575   -0.8123    0.2402 N   0  0  0  0  0  0  0  0  0  0  0  0
   -2.6005   -0.3333   -0.2478 H   0  0  0  0  0  0  0  0  0  0  0  0
   -0.5675   -0.1203    0.3102 C   0  0  1  0  0  0  0  0  0  0  0  0
   -0.1866   -0.0045   -0.7052 H   0  0  0  0  0  0  0  0  0  0  0  0
   -0.7927    1.2778    0.9232 C   0  0  0  0  0  0  0  0  0  0  0  0
   -1.2751    1.1586    1.8953 H   0  0  0  0  0  0  0  0  0  0  0  0
    0.1854    1.7332    1.0930 H   0  0  0  0  0  0  0  0  0  0  0  0
   -1.6345    2.2516    0.0783 C   0  0  0  0  0  0  0  0  0  0  0  0
   -2.5772    1.7792   -0.1978 H   0  0  0  0  0  0  0  0  0  0  0  0
   -1.9307    3.5570    0.8222 C   0  0  0  0  0  0  0  0  0  0  0  0
   -0.9960    4.0342    1.1197 H   0  0  0  0  0  0  0  0  0  0  0  0
   -2.4847    4.2332    0.1708 H   0  0  0  0  0  0  0  0  0  0  0  0
   -2.5303    3.3659    1.7096 H   0  0  0  0  0  0  0  0  0  0  0  0
   -0.8855    2.5998   -1.2075 C   0  0  0  0  0  0  0  0  0  0  0  0
   -0.6887    1.6903   -1.7750 H   0  0  0  0  0  0  0  0  0  0  0  0
   -1.4913    3.2673   -1.8202 H   0  0  0  0  0  0  0  0  0  0  0  0
    0.0605    3.0881   -0.9707 H   0  0  0  0  0  0  0  0  0  0  0  0
    0.4424   -0.9588    1.1121 C   0  0  0  0  0  0  0  0  0  0  0  0
    0.7374   -2.0920    0.7393 O   0  0  0  0  0  0  0  0  0  0  0  0
    0.9613   -0.4056    2.2160 N   0  0  0  0  0  0  0  0  0  0  0  0
    0.6746    0.5307    2.4531 H   0  0  0  0  0  0  0  0  0  0  0  0
    1.9180   -1.0772    3.0925 C   0  0  0  0  0  0  0  0  0  0  0  0
    2.8108   -1.3487    2.5247 H   0  0  0  0  0  0  0  0  0  0  0  0
    2.2021   -0.4209    3.9165 H   0  0  0  0  0  0  0  0  0  0  0  0
    1.4727   -1.9887    3.4943 H   0  0  0  0  0  0  0  0  0  0  0  0
  5  6  2  0  0  0  0
  5  7  1  0  0  0  0
  2  3  1  0  0  0  0
  2  4  1  0  0  0  0
  2  5  1  0  0  0  0
  1  2  1  0  0  0  0
 24 25  2  0  0  0  0
 24 26  1  0  0  0  0
 20 21  1  0  0  0  0
 20 22  1  0  0  0  0
 20 23  1  0  0  0  0
 16 17  1  0  0  0  0
 16 18  1  0  0  0  0
 16 19  1  0  0  0  0
 14 15  1  0  0  0  0
 14 16  1  0  0  0  0
 14 20  1  0  0  0  0
 11 12  1  0  0  0  0
 11 13  1  0  0  0  0
 11 14  1  0  0  0  0
  9 10  1  0  0  0  0
  9 11  1  0  0  0  0
  9 24  1  0  0  0  0
  7  8  1  0  0  0  0
  7  9  1  0  0  0  0
 28 29  1  0  0  0  0
 28 30  1  0  0  0  0
 28 31  1  0  0  0  0
 26 27  1  0  0  0  0
 26 28  1  0  0  0  0
M  END
$$$$
default_name
  -OEChem-01062215323D

 31 30  0     1  0  0  0  0  0999 V2000
   -3.5895   -3.5013    1.1082 H   0  0  0  0  0  0  0  0  0  0  0  0
   -3.5145   -2.5363    0.6082 C   0  0  0  0  0  0  0  0  0  0  0  0
   -4.2285   -1.8413    1.0452 H   0  0  0  0  0  0  0  0  0  0  0  0
   -3.7155   -2.6583   -0.4538 H   0  0  0  0  0  0  0  0  0  0  0  0
   -2.1155   -1.9963    0.7922 C   0  0  0  0  0  0  0  0  0  0  0  0
   -1.2875   -2.6383    1.4252 O   0  0  0  0  0  0  0  0  0  0  0  0
   -1.8575   -0.8123    0.2402 N   0  0  0  0  0  0  0  0  0  0  0  0
   -2.6005   -0.3333   -0.2478 H   0  0  0  0  0  0  0  0  0  0  0  0
   -0.5675   -0.1203    0.3102 C   0  0  1  0  0  0  0  0  0  0  0  0
   -0.1866   -0.0045   -0.7052 H   0  0  0  0  0  0  0  0  0  0  0  0
   -0.7927    1.2778    0.9232 C   0  0  0  0  0  0  0  0  0  0  0  0
   -1.2751    1.1586    1.8953 H   0  0  0  0  0  0  0  0  0  0  0  0
    0.1854    1.7332    1.0930 H   0  0  0  0  0  0  0  0  0  0  0  0
   -1.6345    2.2516    0.0783 C   0  0  0  0  0  0  0  0  0  0  0  0
   -2.5772    1.7792   -0.1978 H   0  0  0  0  0  0  0  0  0  0  0  0
   -1.9307    3.5570    0.8222 C   0  0  0  0  0  0  0  0  0  0  0  0
   -0.9960    4.0342    1.1197 H   0  0  0  0  0  0  0  0  0  0  0  0
   -2.4847    4.2332    0.1708 H   0  0  0  0  0  0  0  0  0  0  0  0
   -2.5303    3.3659    1.7096 H   0  0  0  0  0  0  0  0  0  0  0  0
   -0.8855    2.5998   -1.2075 C   0  0  0  0  0  0  0  0  0  0  0  0
   -0.6887    1.6903   -1.7750 H   0  0  0  0  0  0  0  0  0  0  0  0
   -1.4913    3.2673   -1.8202 H   0  0  0  0  0  0  0  0  0  0  0  0
    0.0605    3.0881   -0.9707 H   0  0  0  0  0  0  0  0  0  0  0  0
    0.4424   -0.9588    1.1121 C   0  0  0  0  0  0  0  0  0  0  0  0
    0.9467   -1.9617    0.6120 O   0  0  0  0  0  0  0  0  0  0  0  0
    0.7270   -0.5534    2.3565 N   0  0  0  0  0  0  0  0  0  0  0  0
    0.2774    0.2826    2.6940 H   0  0  0  0  0  0  0  0  0  0  0  0
    1.6505   -1.2489    3.2498 C   0  0  0  0  0  0  0  0  0  0  0  0
    2.6394   -1.3024    2.7889 H   0  0  0  0  0  0  0  0  0  0  0  0
    1.7259   -0.7215    4.2019 H   0  0  0  0  0  0  0  0  0  0  0  0
    1.2960   -2.2655    3.4275 H   0  0  0  0  0  0  0  0  0  0  0  0
  5  6  2  0  0  0  0
  5  7  1  0  0  0  0
  2  3  1  0  0  0  0
  2  4  1  0  0  0  0
  2  5  1  0  0  0  0
  1  2  1  0  0  0  0
 24 25  2  0  0  0  0
 24 26  1  0  0  0  0
 20 21  1  0  0  0  0
 20 22  1  0  0  0  0
 20 23  1  0  0  0  0
 16 17  1  0  0  0  0
 16 18  1  0  0  0  0
 16 19  1  0  0  0  0
 14 15  1  0  0  0  0
 14 16  1  0  0  0  0
 14 20  1  0  0  0  0
 11 12  1  0  0  0  0
 11 13  1  0  0  0  0
 11 14  1  0  0  0  0
  9 10  1  0  0  0  0
  9 11  1  0  0  0  0
  9 24  1  0  0  0  0
  7  8  1  0  0  0  0
  7  9  1  0  0  0  0
 28 29  1  0  0  0  0
 28 30  1  0  0  0  0
 28 31  1  0  0  0  0
 26 27  1  0  0  0  0
 26 28  1  0  0  0  0
M  END
$$$$
default_name
  -OEChem-01062215323D

 31 30  0     1  0  0  0  0  0999 V2000
   -3.5895   -3.5013    1.1082 H   0  0  0  0  0  0  0  0  0  0  0  0
   -3.5145   -2.5363    0.6082 C   0  0  0  0  0  0  0  0  0  0  0  0
   -4.2285   -1.8413    1.0452 H   0  0  0  0  0  0  0  0  0  0  0  0
   -3.7155   -2.6583   -0.4538 H   0  0  0  0  0  0  0  0  0  0  0  0
   -2.1155   -1.9963    0.7922 C   0  0  0  0  0  0  0  0  0  0  0  0
   -1.2875   -2.6383    1.4252 O   0  0  0  0  0  0  0  0  0  0  0  0
   -1.8575   -0.8123    0.2402 N   0  0  0  0  0  0  0  0  0  0  0  0
   -2.6005   -0.3333   -0.2478 H   0  0  0  0  0  0  0  0  0  0  0  0
   -0.5675   -0.1203    0.3102 C   0  0  1  0  0  0  0  0  0  0  0  0
   -0.1866   -0.0045   -0.7052 H   0  0  0  0  0  0  0  0  0  0  0  0
   -0.7927    1.2778    0.9232 C   0  0  0  0  0  0  0  0  0  0  0  0
   -1.2751    1.1586    1.8953 H   0  0  0  0  0  0  0  0  0  0  0  0
    0.1854    1.7332    1.0930 H   0  0  0  0  0  0  0  0  0  0  0  0
   -1.6345    2.2516    0.0783 C   0  0  0  0  0  0  0  0  0  0  0  0
   -2.5772    1.7792   -0.1978 H   0  0  0  0  0  0  0  0  0  0  0  0
   -1.9307    3.5570    0.8222 C   0  0  0  0  0  0  0  0  0  0  0  0
   -0.9960    4.0342    1.1197 H   0  0  0  0  0  0  0  0  0  0  0  0
   -2.4847    4.2332    0.1708 H   0  0  0  0  0  0  0  0  0  0  0  0
   -2.5303    3.3659    1.7096 H   0  0  0  0  0  0  0  0  0  0  0  0
   -0.8855    2.5998   -1.2075 C   0  0  0  0  0  0  0  0  0  0  0  0
   -0.6887    1.6903   -1.7750 H   0  0  0  0  0  0  0  0  0  0  0  0
   -1.4913    3.2673   -1.8202 H   0  0  0  0  0  0  0  0  0  0  0  0
    0.0605    3.0881   -0.9707 H   0  0  0  0  0  0  0  0  0  0  0  0
    0.4424   -0.9588    1.1121 C   0  0  0  0  0  0  0  0  0  0  0  0
    1.1492   -1.7860    0.5408 O   0  0  0  0  0  0  0  0  0  0  0  0
    0.5008   -0.7517    2.4340 N   0  0  0  0  0  0  0  0  0  0  0  0
   -0.1068   -0.0515    2.8284 H   0  0  0  0  0  0  0  0  0  0  0  0
    1.3932   -1.4777    3.3348 C   0  0  0  0  0  0  0  0  0  0  0  0
    2.4304   -1.3257    3.0278 H   0  0  0  0  0  0  0  0  0  0  0  0
    1.2662   -1.1246    4.3593 H   0  0  0  0  0  0  0  0  0  0  0  0
    1.1720   -2.5453    3.2910 H   0  0  0  0  0  0  0  0  0  0  0  0
  5  6  2  0  0  0  0
  5  7  1  0  0  0  0
  2  3  1  0  0  0  0
  2  4  1  0  0  0  0
  2  5  1  0  0  0  0
  1  2  1  0  0  0  0
 24 25  2  0  0  0  0
 24 26  1  0  0  0  0
 20 21  1  0  0  0  0
 20 22  1  0  0  0  0
 20 23  1  0  0  0  0
 16 17  1  0  0  0  0
 16 18  1  0  0  0  0
 16 19  1  0  0  0  0
 14 15  1  0  0  0  0
 14 16  1  0  0  0  0
 14 20  1  0  0  0  0
 11 12  1  0  0  0  0
 11 13  1  0  0  0  0
 11 14  1  0  0  0  0
  9 10  1  0  0  0  0
  9 11  1  0  0  0  0
  9 24  1  0  0  0  0
  7  8  1  0  0  0  0
  7  9  1  0  0  0  0
 28 29  1  0  0  0  0
 28 30  1  0  0  0  0
 28 31  1  0  0  0  0
 26 27  1  0  0  0  0
 26 28  1  0  0  0  0
M  END
$$$$
default_name
  -OEChem-01062215323D

 31 30  0     1  0  0  0  0  0999 V2000
   -3.5895   -3.5013    1.1082 H   0  0  0  0  0  0  0  0  0  0  0  0
   -3.5145   -2.5363    0.6082 C   0  0  0  0  0  0  0  0  0  0  0  0
   -4.2285   -1.8413    1.0452 H   0  0  0  0  0  0  0  0  0  0  0  0
   -3.7155   -2.6583   -0.4538 H   0  0  0  0  0  0  0  0  0  0  0  0
   -2.1155   -1.9963    0.7922 C   0  0  0  0  0  0  0  0  0  0  0  0
   -1.2875   -2.6383    1.4252 O   0  0  0  0  0  0  0  0  0  0  0  0
   -1.8575   -0.8123    0.2402 N   0  0  0  0  0  0  0  0  0  0  0  0
   -2.6005   -0.3333   -0.2478 H   0  0  0  0  0  0  0  0  0  0  0  0
   -0.5675   -0.1203    0.3102 C   0  0  1  0  0  0  0  0  0  0  0  0
   -0.1866   -0.0045   -0.7052 H   0  0  0  0  0  0  0  0  0  0  0  0
   -0.7927    1.2778    0.9232 C   0  0  0  0  0  0  0  0  0  0  0  0
   -1.2751    1.1586    1.8953 H   0  0  0  0  0  0  0  0  0  0  0  0
    0.1854    1.7332    1.0930 H   0  0  0  0  0  0  0  0  0  0  0  0
   -1.6345    2.2516    0.0783 C   0  0  0  0  0  0  0  0  0  0  0  0
   -2.5772    1.7792   -0.1978 H   0  0  0  0  0  0  0  0  0  0  0  0
   -1.9307    3.5570    0.8222 C   0  0  0  0  0  0  0  0  0  0  0  0
   -0.9960    4.0342    1.1197 H   0  0  0  0  0  0  0  0  0  0  0  0
   -2.4847    4.2332    0.1708 H   0  0  0  0  0  0  0  0  0  0  0  0
   -2.5303    3.3659    1.7096 H   0  0  0  0  0  0  0  0  0  0  0  0
   -0.8855    2.5998   -1.2075 C   0  0  0  0  0  0  0  0  0  0  0  0
   -0.6887    1.6903   -1.7750 H   0  0  0  0  0  0  0  0  0  0  0  0
   -1.4913    3.2673   -1.8202 H   0  0  0  0  0  0  0  0  0  0  0  0
    0.0605    3.0881   -0.9707 H   0  0  0  0  0  0  0  0  0  0  0  0
    0.4424   -0.9588    1.1121 C   0  0  0  0  0  0  0  0  0  0  0  0
    1.3311   -1.5768    0.5303 O   0  0  0  0  0  0  0  0  0  0  0  0
    0.2981   -0.9869    2.4433 N   0  0  0  0  0  0  0  0  0  0  0  0
   -0.4518   -0.4489    2.8473 H   0  0  0  0  0  0  0  0  0  0  0  0
    1.1634   -1.7477    3.3417 C   0  0  0  0  0  0  0  0  0  0  0  0
    2.1979   -1.4170    3.2252 H   0  0  0  0  0  0  0  0  0  0  0  0
    0.8543   -1.6027    4.3780 H   0  0  0  0  0  0  0  0  0  0  0  0
    1.1093   -2.8091    3.0942 H   0  0  0  0  0  0  0  0  0  0  0  0
  5  6  2  0  0  0  0
  5  7  1  0  0  0  0
  2  3  1  0  0  0  0
  2  4  1  0  0  0  0
  2  5  1  0  0  0  0
  1  2  1  0  0  0  0
 24 25  2  0  0  0  0
 24 26  1  0  0  0  0
 20 21  1  0  0  0  0
 20 22  1  0  0  0  0
 20 23  1  0  0  0  0
 16 17  1  0  0  0  0
 16 18  1  0  0  0  0
 16 19  1  0  0  0  0
 14 15  1  0  0  0  0
 14 16  1  0  0  0  0
 14 20  1  0  0  0  0
 11 12  1  0  0  0  0
 11 13  1  0  0  0  0
 11 14  1  0  0  0  0
  9 10  1  0  0  0  0
  9 11  1  0  0  0  0
  9 24  1  0  0  0  0
  7  8  1  0  0  0  0
  7  9  1  0  0  0  0
 28 29  1  0  0  0  0
 28 30  1  0  0  0  0
 28 31  1  0  0  0  0
 26 27  1  0  0  0  0
 26 28  1  0  0  0  0
M  END
$$$$
default_name
  -OEChem-01062215323D

 31 30  0     1  0  0  0  0  0999 V2000
   -3.5895   -3.5013    1.1082 H   0  0  0  0  0  0  0  0  0  0  0  0
   -3.5145   -2.5363    0.6082 C   0  0  0  0  0  0  0  0  0  0  0  0
   -4.2285   -1.8413    1.0452 H   0  0  0  0  0  0  0  0  0  0  0  0
   -3.7155   -2.6583   -0.4538 H   0  0  0  0  0  0  0  0  0  0  0  0
   -2.1155   -1.9963    0.7922 C   0  0  0  0  0  0  0  0  0  0  0  0
   -1.2875   -2.6383    1.4252 O   0  0  0  0  0  0  0  0  0  0  0  0
   -1.8575   -0.8123    0.2402 N   0  0  0  0  0  0  0  0  0  0  0  0
   -2.6005   -0.3333   -0.2478 H   0  0  0  0  0  0  0  0  0  0  0  0
   -0.5675   -0.1203    0.3102 C   0  0  1  0  0  0  0  0  0  0  0  0
   -0.1866   -0.0045   -0.7052 H   0  0  0  0  0  0  0  0  0  0  0  0
   -0.7927    1.2778    0.9232 C   0  0  0  0  0  0  0  0  0  0  0  0
   -1.2751    1.1586    1.8953 H   0  0  0  0  0  0  0  0  0  0  0  0
    0.1854    1.7332    1.0930 H   0  0  0  0  0  0  0  0  0  0  0  0
   -1.6345    2.2516    0.0783 C   0  0  0  0  0  0  0  0  0  0  0  0
   -2.5772    1.7792   -0.1978 H   0  0  0  0  0  0  0  0  0  0  0  0
   -1.9307    3.5570    0.8222 C   0  0  0  0  0  0  0  0  0  0  0  0
   -0.9960    4.0342    1.1197 H   0  0  0  0  0  0  0  0  0  0  0  0
   -2.4847    4.2332    0.1708 H   0  0  0  0  0  0  0  0  0  0  0  0
   -2.5303    3.3659    1.7096 H   0  0  0  0  0  0  0  0  0  0  0  0
   -0.8855    2.5998   -1.2075 C   0  0  0  0  0  0  0  0  0  0  0  0
   -0.6887    1.6903   -1.7750 H   0  0  0  0  0  0  0  0  0  0  0  0
   -1.4913    3.2673   -1.8202 H   0  0  0  0  0  0  0  0  0  0  0  0
    0.0605    3.0881   -0.9707 H   0  0  0  0  0  0  0  0  0  0  0  0
    0.4424   -0.9588    1.1121 C   0  0  0  0  0  0  0  0  0  0  0  0
    1.4801   -1.3484    0.5815 O   0  0  0  0  0  0  0  0  0  0  0  0
    0.1327   -1.2430    2.3837 N   0  0  0  0  0  0  0  0  0  0  0  0
   -0.7340   -0.8825    2.7494 H   0  0  0  0  0  0  0  0  0  0  0  0
    0.9769   -2.0408    3.2701 C   0  0  0  0  0  0  0  0  0  0  0  0
    1.9578   -1.5701    3.3675 H   0  0  0  0  0  0  0  0  0  0  0  0
    0.5184   -2.1233    4.2567 H   0  0  0  0  0  0  0  0  0  0  0  0
    1.1121   -3.0389    2.8504 H   0  0  0  0  0  0  0  0  0  0  0  0
  5  6  2  0  0  0  0
  5  7  1  0  0  0  0
  2  3  1  0  0  0  0
  2  4  1  0  0  0  0
  2  5  1  0  0  0  0
  1  2  1  0  0  0  0
 24 25  2  0  0  0  0
 24 26  1  0  0  0  0
 20 21  1  0  0  0  0
 20 22  1  0  0  0  0
 20 23  1  0  0  0  0
 16 17  1  0  0  0  0
 16 18  1  0  0  0  0
 16 19  1  0  0  0  0
 14 15  1  0  0  0  0
 14 16  1  0  0  0  0
 14 20  1  0  0  0  0
 11 12  1  0  0  0  0
 11 13  1  0  0  0  0
 11 14  1  0  0  0  0
  9 10  1  0  0  0  0
  9 11  1  0  0  0  0
  9 24  1  0  0  0  0
  7  8  1  0  0  0  0
  7  9  1  0  0  0  0
 28 29  1  0  0  0  0
 28 30  1  0  0  0  0
 28 31  1  0  0  0  0
 26 27  1  0  0  0  0
 26 28  1  0  0  0  0
M  END
$$$$
default_name
  -OEChem-01062215323D

 31 30  0     1  0  0  0  0  0999 V2000
   -3.5895   -3.5013    1.1082 H   0  0  0  0  0  0  0  0  0  0  0  0
   -3.5145   -2.5363    0.6082 C   0  0  0  0  0  0  0  0  0  0  0  0
   -4.2285   -1.8413    1.0452 H   0  0  0  0  0  0  0  0  0  0  0  0
   -3.7155   -2.6583   -0.4538 H   0  0  0  0  0  0  0  0  0  0  0  0
   -2.1155   -1.9963    0.7922 C   0  0  0  0  0  0  0  0  0  0  0  0
   -1.2875   -2.6383    1.4252 O   0  0  0  0  0  0  0  0  0  0  0  0
   -1.8575   -0.8123    0.2402 N   0  0  0  0  0  0  0  0  0  0  0  0
   -2.6005   -0.3333   -0.2478 H   0  0  0  0  0  0  0  0  0  0  0  0
   -0.5675   -0.1203    0.3102 C   0  0  1  0  0  0  0  0  0  0  0  0
   -0.1866   -0.0045   -0.7052 H   0  0  0  0  0  0  0  0  0  0  0  0
   -0.7927    1.2778    0.9232 C   0  0  0  0  0  0  0  0  0  0  0  0
   -1.2751    1.1586    1.8953 H   0  0  0  0  0  0  0  0  0  0  0  0
    0.1854    1.7332    1.0930 H   0  0  0  0  0  0  0  0  0  0  0  0
   -1.6345    2.2516    0.0783 C   0  0  0  0  0  0  0  0  0  0  0  0
   -2.5772    1.7792   -0.1978 H   0  0  0  0  0  0  0  0  0  0  0  0
   -1.9307    3.5570    0.8222 C   0  0  0  0  0  0  0  0  0  0  0  0
   -0.9960    4.0342    1.1197 H   0  0  0  0  0  0  0  0  0  0  0  0
   -2.4847    4.2332    0.1708 H   0  0  0  0  0  0  0  0  0  0  0  0
   -2.5303    3.3659    1.7096 H   0  0  0  0  0  0  0  0  0  0  0  0
   -0.8855    2.5998   -1.2075 C   0  0  0  0  0  0  0  0  0  0  0  0
   -0.6887    1.6903   -1.7750 H   0  0  0  0  0  0  0  0  0  0  0  0
   -1.4913    3.2673   -1.8202 H   0  0  0  0  0  0  0  0  0  0  0  0
    0.0605    3.0881   -0.9707 H   0  0  0  0  0  0  0  0  0  0  0  0
    0.4424   -0.9588    1.1121 C   0  0  0  0  0  0  0  0  0  0  0  0
    1.5860   -1.1164    0.6907 O   0  0  0  0  0  0  0  0  0  0  0  0
    0.0160   -1.5026    2.2593 N   0  0  0  0  0  0  0  0  0  0  0  0
   -0.9344   -1.3228    2.5413 H   0  0  0  0  0  0  0  0  0  0  0  0
    0.8465   -2.3369    3.1248 C   0  0  0  0  0  0  0  0  0  0  0  0
    1.7265   -1.7745    3.4450 H   0  0  0  0  0  0  0  0  0  0  0  0
    0.2813   -2.6509    4.0037 H   0  0  0  0  0  0  0  0  0  0  0  0
    1.1802   -3.2191    2.5762 H   0  0  0  0  0  0  0  0  0  0  0  0
  5  6  2  0  0  0  0
  5  7  1  0  0  0  0
  2  3  1  0  0  0  0
  2  4  1  0  0  0  0
  2  5  1  0  0  0  0
  1  2  1  0  0  0  0
 24 25  2  0  0  0  0
 24 26  1  0  0  0  0
 20 21  1  0  0  0  0
 20 22  1  0  0  0  0
 20 23  1  0  0  0  0
 16 17  1  0  0  0  0
 16 18  1  0  0  0  0
 16 19  1  0  0  0  0
 14 15  1  0  0  0  0
 14 16  1  0  0  0  0
 14 20  1  0  0  0  0
 11 12  1  0  0  0  0
 11 13  1  0  0  0  0
 11 14  1  0  0  0  0
  9 10  1  0  0  0  0
  9 11  1  0  0  0  0
  9 24  1  0  0  0  0
  7  8  1  0  0  0  0
  7  9  1  0  0  0  0
 28 29  1  0  0  0  0
 28 30  1  0  0  0  0
 28 31  1  0  0  0  0
 26 27  1  0  0  0  0
 26 28  1  0  0  0  0
M  END
$$$$
default_name
  -OEChem-01062215323D

 31 30  0     1  0  0  0  0  0999 V2000
   -3.5895   -3.5013    1.1082 H   0  0  0  0  0  0  0  0  0  0  0  0
   -3.5145   -2.5363    0.6082 C   0  0  0  0  0  0  0  0  0  0  0  0
   -4.2285   -1.8413    1.0452 H   0  0  0  0  0  0  0  0  0  0  0  0
   -3.7155   -2.6583   -0.4538 H   0  0  0  0  0  0  0  0  0  0  0  0
   -2.1155   -1.9963    0.7922 C   0  0  0  0  0  0  0  0  0  0  0  0
   -1.2875   -2.6383    1.4252 O   0  0  0  0  0  0  0  0  0  0  0  0
   -1.8575   -0.8123    0.2402 N   0  0  0  0  0  0  0  0  0  0  0  0
   -2.6005   -0.3333   -0.2478 H   0  0  0  0  0  0  0  0  0  0  0  0
   -0.5675   -0.1203    0.3102 C   0  0  1  0  0  0  0  0  0  0  0  0
   -0.1866   -0.0045   -0.7052 H   0  0  0  0  0  0  0  0  0  0  0  0
   -0.7927    1.2778    0.9232 C   0  0  0  0  0  0  0  0  0  0  0  0
   -1.2751    1.1586    1.8953 H   0  0  0  0  0  0  0  0  0  0  0  0
    0.1854    1.7332    1.0930 H   0  0  0  0  0  0  0  0  0  0  0  0
   -1.6345    2.2516    0.0783 C   0  0  0  0  0  0  0  0  0  0  0  0
   -2.5772    1.7792   -0.1978 H   0  0  0  0  0  0  0  0  0  0  0  0
   -1.9307    3.5570    0.8222 C   0  0  0  0  0  0  0  0  0  0  0  0
   -0.9960    4.0342    1.1197 H   0  0  0  0  0  0  0  0  0  0  0  0
   -2.4847    4.2332    0.1708 H   0  0  0  0  0  0  0  0  0  0  0  0
   -2.5303    3.3659    1.7096 H   0  0  0  0  0  0  0  0  0  0  0  0
   -0.8855    2.5998   -1.2075 C   0  0  0  0  0  0  0  0  0  0  0  0
   -0.6887    1.6903   -1.7750 H   0  0  0  0  0  0  0  0  0  0  0  0
   -1.4913    3.2673   -1.8202 H   0  0  0  0  0  0  0  0  0  0  0  0
    0.0605    3.0881   -0.9707 H   0  0  0  0  0  0  0  0  0  0  0  0
    0.4424   -0.9588    1.1121 C   0  0  0  0  0  0  0  0  0  0  0  0
    1.6415   -0.8966    0.8506 O   0  0  0  0  0  0  0  0  0  0  0  0
   -0.0442   -1.7480    2.0786 N   0  0  0  0  0  0  0  0  0  0  0  0
   -1.0391   -1.7398    2.2372 H   0  0  0  0  0  0  0  0  0  0  0  0
    0.7809   -2.6158    2.9157 C   0  0  0  0  0  0  0  0  0  0  0  0
    1.5197   -2.0164    3.4525 H   0  0  0  0  0  0  0  0  0  0  0  0
    0.1592   -3.1495    3.6362 H   0  0  0  0  0  0  0  0  0  0  0  0
    1.3089   -3.3374    2.2904 H   0  0  0  0  0  0  0  0  0  0  0  0
  5  6  2  0  0  0  0
  5  7  1  0  0  0  0
  2  3  1  0  0  0  0
  2  4  1  0  0  0  0
  2  5  1  0  0  0  0
  1  2  1  0  0  0  0
 24 25  2  0  0  0  0
 24 26  1  0  0  0  0
 20 21  1  0  0  0  0
 20 22  1  0  0  0  0
 20 23  1  0  0  0  0
 16 17  1  0  0  0  0
 16 18  1  0  0  0  0
 16 19  1  0  0  0  0
 14 15  1  0  0  0  0
 14 16  1  0  0  0  0
 14 20  1  0  0  0  0
 11 12  1  0  0  0  0
 11 13  1  0  0  0  0
 11 14  1  0  0  0  0
  9 10  1  0  0  0  0
  9 11  1  0  0  0  0
  9 24  1  0  0  0  0
  7  8  1  0  0  0  0
  7  9  1  0  0  0  0
 28 29  1  0  0  0  0
 28 30  1  0  0  0  0
 28 31  1  0  0  0  0
 26 27  1  0  0  0  0
 26 28  1  0  0  0  0
M  END
$$$$
default_name
  -OEChem-01062215323D

 31 30  0     1  0  0  0  0  0999 V2000
   -3.5895   -3.5013    1.1082 H   0  0  0  0  0  0  0  0  0  0  0  0
   -3.5145   -2.5363    0.6082 C   0  0  0  0  0  0  0  0  0  0  0  0
   -4.2285   -1.8413    1.0452 H   0  0  0  0  0  0  0  0  0  0  0  0
   -3.7155   -2.6583   -0.4538 H   0  0  0  0  0  0  0  0  0  0  0  0
   -2.1155   -1.9963    0.7922 C   0  0  0  0  0  0  0  0  0  0  0  0
   -1.2875   -2.6383    1.4252 O   0  0  0  0  0  0  0  0  0  0  0  0
   -1.8575   -0.8123    0.2402 N   0  0  0  0  0  0  0  0  0  0  0  0
   -2.6005   -0.3333   -0.2478 H   0  0  0  0  0  0  0  0  0  0  0  0
   -0.5675   -0.1203    0.3102 C   0  0  1  0  0  0  0  0  0  0  0  0
   -0.1866   -0.0045   -0.7052 H   0  0  0  0  0  0  0  0  0  0  0  0
   -0.7927    1.2778    0.9232 C   0  0  0  0  0  0  0  0  0  0  0  0
   -1.2751    1.1586    1.8953 H   0  0  0  0  0  0  0  0  0  0  0  0
    0.1854    1.7332    1.0930 H   0  0  0  0  0  0  0  0  0  0  0  0
   -1.6345    2.2516    0.0783 C   0  0  0  0  0  0  0  0  0  0  0  0
   -2.5772    1.7792   -0.1978 H   0  0  0  0  0  0  0  0  0  0  0  0
   -1.9307    3.5570    0.8222 C   0  0  0  0  0  0  0  0  0  0  0  0
   -0.9960    4.0342    1.1197 H   0  0  0  0  0  0  0  0  0  0  0  0
   -2.4847    4.2332    0.1708 H   0  0  0  0  0  0  0  0  0  0  0  0
   -2.5303    3.3659    1.7096 H   0  0  0  0  0  0  0  0  0  0  0  0
   -0.8855    2.5998   -1.2075 C   0  0  0  0  0  0  0  0  0  0  0  0
   -0.6887    1.6903   -1.7750 H   0  0  0  0  0  0  0  0  0  0  0  0
   -1.4913    3.2673   -1.8202 H   0  0  0  0  0  0  0  0  0  0  0  0
    0.0605    3.0881   -0.9707 H   0  0  0  0  0  0  0  0  0  0  0  0
    0.4424   -0.9588    1.1121 C   0  0  0  0  0  0  0  0  0  0  0  0
    1.6430   -0.7040    1.0502 O   0  0  0  0  0  0  0  0  0  0  0  0
   -0.0437   -1.9624    1.8538 N   0  0  0  0  0  0  0  0  0  0  0  0
   -1.0411   -2.1050    1.8578 H   0  0  0  0  0  0  0  0  0  0  0  0
    0.7847   -2.8585    2.6572 C   0  0  0  0  0  0  0  0  0  0  0  0
    1.3515   -2.2792    3.3895 H   0  0  0  0  0  0  0  0  0  0  0  0
    0.1603   -3.5852    3.1792 H   0  0  0  0  0  0  0  0  0  0  0  0
    1.4896   -3.3857    2.0123 H   0  0  0  0  0  0  0  0  0  0  0  0
  5  6  2  0  0  0  0
  5  7  1  0  0  0  0
  2  3  1  0  0  0  0
  2  4  1  0  0  0  0
  2  5  1  0  0  0  0
  1  2  1  0  0  0  0
 24 25  2  0  0  0  0
 24 26  1  0  0  0  0
 20 21  1  0  0  0  0
 20 22  1  0  0  0  0
 20 23  1  0  0  0  0
 16 17  1  0  0  0  0
 16 18  1  0  0  0  0
 16 19  1  0  0  0  0
 14 15  1  0  0  0  0
 14 16  1  0  0  0  0
 14 20  1  0  0  0  0
 11 12  1  0  0  0  0
 11 13  1  0  0  0  0
 11 14  1  0  0  0  0
  9 10  1  0  0  0  0
  9 11  1  0  0  0  0
  9 24  1  0  0  0  0
  7  8  1  0  0  0  0
  7  9  1  0  0  0  0
 28 29  1  0  0  0  0
 28 30  1  0  0  0  0
 28 31  1  0  0  0  0
 26 27  1  0  0  0  0
 26 28  1  0  0  0  0
M  END
$$$$
default_name
  -OEChem-01062215323D

 31 30  0     1  0  0  0  0  0999 V2000
   -3.5895   -3.5013    1.1082 H   0  0  0  0  0  0  0  0  0  0  0  0
   -3.5145   -2.5363    0.6082 C   0  0  0  0  0  0  0  0  0  0  0  0
   -4.2285   -1.8413    1.0452 H   0  0  0  0  0  0  0  0  0  0  0  0
   -3.7155   -2.6583   -0.4538 H   0  0  0  0  0  0  0  0  0  0  0  0
   -2.1155   -1.9963    0.7922 C   0  0  0  0  0  0  0  0  0  0  0  0
   -1.2875   -2.6383    1.4252 O   0  0  0  0  0  0  0  0  0  0  0  0
   -1.8575   -0.8123    0.2402 N   0  0  0  0  0  0  0  0  0  0  0  0
   -2.6005   -0.3333   -0.2478 H   0  0  0  0  0  0  0  0  0  0  0  0
   -0.5675   -0.1203    0.3102 C   0  0  1  0  0  0  0  0  0  0  0  0
   -0.1866   -0.0045   -0.7052 H   0  0  0  0  0  0  0  0  0  0  0  0
   -0.7927    1.2778    0.9232 C   0  0  0  0  0  0  0  0  0  0  0  0
   -1.2751    1.1586    1.8953 H   0  0  0  0  0  0  0  0  0  0  0  0
    0.1854    1.7332    1.0930 H   0  0  0  0  0  0  0  0  0  0  0  0
   -1.6345    2.2516    0.0783 C   0  0  0  0  0  0  0  0  0  0  0  0
   -2.5772    1.7792   -0.1978 H   0  0  0  0  0  0  0  0  0  0  0  0
   -1.9307    3.5570    0.8222 C   0  0  0  0  0  0  0  0  0  0  0  0
   -0.9960    4.0342    1.1197 H   0  0  0  0  0  0  0  0  0  0  0  0
   -2.4847    4.2332    0.1708 H   0  0  0  0  0  0  0  0  0  0  0  0
   -2.5303    3.3659    1.7096 H   0  0  0  0  0  0  0  0  0  0  0  0
   -0.8855    2.5998   -1.2075 C   0  0  0  0  0  0  0  0  0  0  0  0
   -0.6887    1.6903   -1.7750 H   0  0  0  0  0  0  0  0  0  0  0  0
   -1.4913    3.2673   -1.8202 H   0  0  0  0  0  0  0  0  0  0  0  0
    0.0605    3.0881   -0.9707 H   0  0  0  0  0  0  0  0  0  0  0  0
    0.4424   -0.9588    1.1121 C   0  0  0  0  0  0  0  0  0  0  0  0
    1.5902   -0.5516    1.2760 O   0  0  0  0  0  0  0  0  0  0  0  0
    0.0174   -2.1313    1.6003 N   0  0  0  0  0  0  0  0  0  0  0  0
   -0.9402   -2.3936    1.4290 H   0  0  0  0  0  0  0  0  0  0  0  0
    0.8576   -3.0485    2.3667 C   0  0  0  0  0  0  0  0  0  0  0  0
    1.2334   -2.5450    3.2603 H   0  0  0  0  0  0  0  0  0  0  0  0
    0.2847   -3.9282    2.6640 H   0  0  0  0  0  0  0  0  0  0  0  0
    1.7099   -3.3607    1.7611 H   0  0  0  0  0  0  0  0  0  0  0  0
  5  6  2  0  0  0  0
  5  7  1  0  0  0  0
  2  3  1  0  0  0  0
  2  4  1  0  0  0  0
  2  5  1  0  0  0  0
  1  2  1  0  0  0  0
 24 25  2  0  0  0  0
 24 26  1  0  0  0  0
 20 21  1  0  0  0  0
 20 22  1  0  0  0  0
 20 23  1  0  0  0  0
 16 17  1  0  0  0  0
 16 18  1  0  0  0  0
 16 19  1  0  0  0  0
 14 15  1  0  0  0  0
 14 16  1  0  0  0  0
 14 20  1  0  0  0  0
 11 12  1  0  0  0  0
 11 13  1  0  0  0  0
 11 14  1  0  0  0  0
  9 10  1  0  0  0  0
  9 11  1  0  0  0  0
  9 24  1  0  0  0  0
  7  8  1  0  0  0  0
  7  9  1  0  0  0  0
 28 29  1  0  0  0  0
 28 30  1  0  0  0  0
 28 31  1  0  0  0  0
 26 27  1  0  0  0  0
 26 28  1  0  0  0  0
M  END
$$$$
default_name
  -OEChem-01062215323D

 31 30  0     1  0  0  0  0  0999 V2000
   -3.5895   -3.5013    1.1082 H   0  0  0  0  0  0  0  0  0  0  0  0
   -3.5145   -2.5363    0.6082 C   0  0  0  0  0  0  0  0  0  0  0  0
   -4.2285   -1.8413    1.0452 H   0  0  0  0  0  0  0  0  0  0  0  0
   -3.7155   -2.6583   -0.4538 H   0  0  0  0  0  0  0  0  0  0  0  0
   -2.1155   -1.9963    0.7922 C   0  0  0  0  0  0  0  0  0  0  0  0
   -1.2875   -2.6383    1.4252 O   0  0  0  0  0  0  0  0  0  0  0  0
   -1.8575   -0.8123    0.2402 N   0  0  0  0  0  0  0  0  0  0  0  0
   -2.6005   -0.3333   -0.2478 H   0  0  0  0  0  0  0  0  0  0  0  0
   -0.5675   -0.1203    0.3102 C   0  0  1  0  0  0  0  0  0  0  0  0
   -0.1866   -0.0045   -0.7052 H   0  0  0  0  0  0  0  0  0  0  0  0
   -0.7927    1.2778    0.9232 C   0  0  0  0  0  0  0  0  0  0  0  0
   -1.2751    1.1586    1.8953 H   0  0  0  0  0  0  0  0  0  0  0  0
    0.1854    1.7332    1.0930 H   0  0  0  0  0  0  0  0  0  0  0  0
   -1.6345    2.2516    0.0783 C   0  0  0  0  0  0  0  0  0  0  0  0
   -2.5772    1.7792   -0.1978 H   0  0  0  0  0  0  0  0  0  0  0  0
   -1.9307    3.5570    0.8222 C   0  0  0  0  0  0  0  0  0  0  0  0
   -0.9960    4.0342    1.1197 H   0  0  0  0  0  0  0  0  0  0  0  0
   -2.4847    4.2332    0.1708 H   0  0  0  0  0  0  0  0  0  0  0  0
   -2.5303    3.3659    1.7096 H   0  0  0  0  0  0  0  0  0  0  0  0
   -0.8855    2.5998   -1.2075 C   0  0  0  0  0  0  0  0  0  0  0  0
   -0.6887    1.6903   -1.7750 H   0  0  0  0  0  0  0  0  0  0  0  0
   -1.4913    3.2673   -1.8202 H   0  0  0  0  0  0  0  0  0  0  0  0
    0.0605    3.0881   -0.9707 H   0  0  0  0  0  0  0  0  0  0  0  0
    0.4424   -0.9588    1.1121 C   0  0  0  0  0  0  0  0  0  0  0  0
    1.4869   -0.4499    1.5125 O   0  0  0  0  0  0  0  0  0  0  0  0
    0.1349   -2.2431    1.3354 N   0  0  0  0  0  0  0  0  0  0  0  0
   -0.7433   -2.5858    0.9801 H   0  0  0  0  0  0  0  0  0  0  0  0
    0.9947   -3.1728    2.0641 C   0  0  0  0  0  0  0  0  0  0  0  0
    1.1734   -2.7958    3.0736 H   0  0  0  0  0  0  0  0  0  0  0  0
    0.5238   -4.1551    2.1256 H   0  0  0  0  0  0  0  0  0  0  0  0
    1.9547   -3.2642    1.5537 H   0  0  0  0  0  0  0  0  0  0  0  0
  5  6  2  0  0  0  0
  5  7  1  0  0  0  0
  2  3  1  0  0  0  0
  2  4  1  0  0  0  0
  2  5  1  0  0  0  0
  1  2  1  0  0  0  0
 24 25  2  0  0  0  0
 24 26  1  0  0  0  0
 20 21  1  0  0  0  0
 20 22  1  0  0  0  0
 20 23  1  0  0  0  0
 16 17  1  0  0  0  0
 16 18  1  0  0  0  0
 16 19  1  0  0  0  0
 14 15  1  0  0  0  0
 14 16  1  0  0  0  0
 14 20  1  0  0  0  0
 11 12  1  0  0  0  0
 11 13  1  0  0  0  0
 11 14  1  0  0  0  0
  9 10  1  0  0  0  0
  9 11  1  0  0  0  0
  9 24  1  0  0  0  0
  7  8  1  0  0  0  0
  7  9  1  0  0  0  0
 28 29  1  0  0  0  0
 28 30  1  0  0  0  0
 28 31  1  0  0  0  0
 26 27  1  0  0  0  0
 26 28  1  0  0  0  0
M  END
$$$$
default_name
  -OEChem-01062215323D

 31 30  0     1  0  0  0  0  0999 V2000
   -3.5895   -3.5013    1.1082 H   0  0  0  0  0  0  0  0  0  0  0  0
   -3.5145   -2.5363    0.6082 C   0  0  0  0  0  0  0  0  0  0  0  0
   -4.2285   -1.8413    1.0452 H   0  0  0  0  0  0  0  0  0  0  0  0
   -3.7155   -2.6583   -0.4538 H   0  0  0  0  0  0  0  0  0  0  0  0
   -2.1155   -1.9963    0.7922 C   0  0  0  0  0  0  0  0  0  0  0  0
   -1.2875   -2.6383    1.4252 O   0  0  0  0  0  0  0  0  0  0  0  0
   -1.8575   -0.8123    0.2402 N   0  0  0  0  0  0  0  0  0  0  0  0
   -2.6005   -0.3333   -0.2478 H   0  0  0  0  0  0  0  0  0  0  0  0
   -0.5675   -0.1203    0.3102 C   0  0  1  0  0  0  0  0  0  0  0  0
   -0.1866   -0.0045   -0.7052 H   0  0  0  0  0  0  0  0  0  0  0  0
   -0.7927    1.2778    0.9232 C   0  0  0  0  0  0  0  0  0  0  0  0
   -1.2751    1.1586    1.8953 H   0  0  0  0  0  0  0  0  0  0  0  0
    0.1854    1.7332    1.0930 H   0  0  0  0  0  0  0  0  0  0  0  0
   -1.6345    2.2516    0.0783 C   0  0  0  0  0  0  0  0  0  0  0  0
   -2.5772    1.7792   -0.1978 H   0  0  0  0  0  0  0  0  0  0  0  0
   -1.9307    3.5570    0.8222 C   0  0  0  0  0  0  0  0  0  0  0  0
   -0.9960    4.0342    1.1197 H   0  0  0  0  0  0  0  0  0  0  0  0
   -2.4847    4.2332    0.1708 H   0  0  0  0  0  0  0  0  0  0  0  0
   -2.5303    3.3659    1.7096 H   0  0  0  0  0  0  0  0  0  0  0  0
   -0.8855    2.5998   -1.2075 C   0  0  0  0  0  0  0  0  0  0  0  0
   -0.6887    1.6903   -1.7750 H   0  0  0  0  0  0  0  0  0  0  0  0
   -1.4913    3.2673   -1.8202 H   0  0  0  0  0  0  0  0  0  0  0  0
    0.0605    3.0881   -0.9707 H   0  0  0  0  0  0  0  0  0  0  0  0
    0.4424   -0.9588    1.1121 C   0  0  0  0  0  0  0  0  0  0  0  0
    1.3399   -0.4058    1.7436 O   0  0  0  0  0  0  0  0  0  0  0  0
    0.3009   -2.2901    1.0771 N   0  0  0  0  0  0  0  0  0  0  0  0
   -0.4638   -2.6687    0.5415 H   0  0  0  0  0  0  0  0  0  0  0  0
    1.1865   -3.2230    1.7701 C   0  0  0  0  0  0  0  0  0  0  0  0
    1.1756   -3.0144    2.8423 H   0  0  0  0  0  0  0  0  0  0  0  0
    0.8613   -4.2506    1.6006 H   0  0  0  0  0  0  0  0  0  0  0  0
    2.2074   -3.1027    1.4043 H   0  0  0  0  0  0  0  0  0  0  0  0
  5  6  2  0  0  0  0
  5  7  1  0  0  0  0
  2  3  1  0  0  0  0
  2  4  1  0  0  0  0
  2  5  1  0  0  0  0
  1  2  1  0  0  0  0
 24 25  2  0  0  0  0
 24 26  1  0  0  0  0
 20 21  1  0  0  0  0
 20 22  1  0  0  0  0
 20 23  1  0  0  0  0
 16 17  1  0  0  0  0
 16 18  1  0  0  0  0
 16 19  1  0  0  0  0
 14 15  1  0  0  0  0
 14 16  1  0  0  0  0
 14 20  1  0  0  0  0
 11 12  1  0  0  0  0
 11 13  1  0  0  0  0
 11 14  1  0  0  0  0
  9 10  1  0  0  0  0
  9 11  1  0  0  0  0
  9 24  1  0  0  0  0
  7  8  1  0  0  0  0
  7  9  1  0  0  0  0
 28 29  1  0  0  0  0
 28 30  1  0  0  0  0
 28 31  1  0  0  0  0
 26 27  1  0  0  0  0
 26 28  1  0  0  0  0
M  END
$$$$
default_name
  -OEChem-01062215323D

 31 30  0     1  0  0  0  0  0999 V2000
   -3.5895   -3.5013    1.1082 H   0  0  0  0  0  0  0  0  0  0  0  0
   -3.5145   -2.5363    0.6082 C   0  0  0  0  0  0  0  0  0  0  0  0
   -4.2285   -1.8413    1.0452 H   0  0  0  0  0  0  0  0  0  0  0  0
   -3.7155   -2.6583   -0.4538 H   0  0  0  0  0  0  0  0  0  0  0  0
   -2.1155   -1.9963    0.7922 C   0  0  0  0  0  0  0  0  0  0  0  0
   -1.2875   -2.6383    1.4252 O   0  0  0  0  0  0  0  0  0  0  0  0
   -1.8575   -0.8123    0.2402 N   0  0  0  0  0  0  0  0  0  0  0  0
   -2.6005   -0.3333   -0.2478 H   0  0  0  0  0  0  0  0  0  0  0  0
   -0.5675   -0.1203    0.3102 C   0  0  1  0  0  0  0  0  0  0  0  0
   -0.1866   -0.0045   -0.7052 H   0  0  0  0  0  0  0  0  0  0  0  0
   -0.7927    1.2778    0.9232 C   0  0  0  0  0  0  0  0  0  0  0  0
   -1.2751    1.1586    1.8953 H   0  0  0  0  0  0  0  0  0  0  0  0
    0.1854    1.7332    1.0930 H   0  0  0  0  0  0  0  0  0  0  0  0
   -1.6345    2.2516    0.0783 C   0  0  0  0  0  0  0  0  0  0  0  0
   -2.5772    1.7792   -0.1978 H   0  0  0  0  0  0  0  0  0  0  0  0
   -1.9307    3.5570    0.8222 C   0  0  0  0  0  0  0  0  0  0  0  0
   -0.9960    4.0342    1.1197 H   0  0  0  0  0  0  0  0  0  0  0  0
   -2.4847    4.2332    0.1708 H   0  0  0  0  0  0  0  0  0  0  0  0
   -2.5303    3.3659    1.7096 H   0  0  0  0  0  0  0  0  0  0  0  0
   -0.8855    2.5998   -1.2075 C   0  0  0  0  0  0  0  0  0  0  0  0
   -0.6887    1.6903   -1.7750 H   0  0  0  0  0  0  0  0  0  0  0  0
   -1.4913    3.2673   -1.8202 H   0  0  0  0  0  0  0  0  0  0  0  0
    0.0605    3.0881   -0.9707 H   0  0  0  0  0  0  0  0  0  0  0  0
    0.4424   -0.9588    1.1121 C   0  0  0  0  0  0  0  0  0  0  0  0
    1.1594   -0.4223    1.9537 O   0  0  0  0  0  0  0  0  0  0  0  0
    0.5041   -2.2693    0.8430 N   0  0  0  0  0  0  0  0  0  0  0  0
   -0.1208   -2.6365    0.1432 H   0  0  0  0  0  0  0  0  0  0  0  0
    1.4201   -3.1957    1.5046 C   0  0  0  0  0  0  0  0  0  0  0  0
    1.2400   -3.1859    2.5819 H   0  0  0  0  0  0  0  0  0  0  0  0
    1.2743   -4.2081    1.1250 H   0  0  0  0  0  0  0  0  0  0  0  0
    2.4508   -2.8872    1.3231 H   0  0  0  0  0  0  0  0  0  0  0  0
  5  6  2  0  0  0  0
  5  7  1  0  0  0  0
  2  3  1  0  0  0  0
  2  4  1  0  0  0  0
  2  5  1  0  0  0  0
  1  2  1  0  0  0  0
 24 25  2  0  0  0  0
 24 26  1  0  0  0  0
 20 21  1  0  0  0  0
 20 22  1  0  0  0  0
 20 23  1  0  0  0  0
 16 17  1  0  0  0  0
 16 18  1  0  0  0  0
 16 19  1  0  0  0  0
 14 15  1  0  0  0  0
 14 16  1  0  0  0  0
 14 20  1  0  0  0  0
 11 12  1  0  0  0  0
 11 13  1  0  0  0  0
 11 14  1  0  0  0  0
  9 10  1  0  0  0  0
  9 11  1  0  0  0  0
  9 24  1  0  0  0  0
  7  8  1  0  0  0  0
  7  9  1  0  0  0  0
 28 29  1  0  0  0  0
 28 30  1  0  0  0  0
 28 31  1  0  0  0  0
 26 27  1  0  0  0  0
 26 28  1  0  0  0  0
M  END
$$$$
default_name
  -OEChem-01062215323D

 31 30  0     1  0  0  0  0  0999 V2000
   -3.5895   -3.5013    1.1082 H   0  0  0  0  0  0  0  0  0  0  0  0
   -3.5145   -2.5363    0.6082 C   0  0  0  0  0  0  0  0  0  0  0  0
   -4.2285   -1.8413    1.0452 H   0  0  0  0  0  0  0  0  0  0  0  0
   -3.7155   -2.6583   -0.4538 H   0  0  0  0  0  0  0  0  0  0  0  0
   -2.1155   -1.9963    0.7922 C   0  0  0  0  0  0  0  0  0  0  0  0
   -1.2875   -2.6383    1.4252 O   0  0  0  0  0  0  0  0  0  0  0  0
   -1.8575   -0.8123    0.2402 N   0  0  0  0  0  0  0  0  0  0  0  0
   -2.6005   -0.3333   -0.2478 H   0  0  0  0  0  0  0  0  0  0  0  0
   -0.5675   -0.1203    0.3102 C   0  0  1  0  0  0  0  0  0  0  0  0
   -0.1866   -0.0045   -0.7052 H   0  0  0  0  0  0  0  0  0  0  0  0
   -0.7927    1.2778    0.9232 C   0  0  0  0  0  0  0  0  0  0  0  0
   -1.2751    1.1586    1.8953 H   0  0  0  0  0  0  0  0  0  0  0  0
    0.1854    1.7332    1.0930 H   0  0  0  0  0  0  0  0  0  0  0  0
   -1.6345    2.2516    0.0783 C   0  0  0  0  0  0  0  0  0  0  0  0
   -2.5772    1.7792   -0.1978 H   0  0  0  0  0  0  0  0  0  0  0  0
   -1.9307    3.5570    0.8222 C   0  0  0  0  0  0  0  0  0  0  0  0
   -0.9960    4.0342    1.1197 H   0  0  0  0  0  0  0  0  0  0  0  0
   -2.4847    4.2332    0.1708 H   0  0  0  0  0  0  0  0  0  0  0  0
   -2.5303    3.3659    1.7096 H   0  0  0  0  0  0  0  0  0  0  0  0
   -0.8855    2.5998   -1.2075 C   0  0  0  0  0  0  0  0  0  0  0  0
   -0.6887    1.6903   -1.7750 H   0  0  0  0  0  0  0  0  0  0  0  0
   -1.4913    3.2673   -1.8202 H   0  0  0  0  0  0  0  0  0  0  0  0
    0.0605    3.0881   -0.9707 H   0  0  0  0  0  0  0  0  0  0  0  0
    0.4424   -0.9588    1.1121 C   0  0  0  0  0  0  0  0  0  0  0  0
    0.9577   -0.4983    2.1283 O   0  0  0  0  0  0  0  0  0  0  0  0
    0.7306   -2.1820    0.6491 N   0  0  0  0  0  0  0  0  0  0  0  0
    0.2623   -2.4914   -0.1876 H   0  0  0  0  0  0  0  0  0  0  0  0
    1.6794   -3.0926    1.2857 C   0  0  0  0  0  0  0  0  0  0  0  0
    1.3619   -3.2987    2.3104 H   0  0  0  0  0  0  0  0  0  0  0  0
    1.7346   -4.0305    0.7311 H   0  0  0  0  0  0  0  0  0  0  0  0
    2.6683   -2.6324    1.3156 H   0  0  0  0  0  0  0  0  0  0  0  0
  5  6  2  0  0  0  0
  5  7  1  0  0  0  0
  2  3  1  0  0  0  0
  2  4  1  0  0  0  0
  2  5  1  0  0  0  0
  1  2  1  0  0  0  0
 24 25  2  0  0  0  0
 24 26  1  0  0  0  0
 20 21  1  0  0  0  0
 20 22  1  0  0  0  0
 20 23  1  0  0  0  0
 16 17  1  0  0  0  0
 16 18  1  0  0  0  0
 16 19  1  0  0  0  0
 14 15  1  0  0  0  0
 14 16  1  0  0  0  0
 14 20  1  0  0  0  0
 11 12  1  0  0  0  0
 11 13  1  0  0  0  0
 11 14  1  0  0  0  0
  9 10  1  0  0  0  0
  9 11  1  0  0  0  0
  9 24  1  0  0  0  0
  7  8  1  0  0  0  0
  7  9  1  0  0  0  0
 28 29  1  0  0  0  0
 28 30  1  0  0  0  0
 28 31  1  0  0  0  0
 26 27  1  0  0  0  0
 26 28  1  0  0  0  0
M  END
$$$$
default_name
  -OEChem-01062215323D

 31 30  0     1  0  0  0  0  0999 V2000
   -3.5895   -3.5013    1.1082 H   0  0  0  0  0  0  0  0  0  0  0  0
   -3.5145   -2.5363    0.6082 C   0  0  0  0  0  0  0  0  0  0  0  0
   -4.2285   -1.8413    1.0452 H   0  0  0  0  0  0  0  0  0  0  0  0
   -3.7155   -2.6583   -0.4538 H   0  0  0  0  0  0  0  0  0  0  0  0
   -2.1155   -1.9963    0.7922 C   0  0  0  0  0  0  0  0  0  0  0  0
   -1.2875   -2.6383    1.4252 O   0  0  0  0  0  0  0  0  0  0  0  0
   -1.8575   -0.8123    0.2402 N   0  0  0  0  0  0  0  0  0  0  0  0
   -2.6005   -0.3333   -0.2478 H   0  0  0  0  0  0  0  0  0  0  0  0
   -0.5675   -0.1203    0.3102 C   0  0  1  0  0  0  0  0  0  0  0  0
   -0.1866   -0.0045   -0.7052 H   0  0  0  0  0  0  0  0  0  0  0  0
   -0.7927    1.2778    0.9232 C   0  0  0  0  0  0  0  0  0  0  0  0
   -1.2751    1.1586    1.8953 H   0  0  0  0  0  0  0  0  0  0  0  0
    0.1854    1.7332    1.0930 H   0  0  0  0  0  0  0  0  0  0  0  0
   -1.6345    2.2516    0.0783 C   0  0  0  0  0  0  0  0  0  0  0  0
   -2.5772    1.7792   -0.1978 H   0  0  0  0  0  0  0  0  0  0  0  0
   -1.9307    3.5570    0.8222 C   0  0  0  0  0  0  0  0  0  0  0  0
   -0.9960    4.0342    1.1197 H   0  0  0  0  0  0  0  0  0  0  0  0
   -2.4847    4.2332    0.1708 H   0  0  0  0  0  0  0  0  0  0  0  0
   -2.5303    3.3659    1.7096 H   0  0  0  0  0  0  0  0  0  0  0  0
   -0.8855    2.5998   -1.2075 C   0  0  0  0  0  0  0  0  0  0  0  0
   -0.6887    1.6903   -1.7750 H   0  0  0  0  0  0  0  0  0  0  0  0
   -1.4913    3.2673   -1.8202 H   0  0  0  0  0  0  0  0  0  0  0  0
    0.0605    3.0881   -0.9707 H   0  0  0  0  0  0  0  0  0  0  0  0
    0.4424   -0.9588    1.1121 C   0  0  0  0  0  0  0  0  0  0  0  0
    0.7484   -0.6286    2.2555 O   0  0  0  0  0  0  0  0  0  0  0  0
    0.9649   -2.0342    0.5086 N   0  0  0  0  0  0  0  0  0  0  0  0
    0.6595   -2.2434   -0.4284 H   0  0  0  0  0  0  0  0  0  0  0  0
    1.9469   -2.9208    1.1285 C   0  0  0  0  0  0  0  0  0  0  0  0
    1.5333   -3.3450    2.0462 H   0  0  0  0  0  0  0  0  0  0  0  0
    2.2108   -3.7299    0.4457 H   0  0  0  0  0  0  0  0  0  0  0  0
    2.8451   -2.3557    1.3824 H   0  0  0  0  0  0  0  0  0  0  0  0
  5  6  2  0  0  0  0
  5  7  1  0  0  0  0
  2  3  1  0  0  0  0
  2  4  1  0  0  0  0
  2  5  1  0  0  0  0
  1  2  1  0  0  0  0
 24 25  2  0  0  0  0
 24 26  1  0  0  0  0
 20 21  1  0  0  0  0
 20 22  1  0  0  0  0
 20 23  1  0  0  0  0
 16 17  1  0  0  0  0
 16 18  1  0  0  0  0
 16 19  1  0  0  0  0
 14 15  1  0  0  0  0
 14 16  1  0  0  0  0
 14 20  1  0  0  0  0
 11 12  1  0  0  0  0
 11 13  1  0  0  0  0
 11 14  1  0  0  0  0
  9 10  1  0  0  0  0
  9 11  1  0  0  0  0
  9 24  1  0  0  0  0
  7  8  1  0  0  0  0
  7  9  1  0  0  0  0
 28 29  1  0  0  0  0
 28 30  1  0  0  0  0
 28 31  1  0  0  0  0
 26 27  1  0  0  0  0
 26 28  1  0  0  0  0
M  END
$$$$
default_name
  -OEChem-01062215323D

 31 30  0     1  0  0  0  0  0999 V2000
   -3.5895   -3.5013    1.1082 H   0  0  0  0  0  0  0  0  0  0  0  0
   -3.5145   -2.5363    0.6082 C   0  0  0  0  0  0  0  0  0  0  0  0
   -4.2285   -1.8413    1.0452 H   0  0  0  0  0  0  0  0  0  0  0  0
   -3.7155   -2.6583   -0.4538 H   0  0  0  0  0  0  0  0  0  0  0  0
   -2.1155   -1.9963    0.7922 C   0  0  0  0  0  0  0  0  0  0  0  0
   -1.2875   -2.6383    1.4252 O   0  0  0  0  0  0  0  0  0  0  0  0
   -1.8575   -0.8123    0.2402 N   0  0  0  0  0  0  0  0  0  0  0  0
   -2.6005   -0.3333   -0.2478 H   0  0  0  0  0  0  0  0  0  0  0  0
   -0.5675   -0.1203    0.3102 C   0  0  1  0  0  0  0  0  0  0  0  0
   -0.1866   -0.0045   -0.7052 H   0  0  0  0  0  0  0  0  0  0  0  0
   -0.7927    1.2778    0.9232 C   0  0  0  0  0  0  0  0  0  0  0  0
   -1.2751    1.1586    1.8953 H   0  0  0  0  0  0  0  0  0  0  0  0
    0.1854    1.7332    1.0930 H   0  0  0  0  0  0  0  0  0  0  0  0
   -1.6345    2.2516    0.0783 C   0  0  0  0  0  0  0  0  0  0  0  0
   -2.5772    1.7792   -0.1978 H   0  0  0  0  0  0  0  0  0  0  0  0
   -1.9307    3.5570    0.8222 C   0  0  0  0  0  0  0  0  0  0  0  0
   -0.9960    4.0342    1.1197 H   0  0  0  0  0  0  0  0  0  0  0  0
   -2.4847    4.2332    0.1708 H   0  0  0  0  0  0  0  0  0  0  0  0
   -2.5303    3.3659    1.7096 H   0  0  0  0  0  0  0  0  0  0  0  0
   -0.8855    2.5998   -1.2075 C   0  0  0  0  0  0  0  0  0  0  0  0
   -0.6887    1.6903   -1.7750 H   0  0  0  0  0  0  0  0  0  0  0  0
   -1.4913    3.2673   -1.8202 H   0  0  0  0  0  0  0  0  0  0  0  0
    0.0605    3.0881   -0.9707 H   0  0  0  0  0  0  0  0  0  0  0  0
    0.4424   -0.9588    1.1121 C   0  0  0  0  0  0  0  0  0  0  0  0
    0.5459   -0.8043    2.3268 O   0  0  0  0  0  0  0  0  0  0  0  0
    1.1911   -1.8359    0.4310 N   0  0  0  0  0  0  0  0  0  0  0  0
    1.0437   -1.9093   -0.5629 H   0  0  0  0  0  0  0  0  0  0  0  0
    2.2043   -2.6921    1.0435 C   0  0  0  0  0  0  0  0  0  0  0  0
    1.7424   -3.3217    1.8072 H   0  0  0  0  0  0  0  0  0  0  0  0
    2.6705   -3.3268    0.2883 H   0  0  0  0  0  0  0  0  0  0  0  0
    2.9690   -2.0758    1.5189 H   0  0  0  0  0  0  0  0  0  0  0  0
  5  6  2  0  0  0  0
  5  7  1  0  0  0  0
  2  3  1  0  0  0  0
  2  4  1  0  0  0  0
  2  5  1  0  0  0  0
  1  2  1  0  0  0  0
 24 25  2  0  0  0  0
 24 26  1  0  0  0  0
 20 21  1  0  0  0  0
 20 22  1  0  0  0  0
 20 23  1  0  0  0  0
 16 17  1  0  0  0  0
 16 18  1  0  0  0  0
 16 19  1  0  0  0  0
 14 15  1  0  0  0  0
 14 16  1  0  0  0  0
 14 20  1  0  0  0  0
 11 12  1  0  0  0  0
 11 13  1  0  0  0  0
 11 14  1  0  0  0  0
  9 10  1  0  0  0  0
  9 11  1  0  0  0  0
  9 24  1  0  0  0  0
  7  8  1  0  0  0  0
  7  9  1  0  0  0  0
 28 29  1  0  0  0  0
 28 30  1  0  0  0  0
 28 31  1  0  0  0  0
 26 27  1  0  0  0  0
 26 28  1  0  0  0  0
M  END
$$$$
default_name
  -OEChem-01062215323D

 31 30  0     1  0  0  0  0  0999 V2000
   -3.5895   -3.5013    1.1082 H   0  0  0  0  0  0  0  0  0  0  0  0
   -3.5145   -2.5363    0.6082 C   0  0  0  0  0  0  0  0  0  0  0  0
   -4.2285   -1.8413    1.0452 H   0  0  0  0  0  0  0  0  0  0  0  0
   -3.7155   -2.6583   -0.4538 H   0  0  0  0  0  0  0  0  0  0  0  0
   -2.1155   -1.9963    0.7922 C   0  0  0  0  0  0  0  0  0  0  0  0
   -1.2875   -2.6383    1.4252 O   0  0  0  0  0  0  0  0  0  0  0  0
   -1.8575   -0.8123    0.2402 N   0  0  0  0  0  0  0  0  0  0  0  0
   -2.6005   -0.3333   -0.2478 H   0  0  0  0  0  0  0  0  0  0  0  0
   -0.5675   -0.1203    0.3102 C   0  0  1  0  0  0  0  0  0  0  0  0
   -0.1866   -0.0045   -0.7052 H   0  0  0  0  0  0  0  0  0  0  0  0
   -0.7927    1.2778    0.9232 C   0  0  0  0  0  0  0  0  0  0  0  0
   -1.2751    1.1586    1.8953 H   0  0  0  0  0  0  0  0  0  0  0  0
    0.1854    1.7332    1.0930 H   0  0  0  0  0  0  0  0  0  0  0  0
   -1.6345    2.2516    0.0783 C   0  0  0  0  0  0  0  0  0  0  0  0
   -2.5772    1.7792   -0.1978 H   0  0  0  0  0  0  0  0  0  0  0  0
   -1.9307    3.5570    0.8222 C   0  0  0  0  0  0  0  0  0  0  0  0
   -0.9960    4.0342    1.1197 H   0  0  0  0  0  0  0  0  0  0  0  0
   -2.4847    4.2332    0.1708 H   0  0  0  0  0  0  0  0  0  0  0  0
   -2.5303    3.3659    1.7096 H   0  0  0  0  0  0  0  0  0  0  0  0
   -0.8855    2.5998   -1.2075 C   0  0  0  0  0  0  0  0  0  0  0  0
   -0.6887    1.6903   -1.7750 H   0  0  0  0  0  0  0  0  0  0  0  0
   -1.4913    3.2673   -1.8202 H   0  0  0  0  0  0  0  0  0  0  0  0
    0.0605    3.0881   -0.9707 H   0  0  0  0  0  0  0  0  0  0  0  0
    0.4424   -0.9588    1.1121 C   0  0  0  0  0  0  0  0  0  0  0  0
    0.3640   -1.0135    2.3372 O   0  0  0  0  0  0  0  0  0  0  0  0
    1.3938   -1.6007    0.4217 N   0  0  0  0  0  0  0  0  0  0  0  0
    1.3887   -1.5119   -0.5818 H   0  0  0  0  0  0  0  0  0  0  0  0
    2.4341   -2.4220    1.0365 C   0  0  0  0  0  0  0  0  0  0  0  0
    1.9749   -3.2304    1.6099 H   0  0  0  0  0  0  0  0  0  0  0  0
    3.0823   -2.8487    0.2696 H   0  0  0  0  0  0  0  0  0  0  0  0
    3.0318   -1.8120    1.7157 H   0  0  0  0  0  0  0  0  0  0  0  0
  5  6  2  0  0  0  0
  5  7  1  0  0  0  0
  2  3  1  0  0  0  0
  2  4  1  0  0  0  0
  2  5  1  0  0  0  0
  1  2  1  0  0  0  0
 24 25  2  0  0  0  0
 24 26  1  0  0  0  0
 20 21  1  0  0  0  0
 20 22  1  0  0  0  0
 20 23  1  0  0  0  0
 16 17  1  0  0  0  0
 16 18  1  0  0  0  0
 16 19  1  0  0  0  0
 14 15  1  0  0  0  0
 14 16  1  0  0  0  0
 14 20  1  0  0  0  0
 11 12  1  0  0  0  0
 11 13  1  0  0  0  0
 11 14  1  0  0  0  0
  9 10  1  0  0  0  0
  9 11  1  0  0  0  0
  9 24  1  0  0  0  0
  7  8  1  0  0  0  0
  7  9  1  0  0  0  0
 28 29  1  0  0  0  0
 28 30  1  0  0  0  0
 28 31  1  0  0  0  0
 26 27  1  0  0  0  0
 26 28  1  0  0  0  0
M  END
$$$$
default_name
  -OEChem-01062215323D

 31 30  0     1  0  0  0  0  0999 V2000
   -3.5895   -3.5013    1.1082 H   0  0  0  0  0  0  0  0  0  0  0  0
   -3.5145   -2.5363    0.6082 C   0  0  0  0  0  0  0  0  0  0  0  0
   -4.2285   -1.8413    1.0452 H   0  0  0  0  0  0  0  0  0  0  0  0
   -3.7155   -2.6583   -0.4538 H   0  0  0  0  0  0  0  0  0  0  0  0
   -2.1155   -1.9963    0.7922 C   0  0  0  0  0  0  0  0  0  0  0  0
   -1.2875   -2.6383    1.4252 O   0  0  0  0  0  0  0  0  0  0  0  0
   -1.8575   -0.8123    0.2402 N   0  0  0  0  0  0  0  0  0  0  0  0
   -2.6005   -0.3333   -0.2478 H   0  0  0  0  0  0  0  0  0  0  0  0
   -0.5675   -0.1203    0.3102 C   0  0  1  0  0  0  0  0  0  0  0  0
   -0.1866   -0.0045   -0.7052 H   0  0  0  0  0  0  0  0  0  0  0  0
   -0.7927    1.2778    0.9232 C   0  0  0  0  0  0  0  0  0  0  0  0
   -1.2751    1.1586    1.8953 H   0  0  0  0  0  0  0  0  0  0  0  0
    0.1854    1.7332    1.0930 H   0  0  0  0  0  0  0  0  0  0  0  0
   -1.6345    2.2516    0.0783 C   0  0  0  0  0  0  0  0  0  0  0  0
   -2.5772    1.7792   -0.1978 H   0  0  0  0  0  0  0  0  0  0  0  0
   -1.9307    3.5570    0.8222 C   0  0  0  0  0  0  0  0  0  0  0  0
   -0.9960    4.0342    1.1197 H   0  0  0  0  0  0  0  0  0  0  0  0
   -2.4847    4.2332    0.1708 H   0  0  0  0  0  0  0  0  0  0  0  0
   -2.5303    3.3659    1.7096 H   0  0  0  0  0  0  0  0  0  0  0  0
   -0.8855    2.5998   -1.2075 C   0  0  0  0  0  0  0  0  0  0  0  0
   -0.6887    1.6903   -1.7750 H   0  0  0  0  0  0  0  0  0  0  0  0
   -1.4913    3.2673   -1.8202 H   0  0  0  0  0  0  0  0  0  0  0  0
    0.0605    3.0881   -0.9707 H   0  0  0  0  0  0  0  0  0  0  0  0
    0.4424   -0.9588    1.1121 C   0  0  0  0  0  0  0  0  0  0  0  0
    0.2150   -1.2418    2.2861 O   0  0  0  0  0  0  0  0  0  0  0  0
    1.5591   -1.3446    0.4813 N   0  0  0  0  0  0  0  0  0  0  0  0
    1.6709   -1.0782   -0.4839 H   0  0  0  0  0  0  0  0  0  0  0  0
    2.6205   -2.1290    1.1082 C   0  0  0  0  0  0  0  0  0  0  0  0
    2.2149   -3.0774    1.4676 H   0  0  0  0  0  0  0  0  0  0  0  0
    3.4182   -2.3281    0.3909 H   0  0  0  0  0  0  0  0  0  0  0  0
    3.0290   -1.5822    1.9595 H   0  0  0  0  0  0  0  0  0  0  0  0
  5  6  2  0  0  0  0
  5  7  1  0  0  0  0
  2  3  1  0  0  0  0
  2  4  1  0  0  0  0
  2  5  1  0  0  0  0
  1  2  1  0  0  0  0
 24 25  2  0  0  0  0
 24 26  1  0  0  0  0
 20 21  1  0  0  0  0
 20 22  1  0  0  0  0
 20 23  1  0  0  0  0
 16 17  1  0  0  0  0
 16 18  1  0  0  0  0
 16 19  1  0  0  0  0
 14 15  1  0  0  0  0
 14 16  1  0  0  0  0
 14 20  1  0  0  0  0
 11 12  1  0  0  0  0
 11 13  1  0  0  0  0
 11 14  1  0  0  0  0
  9 10  1  0  0  0  0
  9 11  1  0  0  0  0
  9 24  1  0  0  0  0
  7  8  1  0  0  0  0
  7  9  1  0  0  0  0
 28 29  1  0  0  0  0
 28 30  1  0  0  0  0
 28 31  1  0  0  0  0
 26 27  1  0  0  0  0
 26 28  1  0  0  0  0
M  END
$$$$
default_name
  -OEChem-01062215323D

 31 30  0     1  0  0  0  0  0999 V2000
   -3.5895   -3.5013    1.1082 H   0  0  0  0  0  0  0  0  0  0  0  0
   -3.5145   -2.5363    0.6082 C   0  0  0  0  0  0  0  0  0  0  0  0
   -4.2285   -1.8413    1.0452 H   0  0  0  0  0  0  0  0  0  0  0  0
   -3.7155   -2.6583   -0.4538 H   0  0  0  0  0  0  0  0  0  0  0  0
   -2.1155   -1.9963    0.7922 C   0  0  0  0  0  0  0  0  0  0  0  0
   -1.2875   -2.6383    1.4252 O   0  0  0  0  0  0  0  0  0  0  0  0
   -1.8575   -0.8123    0.2402 N   0  0  0  0  0  0  0  0  0  0  0  0
   -2.6005   -0.3333   -0.2478 H   0  0  0  0  0  0  0  0  0  0  0  0
   -0.5675   -0.1203    0.3102 C   0  0  1  0  0  0  0  0  0  0  0  0
   -0.1866   -0.0045   -0.7052 H   0  0  0  0  0  0  0  0  0  0  0  0
   -0.7927    1.2778    0.9232 C   0  0  0  0  0  0  0  0  0  0  0  0
   -1.2751    1.1586    1.8953 H   0  0  0  0  0  0  0  0  0  0  0  0
    0.1854    1.7332    1.0930 H   0  0  0  0  0  0  0  0  0  0  0  0
   -1.6345    2.2516    0.0783 C   0  0  0  0  0  0  0  0  0  0  0  0
   -2.5772    1.7792   -0.1978 H   0  0  0  0  0  0  0  0  0  0  0  0
   -1.9307    3.5570    0.8222 C   0  0  0  0  0  0  0  0  0  0  0  0
   -0.9960    4.0342    1.1197 H   0  0  0  0  0  0  0  0  0  0  0  0
   -2.4847    4.2332    0.1708 H   0  0  0  0  0  0  0  0  0  0  0  0
   -2.5303    3.3659    1.7096 H   0  0  0  0  0  0  0  0  0  0  0  0
   -0.8855    2.5998   -1.2075 C   0  0  0  0  0  0  0  0  0  0  0  0
   -0.6887    1.6903   -1.7750 H   0  0  0  0  0  0  0  0  0  0  0  0
   -1.4913    3.2673   -1.8202 H   0  0  0  0  0  0  0  0  0  0  0  0
    0.0605    3.0881   -0.9707 H   0  0  0  0  0  0  0  0  0  0  0  0
    0.4424   -0.9588    1.1121 C   0  0  0  0  0  0  0  0  0  0  0  0
    0.1091   -1.4738    2.1769 O   0  0  0  0  0  0  0  0  0  0  0  0
    1.6759   -1.0850    0.6057 N   0  0  0  0  0  0  0  0  0  0  0  0
    1.8713   -0.6379   -0.2758 H   0  0  0  0  0  0  0  0  0  0  0  0
    2.7510   -1.8329    1.2534 C   0  0  0  0  0  0  0  0  0  0  0  0
    2.4463   -2.8729    1.3901 H   0  0  0  0  0  0  0  0  0  0  0  0
    3.6553   -1.8005    0.6439 H   0  0  0  0  0  0  0  0  0  0  0  0
    2.9609   -1.4020    2.2337 H   0  0  0  0  0  0  0  0  0  0  0  0
  5  6  2  0  0  0  0
  5  7  1  0  0  0  0
  2  3  1  0  0  0  0
  2  4  1  0  0  0  0
  2  5  1  0  0  0  0
  1  2  1  0  0  0  0
 24 25  2  0  0  0  0
 24 26  1  0  0  0  0
 20 21  1  0  0  0  0
 20 22  1  0  0  0  0
 20 23  1  0  0  0  0
 16 17  1  0  0  0  0
 16 18  1  0  0  0  0
 16 19  1  0  0  0  0
 14 15  1  0  0  0  0
 14 16  1  0  0  0  0
 14 20  1  0  0  0  0
 11 12  1  0  0  0  0
 11 13  1  0  0  0  0
 11 14  1  0  0  0  0
  9 10  1  0  0  0  0
  9 11  1  0  0  0  0
  9 24  1  0  0  0  0
  7  8  1  0  0  0  0
  7  9  1  0  0  0  0
 28 29  1  0  0  0  0
 28 30  1  0  0  0  0
 28 31  1  0  0  0  0
 26 27  1  0  0  0  0
 26 28  1  0  0  0  0
M  END
$$$$
default_name
  -OEChem-01062215323D

 31 30  0     1  0  0  0  0  0999 V2000
   -3.5895   -3.5013    1.1082 H   0  0  0  0  0  0  0  0  0  0  0  0
   -3.5145   -2.5363    0.6082 C   0  0  0  0  0  0  0  0  0  0  0  0
   -4.2285   -1.8413    1.0452 H   0  0  0  0  0  0  0  0  0  0  0  0
   -3.7155   -2.6583   -0.4538 H   0  0  0  0  0  0  0  0  0  0  0  0
   -2.1155   -1.9963    0.7922 C   0  0  0  0  0  0  0  0  0  0  0  0
   -1.2875   -2.6383    1.4252 O   0  0  0  0  0  0  0  0  0  0  0  0
   -1.8575   -0.8123    0.2402 N   0  0  0  0  0  0  0  0  0  0  0  0
   -2.6005   -0.3333   -0.2478 H   0  0  0  0  0  0  0  0  0  0  0  0
   -0.5675   -0.1203    0.3102 C   0  0  1  0  0  0  0  0  0  0  0  0
   -0.1866   -0.0045   -0.7052 H   0  0  0  0  0  0  0  0  0  0  0  0
   -0.7927    1.2778    0.9232 C   0  0  0  0  0  0  0  0  0  0  0  0
   -1.2751    1.1586    1.8953 H   0  0  0  0  0  0  0  0  0  0  0  0
    0.1854    1.7332    1.0930 H   0  0  0  0  0  0  0  0  0  0  0  0
   -1.6345    2.2516    0.0783 C   0  0  0  0  0  0  0  0  0  0  0  0
   -2.5772    1.7792   -0.1978 H   0  0  0  0  0  0  0  0  0  0  0  0
   -1.9307    3.5570    0.8222 C   0  0  0  0  0  0  0  0  0  0  0  0
   -0.9960    4.0342    1.1197 H   0  0  0  0  0  0  0  0  0  0  0  0
   -2.4847    4.2332    0.1708 H   0  0  0  0  0  0  0  0  0  0  0  0
   -2.5303    3.3659    1.7096 H   0  0  0  0  0  0  0  0  0  0  0  0
   -0.8855    2.5998   -1.2075 C   0  0  0  0  0  0  0  0  0  0  0  0
   -0.6887    1.6903   -1.7750 H   0  0  0  0  0  0  0  0  0  0  0  0
   -1.4913    3.2673   -1.8202 H   0  0  0  0  0  0  0  0  0  0  0  0
    0.0605    3.0881   -0.9707 H   0  0  0  0  0  0  0  0  0  0  0  0
    0.4424   -0.9588    1.1121 C   0  0  0  0  0  0  0  0  0  0  0  0
    0.0535   -1.6937    2.0170 O   0  0  0  0  0  0  0  0  0  0  0  0
    1.7361   -0.8396    0.7865 N   0  0  0  0  0  0  0  0  0  0  0  0
    1.9760   -0.2210    0.0283 H   0  0  0  0  0  0  0  0  0  0  0  0
    2.8165   -1.5540    1.4625 C   0  0  0  0  0  0  0  0  0  0  0  0
    2.6531   -2.6311    1.3825 H   0  0  0  0  0  0  0  0  0  0  0  0
    3.7775   -1.3019    1.0114 H   0  0  0  0  0  0  0  0  0  0  0  0
    2.8321   -1.2837    2.5195 H   0  0  0  0  0  0  0  0  0  0  0  0
  5  6  2  0  0  0  0
  5  7  1  0  0  0  0
  2  3  1  0  0  0  0
  2  4  1  0  0  0  0
  2  5  1  0  0  0  0
  1  2  1  0  0  0  0
 24 25  2  0  0  0  0
 24 26  1  0  0  0  0
 20 21  1  0  0  0  0
 20 22  1  0  0  0  0
 20 23  1  0  0  0  0
 16 17  1  0  0  0  0
 16 18  1  0  0  0  0
 16 19  1  0  0  0  0
 14 15  1  0  0  0  0
 14 16  1  0  0  0  0
 14 20  1  0  0  0  0
 11 12  1  0  0  0  0
 11 13  1  0  0  0  0
 11 14  1  0  0  0  0
  9 10  1  0  0  0  0
  9 11  1  0  0  0  0
  9 24  1  0  0  0  0
  7  8  1  0  0  0  0
  7  9  1  0  0  0  0
 28 29  1  0  0  0  0
 28 30  1  0  0  0  0
 28 31  1  0  0  0  0
 26 27  1  0  0  0  0
 26 28  1  0  0  0  0
M  END
$$$$
default_name
  -OEChem-01062215323D

 31 30  0     1  0  0  0  0  0999 V2000
   -3.5895   -3.5013    1.1082 H   0  0  0  0  0  0  0  0  0  0  0  0
   -3.5145   -2.5363    0.6082 C   0  0  0  0  0  0  0  0  0  0  0  0
   -4.2285   -1.8413    1.0452 H   0  0  0  0  0  0  0  0  0  0  0  0
   -3.7155   -2.6583   -0.4538 H   0  0  0  0  0  0  0  0  0  0  0  0
   -2.1155   -1.9963    0.7922 C   0  0  0  0  0  0  0  0  0  0  0  0
   -1.2875   -2.6383    1.4252 O   0  0  0  0  0  0  0  0  0  0  0  0
   -1.8575   -0.8123    0.2402 N   0  0  0  0  0  0  0  0  0  0  0  0
   -2.6005   -0.3333   -0.2478 H   0  0  0  0  0  0  0  0  0  0  0  0
   -0.5675   -0.1203    0.3102 C   0  0  1  0  0  0  0  0  0  0  0  0
   -0.1866   -0.0045   -0.7052 H   0  0  0  0  0  0  0  0  0  0  0  0
   -0.7927    1.2778    0.9232 C   0  0  0  0  0  0  0  0  0  0  0  0
   -1.2751    1.1586    1.8953 H   0  0  0  0  0  0  0  0  0  0  0  0
    0.1854    1.7332    1.0930 H   0  0  0  0  0  0  0  0  0  0  0  0
   -1.6345    2.2516    0.0783 C   0  0  0  0  0  0  0  0  0  0  0  0
   -2.5772    1.7792   -0.1978 H   0  0  0  0  0  0  0  0  0  0  0  0
   -1.9307    3.5570    0.8222 C   0  0  0  0  0  0  0  0  0  0  0  0
   -0.9960    4.0342    1.1197 H   0  0  0  0  0  0  0  0  0  0  0  0
   -2.4847    4.2332    0.1708 H   0  0  0  0  0  0  0  0  0  0  0  0
   -2.5303    3.3659    1.7096 H   0  0  0  0  0  0  0  0  0  0  0  0
   -0.8855    2.5998   -1.2075 C   0  0  0  0  0  0  0  0  0  0  0  0
   -0.6887    1.6903   -1.7750 H   0  0  0  0  0  0  0  0  0  0  0  0
   -1.4913    3.2673   -1.8202 H   0  0  0  0  0  0  0  0  0  0  0  0
    0.0605    3.0881   -0.9707 H   0  0  0  0  0  0  0  0  0  0  0  0
    0.4424   -0.9588    1.1121 C   0  0  0  0  0  0  0  0  0  0  0  0
    0.0521   -1.8863    1.8174 O   0  0  0  0  0  0  0  0  0  0  0  0
    1.7356   -0.6252    1.0112 N   0  0  0  0  0  0  0  0  0  0  0  0
    1.9779    0.1442    0.4077 H   0  0  0  0  0  0  0  0  0  0  0  0
    2.8127   -1.3113    1.7211 C   0  0  0  0  0  0  0  0  0  0  0  0
    2.8213   -2.3682    1.4455 H   0  0  0  0  0  0  0  0  0  0  0  0
    3.7763   -0.8662    1.4684 H   0  0  0  0  0  0  0  0  0  0  0  0
    2.6514   -1.2354    2.7976 H   0  0  0  0  0  0  0  0  0  0  0  0
  5  6  2  0  0  0  0
  5  7  1  0  0  0  0
  2  3  1  0  0  0  0
  2  4  1  0  0  0  0
  2  5  1  0  0  0  0
  1  2  1  0  0  0  0
 24 25  2  0  0  0  0
 24 26  1  0  0  0  0
 20 21  1  0  0  0  0
 20 22  1  0  0  0  0
 20 23  1  0  0  0  0
 16 17  1  0  0  0  0
 16 18  1  0  0  0  0
 16 19  1  0  0  0  0
 14 15  1  0  0  0  0
 14 16  1  0  0  0  0
 14 20  1  0  0  0  0
 11 12  1  0  0  0  0
 11 13  1  0  0  0  0
 11 14  1  0  0  0  0
  9 10  1  0  0  0  0
  9 11  1  0  0  0  0
  9 24  1  0  0  0  0
  7  8  1  0  0  0  0
  7  9  1  0  0  0  0
 28 29  1  0  0  0  0
 28 30  1  0  0  0  0
 28 31  1  0  0  0  0
 26 27  1  0  0  0  0
 26 28  1  0  0  0  0
M  END
$$$$
default_name
  -OEChem-01062215323D

 31 30  0     1  0  0  0  0  0999 V2000
   -3.5895   -3.5013    1.1082 H   0  0  0  0  0  0  0  0  0  0  0  0
   -3.5145   -2.5363    0.6082 C   0  0  0  0  0  0  0  0  0  0  0  0
   -4.2285   -1.8413    1.0452 H   0  0  0  0  0  0  0  0  0  0  0  0
   -3.7155   -2.6583   -0.4538 H   0  0  0  0  0  0  0  0  0  0  0  0
   -2.1155   -1.9963    0.7922 C   0  0  0  0  0  0  0  0  0  0  0  0
   -1.2875   -2.6383    1.4252 O   0  0  0  0  0  0  0  0  0  0  0  0
   -1.8575   -0.8123    0.2402 N   0  0  0  0  0  0  0  0  0  0  0  0
   -2.6005   -0.3333   -0.2478 H   0  0  0  0  0  0  0  0  0  0  0  0
   -0.5675   -0.1203    0.3102 C   0  0  1  0  0  0  0  0  0  0  0  0
   -0.3149    0.2330   -0.6902 H   0  0  0  0  0  0  0  0  0  0  0  0
   -0.7127    1.0956    1.2491 C   0  0  0  0  0  0  0  0  0  0  0  0
   -1.0713    0.7461    2.2192 H   0  0  0  0  0  0  0  0  0  0  0  0
    0.2798    1.5264    1.3991 H   0  0  0  0  0  0  0  0  0  0  0  0
   -1.6507    2.2131    0.7572 C   0  0  0  0  0  0  0  0  0  0  0  0
   -2.6212    1.7909    0.4964 H   0  0  0  0  0  0  0  0  0  0  0  0
   -1.8503    3.3072    1.8100 C   0  0  0  0  0  0  0  0  0  0  0  0
   -0.8851    3.7290    2.0936 H   0  0  0  0  0  0  0  0  0  0  0  0
   -2.4794    4.0988    1.4022 H   0  0  0  0  0  0  0  0  0  0  0  0
   -2.3359    2.9038    2.6960 H   0  0  0  0  0  0  0  0  0  0  0  0
   -1.0658    2.8639   -0.4957 C   0  0  0  0  0  0  0  0  0  0  0  0
   -0.9423    2.1126   -1.2756 H   0  0  0  0  0  0  0  0  0  0  0  0
   -1.7416    3.6368   -0.8619 H   0  0  0  0  0  0  0  0  0  0  0  0
   -0.0969    3.3106   -0.2696 H   0  0  0  0  0  0  0  0  0  0  0  0
    0.5323   -1.0919    0.7712 C   0  0  0  0  0  0  0  0  0  0  0  0
    0.2547   -2.2610    1.0284 O   0  0  0  0  0  0  0  0  0  0  0  0
    1.7747   -0.6047    0.8847 N   0  0  0  0  0  0  0  0  0  0  0  0
    1.9244    0.3635    0.6498 H   0  0  0  0  0  0  0  0  0  0  0  0
    2.9230   -1.3933    1.3254 C   0  0  0  0  0  0  0  0  0  0  0  0
    3.0653   -2.2440    0.6552 H   0  0  0  0  0  0  0  0  0  0  0  0
    3.8258   -0.7806    1.3250 H   0  0  0  0  0  0  0  0  0  0  0  0
    2.7447   -1.7725    2.3330 H   0  0  0  0  0  0  0  0  0  0  0  0
  5  6  2  0  0  0  0
  5  7  1  0  0  0  0
  2  3  1  0  0  0  0
  2  4  1  0  0  0  0
  2  5  1  0  0  0  0
  1  2  1  0  0  0  0
 24 25  2  0  0  0  0
 24 26  1  0  0  0  0
 20 21  1  0  0  0  0
 20 22  1  0  0  0  0
 20 23  1  0  0  0  0
 16 17  1  0  0  0  0
 16 18  1  0  0  0  0
 16 19  1  0  0  0  0
 14 15  1  0  0  0  0
 14 16  1  0  0  0  0
 14 20  1  0  0  0  0
 11 12  1  0  0  0  0
 11 13  1  0  0  0  0
 11 14  1  0  0  0  0
  9 10  1  0  0  0  0
  9 11  1  0  0  0  0
  9 24  1  0  0  0  0
  7  8  1  0  0  0  0
  7  9  1  0  0  0  0
 28 29  1  0  0  0  0
 28 30  1  0  0  0  0
 28 31  1  0  0  0  0
 26 27  1  0  0  0  0
 26 28  1  0  0  0  0
M  END
$$$$
default_name
  -OEChem-01062215323D

 31 30  0     1  0  0  0  0  0999 V2000
   -3.5895   -3.5013    1.1082 H   0  0  0  0  0  0  0  0  0  0  0  0
   -3.5145   -2.5363    0.6082 C   0  0  0  0  0  0  0  0  0  0  0  0
   -4.2285   -1.8413    1.0452 H   0  0  0  0  0  0  0  0  0  0  0  0
   -3.7155   -2.6583   -0.4538 H   0  0  0  0  0  0  0  0  0  0  0  0
   -2.1155   -1.9963    0.7922 C   0  0  0  0  0  0  0  0  0  0  0  0
   -1.2875   -2.6383    1.4252 O   0  0  0  0  0  0  0  0  0  0  0  0
   -1.8575   -0.8123    0.2402 N   0  0  0  0  0  0  0  0  0  0  0  0
   -2.6005   -0.3333   -0.2478 H   0  0  0  0  0  0  0  0  0  0  0  0
   -0.5675   -0.1203    0.3102 C   0  0  1  0  0  0  0  0  0  0  0  0
   -0.3149    0.2330   -0.6902 H   0  0  0  0  0  0  0  0  0  0  0  0
   -0.7127    1.0956    1.2491 C   0  0  0  0  0  0  0  0  0  0  0  0
   -1.0713    0.7461    2.2192 H   0  0  0  0  0  0  0  0  0  0  0  0
    0.2798    1.5264    1.3991 H   0  0  0  0  0  0  0  0  0  0  0  0
   -1.6507    2.2131    0.7572 C   0  0  0  0  0  0  0  0  0  0  0  0
   -2.6212    1.7909    0.4964 H   0  0  0  0  0  0  0  0  0  0  0  0
   -1.8503    3.3072    1.8100 C   0  0  0  0  0  0  0  0  0  0  0  0
   -0.8851    3.7290    2.0936 H   0  0  0  0  0  0  0  0  0  0  0  0
   -2.4794    4.0988    1.4022 H   0  0  0  0  0  0  0  0  0  0  0  0
   -2.3359    2.9038    2.6960 H   0  0  0  0  0  0  0  0  0  0  0  0
   -1.0658    2.8639   -0.4957 C   0  0  0  0  0  0  0  0  0  0  0  0
   -0.9423    2.1126   -1.2756 H   0  0  0  0  0  0  0  0  0  0  0  0
   -1.7416    3.6368   -0.8619 H   0  0  0  0  0  0  0  0  0  0  0  0
   -0.0969    3.3106   -0.2696 H   0  0  0  0  0  0  0  0  0  0  0  0
    0.5323   -1.0919    0.7712 C   0  0  0  0  0  0  0  0  0  0  0  0
    0.3278   -2.3036    0.7642 O   0  0  0  0  0  0  0  0  0  0  0  0
    1.6910   -0.5591    1.1804 N   0  0  0  0  0  0  0  0  0  0  0  0
    1.7848    0.4435    1.1512 H   0  0  0  0  0  0  0  0  0  0  0  0
    2.8247   -1.3446    1.6627 C   0  0  0  0  0  0  0  0  0  0  0  0
    3.1483   -2.0407    0.8856 H   0  0  0  0  0  0  0  0  0  0  0  0
    3.6555   -0.6882    1.9259 H   0  0  0  0  0  0  0  0  0  0  0  0
    2.5272   -1.9200    2.5408 H   0  0  0  0  0  0  0  0  0  0  0  0
  5  6  2  0  0  0  0
  5  7  1  0  0  0  0
  2  3  1  0  0  0  0
  2  4  1  0  0  0  0
  2  5  1  0  0  0  0
  1  2  1  0  0  0  0
 24 25  2  0  0  0  0
 24 26  1  0  0  0  0
 20 21  1  0  0  0  0
 20 22  1  0  0  0  0
 20 23  1  0  0  0  0
 16 17  1  0  0  0  0
 16 18  1  0  0  0  0
 16 19  1  0  0  0  0
 14 15  1  0  0  0  0
 14 16  1  0  0  0  0
 14 20  1  0  0  0  0
 11 12  1  0  0  0  0
 11 13  1  0  0  0  0
 11 14  1  0  0  0  0
  9 10  1  0  0  0  0
  9 11  1  0  0  0  0
  9 24  1  0  0  0  0
  7  8  1  0  0  0  0
  7  9  1  0  0  0  0
 28 29  1  0  0  0  0
 28 30  1  0  0  0  0
 28 31  1  0  0  0  0
 26 27  1  0  0  0  0
 26 28  1  0  0  0  0
M  END
$$$$
default_name
  -OEChem-01062215323D

 31 30  0     1  0  0  0  0  0999 V2000
   -3.5895   -3.5013    1.1082 H   0  0  0  0  0  0  0  0  0  0  0  0
   -3.5145   -2.5363    0.6082 C   0  0  0  0  0  0  0  0  0  0  0  0
   -4.2285   -1.8413    1.0452 H   0  0  0  0  0  0  0  0  0  0  0  0
   -3.7155   -2.6583   -0.4538 H   0  0  0  0  0  0  0  0  0  0  0  0
   -2.1155   -1.9963    0.7922 C   0  0  0  0  0  0  0  0  0  0  0  0
   -1.2875   -2.6383    1.4252 O   0  0  0  0  0  0  0  0  0  0  0  0
   -1.8575   -0.8123    0.2402 N   0  0  0  0  0  0  0  0  0  0  0  0
   -2.6005   -0.3333   -0.2478 H   0  0  0  0  0  0  0  0  0  0  0  0
   -0.5675   -0.1203    0.3102 C   0  0  1  0  0  0  0  0  0  0  0  0
   -0.3149    0.2330   -0.6902 H   0  0  0  0  0  0  0  0  0  0  0  0
   -0.7127    1.0956    1.2491 C   0  0  0  0  0  0  0  0  0  0  0  0
   -1.0713    0.7461    2.2192 H   0  0  0  0  0  0  0  0  0  0  0  0
    0.2798    1.5264    1.3991 H   0  0  0  0  0  0  0  0  0  0  0  0
   -1.6507    2.2131    0.7572 C   0  0  0  0  0  0  0  0  0  0  0  0
   -2.6212    1.7909    0.4964 H   0  0  0  0  0  0  0  0  0  0  0  0
   -1.8503    3.3072    1.8100 C   0  0  0  0  0  0  0  0  0  0  0  0
   -0.8851    3.7290    2.0936 H   0  0  0  0  0  0  0  0  0  0  0  0
   -2.4794    4.0988    1.4022 H   0  0  0  0  0  0  0  0  0  0  0  0
   -2.3359    2.9038    2.6960 H   0  0  0  0  0  0  0  0  0  0  0  0
   -1.0658    2.8639   -0.4957 C   0  0  0  0  0  0  0  0  0  0  0  0
   -0.9423    2.1126   -1.2756 H   0  0  0  0  0  0  0  0  0  0  0  0
   -1.7416    3.6368   -0.8619 H   0  0  0  0  0  0  0  0  0  0  0  0
   -0.0969    3.3106   -0.2696 H   0  0  0  0  0  0  0  0  0  0  0  0
    0.5323   -1.0919    0.7712 C   0  0  0  0  0  0  0  0  0  0  0  0
    0.4450   -2.2901    0.5130 O   0  0  0  0  0  0  0  0  0  0  0  0
    1.5583   -0.5763    1.4607 N   0  0  0  0  0  0  0  0  0  0  0  0
    1.5619    0.4172    1.6276 H   0  0  0  0  0  0  0  0  0  0  0  0
    2.6707   -1.3676    1.9814 C   0  0  0  0  0  0  0  0  0  0  0  0
    3.1751   -1.8805    1.1593 H   0  0  0  0  0  0  0  0  0  0  0  0
    3.3856   -0.7234    2.4955 H   0  0  0  0  0  0  0  0  0  0  0  0
    2.2946   -2.1179    2.6787 H   0  0  0  0  0  0  0  0  0  0  0  0
  5  6  2  0  0  0  0
  5  7  1  0  0  0  0
  2  3  1  0  0  0  0
  2  4  1  0  0  0  0
  2  5  1  0  0  0  0
  1  2  1  0  0  0  0
 24 25  2  0  0  0  0
 24 26  1  0  0  0  0
 20 21  1  0  0  0  0
 20 22  1  0  0  0  0
 20 23  1  0  0  0  0
 16 17  1  0  0  0  0
 16 18  1  0  0  0  0
 16 19  1  0  0  0  0
 14 15  1  0  0  0  0
 14 16  1  0  0  0  0
 14 20  1  0  0  0  0
 11 12  1  0  0  0  0
 11 13  1  0  0  0  0
 11 14  1  0  0  0  0
  9 10  1  0  0  0  0
  9 11  1  0  0  0  0
  9 24  1  0  0  0  0
  7  8  1  0  0  0  0
  7  9  1  0  0  0  0
 28 29  1  0  0  0  0
 28 30  1  0  0  0  0
 28 31  1  0  0  0  0
 26 27  1  0  0  0  0
 26 28  1  0  0  0  0
M  END
$$$$
default_name
  -OEChem-01062215323D

 31 30  0     1  0  0  0  0  0999 V2000
   -3.5895   -3.5013    1.1082 H   0  0  0  0  0  0  0  0  0  0  0  0
   -3.5145   -2.5363    0.6082 C   0  0  0  0  0  0  0  0  0  0  0  0
   -4.2285   -1.8413    1.0452 H   0  0  0  0  0  0  0  0  0  0  0  0
   -3.7155   -2.6583   -0.4538 H   0  0  0  0  0  0  0  0  0  0  0  0
   -2.1155   -1.9963    0.7922 C   0  0  0  0  0  0  0  0  0  0  0  0
   -1.2875   -2.6383    1.4252 O   0  0  0  0  0  0  0  0  0  0  0  0
   -1.8575   -0.8123    0.2402 N   0  0  0  0  0  0  0  0  0  0  0  0
   -2.6005   -0.3333   -0.2478 H   0  0  0  0  0  0  0  0  0  0  0  0
   -0.5675   -0.1203    0.3102 C   0  0  1  0  0  0  0  0  0  0  0  0
   -0.3149    0.2330   -0.6902 H   0  0  0  0  0  0  0  0  0  0  0  0
   -0.7127    1.0956    1.2491 C   0  0  0  0  0  0  0  0  0  0  0  0
   -1.0713    0.7461    2.2192 H   0  0  0  0  0  0  0  0  0  0  0  0
    0.2798    1.5264    1.3991 H   0  0  0  0  0  0  0  0  0  0  0  0
   -1.6507    2.2131    0.7572 C   0  0  0  0  0  0  0  0  0  0  0  0
   -2.6212    1.7909    0.4964 H   0  0  0  0  0  0  0  0  0  0  0  0
   -1.8503    3.3072    1.8100 C   0  0  0  0  0  0  0  0  0  0  0  0
   -0.8851    3.7290    2.0936 H   0  0  0  0  0  0  0  0  0  0  0  0
   -2.4794    4.0988    1.4022 H   0  0  0  0  0  0  0  0  0  0  0  0
   -2.3359    2.9038    2.6960 H   0  0  0  0  0  0  0  0  0  0  0  0
   -1.0658    2.8639   -0.4957 C   0  0  0  0  0  0  0  0  0  0  0  0
   -0.9423    2.1126   -1.2756 H   0  0  0  0  0  0  0  0  0  0  0  0
   -1.7416    3.6368   -0.8619 H   0  0  0  0  0  0  0  0  0  0  0  0
   -0.0969    3.3106   -0.2696 H   0  0  0  0  0  0  0  0  0  0  0  0
    0.5323   -1.0919    0.7712 C   0  0  0  0  0  0  0  0  0  0  0  0
    0.5982   -2.2216    0.2921 O   0  0  0  0  0  0  0  0  0  0  0  0
    1.3856   -0.6551    1.7066 N   0  0  0  0  0  0  0  0  0  0  0  0
    1.2707    0.2863    2.0463 H   0  0  0  0  0  0  0  0  0  0  0  0
    2.4718   -1.4607    2.2598 C   0  0  0  0  0  0  0  0  0  0  0  0
    3.1437   -1.7743    1.4578 H   0  0  0  0  0  0  0  0  0  0  0  0
    3.0345   -0.8837    2.9952 H   0  0  0  0  0  0  0  0  0  0  0  0
    2.0627   -2.3526    2.7373 H   0  0  0  0  0  0  0  0  0  0  0  0
  5  6  2  0  0  0  0
  5  7  1  0  0  0  0
  2  3  1  0  0  0  0
  2  4  1  0  0  0  0
  2  5  1  0  0  0  0
  1  2  1  0  0  0  0
 24 25  2  0  0  0  0
 24 26  1  0  0  0  0
 20 21  1  0  0  0  0
 20 22  1  0  0  0  0
 20 23  1  0  0  0  0
 16 17  1  0  0  0  0
 16 18  1  0  0  0  0
 16 19  1  0  0  0  0
 14 15  1  0  0  0  0
 14 16  1  0  0  0  0
 14 20  1  0  0  0  0
 11 12  1  0  0  0  0
 11 13  1  0  0  0  0
 11 14  1  0  0  0  0
  9 10  1  0  0  0  0
  9 11  1  0  0  0  0
  9 24  1  0  0  0  0
  7  8  1  0  0  0  0
  7  9  1  0  0  0  0
 28 29  1  0  0  0  0
 28 30  1  0  0  0  0
 28 31  1  0  0  0  0
 26 27  1  0  0  0  0
 26 28  1  0  0  0  0
M  END
$$$$
default_name
  -OEChem-01062215323D

 31 30  0     1  0  0  0  0  0999 V2000
   -3.5895   -3.5013    1.1082 H   0  0  0  0  0  0  0  0  0  0  0  0
   -3.5145   -2.5363    0.6082 C   0  0  0  0  0  0  0  0  0  0  0  0
   -4.2285   -1.8413    1.0452 H   0  0  0  0  0  0  0  0  0  0  0  0
   -3.7155   -2.6583   -0.4538 H   0  0  0  0  0  0  0  0  0  0  0  0
   -2.1155   -1.9963    0.7922 C   0  0  0  0  0  0  0  0  0  0  0  0
   -1.2875   -2.6383    1.4252 O   0  0  0  0  0  0  0  0  0  0  0  0
   -1.8575   -0.8123    0.2402 N   0  0  0  0  0  0  0  0  0  0  0  0
   -2.6005   -0.3333   -0.2478 H   0  0  0  0  0  0  0  0  0  0  0  0
   -0.5675   -0.1203    0.3102 C   0  0  1  0  0  0  0  0  0  0  0  0
   -0.3149    0.2330   -0.6902 H   0  0  0  0  0  0  0  0  0  0  0  0
   -0.7127    1.0956    1.2491 C   0  0  0  0  0  0  0  0  0  0  0  0
   -1.0713    0.7461    2.2192 H   0  0  0  0  0  0  0  0  0  0  0  0
    0.2798    1.5264    1.3991 H   0  0  0  0  0  0  0  0  0  0  0  0
   -1.6507    2.2131    0.7572 C   0  0  0  0  0  0  0  0  0  0  0  0
   -2.6212    1.7909    0.4964 H   0  0  0  0  0  0  0  0  0  0  0  0
   -1.8503    3.3072    1.8100 C   0  0  0  0  0  0  0  0  0  0  0  0
   -0.8851    3.7290    2.0936 H   0  0  0  0  0  0  0  0  0  0  0  0
   -2.4794    4.0988    1.4022 H   0  0  0  0  0  0  0  0  0  0  0  0
   -2.3359    2.9038    2.6960 H   0  0  0  0  0  0  0  0  0  0  0  0
   -1.0658    2.8639   -0.4957 C   0  0  0  0  0  0  0  0  0  0  0  0
   -0.9423    2.1126   -1.2756 H   0  0  0  0  0  0  0  0  0  0  0  0
   -1.7416    3.6368   -0.8619 H   0  0  0  0  0  0  0  0  0  0  0  0
   -0.0969    3.3106   -0.2696 H   0  0  0  0  0  0  0  0  0  0  0  0
    0.5323   -1.0919    0.7712 C   0  0  0  0  0  0  0  0  0  0  0  0
    0.7769   -2.1026    0.1164 O   0  0  0  0  0  0  0  0  0  0  0  0
    1.1847   -0.7902    1.9013 N   0  0  0  0  0  0  0  0  0  0  0  0
    0.9312    0.0598    2.3790 H   0  0  0  0  0  0  0  0  0  0  0  0
    2.2413   -1.6177    2.4790 C   0  0  0  0  0  0  0  0  0  0  0  0
    3.0565   -1.7294    1.7606 H   0  0  0  0  0  0  0  0  0  0  0  0
    2.6262   -1.1583    3.3907 H   0  0  0  0  0  0  0  0  0  0  0  0
    1.8474   -2.6081    2.7125 H   0  0  0  0  0  0  0  0  0  0  0  0
  5  6  2  0  0  0  0
  5  7  1  0  0  0  0
  2  3  1  0  0  0  0
  2  4  1  0  0  0  0
  2  5  1  0  0  0  0
  1  2  1  0  0  0  0
 24 25  2  0  0  0  0
 24 26  1  0  0  0  0
 20 21  1  0  0  0  0
 20 22  1  0  0  0  0
 20 23  1  0  0  0  0
 16 17  1  0  0  0  0
 16 18  1  0  0  0  0
 16 19  1  0  0  0  0
 14 15  1  0  0  0  0
 14 16  1  0  0  0  0
 14 20  1  0  0  0  0
 11 12  1  0  0  0  0
 11 13  1  0  0  0  0
 11 14  1  0  0  0  0
  9 10  1  0  0  0  0
  9 11  1  0  0  0  0
  9 24  1  0  0  0  0
  7  8  1  0  0  0  0
  7  9  1  0  0  0  0
 28 29  1  0  0  0  0
 28 30  1  0  0  0  0
 28 31  1  0  0  0  0
 26 27  1  0  0  0  0
 26 28  1  0  0  0  0
M  END
$$$$
default_name
  -OEChem-01062215323D

 31 30  0     1  0  0  0  0  0999 V2000
   -3.5895   -3.5013    1.1082 H   0  0  0  0  0  0  0  0  0  0  0  0
   -3.5145   -2.5363    0.6082 C   0  0  0  0  0  0  0  0  0  0  0  0
   -4.2285   -1.8413    1.0452 H   0  0  0  0  0  0  0  0  0  0  0  0
   -3.7155   -2.6583   -0.4538 H   0  0  0  0  0  0  0  0  0  0  0  0
   -2.1155   -1.9963    0.7922 C   0  0  0  0  0  0  0  0  0  0  0  0
   -1.2875   -2.6383    1.4252 O   0  0  0  0  0  0  0  0  0  0  0  0
   -1.8575   -0.8123    0.2402 N   0  0  0  0  0  0  0  0  0  0  0  0
   -2.6005   -0.3333   -0.2478 H   0  0  0  0  0  0  0  0  0  0  0  0
   -0.5675   -0.1203    0.3102 C   0  0  1  0  0  0  0  0  0  0  0  0
   -0.3149    0.2330   -0.6902 H   0  0  0  0  0  0  0  0  0  0  0  0
   -0.7127    1.0956    1.2491 C   0  0  0  0  0  0  0  0  0  0  0  0
   -1.0713    0.7461    2.2192 H   0  0  0  0  0  0  0  0  0  0  0  0
    0.2798    1.5264    1.3991 H   0  0  0  0  0  0  0  0  0  0  0  0
   -1.6507    2.2131    0.7572 C   0  0  0  0  0  0  0  0  0  0  0  0
   -2.6212    1.7909    0.4964 H   0  0  0  0  0  0  0  0  0  0  0  0
   -1.8503    3.3072    1.8100 C   0  0  0  0  0  0  0  0  0  0  0  0
   -0.8851    3.7290    2.0936 H   0  0  0  0  0  0  0  0  0  0  0  0
   -2.4794    4.0988    1.4022 H   0  0  0  0  0  0  0  0  0  0  0  0
   -2.3359    2.9038    2.6960 H   0  0  0  0  0  0  0  0  0  0  0  0
   -1.0658    2.8639   -0.4957 C   0  0  0  0  0  0  0  0  0  0  0  0
   -0.9423    2.1126   -1.2756 H   0  0  0  0  0  0  0  0  0  0  0  0
   -1.7416    3.6368   -0.8619 H   0  0  0  0  0  0  0  0  0  0  0  0
   -0.0969    3.3106   -0.2696 H   0  0  0  0  0  0  0  0  0  0  0  0
    0.5323   -1.0919    0.7712 C   0  0  0  0  0  0  0  0  0  0  0  0
    0.9690   -1.9413   -0.0020 O   0  0  0  0  0  0  0  0  0  0  0  0
    0.9693   -0.9722    2.0316 N   0  0  0  0  0  0  0  0  0  0  0  0
    0.5663   -0.2469    2.6030 H   0  0  0  0  0  0  0  0  0  0  0  0
    1.9950   -1.8277    2.6240 C   0  0  0  0  0  0  0  0  0  0  0  0
    2.9192   -1.7488    2.0471 H   0  0  0  0  0  0  0  0  0  0  0  0
    2.1884   -1.5283    3.6552 H   0  0  0  0  0  0  0  0  0  0  0  0
    1.6633   -2.8670    2.6061 H   0  0  0  0  0  0  0  0  0  0  0  0
  5  6  2  0  0  0  0
  5  7  1  0  0  0  0
  2  3  1  0  0  0  0
  2  4  1  0  0  0  0
  2  5  1  0  0  0  0
  1  2  1  0  0  0  0
 24 25  2  0  0  0  0
 24 26  1  0  0  0  0
 20 21  1  0  0  0  0
 20 22  1  0  0  0  0
 20 23  1  0  0  0  0
 16 17  1  0  0  0  0
 16 18  1  0  0  0  0
 16 19  1  0  0  0  0
 14 15  1  0  0  0  0
 14 16  1  0  0  0  0
 14 20  1  0  0  0  0
 11 12  1  0  0  0  0
 11 13  1  0  0  0  0
 11 14  1  0  0  0  0
  9 10  1  0  0  0  0
  9 11  1  0  0  0  0
  9 24  1  0  0  0  0
  7  8  1  0  0  0  0
  7  9  1  0  0  0  0
 28 29  1  0  0  0  0
 28 30  1  0  0  0  0
 28 31  1  0  0  0  0
 26 27  1  0  0  0  0
 26 28  1  0  0  0  0
M  END
$$$$
default_name
  -OEChem-01062215323D

 31 30  0     1  0  0  0  0  0999 V2000
   -3.5895   -3.5013    1.1082 H   0  0  0  0  0  0  0  0  0  0  0  0
   -3.5145   -2.5363    0.6082 C   0  0  0  0  0  0  0  0  0  0  0  0
   -4.2285   -1.8413    1.0452 H   0  0  0  0  0  0  0  0  0  0  0  0
   -3.7155   -2.6583   -0.4538 H   0  0  0  0  0  0  0  0  0  0  0  0
   -2.1155   -1.9963    0.7922 C   0  0  0  0  0  0  0  0  0  0  0  0
   -1.2875   -2.6383    1.4252 O   0  0  0  0  0  0  0  0  0  0  0  0
   -1.8575   -0.8123    0.2402 N   0  0  0  0  0  0  0  0  0  0  0  0
   -2.6005   -0.3333   -0.2478 H   0  0  0  0  0  0  0  0  0  0  0  0
   -0.5675   -0.1203    0.3102 C   0  0  1  0  0  0  0  0  0  0  0  0
   -0.3149    0.2330   -0.6902 H   0  0  0  0  0  0  0  0  0  0  0  0
   -0.7127    1.0956    1.2491 C   0  0  0  0  0  0  0  0  0  0  0  0
   -1.0713    0.7461    2.2192 H   0  0  0  0  0  0  0  0  0  0  0  0
    0.2798    1.5264    1.3991 H   0  0  0  0  0  0  0  0  0  0  0  0
   -1.6507    2.2131    0.7572 C   0  0  0  0  0  0  0  0  0  0  0  0
   -2.6212    1.7909    0.4964 H   0  0  0  0  0  0  0  0  0  0  0  0
   -1.8503    3.3072    1.8100 C   0  0  0  0  0  0  0  0  0  0  0  0
   -0.8851    3.7290    2.0936 H   0  0  0  0  0  0  0  0  0  0  0  0
   -2.4794    4.0988    1.4022 H   0  0  0  0  0  0  0  0  0  0  0  0
   -2.3359    2.9038    2.6960 H   0  0  0  0  0  0  0  0  0  0  0  0
   -1.0658    2.8639   -0.4957 C   0  0  0  0  0  0  0  0  0  0  0  0
   -0.9423    2.1126   -1.2756 H   0  0  0  0  0  0  0  0  0  0  0  0
   -1.7416    3.6368   -0.8619 H   0  0  0  0  0  0  0  0  0  0  0  0
   -0.0969    3.3106   -0.2696 H   0  0  0  0  0  0  0  0  0  0  0  0
    0.5323   -1.0919    0.7712 C   0  0  0  0  0  0  0  0  0  0  0  0
    1.1615   -1.7487   -0.0551 O   0  0  0  0  0  0  0  0  0  0  0  0
    0.7540   -1.1888    2.0885 N   0  0  0  0  0  0  0  0  0  0  0  0
    0.2011   -0.6128    2.7029 H   0  0  0  0  0  0  0  0  0  0  0  0
    1.7496   -2.0764    2.6849 C   0  0  0  0  0  0  0  0  0  0  0  0
    2.7412   -1.8313    2.2978 H   0  0  0  0  0  0  0  0  0  0  0  0
    1.7509   -1.9687    3.7706 H   0  0  0  0  0  0  0  0  0  0  0  0
    1.5229   -3.1117    2.4253 H   0  0  0  0  0  0  0  0  0  0  0  0
  5  6  2  0  0  0  0
  5  7  1  0  0  0  0
  2  3  1  0  0  0  0
  2  4  1  0  0  0  0
  2  5  1  0  0  0  0
  1  2  1  0  0  0  0
 24 25  2  0  0  0  0
 24 26  1  0  0  0  0
 20 21  1  0  0  0  0
 20 22  1  0  0  0  0
 20 23  1  0  0  0  0
 16 17  1  0  0  0  0
 16 18  1  0  0  0  0
 16 19  1  0  0  0  0
 14 15  1  0  0  0  0
 14 16  1  0  0  0  0
 14 20  1  0  0  0  0
 11 12  1  0  0  0  0
 11 13  1  0  0  0  0
 11 14  1  0  0  0  0
  9 10  1  0  0  0  0
  9 11  1  0  0  0  0
  9 24  1  0  0  0  0
  7  8  1  0  0  0  0
  7  9  1  0  0  0  0
 28 29  1  0  0  0  0
 28 30  1  0  0  0  0
 28 31  1  0  0  0  0
 26 27  1  0  0  0  0
 26 28  1  0  0  0  0
M  END
$$$$
default_name
  -OEChem-01062215323D

 31 30  0     1  0  0  0  0  0999 V2000
   -3.5895   -3.5013    1.1082 H   0  0  0  0  0  0  0  0  0  0  0  0
   -3.5145   -2.5363    0.6082 C   0  0  0  0  0  0  0  0  0  0  0  0
   -4.2285   -1.8413    1.0452 H   0  0  0  0  0  0  0  0  0  0  0  0
   -3.7155   -2.6583   -0.4538 H   0  0  0  0  0  0  0  0  0  0  0  0
   -2.1155   -1.9963    0.7922 C   0  0  0  0  0  0  0  0  0  0  0  0
   -1.2875   -2.6383    1.4252 O   0  0  0  0  0  0  0  0  0  0  0  0
   -1.8575   -0.8123    0.2402 N   0  0  0  0  0  0  0  0  0  0  0  0
   -2.6005   -0.3333   -0.2478 H   0  0  0  0  0  0  0  0  0  0  0  0
   -0.5675   -0.1203    0.3102 C   0  0  1  0  0  0  0  0  0  0  0  0
   -0.3149    0.2330   -0.6902 H   0  0  0  0  0  0  0  0  0  0  0  0
   -0.7127    1.0956    1.2491 C   0  0  0  0  0  0  0  0  0  0  0  0
   -1.0713    0.7461    2.2192 H   0  0  0  0  0  0  0  0  0  0  0  0
    0.2798    1.5264    1.3991 H   0  0  0  0  0  0  0  0  0  0  0  0
   -1.6507    2.2131    0.7572 C   0  0  0  0  0  0  0  0  0  0  0  0
   -2.6212    1.7909    0.4964 H   0  0  0  0  0  0  0  0  0  0  0  0
   -1.8503    3.3072    1.8100 C   0  0  0  0  0  0  0  0  0  0  0  0
   -0.8851    3.7290    2.0936 H   0  0  0  0  0  0  0  0  0  0  0  0
   -2.4794    4.0988    1.4022 H   0  0  0  0  0  0  0  0  0  0  0  0
   -2.3359    2.9038    2.6960 H   0  0  0  0  0  0  0  0  0  0  0  0
   -1.0658    2.8639   -0.4957 C   0  0  0  0  0  0  0  0  0  0  0  0
   -0.9423    2.1126   -1.2756 H   0  0  0  0  0  0  0  0  0  0  0  0
   -1.7416    3.6368   -0.8619 H   0  0  0  0  0  0  0  0  0  0  0  0
   -0.0969    3.3106   -0.2696 H   0  0  0  0  0  0  0  0  0  0  0  0
    0.5323   -1.0919    0.7712 C   0  0  0  0  0  0  0  0  0  0  0  0
    1.3411   -1.5379   -0.0394 O   0  0  0  0  0  0  0  0  0  0  0  0
    0.5536   -1.4253    2.0682 N   0  0  0  0  0  0  0  0  0  0  0  0
   -0.1396   -1.0132    2.6720 H   0  0  0  0  0  0  0  0  0  0  0  0
    1.5220   -2.3471    2.6576 C   0  0  0  0  0  0  0  0  0  0  0  0
    2.5348   -1.9711    2.4957 H   0  0  0  0  0  0  0  0  0  0  0  0
    1.3437   -2.4494    3.7291 H   0  0  0  0  0  0  0  0  0  0  0  0
    1.4358   -3.3255    2.1824 H   0  0  0  0  0  0  0  0  0  0  0  0
  5  6  2  0  0  0  0
  5  7  1  0  0  0  0
  2  3  1  0  0  0  0
  2  4  1  0  0  0  0
  2  5  1  0  0  0  0
  1  2  1  0  0  0  0
 24 25  2  0  0  0  0
 24 26  1  0  0  0  0
 20 21  1  0  0  0  0
 20 22  1  0  0  0  0
 20 23  1  0  0  0  0
 16 17  1  0  0  0  0
 16 18  1  0  0  0  0
 16 19  1  0  0  0  0
 14 15  1  0  0  0  0
 14 16  1  0  0  0  0
 14 20  1  0  0  0  0
 11 12  1  0  0  0  0
 11 13  1  0  0  0  0
 11 14  1  0  0  0  0
  9 10  1  0  0  0  0
  9 11  1  0  0  0  0
  9 24  1  0  0  0  0
  7  8  1  0  0  0  0
  7  9  1  0  0  0  0
 28 29  1  0  0  0  0
 28 30  1  0  0  0  0
 28 31  1  0  0  0  0
 26 27  1  0  0  0  0
 26 28  1  0  0  0  0
M  END
$$$$
default_name
  -OEChem-01062215323D

 31 30  0     1  0  0  0  0  0999 V2000
   -3.5895   -3.5013    1.1082 H   0  0  0  0  0  0  0  0  0  0  0  0
   -3.5145   -2.5363    0.6082 C   0  0  0  0  0  0  0  0  0  0  0  0
   -4.2285   -1.8413    1.0452 H   0  0  0  0  0  0  0  0  0  0  0  0
   -3.7155   -2.6583   -0.4538 H   0  0  0  0  0  0  0  0  0  0  0  0
   -2.1155   -1.9963    0.7922 C   0  0  0  0  0  0  0  0  0  0  0  0
   -1.2875   -2.6383    1.4252 O   0  0  0  0  0  0  0  0  0  0  0  0
   -1.8575   -0.8123    0.2402 N   0  0  0  0  0  0  0  0  0  0  0  0
   -2.6005   -0.3333   -0.2478 H   0  0  0  0  0  0  0  0  0  0  0  0
   -0.5675   -0.1203    0.3102 C   0  0  1  0  0  0  0  0  0  0  0  0
   -0.3149    0.2330   -0.6902 H   0  0  0  0  0  0  0  0  0  0  0  0
   -0.7127    1.0956    1.2491 C   0  0  0  0  0  0  0  0  0  0  0  0
   -1.0713    0.7461    2.2192 H   0  0  0  0  0  0  0  0  0  0  0  0
    0.2798    1.5264    1.3991 H   0  0  0  0  0  0  0  0  0  0  0  0
   -1.6507    2.2131    0.7572 C   0  0  0  0  0  0  0  0  0  0  0  0
   -2.6212    1.7909    0.4964 H   0  0  0  0  0  0  0  0  0  0  0  0
   -1.8503    3.3072    1.8100 C   0  0  0  0  0  0  0  0  0  0  0  0
   -0.8851    3.7290    2.0936 H   0  0  0  0  0  0  0  0  0  0  0  0
   -2.4794    4.0988    1.4022 H   0  0  0  0  0  0  0  0  0  0  0  0
   -2.3359    2.9038    2.6960 H   0  0  0  0  0  0  0  0  0  0  0  0
   -1.0658    2.8639   -0.4957 C   0  0  0  0  0  0  0  0  0  0  0  0
   -0.9423    2.1126   -1.2756 H   0  0  0  0  0  0  0  0  0  0  0  0
   -1.7416    3.6368   -0.8619 H   0  0  0  0  0  0  0  0  0  0  0  0
   -0.0969    3.3106   -0.2696 H   0  0  0  0  0  0  0  0  0  0  0  0
    0.5323   -1.0919    0.7712 C   0  0  0  0  0  0  0  0  0  0  0  0
    1.4957   -1.3232    0.0442 O   0  0  0  0  0  0  0  0  0  0  0  0
    0.3817   -1.6655    1.9720 N   0  0  0  0  0  0  0  0  0  0  0  0
   -0.4326   -1.4206    2.5123 H   0  0  0  0  0  0  0  0  0  0  0  0
    1.3276   -2.6210    2.5439 C   0  0  0  0  0  0  0  0  0  0  0  0
    2.3138   -2.1588    2.6271 H   0  0  0  0  0  0  0  0  0  0  0  0
    0.9944   -2.9375    3.5335 H   0  0  0  0  0  0  0  0  0  0  0  0
    1.4080   -3.4938    1.8940 H   0  0  0  0  0  0  0  0  0  0  0  0
  5  6  2  0  0  0  0
  5  7  1  0  0  0  0
  2  3  1  0  0  0  0
  2  4  1  0  0  0  0
  2  5  1  0  0  0  0
  1  2  1  0  0  0  0
 24 25  2  0  0  0  0
 24 26  1  0  0  0  0
 20 21  1  0  0  0  0
 20 22  1  0  0  0  0
 20 23  1  0  0  0  0
 16 17  1  0  0  0  0
 16 18  1  0  0  0  0
 16 19  1  0  0  0  0
 14 15  1  0  0  0  0
 14 16  1  0  0  0  0
 14 20  1  0  0  0  0
 11 12  1  0  0  0  0
 11 13  1  0  0  0  0
 11 14  1  0  0  0  0
  9 10  1  0  0  0  0
  9 11  1  0  0  0  0
  9 24  1  0  0  0  0
  7  8  1  0  0  0  0
  7  9  1  0  0  0  0
 28 29  1  0  0  0  0
 28 30  1  0  0  0  0
 28 31  1  0  0  0  0
 26 27  1  0  0  0  0
 26 28  1  0  0  0  0
M  END
$$$$
default_name
  -OEChem-01062215323D

 31 30  0     1  0  0  0  0  0999 V2000
   -3.5895   -3.5013    1.1082 H   0  0  0  0  0  0  0  0  0  0  0  0
   -3.5145   -2.5363    0.6082 C   0  0  0  0  0  0  0  0  0  0  0  0
   -4.2285   -1.8413    1.0452 H   0  0  0  0  0  0  0  0  0  0  0  0
   -3.7155   -2.6583   -0.4538 H   0  0  0  0  0  0  0  0  0  0  0  0
   -2.1155   -1.9963    0.7922 C   0  0  0  0  0  0  0  0  0  0  0  0
   -1.2875   -2.6383    1.4252 O   0  0  0  0  0  0  0  0  0  0  0  0
   -1.8575   -0.8123    0.2402 N   0  0  0  0  0  0  0  0  0  0  0  0
   -2.6005   -0.3333   -0.2478 H   0  0  0  0  0  0  0  0  0  0  0  0
   -0.5675   -0.1203    0.3102 C   0  0  1  0  0  0  0  0  0  0  0  0
   -0.3149    0.2330   -0.6902 H   0  0  0  0  0  0  0  0  0  0  0  0
   -0.7127    1.0956    1.2491 C   0  0  0  0  0  0  0  0  0  0  0  0
   -1.0713    0.7461    2.2192 H   0  0  0  0  0  0  0  0  0  0  0  0
    0.2798    1.5264    1.3991 H   0  0  0  0  0  0  0  0  0  0  0  0
   -1.6507    2.2131    0.7572 C   0  0  0  0  0  0  0  0  0  0  0  0
   -2.6212    1.7909    0.4964 H   0  0  0  0  0  0  0  0  0  0  0  0
   -1.8503    3.3072    1.8100 C   0  0  0  0  0  0  0  0  0  0  0  0
   -0.8851    3.7290    2.0936 H   0  0  0  0  0  0  0  0  0  0  0  0
   -2.4794    4.0988    1.4022 H   0  0  0  0  0  0  0  0  0  0  0  0
   -2.3359    2.9038    2.6960 H   0  0  0  0  0  0  0  0  0  0  0  0
   -1.0658    2.8639   -0.4957 C   0  0  0  0  0  0  0  0  0  0  0  0
   -0.9423    2.1126   -1.2756 H   0  0  0  0  0  0  0  0  0  0  0  0
   -1.7416    3.6368   -0.8619 H   0  0  0  0  0  0  0  0  0  0  0  0
   -0.0969    3.3106   -0.2696 H   0  0  0  0  0  0  0  0  0  0  0  0
    0.5323   -1.0919    0.7712 C   0  0  0  0  0  0  0  0  0  0  0  0
    1.6147   -1.1193    0.1900 O   0  0  0  0  0  0  0  0  0  0  0  0
    0.2500   -1.8931    1.8066 N   0  0  0  0  0  0  0  0  0  0  0  0
   -0.6579   -1.8073    2.2349 H   0  0  0  0  0  0  0  0  0  0  0  0
    1.1797   -2.8798    2.3517 C   0  0  0  0  0  0  0  0  0  0  0  0
    2.0935   -2.3816    2.6833 H   0  0  0  0  0  0  0  0  0  0  0  0
    0.7269   -3.4000    3.1971 H   0  0  0  0  0  0  0  0  0  0  0  0
    1.4414   -3.6052    1.5798 H   0  0  0  0  0  0  0  0  0  0  0  0
  5  6  2  0  0  0  0
  5  7  1  0  0  0  0
  2  3  1  0  0  0  0
  2  4  1  0  0  0  0
  2  5  1  0  0  0  0
  1  2  1  0  0  0  0
 24 25  2  0  0  0  0
 24 26  1  0  0  0  0
 20 21  1  0  0  0  0
 20 22  1  0  0  0  0
 20 23  1  0  0  0  0
 16 17  1  0  0  0  0
 16 18  1  0  0  0  0
 16 19  1  0  0  0  0
 14 15  1  0  0  0  0
 14 16  1  0  0  0  0
 14 20  1  0  0  0  0
 11 12  1  0  0  0  0
 11 13  1  0  0  0  0
 11 14  1  0  0  0  0
  9 10  1  0  0  0  0
  9 11  1  0  0  0  0
  9 24  1  0  0  0  0
  7  8  1  0  0  0  0
  7  9  1  0  0  0  0
 28 29  1  0  0  0  0
 28 30  1  0  0  0  0
 28 31  1  0  0  0  0
 26 27  1  0  0  0  0
 26 28  1  0  0  0  0
M  END
$$$$
default_name
  -OEChem-01062215323D

 31 30  0     1  0  0  0  0  0999 V2000
   -3.5895   -3.5013    1.1082 H   0  0  0  0  0  0  0  0  0  0  0  0
   -3.5145   -2.5363    0.6082 C   0  0  0  0  0  0  0  0  0  0  0  0
   -4.2285   -1.8413    1.0452 H   0  0  0  0  0  0  0  0  0  0  0  0
   -3.7155   -2.6583   -0.4538 H   0  0  0  0  0  0  0  0  0  0  0  0
   -2.1155   -1.9963    0.7922 C   0  0  0  0  0  0  0  0  0  0  0  0
   -1.2875   -2.6383    1.4252 O   0  0  0  0  0  0  0  0  0  0  0  0
   -1.8575   -0.8123    0.2402 N   0  0  0  0  0  0  0  0  0  0  0  0
   -2.6005   -0.3333   -0.2478 H   0  0  0  0  0  0  0  0  0  0  0  0
   -0.5675   -0.1203    0.3102 C   0  0  1  0  0  0  0  0  0  0  0  0
   -0.3149    0.2330   -0.6902 H   0  0  0  0  0  0  0  0  0  0  0  0
   -0.7127    1.0956    1.2491 C   0  0  0  0  0  0  0  0  0  0  0  0
   -1.0713    0.7461    2.2192 H   0  0  0  0  0  0  0  0  0  0  0  0
    0.2798    1.5264    1.3991 H   0  0  0  0  0  0  0  0  0  0  0  0
   -1.6507    2.2131    0.7572 C   0  0  0  0  0  0  0  0  0  0  0  0
   -2.6212    1.7909    0.4964 H   0  0  0  0  0  0  0  0  0  0  0  0
   -1.8503    3.3072    1.8100 C   0  0  0  0  0  0  0  0  0  0  0  0
   -0.8851    3.7290    2.0936 H   0  0  0  0  0  0  0  0  0  0  0  0
   -2.4794    4.0988    1.4022 H   0  0  0  0  0  0  0  0  0  0  0  0
   -2.3359    2.9038    2.6960 H   0  0  0  0  0  0  0  0  0  0  0  0
   -1.0658    2.8639   -0.4957 C   0  0  0  0  0  0  0  0  0  0  0  0
   -0.9423    2.1126   -1.2756 H   0  0  0  0  0  0  0  0  0  0  0  0
   -1.7416    3.6368   -0.8619 H   0  0  0  0  0  0  0  0  0  0  0  0
   -0.0969    3.3106   -0.2696 H   0  0  0  0  0  0  0  0  0  0  0  0
    0.5323   -1.0919    0.7712 C   0  0  0  0  0  0  0  0  0  0  0  0
    1.6900   -0.9402    0.3880 O   0  0  0  0  0  0  0  0  0  0  0  0
    0.1675   -2.0925    1.5832 N   0  0  0  0  0  0  0  0  0  0  0  0
   -0.8001   -2.1469    1.8584 H   0  0  0  0  0  0  0  0  0  0  0  0
    1.0882   -3.1055    2.0939 C   0  0  0  0  0  0  0  0  0  0  0  0
    1.8888   -2.6243    2.6602 H   0  0  0  0  0  0  0  0  0  0  0  0
    0.5594   -3.8052    2.7429 H   0  0  0  0  0  0  0  0  0  0  0  0
    1.5336   -3.6520    1.2611 H   0  0  0  0  0  0  0  0  0  0  0  0
  5  6  2  0  0  0  0
  5  7  1  0  0  0  0
  2  3  1  0  0  0  0
  2  4  1  0  0  0  0
  2  5  1  0  0  0  0
  1  2  1  0  0  0  0
 24 25  2  0  0  0  0
 24 26  1  0  0  0  0
 20 21  1  0  0  0  0
 20 22  1  0  0  0  0
 20 23  1  0  0  0  0
 16 17  1  0  0  0  0
 16 18  1  0  0  0  0
 16 19  1  0  0  0  0
 14 15  1  0  0  0  0
 14 16  1  0  0  0  0
 14 20  1  0  0  0  0
 11 12  1  0  0  0  0
 11 13  1  0  0  0  0
 11 14  1  0  0  0  0
  9 10  1  0  0  0  0
  9 11  1  0  0  0  0
  9 24  1  0  0  0  0
  7  8  1  0  0  0  0
  7  9  1  0  0  0  0
 28 29  1  0  0  0  0
 28 30  1  0  0  0  0
 28 31  1  0  0  0  0
 26 27  1  0  0  0  0
 26 28  1  0  0  0  0
M  END
$$$$
default_name
  -OEChem-01062215323D

 31 30  0     1  0  0  0  0  0999 V2000
   -3.5895   -3.5013    1.1082 H   0  0  0  0  0  0  0  0  0  0  0  0
   -3.5145   -2.5363    0.6082 C   0  0  0  0  0  0  0  0  0  0  0  0
   -4.2285   -1.8413    1.0452 H   0  0  0  0  0  0  0  0  0  0  0  0
   -3.7155   -2.6583   -0.4538 H   0  0  0  0  0  0  0  0  0  0  0  0
   -2.1155   -1.9963    0.7922 C   0  0  0  0  0  0  0  0  0  0  0  0
   -1.2875   -2.6383    1.4252 O   0  0  0  0  0  0  0  0  0  0  0  0
   -1.8575   -0.8123    0.2402 N   0  0  0  0  0  0  0  0  0  0  0  0
   -2.6005   -0.3333   -0.2478 H   0  0  0  0  0  0  0  0  0  0  0  0
   -0.5675   -0.1203    0.3102 C   0  0  1  0  0  0  0  0  0  0  0  0
   -0.3149    0.2330   -0.6902 H   0  0  0  0  0  0  0  0  0  0  0  0
   -0.7127    1.0956    1.2491 C   0  0  0  0  0  0  0  0  0  0  0  0
   -1.0713    0.7461    2.2192 H   0  0  0  0  0  0  0  0  0  0  0  0
    0.2798    1.5264    1.3991 H   0  0  0  0  0  0  0  0  0  0  0  0
   -1.6507    2.2131    0.7572 C   0  0  0  0  0  0  0  0  0  0  0  0
   -2.6212    1.7909    0.4964 H   0  0  0  0  0  0  0  0  0  0  0  0
   -1.8503    3.3072    1.8100 C   0  0  0  0  0  0  0  0  0  0  0  0
   -0.8851    3.7290    2.0936 H   0  0  0  0  0  0  0  0  0  0  0  0
   -2.4794    4.0988    1.4022 H   0  0  0  0  0  0  0  0  0  0  0  0
   -2.3359    2.9038    2.6960 H   0  0  0  0  0  0  0  0  0  0  0  0
   -1.0658    2.8639   -0.4957 C   0  0  0  0  0  0  0  0  0  0  0  0
   -0.9423    2.1126   -1.2756 H   0  0  0  0  0  0  0  0  0  0  0  0
   -1.7416    3.6368   -0.8619 H   0  0  0  0  0  0  0  0  0  0  0  0
   -0.0969    3.3106   -0.2696 H   0  0  0  0  0  0  0  0  0  0  0  0
    0.5323   -1.0919    0.7712 C   0  0  0  0  0  0  0  0  0  0  0  0
    1.7165   -0.7979    0.6247 O   0  0  0  0  0  0  0  0  0  0  0  0
    0.1398   -2.2502    1.3170 N   0  0  0  0  0  0  0  0  0  0  0  0
   -0.8496   -2.4164    1.4087 H   0  0  0  0  0  0  0  0  0  0  0  0
    1.0596   -3.2830    1.7882 C   0  0  0  0  0  0  0  0  0  0  0  0
    1.7136   -2.8703    2.5596 H   0  0  0  0  0  0  0  0  0  0  0  0
    0.5032   -4.1255    2.2018 H   0  0  0  0  0  0  0  0  0  0  0  0
    1.6784   -3.6312    0.9596 H   0  0  0  0  0  0  0  0  0  0  0  0
  5  6  2  0  0  0  0
  5  7  1  0  0  0  0
  2  3  1  0  0  0  0
  2  4  1  0  0  0  0
  2  5  1  0  0  0  0
  1  2  1  0  0  0  0
 24 25  2  0  0  0  0
 24 26  1  0  0  0  0
 20 21  1  0  0  0  0
 20 22  1  0  0  0  0
 20 23  1  0  0  0  0
 16 17  1  0  0  0  0
 16 18  1  0  0  0  0
 16 19  1  0  0  0  0
 14 15  1  0  0  0  0
 14 16  1  0  0  0  0
 14 20  1  0  0  0  0
 11 12  1  0  0  0  0
 11 13  1  0  0  0  0
 11 14  1  0  0  0  0
  9 10  1  0  0  0  0
  9 11  1  0  0  0  0
  9 24  1  0  0  0  0
  7  8  1  0  0  0  0
  7  9  1  0  0  0  0
 28 29  1  0  0  0  0
 28 30  1  0  0  0  0
 28 31  1  0  0  0  0
 26 27  1  0  0  0  0
 26 28  1  0  0  0  0
M  END
$$$$
default_name
  -OEChem-01062215323D

 31 30  0     1  0  0  0  0  0999 V2000
   -3.5895   -3.5013    1.1082 H   0  0  0  0  0  0  0  0  0  0  0  0
   -3.5145   -2.5363    0.6082 C   0  0  0  0  0  0  0  0  0  0  0  0
   -4.2285   -1.8413    1.0452 H   0  0  0  0  0  0  0  0  0  0  0  0
   -3.7155   -2.6583   -0.4538 H   0  0  0  0  0  0  0  0  0  0  0  0
   -2.1155   -1.9963    0.7922 C   0  0  0  0  0  0  0  0  0  0  0  0
   -1.2875   -2.6383    1.4252 O   0  0  0  0  0  0  0  0  0  0  0  0
   -1.8575   -0.8123    0.2402 N   0  0  0  0  0  0  0  0  0  0  0  0
   -2.6005   -0.3333   -0.2478 H   0  0  0  0  0  0  0  0  0  0  0  0
   -0.5675   -0.1203    0.3102 C   0  0  1  0  0  0  0  0  0  0  0  0
   -0.3149    0.2330   -0.6902 H   0  0  0  0  0  0  0  0  0  0  0  0
   -0.7127    1.0956    1.2491 C   0  0  0  0  0  0  0  0  0  0  0  0
   -1.0713    0.7461    2.2192 H   0  0  0  0  0  0  0  0  0  0  0  0
    0.2798    1.5264    1.3991 H   0  0  0  0  0  0  0  0  0  0  0  0
   -1.6507    2.2131    0.7572 C   0  0  0  0  0  0  0  0  0  0  0  0
   -2.6212    1.7909    0.4964 H   0  0  0  0  0  0  0  0  0  0  0  0
   -1.8503    3.3072    1.8100 C   0  0  0  0  0  0  0  0  0  0  0  0
   -0.8851    3.7290    2.0936 H   0  0  0  0  0  0  0  0  0  0  0  0
   -2.4794    4.0988    1.4022 H   0  0  0  0  0  0  0  0  0  0  0  0
   -2.3359    2.9038    2.6960 H   0  0  0  0  0  0  0  0  0  0  0  0
   -1.0658    2.8639   -0.4957 C   0  0  0  0  0  0  0  0  0  0  0  0
   -0.9423    2.1126   -1.2756 H   0  0  0  0  0  0  0  0  0  0  0  0
   -1.7416    3.6368   -0.8619 H   0  0  0  0  0  0  0  0  0  0  0  0
   -0.0969    3.3106   -0.2696 H   0  0  0  0  0  0  0  0  0  0  0  0
    0.5323   -1.0919    0.7712 C   0  0  0  0  0  0  0  0  0  0  0  0
    1.6923   -0.7022    0.8839 O   0  0  0  0  0  0  0  0  0  0  0  0
    0.1688   -2.3554    1.0261 N   0  0  0  0  0  0  0  0  0  0  0  0
   -0.8031   -2.5973    0.9164 H   0  0  0  0  0  0  0  0  0  0  0  0
    1.0957   -3.4001    1.4553 C   0  0  0  0  0  0  0  0  0  0  0  0
    1.5799   -3.1029    2.3883 H   0  0  0  0  0  0  0  0  0  0  0  0
    0.5623   -4.3392    1.6106 H   0  0  0  0  0  0  0  0  0  0  0  0
    1.8660   -3.5440    0.6960 H   0  0  0  0  0  0  0  0  0  0  0  0
  5  6  2  0  0  0  0
  5  7  1  0  0  0  0
  2  3  1  0  0  0  0
  2  4  1  0  0  0  0
  2  5  1  0  0  0  0
  1  2  1  0  0  0  0
 24 25  2  0  0  0  0
 24 26  1  0  0  0  0
 20 21  1  0  0  0  0
 20 22  1  0  0  0  0
 20 23  1  0  0  0  0
 16 17  1  0  0  0  0
 16 18  1  0  0  0  0
 16 19  1  0  0  0  0
 14 15  1  0  0  0  0
 14 16  1  0  0  0  0
 14 20  1  0  0  0  0
 11 12  1  0  0  0  0
 11 13  1  0  0  0  0
 11 14  1  0  0  0  0
  9 10  1  0  0  0  0
  9 11  1  0  0  0  0
  9 24  1  0  0  0  0
  7  8  1  0  0  0  0
  7  9  1  0  0  0  0
 28 29  1  0  0  0  0
 28 30  1  0  0  0  0
 28 31  1  0  0  0  0
 26 27  1  0  0  0  0
 26 28  1  0  0  0  0
M  END
$$$$
default_name
  -OEChem-01062215323D

 31 30  0     1  0  0  0  0  0999 V2000
   -3.5895   -3.5013    1.1082 H   0  0  0  0  0  0  0  0  0  0  0  0
   -3.5145   -2.5363    0.6082 C   0  0  0  0  0  0  0  0  0  0  0  0
   -4.2285   -1.8413    1.0452 H   0  0  0  0  0  0  0  0  0  0  0  0
   -3.7155   -2.6583   -0.4538 H   0  0  0  0  0  0  0  0  0  0  0  0
   -2.1155   -1.9963    0.7922 C   0  0  0  0  0  0  0  0  0  0  0  0
   -1.2875   -2.6383    1.4252 O   0  0  0  0  0  0  0  0  0  0  0  0
   -1.8575   -0.8123    0.2402 N   0  0  0  0  0  0  0  0  0  0  0  0
   -2.6005   -0.3333   -0.2478 H   0  0  0  0  0  0  0  0  0  0  0  0
   -0.5675   -0.1203    0.3102 C   0  0  1  0  0  0  0  0  0  0  0  0
   -0.3149    0.2330   -0.6902 H   0  0  0  0  0  0  0  0  0  0  0  0
   -0.7127    1.0956    1.2491 C   0  0  0  0  0  0  0  0  0  0  0  0
   -1.0713    0.7461    2.2192 H   0  0  0  0  0  0  0  0  0  0  0  0
    0.2798    1.5264    1.3991 H   0  0  0  0  0  0  0  0  0  0  0  0
   -1.6507    2.2131    0.7572 C   0  0  0  0  0  0  0  0  0  0  0  0
   -2.6212    1.7909    0.4964 H   0  0  0  0  0  0  0  0  0  0  0  0
   -1.8503    3.3072    1.8100 C   0  0  0  0  0  0  0  0  0  0  0  0
   -0.8851    3.7290    2.0936 H   0  0  0  0  0  0  0  0  0  0  0  0
   -2.4794    4.0988    1.4022 H   0  0  0  0  0  0  0  0  0  0  0  0
   -2.3359    2.9038    2.6960 H   0  0  0  0  0  0  0  0  0  0  0  0
   -1.0658    2.8639   -0.4957 C   0  0  0  0  0  0  0  0  0  0  0  0
   -0.9423    2.1126   -1.2756 H   0  0  0  0  0  0  0  0  0  0  0  0
   -1.7416    3.6368   -0.8619 H   0  0  0  0  0  0  0  0  0  0  0  0
   -0.0969    3.3106   -0.2696 H   0  0  0  0  0  0  0  0  0  0  0  0
    0.5323   -1.0919    0.7712 C   0  0  0  0  0  0  0  0  0  0  0  0
    1.6192   -0.6596    1.1481 O   0  0  0  0  0  0  0  0  0  0  0  0
    0.2525   -2.4010    0.7305 N   0  0  0  0  0  0  0  0  0  0  0  0
   -0.6635   -2.6773    0.4149 H   0  0  0  0  0  0  0  0  0  0  0  0
    1.1941   -3.4488    1.1181 C   0  0  0  0  0  0  0  0  0  0  0  0
    1.4969   -3.3062    2.1579 H   0  0  0  0  0  0  0  0  0  0  0  0
    0.7326   -4.4315    1.0097 H   0  0  0  0  0  0  0  0  0  0  0  0
    2.0835   -3.3964    0.4881 H   0  0  0  0  0  0  0  0  0  0  0  0
  5  6  2  0  0  0  0
  5  7  1  0  0  0  0
  2  3  1  0  0  0  0
  2  4  1  0  0  0  0
  2  5  1  0  0  0  0
  1  2  1  0  0  0  0
 24 25  2  0  0  0  0
 24 26  1  0  0  0  0
 20 21  1  0  0  0  0
 20 22  1  0  0  0  0
 20 23  1  0  0  0  0
 16 17  1  0  0  0  0
 16 18  1  0  0  0  0
 16 19  1  0  0  0  0
 14 15  1  0  0  0  0
 14 16  1  0  0  0  0
 14 20  1  0  0  0  0
 11 12  1  0  0  0  0
 11 13  1  0  0  0  0
 11 14  1  0  0  0  0
  9 10  1  0  0  0  0
  9 11  1  0  0  0  0
  9 24  1  0  0  0  0
  7  8  1  0  0  0  0
  7  9  1  0  0  0  0
 28 29  1  0  0  0  0
 28 30  1  0  0  0  0
 28 31  1  0  0  0  0
 26 27  1  0  0  0  0
 26 28  1  0  0  0  0
M  END
$$$$
default_name
  -OEChem-01062215323D

 31 30  0     1  0  0  0  0  0999 V2000
   -3.5895   -3.5013    1.1082 H   0  0  0  0  0  0  0  0  0  0  0  0
   -3.5145   -2.5363    0.6082 C   0  0  0  0  0  0  0  0  0  0  0  0
   -4.2285   -1.8413    1.0452 H   0  0  0  0  0  0  0  0  0  0  0  0
   -3.7155   -2.6583   -0.4538 H   0  0  0  0  0  0  0  0  0  0  0  0
   -2.1155   -1.9963    0.7922 C   0  0  0  0  0  0  0  0  0  0  0  0
   -1.2875   -2.6383    1.4252 O   0  0  0  0  0  0  0  0  0  0  0  0
   -1.8575   -0.8123    0.2402 N   0  0  0  0  0  0  0  0  0  0  0  0
   -2.6005   -0.3333   -0.2478 H   0  0  0  0  0  0  0  0  0  0  0  0
   -0.5675   -0.1203    0.3102 C   0  0  1  0  0  0  0  0  0  0  0  0
   -0.3149    0.2330   -0.6902 H   0  0  0  0  0  0  0  0  0  0  0  0
   -0.7127    1.0956    1.2491 C   0  0  0  0  0  0  0  0  0  0  0  0
   -1.0713    0.7461    2.2192 H   0  0  0  0  0  0  0  0  0  0  0  0
    0.2798    1.5264    1.3991 H   0  0  0  0  0  0  0  0  0  0  0  0
   -1.6507    2.2131    0.7572 C   0  0  0  0  0  0  0  0  0  0  0  0
   -2.6212    1.7909    0.4964 H   0  0  0  0  0  0  0  0  0  0  0  0
   -1.8503    3.3072    1.8100 C   0  0  0  0  0  0  0  0  0  0  0  0
   -0.8851    3.7290    2.0936 H   0  0  0  0  0  0  0  0  0  0  0  0
   -2.4794    4.0988    1.4022 H   0  0  0  0  0  0  0  0  0  0  0  0
   -2.3359    2.9038    2.6960 H   0  0  0  0  0  0  0  0  0  0  0  0
   -1.0658    2.8639   -0.4957 C   0  0  0  0  0  0  0  0  0  0  0  0
   -0.9423    2.1126   -1.2756 H   0  0  0  0  0  0  0  0  0  0  0  0
   -1.7416    3.6368   -0.8619 H   0  0  0  0  0  0  0  0  0  0  0  0
   -0.0969    3.3106   -0.2696 H   0  0  0  0  0  0  0  0  0  0  0  0
    0.5323   -1.0919    0.7712 C   0  0  0  0  0  0  0  0  0  0  0  0
    1.5020   -0.6731    1.3993 O   0  0  0  0  0  0  0  0  0  0  0  0
    0.3852   -2.3838    0.4501 N   0  0  0  0  0  0  0  0  0  0  0  0
   -0.4406   -2.6510   -0.0614 H   0  0  0  0  0  0  0  0  0  0  0  0
    1.3480   -3.4258    0.7994 C   0  0  0  0  0  0  0  0  0  0  0  0
    1.4701   -3.4664    1.8841 H   0  0  0  0  0  0  0  0  0  0  0  0
    1.0025   -4.3964    0.4401 H   0  0  0  0  0  0  0  0  0  0  0  0
    2.3161   -3.1985    0.3502 H   0  0  0  0  0  0  0  0  0  0  0  0
  5  6  2  0  0  0  0
  5  7  1  0  0  0  0
  2  3  1  0  0  0  0
  2  4  1  0  0  0  0
  2  5  1  0  0  0  0
  1  2  1  0  0  0  0
 24 25  2  0  0  0  0
 24 26  1  0  0  0  0
 20 21  1  0  0  0  0
 20 22  1  0  0  0  0
 20 23  1  0  0  0  0
 16 17  1  0  0  0  0
 16 18  1  0  0  0  0
 16 19  1  0  0  0  0
 14 15  1  0  0  0  0
 14 16  1  0  0  0  0
 14 20  1  0  0  0  0
 11 12  1  0  0  0  0
 11 13  1  0  0  0  0
 11 14  1  0  0  0  0
  9 10  1  0  0  0  0
  9 11  1  0  0  0  0
  9 24  1  0  0  0  0
  7  8  1  0  0  0  0
  7  9  1  0  0  0  0
 28 29  1  0  0  0  0
 28 30  1  0  0  0  0
 28 31  1  0  0  0  0
 26 27  1  0  0  0  0
 26 28  1  0  0  0  0
M  END
$$$$
default_name
  -OEChem-01062215323D

 31 30  0     1  0  0  0  0  0999 V2000
   -3.5895   -3.5013    1.1082 H   0  0  0  0  0  0  0  0  0  0  0  0
   -3.5145   -2.5363    0.6082 C   0  0  0  0  0  0  0  0  0  0  0  0
   -4.2285   -1.8413    1.0452 H   0  0  0  0  0  0  0  0  0  0  0  0
   -3.7155   -2.6583   -0.4538 H   0  0  0  0  0  0  0  0  0  0  0  0
   -2.1155   -1.9963    0.7922 C   0  0  0  0  0  0  0  0  0  0  0  0
   -1.2875   -2.6383    1.4252 O   0  0  0  0  0  0  0  0  0  0  0  0
   -1.8575   -0.8123    0.2402 N   0  0  0  0  0  0  0  0  0  0  0  0
   -2.6005   -0.3333   -0.2478 H   0  0  0  0  0  0  0  0  0  0  0  0
   -0.5675   -0.1203    0.3102 C   0  0  1  0  0  0  0  0  0  0  0  0
   -0.3149    0.2330   -0.6902 H   0  0  0  0  0  0  0  0  0  0  0  0
   -0.7127    1.0956    1.2491 C   0  0  0  0  0  0  0  0  0  0  0  0
   -1.0713    0.7461    2.2192 H   0  0  0  0  0  0  0  0  0  0  0  0
    0.2798    1.5264    1.3991 H   0  0  0  0  0  0  0  0  0  0  0  0
   -1.6507    2.2131    0.7572 C   0  0  0  0  0  0  0  0  0  0  0  0
   -2.6212    1.7909    0.4964 H   0  0  0  0  0  0  0  0  0  0  0  0
   -1.8503    3.3072    1.8100 C   0  0  0  0  0  0  0  0  0  0  0  0
   -0.8851    3.7290    2.0936 H   0  0  0  0  0  0  0  0  0  0  0  0
   -2.4794    4.0988    1.4022 H   0  0  0  0  0  0  0  0  0  0  0  0
   -2.3359    2.9038    2.6960 H   0  0  0  0  0  0  0  0  0  0  0  0
   -1.0658    2.8639   -0.4957 C   0  0  0  0  0  0  0  0  0  0  0  0
   -0.9423    2.1126   -1.2756 H   0  0  0  0  0  0  0  0  0  0  0  0
   -1.7416    3.6368   -0.8619 H   0  0  0  0  0  0  0  0  0  0  0  0
   -0.0969    3.3106   -0.2696 H   0  0  0  0  0  0  0  0  0  0  0  0
    0.5323   -1.0919    0.7712 C   0  0  0  0  0  0  0  0  0  0  0  0
    1.3488   -0.7416    1.6202 O   0  0  0  0  0  0  0  0  0  0  0  0
    0.5579   -2.3050    0.2042 N   0  0  0  0  0  0  0  0  0  0  0  0
   -0.1494   -2.5201   -0.4802 H   0  0  0  0  0  0  0  0  0  0  0  0
    1.5470   -3.3327    0.5210 C   0  0  0  0  0  0  0  0  0  0  0  0
    1.5014   -3.5726    1.5856 H   0  0  0  0  0  0  0  0  0  0  0  0
    1.3535   -4.2361   -0.0595 H   0  0  0  0  0  0  0  0  0  0  0  0
    2.5479   -2.9639    0.2917 H   0  0  0  0  0  0  0  0  0  0  0  0
  5  6  2  0  0  0  0
  5  7  1  0  0  0  0
  2  3  1  0  0  0  0
  2  4  1  0  0  0  0
  2  5  1  0  0  0  0
  1  2  1  0  0  0  0
 24 25  2  0  0  0  0
 24 26  1  0  0  0  0
 20 21  1  0  0  0  0
 20 22  1  0  0  0  0
 20 23  1  0  0  0  0
 16 17  1  0  0  0  0
 16 18  1  0  0  0  0
 16 19  1  0  0  0  0
 14 15  1  0  0  0  0
 14 16  1  0  0  0  0
 14 20  1  0  0  0  0
 11 12  1  0  0  0  0
 11 13  1  0  0  0  0
 11 14  1  0  0  0  0
  9 10  1  0  0  0  0
  9 11  1  0  0  0  0
  9 24  1  0  0  0  0
  7  8  1  0  0  0  0
  7  9  1  0  0  0  0
 28 29  1  0  0  0  0
 28 30  1  0  0  0  0
 28 31  1  0  0  0  0
 26 27  1  0  0  0  0
 26 28  1  0  0  0  0
M  END
$$$$
default_name
  -OEChem-01062215323D

 31 30  0     1  0  0  0  0  0999 V2000
   -3.5895   -3.5013    1.1082 H   0  0  0  0  0  0  0  0  0  0  0  0
   -3.5145   -2.5363    0.6082 C   0  0  0  0  0  0  0  0  0  0  0  0
   -4.2285   -1.8413    1.0452 H   0  0  0  0  0  0  0  0  0  0  0  0
   -3.7155   -2.6583   -0.4538 H   0  0  0  0  0  0  0  0  0  0  0  0
   -2.1155   -1.9963    0.7922 C   0  0  0  0  0  0  0  0  0  0  0  0
   -1.2875   -2.6383    1.4252 O   0  0  0  0  0  0  0  0  0  0  0  0
   -1.8575   -0.8123    0.2402 N   0  0  0  0  0  0  0  0  0  0  0  0
   -2.6005   -0.3333   -0.2478 H   0  0  0  0  0  0  0  0  0  0  0  0
   -0.5675   -0.1203    0.3102 C   0  0  1  0  0  0  0  0  0  0  0  0
   -0.3149    0.2330   -0.6902 H   0  0  0  0  0  0  0  0  0  0  0  0
   -0.7127    1.0956    1.2491 C   0  0  0  0  0  0  0  0  0  0  0  0
   -1.0713    0.7461    2.2192 H   0  0  0  0  0  0  0  0  0  0  0  0
    0.2798    1.5264    1.3991 H   0  0  0  0  0  0  0  0  0  0  0  0
   -1.6507    2.2131    0.7572 C   0  0  0  0  0  0  0  0  0  0  0  0
   -2.6212    1.7909    0.4964 H   0  0  0  0  0  0  0  0  0  0  0  0
   -1.8503    3.3072    1.8100 C   0  0  0  0  0  0  0  0  0  0  0  0
   -0.8851    3.7290    2.0936 H   0  0  0  0  0  0  0  0  0  0  0  0
   -2.4794    4.0988    1.4022 H   0  0  0  0  0  0  0  0  0  0  0  0
   -2.3359    2.9038    2.6960 H   0  0  0  0  0  0  0  0  0  0  0  0
   -1.0658    2.8639   -0.4957 C   0  0  0  0  0  0  0  0  0  0  0  0
   -0.9423    2.1126   -1.2756 H   0  0  0  0  0  0  0  0  0  0  0  0
   -1.7416    3.6368   -0.8619 H   0  0  0  0  0  0  0  0  0  0  0  0
   -0.0969    3.3106   -0.2696 H   0  0  0  0  0  0  0  0  0  0  0  0
    0.5323   -1.0919    0.7712 C   0  0  0  0  0  0  0  0  0  0  0  0
    1.1701   -0.8606    1.7958 O   0  0  0  0  0  0  0  0  0  0  0  0
    0.7588   -2.1700    0.0095 N   0  0  0  0  0  0  0  0  0  0  0  0
    0.1902   -2.2936   -0.8129 H   0  0  0  0  0  0  0  0  0  0  0  0
    1.7775   -3.1758    0.3018 C   0  0  0  0  0  0  0  0  0  0  0  0
    1.5887   -3.6175    1.2828 H   0  0  0  0  0  0  0  0  0  0  0  0
    1.7619   -3.9615   -0.4551 H   0  0  0  0  0  0  0  0  0  0  0  0
    2.7633   -2.7083    0.3164 H   0  0  0  0  0  0  0  0  0  0  0  0
  5  6  2  0  0  0  0
  5  7  1  0  0  0  0
  2  3  1  0  0  0  0
  2  4  1  0  0  0  0
  2  5  1  0  0  0  0
  1  2  1  0  0  0  0
 24 25  2  0  0  0  0
 24 26  1  0  0  0  0
 20 21  1  0  0  0  0
 20 22  1  0  0  0  0
 20 23  1  0  0  0  0
 16 17  1  0  0  0  0
 16 18  1  0  0  0  0
 16 19  1  0  0  0  0
 14 15  1  0  0  0  0
 14 16  1  0  0  0  0
 14 20  1  0  0  0  0
 11 12  1  0  0  0  0
 11 13  1  0  0  0  0
 11 14  1  0  0  0  0
  9 10  1  0  0  0  0
  9 11  1  0  0  0  0
  9 24  1  0  0  0  0
  7  8  1  0  0  0  0
  7  9  1  0  0  0  0
 28 29  1  0  0  0  0
 28 30  1  0  0  0  0
 28 31  1  0  0  0  0
 26 27  1  0  0  0  0
 26 28  1  0  0  0  0
M  END
$$$$
default_name
  -OEChem-01062215323D

 31 30  0     1  0  0  0  0  0999 V2000
   -3.5895   -3.5013    1.1082 H   0  0  0  0  0  0  0  0  0  0  0  0
   -3.5145   -2.5363    0.6082 C   0  0  0  0  0  0  0  0  0  0  0  0
   -4.2285   -1.8413    1.0452 H   0  0  0  0  0  0  0  0  0  0  0  0
   -3.7155   -2.6583   -0.4538 H   0  0  0  0  0  0  0  0  0  0  0  0
   -2.1155   -1.9963    0.7922 C   0  0  0  0  0  0  0  0  0  0  0  0
   -1.2875   -2.6383    1.4252 O   0  0  0  0  0  0  0  0  0  0  0  0
   -1.8575   -0.8123    0.2402 N   0  0  0  0  0  0  0  0  0  0  0  0
   -2.6005   -0.3333   -0.2478 H   0  0  0  0  0  0  0  0  0  0  0  0
   -0.5675   -0.1203    0.3102 C   0  0  1  0  0  0  0  0  0  0  0  0
   -0.3149    0.2330   -0.6902 H   0  0  0  0  0  0  0  0  0  0  0  0
   -0.7127    1.0956    1.2491 C   0  0  0  0  0  0  0  0  0  0  0  0
   -1.0713    0.7461    2.2192 H   0  0  0  0  0  0  0  0  0  0  0  0
    0.2798    1.5264    1.3991 H   0  0  0  0  0  0  0  0  0  0  0  0
   -1.6507    2.2131    0.7572 C   0  0  0  0  0  0  0  0  0  0  0  0
   -2.6212    1.7909    0.4964 H   0  0  0  0  0  0  0  0  0  0  0  0
   -1.8503    3.3072    1.8100 C   0  0  0  0  0  0  0  0  0  0  0  0
   -0.8851    3.7290    2.0936 H   0  0  0  0  0  0  0  0  0  0  0  0
   -2.4794    4.0988    1.4022 H   0  0  0  0  0  0  0  0  0  0  0  0
   -2.3359    2.9038    2.6960 H   0  0  0  0  0  0  0  0  0  0  0  0
   -1.0658    2.8639   -0.4957 C   0  0  0  0  0  0  0  0  0  0  0  0
   -0.9423    2.1126   -1.2756 H   0  0  0  0  0  0  0  0  0  0  0  0
   -1.7416    3.6368   -0.8619 H   0  0  0  0  0  0  0  0  0  0  0  0
   -0.0969    3.3106   -0.2696 H   0  0  0  0  0  0  0  0  0  0  0  0
    0.5323   -1.0919    0.7712 C   0  0  0  0  0  0  0  0  0  0  0  0
    0.9779   -1.0219    1.9143 O   0  0  0  0  0  0  0  0  0  0  0  0
    0.9742   -1.9879   -0.1207 N   0  0  0  0  0  0  0  0  0  0  0  0
    0.5550   -1.9869   -1.0368 H   0  0  0  0  0  0  0  0  0  0  0  0
    2.0238   -2.9658    0.1568 C   0  0  0  0  0  0  0  0  0  0  0  0
    1.7260   -3.5981    0.9963 H   0  0  0  0  0  0  0  0  0  0  0  0
    2.1997   -3.5914   -0.7196 H   0  0  0  0  0  0  0  0  0  0  0  0
    2.9474   -2.4494    0.4228 H   0  0  0  0  0  0  0  0  0  0  0  0
  5  6  2  0  0  0  0
  5  7  1  0  0  0  0
  2  3  1  0  0  0  0
  2  4  1  0  0  0  0
  2  5  1  0  0  0  0
  1  2  1  0  0  0  0
 24 25  2  0  0  0  0
 24 26  1  0  0  0  0
 20 21  1  0  0  0  0
 20 22  1  0  0  0  0
 20 23  1  0  0  0  0
 16 17  1  0  0  0  0
 16 18  1  0  0  0  0
 16 19  1  0  0  0  0
 14 15  1  0  0  0  0
 14 16  1  0  0  0  0
 14 20  1  0  0  0  0
 11 12  1  0  0  0  0
 11 13  1  0  0  0  0
 11 14  1  0  0  0  0
  9 10  1  0  0  0  0
  9 11  1  0  0  0  0
  9 24  1  0  0  0  0
  7  8  1  0  0  0  0
  7  9  1  0  0  0  0
 28 29  1  0  0  0  0
 28 30  1  0  0  0  0
 28 31  1  0  0  0  0
 26 27  1  0  0  0  0
 26 28  1  0  0  0  0
M  END
$$$$
default_name
  -OEChem-01062215323D

 31 30  0     1  0  0  0  0  0999 V2000
   -3.5895   -3.5013    1.1082 H   0  0  0  0  0  0  0  0  0  0  0  0
   -3.5145   -2.5363    0.6082 C   0  0  0  0  0  0  0  0  0  0  0  0
   -4.2285   -1.8413    1.0452 H   0  0  0  0  0  0  0  0  0  0  0  0
   -3.7155   -2.6583   -0.4538 H   0  0  0  0  0  0  0  0  0  0  0  0
   -2.1155   -1.9963    0.7922 C   0  0  0  0  0  0  0  0  0  0  0  0
   -1.2875   -2.6383    1.4252 O   0  0  0  0  0  0  0  0  0  0  0  0
   -1.8575   -0.8123    0.2402 N   0  0  0  0  0  0  0  0  0  0  0  0
   -2.6005   -0.3333   -0.2478 H   0  0  0  0  0  0  0  0  0  0  0  0
   -0.5675   -0.1203    0.3102 C   0  0  1  0  0  0  0  0  0  0  0  0
   -0.3149    0.2330   -0.6902 H   0  0  0  0  0  0  0  0  0  0  0  0
   -0.7127    1.0956    1.2491 C   0  0  0  0  0  0  0  0  0  0  0  0
   -1.0713    0.7461    2.2192 H   0  0  0  0  0  0  0  0  0  0  0  0
    0.2798    1.5264    1.3991 H   0  0  0  0  0  0  0  0  0  0  0  0
   -1.6507    2.2131    0.7572 C   0  0  0  0  0  0  0  0  0  0  0  0
   -2.6212    1.7909    0.4964 H   0  0  0  0  0  0  0  0  0  0  0  0
   -1.8503    3.3072    1.8100 C   0  0  0  0  0  0  0  0  0  0  0  0
   -0.8851    3.7290    2.0936 H   0  0  0  0  0  0  0  0  0  0  0  0
   -2.4794    4.0988    1.4022 H   0  0  0  0  0  0  0  0  0  0  0  0
   -2.3359    2.9038    2.6960 H   0  0  0  0  0  0  0  0  0  0  0  0
   -1.0658    2.8639   -0.4957 C   0  0  0  0  0  0  0  0  0  0  0  0
   -0.9423    2.1126   -1.2756 H   0  0  0  0  0  0  0  0  0  0  0  0
   -1.7416    3.6368   -0.8619 H   0  0  0  0  0  0  0  0  0  0  0  0
   -0.0969    3.3106   -0.2696 H   0  0  0  0  0  0  0  0  0  0  0  0
    0.5323   -1.0919    0.7712 C   0  0  0  0  0  0  0  0  0  0  0  0
    0.7855   -1.2145    1.9674 O   0  0  0  0  0  0  0  0  0  0  0  0
    1.1895   -1.7713   -0.1777 N   0  0  0  0  0  0  0  0  0  0  0  0
    0.9202   -1.6209   -1.1367 H   0  0  0  0  0  0  0  0  0  0  0  0
    2.2691   -2.7170    0.0959 C   0  0  0  0  0  0  0  0  0  0  0  0
    1.9040   -3.5156    0.7456 H   0  0  0  0  0  0  0  0  0  0  0  0
    2.6371   -3.1511   -0.8350 H   0  0  0  0  0  0  0  0  0  0  0  0
    3.0878   -2.2047    0.6036 H   0  0  0  0  0  0  0  0  0  0  0  0
  5  6  2  0  0  0  0
  5  7  1  0  0  0  0
  2  3  1  0  0  0  0
  2  4  1  0  0  0  0
  2  5  1  0  0  0  0
  1  2  1  0  0  0  0
 24 25  2  0  0  0  0
 24 26  1  0  0  0  0
 20 21  1  0  0  0  0
 20 22  1  0  0  0  0
 20 23  1  0  0  0  0
 16 17  1  0  0  0  0
 16 18  1  0  0  0  0
 16 19  1  0  0  0  0
 14 15  1  0  0  0  0
 14 16  1  0  0  0  0
 14 20  1  0  0  0  0
 11 12  1  0  0  0  0
 11 13  1  0  0  0  0
 11 14  1  0  0  0  0
  9 10  1  0  0  0  0
  9 11  1  0  0  0  0
  9 24  1  0  0  0  0
  7  8  1  0  0  0  0
  7  9  1  0  0  0  0
 28 29  1  0  0  0  0
 28 30  1  0  0  0  0
 28 31  1  0  0  0  0
 26 27  1  0  0  0  0
 26 28  1  0  0  0  0
M  END
$$$$
default_name
  -OEChem-01062215323D

 31 30  0     1  0  0  0  0  0999 V2000
   -3.5895   -3.5013    1.1082 H   0  0  0  0  0  0  0  0  0  0  0  0
   -3.5145   -2.5363    0.6082 C   0  0  0  0  0  0  0  0  0  0  0  0
   -4.2285   -1.8413    1.0452 H   0  0  0  0  0  0  0  0  0  0  0  0
   -3.7155   -2.6583   -0.4538 H   0  0  0  0  0  0  0  0  0  0  0  0
   -2.1155   -1.9963    0.7922 C   0  0  0  0  0  0  0  0  0  0  0  0
   -1.2875   -2.6383    1.4252 O   0  0  0  0  0  0  0  0  0  0  0  0
   -1.8575   -0.8123    0.2402 N   0  0  0  0  0  0  0  0  0  0  0  0
   -2.6005   -0.3333   -0.2478 H   0  0  0  0  0  0  0  0  0  0  0  0
   -0.5675   -0.1203    0.3102 C   0  0  1  0  0  0  0  0  0  0  0  0
   -0.3149    0.2330   -0.6902 H   0  0  0  0  0  0  0  0  0  0  0  0
   -0.7127    1.0956    1.2491 C   0  0  0  0  0  0  0  0  0  0  0  0
   -1.0713    0.7461    2.2192 H   0  0  0  0  0  0  0  0  0  0  0  0
    0.2798    1.5264    1.3991 H   0  0  0  0  0  0  0  0  0  0  0  0
   -1.6507    2.2131    0.7572 C   0  0  0  0  0  0  0  0  0  0  0  0
   -2.6212    1.7909    0.4964 H   0  0  0  0  0  0  0  0  0  0  0  0
   -1.8503    3.3072    1.8100 C   0  0  0  0  0  0  0  0  0  0  0  0
   -0.8851    3.7290    2.0936 H   0  0  0  0  0  0  0  0  0  0  0  0
   -2.4794    4.0988    1.4022 H   0  0  0  0  0  0  0  0  0  0  0  0
   -2.3359    2.9038    2.6960 H   0  0  0  0  0  0  0  0  0  0  0  0
   -1.0658    2.8639   -0.4957 C   0  0  0  0  0  0  0  0  0  0  0  0
   -0.9423    2.1126   -1.2756 H   0  0  0  0  0  0  0  0  0  0  0  0
   -1.7416    3.6368   -0.8619 H   0  0  0  0  0  0  0  0  0  0  0  0
   -0.0969    3.3106   -0.2696 H   0  0  0  0  0  0  0  0  0  0  0  0
    0.5323   -1.0919    0.7712 C   0  0  0  0  0  0  0  0  0  0  0  0
    0.6059   -1.4254    1.9517 O   0  0  0  0  0  0  0  0  0  0  0  0
    1.3899   -1.5348   -0.1574 N   0  0  0  0  0  0  0  0  0  0  0  0
    1.2609   -1.2206   -1.1058 H   0  0  0  0  0  0  0  0  0  0  0  0
    2.4967   -2.4464    0.1232 C   0  0  0  0  0  0  0  0  0  0  0  0
    2.1104   -3.3758    0.5477 H   0  0  0  0  0  0  0  0  0  0  0  0
    3.0444   -2.6704   -0.7935 H   0  0  0  0  0  0  0  0  0  0  0  0
    3.1749   -1.9909    0.8465 H   0  0  0  0  0  0  0  0  0  0  0  0
  5  6  2  0  0  0  0
  5  7  1  0  0  0  0
  2  3  1  0  0  0  0
  2  4  1  0  0  0  0
  2  5  1  0  0  0  0
  1  2  1  0  0  0  0
 24 25  2  0  0  0  0
 24 26  1  0  0  0  0
 20 21  1  0  0  0  0
 20 22  1  0  0  0  0
 20 23  1  0  0  0  0
 16 17  1  0  0  0  0
 16 18  1  0  0  0  0
 16 19  1  0  0  0  0
 14 15  1  0  0  0  0
 14 16  1  0  0  0  0
 14 20  1  0  0  0  0
 11 12  1  0  0  0  0
 11 13  1  0  0  0  0
 11 14  1  0  0  0  0
  9 10  1  0  0  0  0
  9 11  1  0  0  0  0
  9 24  1  0  0  0  0
  7  8  1  0  0  0  0
  7  9  1  0  0  0  0
 28 29  1  0  0  0  0
 28 30  1  0  0  0  0
 28 31  1  0  0  0  0
 26 27  1  0  0  0  0
 26 28  1  0  0  0  0
M  END
$$$$
default_name
  -OEChem-01062215323D

 31 30  0     1  0  0  0  0  0999 V2000
   -3.5895   -3.5013    1.1082 H   0  0  0  0  0  0  0  0  0  0  0  0
   -3.5145   -2.5363    0.6082 C   0  0  0  0  0  0  0  0  0  0  0  0
   -4.2285   -1.8413    1.0452 H   0  0  0  0  0  0  0  0  0  0  0  0
   -3.7155   -2.6583   -0.4538 H   0  0  0  0  0  0  0  0  0  0  0  0
   -2.1155   -1.9963    0.7922 C   0  0  0  0  0  0  0  0  0  0  0  0
   -1.2875   -2.6383    1.4252 O   0  0  0  0  0  0  0  0  0  0  0  0
   -1.8575   -0.8123    0.2402 N   0  0  0  0  0  0  0  0  0  0  0  0
   -2.6005   -0.3333   -0.2478 H   0  0  0  0  0  0  0  0  0  0  0  0
   -0.5675   -0.1203    0.3102 C   0  0  1  0  0  0  0  0  0  0  0  0
   -0.3149    0.2330   -0.6902 H   0  0  0  0  0  0  0  0  0  0  0  0
   -0.7127    1.0956    1.2491 C   0  0  0  0  0  0  0  0  0  0  0  0
   -1.0713    0.7461    2.2192 H   0  0  0  0  0  0  0  0  0  0  0  0
    0.2798    1.5264    1.3991 H   0  0  0  0  0  0  0  0  0  0  0  0
   -1.6507    2.2131    0.7572 C   0  0  0  0  0  0  0  0  0  0  0  0
   -2.6212    1.7909    0.4964 H   0  0  0  0  0  0  0  0  0  0  0  0
   -1.8503    3.3072    1.8100 C   0  0  0  0  0  0  0  0  0  0  0  0
   -0.8851    3.7290    2.0936 H   0  0  0  0  0  0  0  0  0  0  0  0
   -2.4794    4.0988    1.4022 H   0  0  0  0  0  0  0  0  0  0  0  0
   -2.3359    2.9038    2.6960 H   0  0  0  0  0  0  0  0  0  0  0  0
   -1.0658    2.8639   -0.4957 C   0  0  0  0  0  0  0  0  0  0  0  0
   -0.9423    2.1126   -1.2756 H   0  0  0  0  0  0  0  0  0  0  0  0
   -1.7416    3.6368   -0.8619 H   0  0  0  0  0  0  0  0  0  0  0  0
   -0.0969    3.3106   -0.2696 H   0  0  0  0  0  0  0  0  0  0  0  0
    0.5323   -1.0919    0.7712 C   0  0  0  0  0  0  0  0  0  0  0  0
    0.4513   -1.6400    1.8681 O   0  0  0  0  0  0  0  0  0  0  0  0
    1.5618   -1.2946   -0.0612 N   0  0  0  0  0  0  0  0  0  0  0  0
    1.5539   -0.8132   -0.9462 H   0  0  0  0  0  0  0  0  0  0  0  0
    2.6911   -2.1724    0.2369 C   0  0  0  0  0  0  0  0  0  0  0  0
    2.3314   -3.1881    0.4163 H   0  0  0  0  0  0  0  0  0  0  0  0
    3.3936   -2.1822   -0.5979 H   0  0  0  0  0  0  0  0  0  0  0  0
    3.2027   -1.8226    1.1349 H   0  0  0  0  0  0  0  0  0  0  0  0
  5  6  2  0  0  0  0
  5  7  1  0  0  0  0
  2  3  1  0  0  0  0
  2  4  1  0  0  0  0
  2  5  1  0  0  0  0
  1  2  1  0  0  0  0
 24 25  2  0  0  0  0
 24 26  1  0  0  0  0
 20 21  1  0  0  0  0
 20 22  1  0  0  0  0
 20 23  1  0  0  0  0
 16 17  1  0  0  0  0
 16 18  1  0  0  0  0
 16 19  1  0  0  0  0
 14 15  1  0  0  0  0
 14 16  1  0  0  0  0
 14 20  1  0  0  0  0
 11 12  1  0  0  0  0
 11 13  1  0  0  0  0
 11 14  1  0  0  0  0
  9 10  1  0  0  0  0
  9 11  1  0  0  0  0
  9 24  1  0  0  0  0
  7  8  1  0  0  0  0
  7  9  1  0  0  0  0
 28 29  1  0  0  0  0
 28 30  1  0  0  0  0
 28 31  1  0  0  0  0
 26 27  1  0  0  0  0
 26 28  1  0  0  0  0
M  END
$$$$
default_name
  -OEChem-01062215323D

 31 30  0     1  0  0  0  0  0999 V2000
   -3.5895   -3.5013    1.1082 H   0  0  0  0  0  0  0  0  0  0  0  0
   -3.5145   -2.5363    0.6082 C   0  0  0  0  0  0  0  0  0  0  0  0
   -4.2285   -1.8413    1.0452 H   0  0  0  0  0  0  0  0  0  0  0  0
   -3.7155   -2.6583   -0.4538 H   0  0  0  0  0  0  0  0  0  0  0  0
   -2.1155   -1.9963    0.7922 C   0  0  0  0  0  0  0  0  0  0  0  0
   -1.2875   -2.6383    1.4252 O   0  0  0  0  0  0  0  0  0  0  0  0
   -1.8575   -0.8123    0.2402 N   0  0  0  0  0  0  0  0  0  0  0  0
   -2.6005   -0.3333   -0.2478 H   0  0  0  0  0  0  0  0  0  0  0  0
   -0.5675   -0.1203    0.3102 C   0  0  1  0  0  0  0  0  0  0  0  0
   -0.3149    0.2330   -0.6902 H   0  0  0  0  0  0  0  0  0  0  0  0
   -0.7127    1.0956    1.2491 C   0  0  0  0  0  0  0  0  0  0  0  0
   -1.0713    0.7461    2.2192 H   0  0  0  0  0  0  0  0  0  0  0  0
    0.2798    1.5264    1.3991 H   0  0  0  0  0  0  0  0  0  0  0  0
   -1.6507    2.2131    0.7572 C   0  0  0  0  0  0  0  0  0  0  0  0
   -2.6212    1.7909    0.4964 H   0  0  0  0  0  0  0  0  0  0  0  0
   -1.8503    3.3072    1.8100 C   0  0  0  0  0  0  0  0  0  0  0  0
   -0.8851    3.7290    2.0936 H   0  0  0  0  0  0  0  0  0  0  0  0
   -2.4794    4.0988    1.4022 H   0  0  0  0  0  0  0  0  0  0  0  0
   -2.3359    2.9038    2.6960 H   0  0  0  0  0  0  0  0  0  0  0  0
   -1.0658    2.8639   -0.4957 C   0  0  0  0  0  0  0  0  0  0  0  0
   -0.9423    2.1126   -1.2756 H   0  0  0  0  0  0  0  0  0  0  0  0
   -1.7416    3.6368   -0.8619 H   0  0  0  0  0  0  0  0  0  0  0  0
   -0.0969    3.3106   -0.2696 H   0  0  0  0  0  0  0  0  0  0  0  0
    0.5323   -1.0919    0.7712 C   0  0  0  0  0  0  0  0  0  0  0  0
    0.3323   -1.8439    1.7223 O   0  0  0  0  0  0  0  0  0  0  0  0
    1.6935   -1.0670    0.1042 N   0  0  0  0  0  0  0  0  0  0  0  0
    1.7792   -0.4265   -0.6687 H   0  0  0  0  0  0  0  0  0  0  0  0
    2.8391   -1.9137    0.4291 C   0  0  0  0  0  0  0  0  0  0  0  0
    2.5517   -2.9653    0.3602 H   0  0  0  0  0  0  0  0  0  0  0  0
    3.6612   -1.7198   -0.2615 H   0  0  0  0  0  0  0  0  0  0  0  0
    3.1693   -1.7112    1.4492 H   0  0  0  0  0  0  0  0  0  0  0  0
  5  6  2  0  0  0  0
  5  7  1  0  0  0  0
  2  3  1  0  0  0  0
  2  4  1  0  0  0  0
  2  5  1  0  0  0  0
  1  2  1  0  0  0  0
 24 25  2  0  0  0  0
 24 26  1  0  0  0  0
 20 21  1  0  0  0  0
 20 22  1  0  0  0  0
 20 23  1  0  0  0  0
 16 17  1  0  0  0  0
 16 18  1  0  0  0  0
 16 19  1  0  0  0  0
 14 15  1  0  0  0  0
 14 16  1  0  0  0  0
 14 20  1  0  0  0  0
 11 12  1  0  0  0  0
 11 13  1  0  0  0  0
 11 14  1  0  0  0  0
  9 10  1  0  0  0  0
  9 11  1  0  0  0  0
  9 24  1  0  0  0  0
  7  8  1  0  0  0  0
  7  9  1  0  0  0  0
 28 29  1  0  0  0  0
 28 30  1  0  0  0  0
 28 31  1  0  0  0  0
 26 27  1  0  0  0  0
 26 28  1  0  0  0  0
M  END
$$$$
default_name
  -OEChem-01062215323D

 31 30  0     1  0  0  0  0  0999 V2000
   -3.5895   -3.5013    1.1082 H   0  0  0  0  0  0  0  0  0  0  0  0
   -3.5145   -2.5363    0.6082 C   0  0  0  0  0  0  0  0  0  0  0  0
   -4.2285   -1.8413    1.0452 H   0  0  0  0  0  0  0  0  0  0  0  0
   -3.7155   -2.6583   -0.4538 H   0  0  0  0  0  0  0  0  0  0  0  0
   -2.1155   -1.9963    0.7922 C   0  0  0  0  0  0  0  0  0  0  0  0
   -1.2875   -2.6383    1.4252 O   0  0  0  0  0  0  0  0  0  0  0  0
   -1.8575   -0.8123    0.2402 N   0  0  0  0  0  0  0  0  0  0  0  0
   -2.6005   -0.3333   -0.2478 H   0  0  0  0  0  0  0  0  0  0  0  0
   -0.5675   -0.1203    0.3102 C   0  0  1  0  0  0  0  0  0  0  0  0
   -0.3149    0.2330   -0.6902 H   0  0  0  0  0  0  0  0  0  0  0  0
   -0.7127    1.0956    1.2491 C   0  0  0  0  0  0  0  0  0  0  0  0
   -1.0713    0.7461    2.2192 H   0  0  0  0  0  0  0  0  0  0  0  0
    0.2798    1.5264    1.3991 H   0  0  0  0  0  0  0  0  0  0  0  0
   -1.6507    2.2131    0.7572 C   0  0  0  0  0  0  0  0  0  0  0  0
   -2.6212    1.7909    0.4964 H   0  0  0  0  0  0  0  0  0  0  0  0
   -1.8503    3.3072    1.8100 C   0  0  0  0  0  0  0  0  0  0  0  0
   -0.8851    3.7290    2.0936 H   0  0  0  0  0  0  0  0  0  0  0  0
   -2.4794    4.0988    1.4022 H   0  0  0  0  0  0  0  0  0  0  0  0
   -2.3359    2.9038    2.6960 H   0  0  0  0  0  0  0  0  0  0  0  0
   -1.0658    2.8639   -0.4957 C   0  0  0  0  0  0  0  0  0  0  0  0
   -0.9423    2.1126   -1.2756 H   0  0  0  0  0  0  0  0  0  0  0  0
   -1.7416    3.6368   -0.8619 H   0  0  0  0  0  0  0  0  0  0  0  0
   -0.0969    3.3106   -0.2696 H   0  0  0  0  0  0  0  0  0  0  0  0
    0.5323   -1.0919    0.7712 C   0  0  0  0  0  0  0  0  0  0  0  0
    0.2570   -2.0231    1.5243 O   0  0  0  0  0  0  0  0  0  0  0  0
    1.7760   -0.8676    0.3276 N   0  0  0  0  0  0  0  0  0  0  0  0
    1.9214   -0.0869   -0.2923 H   0  0  0  0  0  0  0  0  0  0  0  0
    2.9305   -1.6879    0.6869 C   0  0  0  0  0  0  0  0  0  0  0  0
    2.7564   -2.7226    0.3832 H   0  0  0  0  0  0  0  0  0  0  0  0
    3.8287   -1.3146    0.1927 H   0  0  0  0  0  0  0  0  0  0  0  0
    3.0771   -1.6644    1.7679 H   0  0  0  0  0  0  0  0  0  0  0  0
  5  6  2  0  0  0  0
  5  7  1  0  0  0  0
  2  3  1  0  0  0  0
  2  4  1  0  0  0  0
  2  5  1  0  0  0  0
  1  2  1  0  0  0  0
 24 25  2  0  0  0  0
 24 26  1  0  0  0  0
 20 21  1  0  0  0  0
 20 22  1  0  0  0  0
 20 23  1  0  0  0  0
 16 17  1  0  0  0  0
 16 18  1  0  0  0  0
 16 19  1  0  0  0  0
 14 15  1  0  0  0  0
 14 16  1  0  0  0  0
 14 20  1  0  0  0  0
 11 12  1  0  0  0  0
 11 13  1  0  0  0  0
 11 14  1  0  0  0  0
  9 10  1  0  0  0  0
  9 11  1  0  0  0  0
  9 24  1  0  0  0  0
  7  8  1  0  0  0  0
  7  9  1  0  0  0  0
 28 29  1  0  0  0  0
 28 30  1  0  0  0  0
 28 31  1  0  0  0  0
 26 27  1  0  0  0  0
 26 28  1  0  0  0  0
M  END
$$$$
default_name
  -OEChem-01062215323D

 31 30  0     1  0  0  0  0  0999 V2000
   -3.5895   -3.5013    1.1082 H   0  0  0  0  0  0  0  0  0  0  0  0
   -3.5145   -2.5363    0.6082 C   0  0  0  0  0  0  0  0  0  0  0  0
   -4.2285   -1.8413    1.0452 H   0  0  0  0  0  0  0  0  0  0  0  0
   -3.7155   -2.6583   -0.4538 H   0  0  0  0  0  0  0  0  0  0  0  0
   -2.1155   -1.9963    0.7922 C   0  0  0  0  0  0  0  0  0  0  0  0
   -1.2875   -2.6383    1.4252 O   0  0  0  0  0  0  0  0  0  0  0  0
   -1.8575   -0.8123    0.2402 N   0  0  0  0  0  0  0  0  0  0  0  0
   -2.6005   -0.3333   -0.2478 H   0  0  0  0  0  0  0  0  0  0  0  0
   -0.5675   -0.1203    0.3102 C   0  0  1  0  0  0  0  0  0  0  0  0
   -0.3149    0.2330   -0.6902 H   0  0  0  0  0  0  0  0  0  0  0  0
   -0.7127    1.0956    1.2491 C   0  0  0  0  0  0  0  0  0  0  0  0
   -1.0713    0.7461    2.2192 H   0  0  0  0  0  0  0  0  0  0  0  0
    0.2798    1.5264    1.3991 H   0  0  0  0  0  0  0  0  0  0  0  0
   -1.6507    2.2131    0.7572 C   0  0  0  0  0  0  0  0  0  0  0  0
   -2.6212    1.7909    0.4964 H   0  0  0  0  0  0  0  0  0  0  0  0
   -1.8503    3.3072    1.8100 C   0  0  0  0  0  0  0  0  0  0  0  0
   -0.8851    3.7290    2.0936 H   0  0  0  0  0  0  0  0  0  0  0  0
   -2.4794    4.0988    1.4022 H   0  0  0  0  0  0  0  0  0  0  0  0
   -2.3359    2.9038    2.6960 H   0  0  0  0  0  0  0  0  0  0  0  0
   -1.0658    2.8639   -0.4957 C   0  0  0  0  0  0  0  0  0  0  0  0
   -0.9423    2.1126   -1.2756 H   0  0  0  0  0  0  0  0  0  0  0  0
   -1.7416    3.6368   -0.8619 H   0  0  0  0  0  0  0  0  0  0  0  0
   -0.0969    3.3106   -0.2696 H   0  0  0  0  0  0  0  0  0  0  0  0
    0.5323   -1.0919    0.7712 C   0  0  0  0  0  0  0  0  0  0  0  0
    0.2305   -2.1653    1.2876 O   0  0  0  0  0  0  0  0  0  0  0  0
    1.8037   -0.7099    0.5939 N   0  0  0  0  0  0  0  0  0  0  0  0
    1.9709    0.1826    0.1574 H   0  0  0  0  0  0  0  0  0  0  0  0
    2.9591   -1.5104    0.9926 C   0  0  0  0  0  0  0  0  0  0  0  0
    2.9316   -2.4766    0.4838 H   0  0  0  0  0  0  0  0  0  0  0  0
    3.8849   -0.9942    0.7339 H   0  0  0  0  0  0  0  0  0  0  0  0
    2.9323   -1.6853    2.0693 H   0  0  0  0  0  0  0  0  0  0  0  0
  5  6  2  0  0  0  0
  5  7  1  0  0  0  0
  2  3  1  0  0  0  0
  2  4  1  0  0  0  0
  2  5  1  0  0  0  0
  1  2  1  0  0  0  0
 24 25  2  0  0  0  0
 24 26  1  0  0  0  0
 20 21  1  0  0  0  0
 20 22  1  0  0  0  0
 20 23  1  0  0  0  0
 16 17  1  0  0  0  0
 16 18  1  0  0  0  0
 16 19  1  0  0  0  0
 14 15  1  0  0  0  0
 14 16  1  0  0  0  0
 14 20  1  0  0  0  0
 11 12  1  0  0  0  0
 11 13  1  0  0  0  0
 11 14  1  0  0  0  0
  9 10  1  0  0  0  0
  9 11  1  0  0  0  0
  9 24  1  0  0  0  0
  7  8  1  0  0  0  0
  7  9  1  0  0  0  0
 28 29  1  0  0  0  0
 28 30  1  0  0  0  0
 28 31  1  0  0  0  0
 26 27  1  0  0  0  0
 26 28  1  0  0  0  0
M  END
$$$$
default_name
  -OEChem-01062215323D

 31 30  0     1  0  0  0  0  0999 V2000
   -3.5895   -3.5013    1.1082 H   0  0  0  0  0  0  0  0  0  0  0  0
   -3.5145   -2.5363    0.6082 C   0  0  0  0  0  0  0  0  0  0  0  0
   -4.2285   -1.8413    1.0452 H   0  0  0  0  0  0  0  0  0  0  0  0
   -3.7155   -2.6583   -0.4538 H   0  0  0  0  0  0  0  0  0  0  0  0
   -2.1155   -1.9963    0.7922 C   0  0  0  0  0  0  0  0  0  0  0  0
   -1.2875   -2.6383    1.4252 O   0  0  0  0  0  0  0  0  0  0  0  0
   -1.8575   -0.8123    0.2402 N   0  0  0  0  0  0  0  0  0  0  0  0
   -2.6005   -0.3333   -0.2478 H   0  0  0  0  0  0  0  0  0  0  0  0
   -0.5675   -0.1203    0.3102 C   0  0  1  0  0  0  0  0  0  0  0  0
   -0.4399    0.4575   -0.6059 H   0  0  0  0  0  0  0  0  0  0  0  0
   -0.5933    0.8464    1.5127 C   0  0  0  0  0  0  0  0  0  0  0  0
   -0.8299    0.2763    2.4132 H   0  0  0  0  0  0  0  0  0  0  0  0
    0.4109    1.2580    1.6362 H   0  0  0  0  0  0  0  0  0  0  0  0
   -1.5829    2.0211    1.4062 C   0  0  0  0  0  0  0  0  0  0  0  0
   -2.5790    1.6435    1.1750 H   0  0  0  0  0  0  0  0  0  0  0  0
   -1.6489    2.8419    2.6974 C   0  0  0  0  0  0  0  0  0  0  0  0
   -0.6552    3.2137    2.9512 H   0  0  0  0  0  0  0  0  0  0  0  0
   -2.3221    3.6884    2.5604 H   0  0  0  0  0  0  0  0  0  0  0  0
   -2.0219    2.2351    3.5197 H   0  0  0  0  0  0  0  0  0  0  0  0
   -1.1563    2.9546    0.2740 C   0  0  0  0  0  0  0  0  0  0  0  0
   -1.1315    2.4035   -0.6660 H   0  0  0  0  0  0  0  0  0  0  0  0
   -1.8707    3.7723    0.1786 H   0  0  0  0  0  0  0  0  0  0  0  0
   -0.1661    3.3638    0.4775 H   0  0  0  0  0  0  0  0  0  0  0  0
    0.5791   -1.1416    0.4006 C   0  0  0  0  0  0  0  0  0  0  0  0
    0.3333   -2.3456    0.4153 O   0  0  0  0  0  0  0  0  0  0  0  0
    1.8269   -0.6602    0.4716 N   0  0  0  0  0  0  0  0  0  0  0  0
    1.9481    0.3397    0.4479 H   0  0  0  0  0  0  0  0  0  0  0  0
    3.0195   -1.4976    0.5784 C   0  0  0  0  0  0  0  0  0  0  0  0
    3.0762   -2.1698   -0.2808 H   0  0  0  0  0  0  0  0  0  0  0  0
    3.9163   -0.8770    0.6090 H   0  0  0  0  0  0  0  0  0  0  0  0
    2.9664   -2.1001    1.4865 H   0  0  0  0  0  0  0  0  0  0  0  0
  5  6  2  0  0  0  0
  5  7  1  0  0  0  0
  2  3  1  0  0  0  0
  2  4  1  0  0  0  0
  2  5  1  0  0  0  0
  1  2  1  0  0  0  0
 24 25  2  0  0  0  0
 24 26  1  0  0  0  0
 20 21  1  0  0  0  0
 20 22  1  0  0  0  0
 20 23  1  0  0  0  0
 16 17  1  0  0  0  0
 16 18  1  0  0  0  0
 16 19  1  0  0  0  0
 14 15  1  0  0  0  0
 14 16  1  0  0  0  0
 14 20  1  0  0  0  0
 11 12  1  0  0  0  0
 11 13  1  0  0  0  0
 11 14  1  0  0  0  0
  9 10  1  0  0  0  0
  9 11  1  0  0  0  0
  9 24  1  0  0  0  0
  7  8  1  0  0  0  0
  7  9  1  0  0  0  0
 28 29  1  0  0  0  0
 28 30  1  0  0  0  0
 28 31  1  0  0  0  0
 26 27  1  0  0  0  0
 26 28  1  0  0  0  0
M  END
$$$$
default_name
  -OEChem-01062215323D

 31 30  0     1  0  0  0  0  0999 V2000
   -3.5895   -3.5013    1.1082 H   0  0  0  0  0  0  0  0  0  0  0  0
   -3.5145   -2.5363    0.6082 C   0  0  0  0  0  0  0  0  0  0  0  0
   -4.2285   -1.8413    1.0452 H   0  0  0  0  0  0  0  0  0  0  0  0
   -3.7155   -2.6583   -0.4538 H   0  0  0  0  0  0  0  0  0  0  0  0
   -2.1155   -1.9963    0.7922 C   0  0  0  0  0  0  0  0  0  0  0  0
   -1.2875   -2.6383    1.4252 O   0  0  0  0  0  0  0  0  0  0  0  0
   -1.8575   -0.8123    0.2402 N   0  0  0  0  0  0  0  0  0  0  0  0
   -2.6005   -0.3333   -0.2478 H   0  0  0  0  0  0  0  0  0  0  0  0
   -0.5675   -0.1203    0.3102 C   0  0  1  0  0  0  0  0  0  0  0  0
   -0.4399    0.4575   -0.6059 H   0  0  0  0  0  0  0  0  0  0  0  0
   -0.5933    0.8464    1.5127 C   0  0  0  0  0  0  0  0  0  0  0  0
   -0.8299    0.2763    2.4132 H   0  0  0  0  0  0  0  0  0  0  0  0
    0.4109    1.2580    1.6362 H   0  0  0  0  0  0  0  0  0  0  0  0
   -1.5829    2.0211    1.4062 C   0  0  0  0  0  0  0  0  0  0  0  0
   -2.5790    1.6435    1.1750 H   0  0  0  0  0  0  0  0  0  0  0  0
   -1.6489    2.8419    2.6974 C   0  0  0  0  0  0  0  0  0  0  0  0
   -0.6552    3.2137    2.9512 H   0  0  0  0  0  0  0  0  0  0  0  0
   -2.3221    3.6884    2.5604 H   0  0  0  0  0  0  0  0  0  0  0  0
   -2.0219    2.2351    3.5197 H   0  0  0  0  0  0  0  0  0  0  0  0
   -1.1563    2.9546    0.2740 C   0  0  0  0  0  0  0  0  0  0  0  0
   -1.1315    2.4035   -0.6660 H   0  0  0  0  0  0  0  0  0  0  0  0
   -1.8707    3.7723    0.1786 H   0  0  0  0  0  0  0  0  0  0  0  0
   -0.1661    3.3638    0.4775 H   0  0  0  0  0  0  0  0  0  0  0  0
    0.5791   -1.1416    0.4006 C   0  0  0  0  0  0  0  0  0  0  0  0
    0.3732   -2.3251    0.1415 O   0  0  0  0  0  0  0  0  0  0  0  0
    1.7805   -0.6852    0.7777 N   0  0  0  0  0  0  0  0  0  0  0  0
    1.8718    0.3000    0.9674 H   0  0  0  0  0  0  0  0  0  0  0  0
    2.9636   -1.5293    0.9272 C   0  0  0  0  0  0  0  0  0  0  0  0
    3.1875   -2.0219   -0.0217 H   0  0  0  0  0  0  0  0  0  0  0  0
    3.8218   -0.9280    1.2311 H   0  0  0  0  0  0  0  0  0  0  0  0
    2.7760   -2.2967    1.6798 H   0  0  0  0  0  0  0  0  0  0  0  0
  5  6  2  0  0  0  0
  5  7  1  0  0  0  0
  2  3  1  0  0  0  0
  2  4  1  0  0  0  0
  2  5  1  0  0  0  0
  1  2  1  0  0  0  0
 24 25  2  0  0  0  0
 24 26  1  0  0  0  0
 20 21  1  0  0  0  0
 20 22  1  0  0  0  0
 20 23  1  0  0  0  0
 16 17  1  0  0  0  0
 16 18  1  0  0  0  0
 16 19  1  0  0  0  0
 14 15  1  0  0  0  0
 14 16  1  0  0  0  0
 14 20  1  0  0  0  0
 11 12  1  0  0  0  0
 11 13  1  0  0  0  0
 11 14  1  0  0  0  0
  9 10  1  0  0  0  0
  9 11  1  0  0  0  0
  9 24  1  0  0  0  0
  7  8  1  0  0  0  0
  7  9  1  0  0  0  0
 28 29  1  0  0  0  0
 28 30  1  0  0  0  0
 28 31  1  0  0  0  0
 26 27  1  0  0  0  0
 26 28  1  0  0  0  0
M  END
$$$$
default_name
  -OEChem-01062215323D

 31 30  0     1  0  0  0  0  0999 V2000
   -3.5895   -3.5013    1.1082 H   0  0  0  0  0  0  0  0  0  0  0  0
   -3.5145   -2.5363    0.6082 C   0  0  0  0  0  0  0  0  0  0  0  0
   -4.2285   -1.8413    1.0452 H   0  0  0  0  0  0  0  0  0  0  0  0
   -3.7155   -2.6583   -0.4538 H   0  0  0  0  0  0  0  0  0  0  0  0
   -2.1155   -1.9963    0.7922 C   0  0  0  0  0  0  0  0  0  0  0  0
   -1.2875   -2.6383    1.4252 O   0  0  0  0  0  0  0  0  0  0  0  0
   -1.8575   -0.8123    0.2402 N   0  0  0  0  0  0  0  0  0  0  0  0
   -2.6005   -0.3333   -0.2478 H   0  0  0  0  0  0  0  0  0  0  0  0
   -0.5675   -0.1203    0.3102 C   0  0  1  0  0  0  0  0  0  0  0  0
   -0.4399    0.4575   -0.6059 H   0  0  0  0  0  0  0  0  0  0  0  0
   -0.5933    0.8464    1.5127 C   0  0  0  0  0  0  0  0  0  0  0  0
   -0.8299    0.2763    2.4132 H   0  0  0  0  0  0  0  0  0  0  0  0
    0.4109    1.2580    1.6362 H   0  0  0  0  0  0  0  0  0  0  0  0
   -1.5829    2.0211    1.4062 C   0  0  0  0  0  0  0  0  0  0  0  0
   -2.5790    1.6435    1.1750 H   0  0  0  0  0  0  0  0  0  0  0  0
   -1.6489    2.8419    2.6974 C   0  0  0  0  0  0  0  0  0  0  0  0
   -0.6552    3.2137    2.9512 H   0  0  0  0  0  0  0  0  0  0  0  0
   -2.3221    3.6884    2.5604 H   0  0  0  0  0  0  0  0  0  0  0  0
   -2.0219    2.2351    3.5197 H   0  0  0  0  0  0  0  0  0  0  0  0
   -1.1563    2.9546    0.2740 C   0  0  0  0  0  0  0  0  0  0  0  0
   -1.1315    2.4035   -0.6660 H   0  0  0  0  0  0  0  0  0  0  0  0
   -1.8707    3.7723    0.1786 H   0  0  0  0  0  0  0  0  0  0  0  0
   -0.1661    3.3638    0.4775 H   0  0  0  0  0  0  0  0  0  0  0  0
    0.5791   -1.1416    0.4006 C   0  0  0  0  0  0  0  0  0  0  0  0
    0.4584   -2.2519   -0.1121 O   0  0  0  0  0  0  0  0  0  0  0  0
    1.6834   -0.7691    1.0606 N   0  0  0  0  0  0  0  0  0  0  0  0
    1.7094    0.1603    1.4485 H   0  0  0  0  0  0  0  0  0  0  0  0
    2.8503   -1.6282    1.2484 C   0  0  0  0  0  0  0  0  0  0  0  0
    3.2482   -1.9274    0.2761 H   0  0  0  0  0  0  0  0  0  0  0  0
    3.6244   -1.0988    1.8060 H   0  0  0  0  0  0  0  0  0  0  0  0
    2.5619   -2.5268    1.7959 H   0  0  0  0  0  0  0  0  0  0  0  0
  5  6  2  0  0  0  0
  5  7  1  0  0  0  0
  2  3  1  0  0  0  0
  2  4  1  0  0  0  0
  2  5  1  0  0  0  0
  1  2  1  0  0  0  0
 24 25  2  0  0  0  0
 24 26  1  0  0  0  0
 20 21  1  0  0  0  0
 20 22  1  0  0  0  0
 20 23  1  0  0  0  0
 16 17  1  0  0  0  0
 16 18  1  0  0  0  0
 16 19  1  0  0  0  0
 14 15  1  0  0  0  0
 14 16  1  0  0  0  0
 14 20  1  0  0  0  0
 11 12  1  0  0  0  0
 11 13  1  0  0  0  0
 11 14  1  0  0  0  0
  9 10  1  0  0  0  0
  9 11  1  0  0  0  0
  9 24  1  0  0  0  0
  7  8  1  0  0  0  0
  7  9  1  0  0  0  0
 28 29  1  0  0  0  0
 28 30  1  0  0  0  0
 28 31  1  0  0  0  0
 26 27  1  0  0  0  0
 26 28  1  0  0  0  0
M  END
$$$$
default_name
  -OEChem-01062215323D

 31 30  0     1  0  0  0  0  0999 V2000
   -3.5895   -3.5013    1.1082 H   0  0  0  0  0  0  0  0  0  0  0  0
   -3.5145   -2.5363    0.6082 C   0  0  0  0  0  0  0  0  0  0  0  0
   -4.2285   -1.8413    1.0452 H   0  0  0  0  0  0  0  0  0  0  0  0
   -3.7155   -2.6583   -0.4538 H   0  0  0  0  0  0  0  0  0  0  0  0
   -2.1155   -1.9963    0.7922 C   0  0  0  0  0  0  0  0  0  0  0  0
   -1.2875   -2.6383    1.4252 O   0  0  0  0  0  0  0  0  0  0  0  0
   -1.8575   -0.8123    0.2402 N   0  0  0  0  0  0  0  0  0  0  0  0
   -2.6005   -0.3333   -0.2478 H   0  0  0  0  0  0  0  0  0  0  0  0
   -0.5675   -0.1203    0.3102 C   0  0  1  0  0  0  0  0  0  0  0  0
   -0.4399    0.4575   -0.6059 H   0  0  0  0  0  0  0  0  0  0  0  0
   -0.5933    0.8464    1.5127 C   0  0  0  0  0  0  0  0  0  0  0  0
   -0.8299    0.2763    2.4132 H   0  0  0  0  0  0  0  0  0  0  0  0
    0.4109    1.2580    1.6362 H   0  0  0  0  0  0  0  0  0  0  0  0
   -1.5829    2.0211    1.4062 C   0  0  0  0  0  0  0  0  0  0  0  0
   -2.5790    1.6435    1.1750 H   0  0  0  0  0  0  0  0  0  0  0  0
   -1.6489    2.8419    2.6974 C   0  0  0  0  0  0  0  0  0  0  0  0
   -0.6552    3.2137    2.9512 H   0  0  0  0  0  0  0  0  0  0  0  0
   -2.3221    3.6884    2.5604 H   0  0  0  0  0  0  0  0  0  0  0  0
   -2.0219    2.2351    3.5197 H   0  0  0  0  0  0  0  0  0  0  0  0
   -1.1563    2.9546    0.2740 C   0  0  0  0  0  0  0  0  0  0  0  0
   -1.1315    2.4035   -0.6660 H   0  0  0  0  0  0  0  0  0  0  0  0
   -1.8707    3.7723    0.1786 H   0  0  0  0  0  0  0  0  0  0  0  0
   -0.1661    3.3638    0.4775 H   0  0  0  0  0  0  0  0  0  0  0  0
    0.5791   -1.1416    0.4006 C   0  0  0  0  0  0  0  0  0  0  0  0
    0.5832   -2.1309   -0.3284 O   0  0  0  0  0  0  0  0  0  0  0  0
    1.5423   -0.9062    1.3010 N   0  0  0  0  0  0  0  0  0  0  0  0
    1.4720   -0.0699    1.8583 H   0  0  0  0  0  0  0  0  0  0  0  0
    2.6871   -1.7873    1.5201 C   0  0  0  0  0  0  0  0  0  0  0  0
    3.2542   -1.8926    0.5925 H   0  0  0  0  0  0  0  0  0  0  0  0
    3.3375   -1.3776    2.2944 H   0  0  0  0  0  0  0  0  0  0  0  0
    2.3386   -2.7748    1.8268 H   0  0  0  0  0  0  0  0  0  0  0  0
  5  6  2  0  0  0  0
  5  7  1  0  0  0  0
  2  3  1  0  0  0  0
  2  4  1  0  0  0  0
  2  5  1  0  0  0  0
  1  2  1  0  0  0  0
 24 25  2  0  0  0  0
 24 26  1  0  0  0  0
 20 21  1  0  0  0  0
 20 22  1  0  0  0  0
 20 23  1  0  0  0  0
 16 17  1  0  0  0  0
 16 18  1  0  0  0  0
 16 19  1  0  0  0  0
 14 15  1  0  0  0  0
 14 16  1  0  0  0  0
 14 20  1  0  0  0  0
 11 12  1  0  0  0  0
 11 13  1  0  0  0  0
 11 14  1  0  0  0  0
  9 10  1  0  0  0  0
  9 11  1  0  0  0  0
  9 24  1  0  0  0  0
  7  8  1  0  0  0  0
  7  9  1  0  0  0  0
 28 29  1  0  0  0  0
 28 30  1  0  0  0  0
 28 31  1  0  0  0  0
 26 27  1  0  0  0  0
 26 28  1  0  0  0  0
M  END
$$$$
default_name
  -OEChem-01062215323D

 31 30  0     1  0  0  0  0  0999 V2000
   -3.5895   -3.5013    1.1082 H   0  0  0  0  0  0  0  0  0  0  0  0
   -3.5145   -2.5363    0.6082 C   0  0  0  0  0  0  0  0  0  0  0  0
   -4.2285   -1.8413    1.0452 H   0  0  0  0  0  0  0  0  0  0  0  0
   -3.7155   -2.6583   -0.4538 H   0  0  0  0  0  0  0  0  0  0  0  0
   -2.1155   -1.9963    0.7922 C   0  0  0  0  0  0  0  0  0  0  0  0
   -1.2875   -2.6383    1.4252 O   0  0  0  0  0  0  0  0  0  0  0  0
   -1.8575   -0.8123    0.2402 N   0  0  0  0  0  0  0  0  0  0  0  0
   -2.6005   -0.3333   -0.2478 H   0  0  0  0  0  0  0  0  0  0  0  0
   -0.5675   -0.1203    0.3102 C   0  0  1  0  0  0  0  0  0  0  0  0
   -0.4399    0.4575   -0.6059 H   0  0  0  0  0  0  0  0  0  0  0  0
   -0.5933    0.8464    1.5127 C   0  0  0  0  0  0  0  0  0  0  0  0
   -0.8299    0.2763    2.4132 H   0  0  0  0  0  0  0  0  0  0  0  0
    0.4109    1.2580    1.6362 H   0  0  0  0  0  0  0  0  0  0  0  0
   -1.5829    2.0211    1.4062 C   0  0  0  0  0  0  0  0  0  0  0  0
   -2.5790    1.6435    1.1750 H   0  0  0  0  0  0  0  0  0  0  0  0
   -1.6489    2.8419    2.6974 C   0  0  0  0  0  0  0  0  0  0  0  0
   -0.6552    3.2137    2.9512 H   0  0  0  0  0  0  0  0  0  0  0  0
   -2.3221    3.6884    2.5604 H   0  0  0  0  0  0  0  0  0  0  0  0
   -2.0219    2.2351    3.5197 H   0  0  0  0  0  0  0  0  0  0  0  0
   -1.1563    2.9546    0.2740 C   0  0  0  0  0  0  0  0  0  0  0  0
   -1.1315    2.4035   -0.6660 H   0  0  0  0  0  0  0  0  0  0  0  0
   -1.8707    3.7723    0.1786 H   0  0  0  0  0  0  0  0  0  0  0  0
   -0.1661    3.3638    0.4775 H   0  0  0  0  0  0  0  0  0  0  0  0
    0.5791   -1.1416    0.4006 C   0  0  0  0  0  0  0  0  0  0  0  0
    0.7391   -1.9705   -0.4925 O   0  0  0  0  0  0  0  0  0  0  0  0
    1.3668   -1.0872    1.4825 N   0  0  0  0  0  0  0  0  0  0  0  0
    1.1758   -0.3749    2.1689 H   0  0  0  0  0  0  0  0  0  0  0  0
    2.4852   -1.9959    1.7238 C   0  0  0  0  0  0  0  0  0  0  0  0
    3.2051   -1.9200    0.9058 H   0  0  0  0  0  0  0  0  0  0  0  0
    2.9807   -1.7455    2.6630 H   0  0  0  0  0  0  0  0  0  0  0  0
    2.1214   -3.0236    1.7705 H   0  0  0  0  0  0  0  0  0  0  0  0
  5  6  2  0  0  0  0
  5  7  1  0  0  0  0
  2  3  1  0  0  0  0
  2  4  1  0  0  0  0
  2  5  1  0  0  0  0
  1  2  1  0  0  0  0
 24 25  2  0  0  0  0
 24 26  1  0  0  0  0
 20 21  1  0  0  0  0
 20 22  1  0  0  0  0
 20 23  1  0  0  0  0
 16 17  1  0  0  0  0
 16 18  1  0  0  0  0
 16 19  1  0  0  0  0
 14 15  1  0  0  0  0
 14 16  1  0  0  0  0
 14 20  1  0  0  0  0
 11 12  1  0  0  0  0
 11 13  1  0  0  0  0
 11 14  1  0  0  0  0
  9 10  1  0  0  0  0
  9 11  1  0  0  0  0
  9 24  1  0  0  0  0
  7  8  1  0  0  0  0
  7  9  1  0  0  0  0
 28 29  1  0  0  0  0
 28 30  1  0  0  0  0
 28 31  1  0  0  0  0
 26 27  1  0  0  0  0
 26 28  1  0  0  0  0
M  END
$$$$
default_name
  -OEChem-01062215323D

 31 30  0     1  0  0  0  0  0999 V2000
   -3.5895   -3.5013    1.1082 H   0  0  0  0  0  0  0  0  0  0  0  0
   -3.5145   -2.5363    0.6082 C   0  0  0  0  0  0  0  0  0  0  0  0
   -4.2285   -1.8413    1.0452 H   0  0  0  0  0  0  0  0  0  0  0  0
   -3.7155   -2.6583   -0.4538 H   0  0  0  0  0  0  0  0  0  0  0  0
   -2.1155   -1.9963    0.7922 C   0  0  0  0  0  0  0  0  0  0  0  0
   -1.2875   -2.6383    1.4252 O   0  0  0  0  0  0  0  0  0  0  0  0
   -1.8575   -0.8123    0.2402 N   0  0  0  0  0  0  0  0  0  0  0  0
   -2.6005   -0.3333   -0.2478 H   0  0  0  0  0  0  0  0  0  0  0  0
   -0.5675   -0.1203    0.3102 C   0  0  1  0  0  0  0  0  0  0  0  0
   -0.4399    0.4575   -0.6059 H   0  0  0  0  0  0  0  0  0  0  0  0
   -0.5933    0.8464    1.5127 C   0  0  0  0  0  0  0  0  0  0  0  0
   -0.8299    0.2763    2.4132 H   0  0  0  0  0  0  0  0  0  0  0  0
    0.4109    1.2580    1.6362 H   0  0  0  0  0  0  0  0  0  0  0  0
   -1.5829    2.0211    1.4062 C   0  0  0  0  0  0  0  0  0  0  0  0
   -2.5790    1.6435    1.1750 H   0  0  0  0  0  0  0  0  0  0  0  0
   -1.6489    2.8419    2.6974 C   0  0  0  0  0  0  0  0  0  0  0  0
   -0.6552    3.2137    2.9512 H   0  0  0  0  0  0  0  0  0  0  0  0
   -2.3221    3.6884    2.5604 H   0  0  0  0  0  0  0  0  0  0  0  0
   -2.0219    2.2351    3.5197 H   0  0  0  0  0  0  0  0  0  0  0  0
   -1.1563    2.9546    0.2740 C   0  0  0  0  0  0  0  0  0  0  0  0
   -1.1315    2.4035   -0.6660 H   0  0  0  0  0  0  0  0  0  0  0  0
   -1.8707    3.7723    0.1786 H   0  0  0  0  0  0  0  0  0  0  0  0
   -0.1661    3.3638    0.4775 H   0  0  0  0  0  0  0  0  0  0  0  0
    0.5791   -1.1416    0.4006 C   0  0  0  0  0  0  0  0  0  0  0  0
    0.9154   -1.7815   -0.5932 O   0  0  0  0  0  0  0  0  0  0  0  0
    1.1688   -1.2997    1.5927 N   0  0  0  0  0  0  0  0  0  0  0  0
    0.8409   -0.7340    2.3592 H   0  0  0  0  0  0  0  0  0  0  0  0
    2.2583   -2.2398    1.8456 C   0  0  0  0  0  0  0  0  0  0  0  0
    3.1042   -2.0076    1.1947 H   0  0  0  0  0  0  0  0  0  0  0  0
    2.5783   -2.1774    2.8868 H   0  0  0  0  0  0  0  0  0  0  0  0
    1.9251   -3.2564    1.6308 H   0  0  0  0  0  0  0  0  0  0  0  0
  5  6  2  0  0  0  0
  5  7  1  0  0  0  0
  2  3  1  0  0  0  0
  2  4  1  0  0  0  0
  2  5  1  0  0  0  0
  1  2  1  0  0  0  0
 24 25  2  0  0  0  0
 24 26  1  0  0  0  0
 20 21  1  0  0  0  0
 20 22  1  0  0  0  0
 20 23  1  0  0  0  0
 16 17  1  0  0  0  0
 16 18  1  0  0  0  0
 16 19  1  0  0  0  0
 14 15  1  0  0  0  0
 14 16  1  0  0  0  0
 14 20  1  0  0  0  0
 11 12  1  0  0  0  0
 11 13  1  0  0  0  0
 11 14  1  0  0  0  0
  9 10  1  0  0  0  0
  9 11  1  0  0  0  0
  9 24  1  0  0  0  0
  7  8  1  0  0  0  0
  7  9  1  0  0  0  0
 28 29  1  0  0  0  0
 28 30  1  0  0  0  0
 28 31  1  0  0  0  0
 26 27  1  0  0  0  0
 26 28  1  0  0  0  0
M  END
$$$$
default_name
  -OEChem-01062215323D

 31 30  0     1  0  0  0  0  0999 V2000
   -3.5895   -3.5013    1.1082 H   0  0  0  0  0  0  0  0  0  0  0  0
   -3.5145   -2.5363    0.6082 C   0  0  0  0  0  0  0  0  0  0  0  0
   -4.2285   -1.8413    1.0452 H   0  0  0  0  0  0  0  0  0  0  0  0
   -3.7155   -2.6583   -0.4538 H   0  0  0  0  0  0  0  0  0  0  0  0
   -2.1155   -1.9963    0.7922 C   0  0  0  0  0  0  0  0  0  0  0  0
   -1.2875   -2.6383    1.4252 O   0  0  0  0  0  0  0  0  0  0  0  0
   -1.8575   -0.8123    0.2402 N   0  0  0  0  0  0  0  0  0  0  0  0
   -2.6005   -0.3333   -0.2478 H   0  0  0  0  0  0  0  0  0  0  0  0
   -0.5675   -0.1203    0.3102 C   0  0  1  0  0  0  0  0  0  0  0  0
   -0.4399    0.4575   -0.6059 H   0  0  0  0  0  0  0  0  0  0  0  0
   -0.5933    0.8464    1.5127 C   0  0  0  0  0  0  0  0  0  0  0  0
   -0.8299    0.2763    2.4132 H   0  0  0  0  0  0  0  0  0  0  0  0
    0.4109    1.2580    1.6362 H   0  0  0  0  0  0  0  0  0  0  0  0
   -1.5829    2.0211    1.4062 C   0  0  0  0  0  0  0  0  0  0  0  0
   -2.5790    1.6435    1.1750 H   0  0  0  0  0  0  0  0  0  0  0  0
   -1.6489    2.8419    2.6974 C   0  0  0  0  0  0  0  0  0  0  0  0
   -0.6552    3.2137    2.9512 H   0  0  0  0  0  0  0  0  0  0  0  0
   -2.3221    3.6884    2.5604 H   0  0  0  0  0  0  0  0  0  0  0  0
   -2.0219    2.2351    3.5197 H   0  0  0  0  0  0  0  0  0  0  0  0
   -1.1563    2.9546    0.2740 C   0  0  0  0  0  0  0  0  0  0  0  0
   -1.1315    2.4035   -0.6660 H   0  0  0  0  0  0  0  0  0  0  0  0
   -1.8707    3.7723    0.1786 H   0  0  0  0  0  0  0  0  0  0  0  0
   -0.1661    3.3638    0.4775 H   0  0  0  0  0  0  0  0  0  0  0  0
    0.5791   -1.1416    0.4006 C   0  0  0  0  0  0  0  0  0  0  0  0
    1.1001   -1.5768   -0.6238 O   0  0  0  0  0  0  0  0  0  0  0  0
    0.9618   -1.5293    1.6242 N   0  0  0  0  0  0  0  0  0  0  0  0
    0.4902   -1.1227    2.4161 H   0  0  0  0  0  0  0  0  0  0  0  0
    2.0219   -2.5024    1.8772 C   0  0  0  0  0  0  0  0  0  0  0  0
    2.9585   -2.1495    1.4395 H   0  0  0  0  0  0  0  0  0  0  0  0
    2.1577   -2.6440    2.9505 H   0  0  0  0  0  0  0  0  0  0  0  0
    1.7630   -3.4573    1.4171 H   0  0  0  0  0  0  0  0  0  0  0  0
  5  6  2  0  0  0  0
  5  7  1  0  0  0  0
  2  3  1  0  0  0  0
  2  4  1  0  0  0  0
  2  5  1  0  0  0  0
  1  2  1  0  0  0  0
 24 25  2  0  0  0  0
 24 26  1  0  0  0  0
 20 21  1  0  0  0  0
 20 22  1  0  0  0  0
 20 23  1  0  0  0  0
 16 17  1  0  0  0  0
 16 18  1  0  0  0  0
 16 19  1  0  0  0  0
 14 15  1  0  0  0  0
 14 16  1  0  0  0  0
 14 20  1  0  0  0  0
 11 12  1  0  0  0  0
 11 13  1  0  0  0  0
 11 14  1  0  0  0  0
  9 10  1  0  0  0  0
  9 11  1  0  0  0  0
  9 24  1  0  0  0  0
  7  8  1  0  0  0  0
  7  9  1  0  0  0  0
 28 29  1  0  0  0  0
 28 30  1  0  0  0  0
 28 31  1  0  0  0  0
 26 27  1  0  0  0  0
 26 28  1  0  0  0  0
M  END
$$$$
default_name
  -OEChem-01062215323D

 31 30  0     1  0  0  0  0  0999 V2000
   -3.5895   -3.5013    1.1082 H   0  0  0  0  0  0  0  0  0  0  0  0
   -3.5145   -2.5363    0.6082 C   0  0  0  0  0  0  0  0  0  0  0  0
   -4.2285   -1.8413    1.0452 H   0  0  0  0  0  0  0  0  0  0  0  0
   -3.7155   -2.6583   -0.4538 H   0  0  0  0  0  0  0  0  0  0  0  0
   -2.1155   -1.9963    0.7922 C   0  0  0  0  0  0  0  0  0  0  0  0
   -1.2875   -2.6383    1.4252 O   0  0  0  0  0  0  0  0  0  0  0  0
   -1.8575   -0.8123    0.2402 N   0  0  0  0  0  0  0  0  0  0  0  0
   -2.6005   -0.3333   -0.2478 H   0  0  0  0  0  0  0  0  0  0  0  0
   -0.5675   -0.1203    0.3102 C   0  0  1  0  0  0  0  0  0  0  0  0
   -0.4399    0.4575   -0.6059 H   0  0  0  0  0  0  0  0  0  0  0  0
   -0.5933    0.8464    1.5127 C   0  0  0  0  0  0  0  0  0  0  0  0
   -0.8299    0.2763    2.4132 H   0  0  0  0  0  0  0  0  0  0  0  0
    0.4109    1.2580    1.6362 H   0  0  0  0  0  0  0  0  0  0  0  0
   -1.5829    2.0211    1.4062 C   0  0  0  0  0  0  0  0  0  0  0  0
   -2.5790    1.6435    1.1750 H   0  0  0  0  0  0  0  0  0  0  0  0
   -1.6489    2.8419    2.6974 C   0  0  0  0  0  0  0  0  0  0  0  0
   -0.6552    3.2137    2.9512 H   0  0  0  0  0  0  0  0  0  0  0  0
   -2.3221    3.6884    2.5604 H   0  0  0  0  0  0  0  0  0  0  0  0
   -2.0219    2.2351    3.5197 H   0  0  0  0  0  0  0  0  0  0  0  0
   -1.1563    2.9546    0.2740 C   0  0  0  0  0  0  0  0  0  0  0  0
   -1.1315    2.4035   -0.6660 H   0  0  0  0  0  0  0  0  0  0  0  0
   -1.8707    3.7723    0.1786 H   0  0  0  0  0  0  0  0  0  0  0  0
   -0.1661    3.3638    0.4775 H   0  0  0  0  0  0  0  0  0  0  0  0
    0.5791   -1.1416    0.4006 C   0  0  0  0  0  0  0  0  0  0  0  0
    1.2807   -1.3704   -0.5820 O   0  0  0  0  0  0  0  0  0  0  0  0
    0.7600   -1.7602    1.5747 N   0  0  0  0  0  0  0  0  0  0  0  0
    0.1476   -1.5144    2.3359 H   0  0  0  0  0  0  0  0  0  0  0  0
    1.7922   -2.7656    1.8164 C   0  0  0  0  0  0  0  0  0  0  0  0
    2.7778   -2.3361    1.6236 H   0  0  0  0  0  0  0  0  0  0  0  0
    1.7476   -3.1133    2.8497 H   0  0  0  0  0  0  0  0  0  0  0  0
    1.6462   -3.6126    1.1442 H   0  0  0  0  0  0  0  0  0  0  0  0
  5  6  2  0  0  0  0
  5  7  1  0  0  0  0
  2  3  1  0  0  0  0
  2  4  1  0  0  0  0
  2  5  1  0  0  0  0
  1  2  1  0  0  0  0
 24 25  2  0  0  0  0
 24 26  1  0  0  0  0
 20 21  1  0  0  0  0
 20 22  1  0  0  0  0
 20 23  1  0  0  0  0
 16 17  1  0  0  0  0
 16 18  1  0  0  0  0
 16 19  1  0  0  0  0
 14 15  1  0  0  0  0
 14 16  1  0  0  0  0
 14 20  1  0  0  0  0
 11 12  1  0  0  0  0
 11 13  1  0  0  0  0
 11 14  1  0  0  0  0
  9 10  1  0  0  0  0
  9 11  1  0  0  0  0
  9 24  1  0  0  0  0
  7  8  1  0  0  0  0
  7  9  1  0  0  0  0
 28 29  1  0  0  0  0
 28 30  1  0  0  0  0
 28 31  1  0  0  0  0
 26 27  1  0  0  0  0
 26 28  1  0  0  0  0
M  END
$$$$
default_name
  -OEChem-01062215323D

 31 30  0     1  0  0  0  0  0999 V2000
   -3.5895   -3.5013    1.1082 H   0  0  0  0  0  0  0  0  0  0  0  0
   -3.5145   -2.5363    0.6082 C   0  0  0  0  0  0  0  0  0  0  0  0
   -4.2285   -1.8413    1.0452 H   0  0  0  0  0  0  0  0  0  0  0  0
   -3.7155   -2.6583   -0.4538 H   0  0  0  0  0  0  0  0  0  0  0  0
   -2.1155   -1.9963    0.7922 C   0  0  0  0  0  0  0  0  0  0  0  0
   -1.2875   -2.6383    1.4252 O   0  0  0  0  0  0  0  0  0  0  0  0
   -1.8575   -0.8123    0.2402 N   0  0  0  0  0  0  0  0  0  0  0  0
   -2.6005   -0.3333   -0.2478 H   0  0  0  0  0  0  0  0  0  0  0  0
   -0.5675   -0.1203    0.3102 C   0  0  1  0  0  0  0  0  0  0  0  0
   -0.4399    0.4575   -0.6059 H   0  0  0  0  0  0  0  0  0  0  0  0
   -0.5933    0.8464    1.5127 C   0  0  0  0  0  0  0  0  0  0  0  0
   -0.8299    0.2763    2.4132 H   0  0  0  0  0  0  0  0  0  0  0  0
    0.4109    1.2580    1.6362 H   0  0  0  0  0  0  0  0  0  0  0  0
   -1.5829    2.0211    1.4062 C   0  0  0  0  0  0  0  0  0  0  0  0
   -2.5790    1.6435    1.1750 H   0  0  0  0  0  0  0  0  0  0  0  0
   -1.6489    2.8419    2.6974 C   0  0  0  0  0  0  0  0  0  0  0  0
   -0.6552    3.2137    2.9512 H   0  0  0  0  0  0  0  0  0  0  0  0
   -2.3221    3.6884    2.5604 H   0  0  0  0  0  0  0  0  0  0  0  0
   -2.0219    2.2351    3.5197 H   0  0  0  0  0  0  0  0  0  0  0  0
   -1.1563    2.9546    0.2740 C   0  0  0  0  0  0  0  0  0  0  0  0
   -1.1315    2.4035   -0.6660 H   0  0  0  0  0  0  0  0  0  0  0  0
   -1.8707    3.7723    0.1786 H   0  0  0  0  0  0  0  0  0  0  0  0
   -0.1661    3.3638    0.4775 H   0  0  0  0  0  0  0  0  0  0  0  0
    0.5791   -1.1416    0.4006 C   0  0  0  0  0  0  0  0  0  0  0  0
    1.4448   -1.1763   -0.4709 O   0  0  0  0  0  0  0  0  0  0  0  0
    0.5771   -1.9768    1.4477 N   0  0  0  0  0  0  0  0  0  0  0  0
   -0.1637   -1.8826    2.1240 H   0  0  0  0  0  0  0  0  0  0  0  0
    1.5847   -3.0117    1.6675 C   0  0  0  0  0  0  0  0  0  0  0  0
    2.5745   -2.5545    1.7344 H   0  0  0  0  0  0  0  0  0  0  0  0
    1.3759   -3.5534    2.5913 H   0  0  0  0  0  0  0  0  0  0  0  0
    1.5826   -3.7117    0.8305 H   0  0  0  0  0  0  0  0  0  0  0  0
  5  6  2  0  0  0  0
  5  7  1  0  0  0  0
  2  3  1  0  0  0  0
  2  4  1  0  0  0  0
  2  5  1  0  0  0  0
  1  2  1  0  0  0  0
 24 25  2  0  0  0  0
 24 26  1  0  0  0  0
 20 21  1  0  0  0  0
 20 22  1  0  0  0  0
 20 23  1  0  0  0  0
 16 17  1  0  0  0  0
 16 18  1  0  0  0  0
 16 19  1  0  0  0  0
 14 15  1  0  0  0  0
 14 16  1  0  0  0  0
 14 20  1  0  0  0  0
 11 12  1  0  0  0  0
 11 13  1  0  0  0  0
 11 14  1  0  0  0  0
  9 10  1  0  0  0  0
  9 11  1  0  0  0  0
  9 24  1  0  0  0  0
  7  8  1  0  0  0  0
  7  9  1  0  0  0  0
 28 29  1  0  0  0  0
 28 30  1  0  0  0  0
 28 31  1  0  0  0  0
 26 27  1  0  0  0  0
 26 28  1  0  0  0  0
M  END
$$$$
default_name
  -OEChem-01062215323D

 31 30  0     1  0  0  0  0  0999 V2000
   -3.5895   -3.5013    1.1082 H   0  0  0  0  0  0  0  0  0  0  0  0
   -3.5145   -2.5363    0.6082 C   0  0  0  0  0  0  0  0  0  0  0  0
   -4.2285   -1.8413    1.0452 H   0  0  0  0  0  0  0  0  0  0  0  0
   -3.7155   -2.6583   -0.4538 H   0  0  0  0  0  0  0  0  0  0  0  0
   -2.1155   -1.9963    0.7922 C   0  0  0  0  0  0  0  0  0  0  0  0
   -1.2875   -2.6383    1.4252 O   0  0  0  0  0  0  0  0  0  0  0  0
   -1.8575   -0.8123    0.2402 N   0  0  0  0  0  0  0  0  0  0  0  0
   -2.6005   -0.3333   -0.2478 H   0  0  0  0  0  0  0  0  0  0  0  0
   -0.5675   -0.1203    0.3102 C   0  0  1  0  0  0  0  0  0  0  0  0
   -0.4399    0.4575   -0.6059 H   0  0  0  0  0  0  0  0  0  0  0  0
   -0.5933    0.8464    1.5127 C   0  0  0  0  0  0  0  0  0  0  0  0
   -0.8299    0.2763    2.4132 H   0  0  0  0  0  0  0  0  0  0  0  0
    0.4109    1.2580    1.6362 H   0  0  0  0  0  0  0  0  0  0  0  0
   -1.5829    2.0211    1.4062 C   0  0  0  0  0  0  0  0  0  0  0  0
   -2.5790    1.6435    1.1750 H   0  0  0  0  0  0  0  0  0  0  0  0
   -1.6489    2.8419    2.6974 C   0  0  0  0  0  0  0  0  0  0  0  0
   -0.6552    3.2137    2.9512 H   0  0  0  0  0  0  0  0  0  0  0  0
   -2.3221    3.6884    2.5604 H   0  0  0  0  0  0  0  0  0  0  0  0
   -2.0219    2.2351    3.5197 H   0  0  0  0  0  0  0  0  0  0  0  0
   -1.1563    2.9546    0.2740 C   0  0  0  0  0  0  0  0  0  0  0  0
   -1.1315    2.4035   -0.6660 H   0  0  0  0  0  0  0  0  0  0  0  0
   -1.8707    3.7723    0.1786 H   0  0  0  0  0  0  0  0  0  0  0  0
   -0.1661    3.3638    0.4775 H   0  0  0  0  0  0  0  0  0  0  0  0
    0.5791   -1.1416    0.4006 C   0  0  0  0  0  0  0  0  0  0  0  0
    1.5813   -1.0077   -0.2978 O   0  0  0  0  0  0  0  0  0  0  0  0
    0.4256   -2.1643    1.2518 N   0  0  0  0  0  0  0  0  0  0  0  0
   -0.4222   -2.2020    1.7947 H   0  0  0  0  0  0  0  0  0  0  0  0
    1.4137   -3.2239    1.4405 C   0  0  0  0  0  0  0  0  0  0  0  0
    2.3624   -2.7900    1.7643 H   0  0  0  0  0  0  0  0  0  0  0  0
    1.0680   -3.9343    2.1930 H   0  0  0  0  0  0  0  0  0  0  0  0
    1.5766   -3.7479    0.4974 H   0  0  0  0  0  0  0  0  0  0  0  0
  5  6  2  0  0  0  0
  5  7  1  0  0  0  0
  2  3  1  0  0  0  0
  2  4  1  0  0  0  0
  2  5  1  0  0  0  0
  1  2  1  0  0  0  0
 24 25  2  0  0  0  0
 24 26  1  0  0  0  0
 20 21  1  0  0  0  0
 20 22  1  0  0  0  0
 20 23  1  0  0  0  0
 16 17  1  0  0  0  0
 16 18  1  0  0  0  0
 16 19  1  0  0  0  0
 14 15  1  0  0  0  0
 14 16  1  0  0  0  0
 14 20  1  0  0  0  0
 11 12  1  0  0  0  0
 11 13  1  0  0  0  0
 11 14  1  0  0  0  0
  9 10  1  0  0  0  0
  9 11  1  0  0  0  0
  9 24  1  0  0  0  0
  7  8  1  0  0  0  0
  7  9  1  0  0  0  0
 28 29  1  0  0  0  0
 28 30  1  0  0  0  0
 28 31  1  0  0  0  0
 26 27  1  0  0  0  0
 26 28  1  0  0  0  0
M  END
$$$$
default_name
  -OEChem-01062215323D

 31 30  0     1  0  0  0  0  0999 V2000
   -3.5895   -3.5013    1.1082 H   0  0  0  0  0  0  0  0  0  0  0  0
   -3.5145   -2.5363    0.6082 C   0  0  0  0  0  0  0  0  0  0  0  0
   -4.2285   -1.8413    1.0452 H   0  0  0  0  0  0  0  0  0  0  0  0
   -3.7155   -2.6583   -0.4538 H   0  0  0  0  0  0  0  0  0  0  0  0
   -2.1155   -1.9963    0.7922 C   0  0  0  0  0  0  0  0  0  0  0  0
   -1.2875   -2.6383    1.4252 O   0  0  0  0  0  0  0  0  0  0  0  0
   -1.8575   -0.8123    0.2402 N   0  0  0  0  0  0  0  0  0  0  0  0
   -2.6005   -0.3333   -0.2478 H   0  0  0  0  0  0  0  0  0  0  0  0
   -0.5675   -0.1203    0.3102 C   0  0  1  0  0  0  0  0  0  0  0  0
   -0.4399    0.4575   -0.6059 H   0  0  0  0  0  0  0  0  0  0  0  0
   -0.5933    0.8464    1.5127 C   0  0  0  0  0  0  0  0  0  0  0  0
   -0.8299    0.2763    2.4132 H   0  0  0  0  0  0  0  0  0  0  0  0
    0.4109    1.2580    1.6362 H   0  0  0  0  0  0  0  0  0  0  0  0
   -1.5829    2.0211    1.4062 C   0  0  0  0  0  0  0  0  0  0  0  0
   -2.5790    1.6435    1.1750 H   0  0  0  0  0  0  0  0  0  0  0  0
   -1.6489    2.8419    2.6974 C   0  0  0  0  0  0  0  0  0  0  0  0
   -0.6552    3.2137    2.9512 H   0  0  0  0  0  0  0  0  0  0  0  0
   -2.3221    3.6884    2.5604 H   0  0  0  0  0  0  0  0  0  0  0  0
   -2.0219    2.2351    3.5197 H   0  0  0  0  0  0  0  0  0  0  0  0
   -1.1563    2.9546    0.2740 C   0  0  0  0  0  0  0  0  0  0  0  0
   -1.1315    2.4035   -0.6660 H   0  0  0  0  0  0  0  0  0  0  0  0
   -1.8707    3.7723    0.1786 H   0  0  0  0  0  0  0  0  0  0  0  0
   -0.1661    3.3638    0.4775 H   0  0  0  0  0  0  0  0  0  0  0  0
    0.5791   -1.1416    0.4006 C   0  0  0  0  0  0  0  0  0  0  0  0
    1.6808   -0.8763   -0.0747 O   0  0  0  0  0  0  0  0  0  0  0  0
    0.3157   -2.3099    1.0003 N   0  0  0  0  0  0  0  0  0  0  0  0
   -0.6105   -2.4510    1.3706 H   0  0  0  0  0  0  0  0  0  0  0  0
    1.2907   -3.3876    1.1509 C   0  0  0  0  0  0  0  0  0  0  0  0
    2.1560   -3.0264    1.7113 H   0  0  0  0  0  0  0  0  0  0  0  0
    0.8449   -4.2301    1.6818 H   0  0  0  0  0  0  0  0  0  0  0  0
    1.6287   -3.7187    0.1677 H   0  0  0  0  0  0  0  0  0  0  0  0
  5  6  2  0  0  0  0
  5  7  1  0  0  0  0
  2  3  1  0  0  0  0
  2  4  1  0  0  0  0
  2  5  1  0  0  0  0
  1  2  1  0  0  0  0
 24 25  2  0  0  0  0
 24 26  1  0  0  0  0
 20 21  1  0  0  0  0
 20 22  1  0  0  0  0
 20 23  1  0  0  0  0
 16 17  1  0  0  0  0
 16 18  1  0  0  0  0
 16 19  1  0  0  0  0
 14 15  1  0  0  0  0
 14 16  1  0  0  0  0
 14 20  1  0  0  0  0
 11 12  1  0  0  0  0
 11 13  1  0  0  0  0
 11 14  1  0  0  0  0
  9 10  1  0  0  0  0
  9 11  1  0  0  0  0
  9 24  1  0  0  0  0
  7  8  1  0  0  0  0
  7  9  1  0  0  0  0
 28 29  1  0  0  0  0
 28 30  1  0  0  0  0
 28 31  1  0  0  0  0
 26 27  1  0  0  0  0
 26 28  1  0  0  0  0
M  END
$$$$
default_name
  -OEChem-01062215323D

 31 30  0     1  0  0  0  0  0999 V2000
   -3.5895   -3.5013    1.1082 H   0  0  0  0  0  0  0  0  0  0  0  0
   -3.5145   -2.5363    0.6082 C   0  0  0  0  0  0  0  0  0  0  0  0
   -4.2285   -1.8413    1.0452 H   0  0  0  0  0  0  0  0  0  0  0  0
   -3.7155   -2.6583   -0.4538 H   0  0  0  0  0  0  0  0  0  0  0  0
   -2.1155   -1.9963    0.7922 C   0  0  0  0  0  0  0  0  0  0  0  0
   -1.2875   -2.6383    1.4252 O   0  0  0  0  0  0  0  0  0  0  0  0
   -1.8575   -0.8123    0.2402 N   0  0  0  0  0  0  0  0  0  0  0  0
   -2.6005   -0.3333   -0.2478 H   0  0  0  0  0  0  0  0  0  0  0  0
   -0.5675   -0.1203    0.3102 C   0  0  1  0  0  0  0  0  0  0  0  0
   -0.4399    0.4575   -0.6059 H   0  0  0  0  0  0  0  0  0  0  0  0
   -0.5933    0.8464    1.5127 C   0  0  0  0  0  0  0  0  0  0  0  0
   -0.8299    0.2763    2.4132 H   0  0  0  0  0  0  0  0  0  0  0  0
    0.4109    1.2580    1.6362 H   0  0  0  0  0  0  0  0  0  0  0  0
   -1.5829    2.0211    1.4062 C   0  0  0  0  0  0  0  0  0  0  0  0
   -2.5790    1.6435    1.1750 H   0  0  0  0  0  0  0  0  0  0  0  0
   -1.6489    2.8419    2.6974 C   0  0  0  0  0  0  0  0  0  0  0  0
   -0.6552    3.2137    2.9512 H   0  0  0  0  0  0  0  0  0  0  0  0
   -2.3221    3.6884    2.5604 H   0  0  0  0  0  0  0  0  0  0  0  0
   -2.0219    2.2351    3.5197 H   0  0  0  0  0  0  0  0  0  0  0  0
   -1.1563    2.9546    0.2740 C   0  0  0  0  0  0  0  0  0  0  0  0
   -1.1315    2.4035   -0.6660 H   0  0  0  0  0  0  0  0  0  0  0  0
   -1.8707    3.7723    0.1786 H   0  0  0  0  0  0  0  0  0  0  0  0
   -0.1661    3.3638    0.4775 H   0  0  0  0  0  0  0  0  0  0  0  0
    0.5791   -1.1416    0.4006 C   0  0  0  0  0  0  0  0  0  0  0  0
    1.7366   -0.7908    0.1832 O   0  0  0  0  0  0  0  0  0  0  0  0
    0.2550   -2.4037    0.7105 N   0  0  0  0  0  0  0  0  0  0  0  0
   -0.7158   -2.6125    0.8806 H   0  0  0  0  0  0  0  0  0  0  0  0
    1.2242   -3.4917    0.8185 C   0  0  0  0  0  0  0  0  0  0  0  0
    1.9693   -3.2477    1.5790 H   0  0  0  0  0  0  0  0  0  0  0  0
    0.7217   -4.4206    1.0926 H   0  0  0  0  0  0  0  0  0  0  0  0
    1.7352   -3.6261   -0.1362 H   0  0  0  0  0  0  0  0  0  0  0  0
  5  6  2  0  0  0  0
  5  7  1  0  0  0  0
  2  3  1  0  0  0  0
  2  4  1  0  0  0  0
  2  5  1  0  0  0  0
  1  2  1  0  0  0  0
 24 25  2  0  0  0  0
 24 26  1  0  0  0  0
 20 21  1  0  0  0  0
 20 22  1  0  0  0  0
 20 23  1  0  0  0  0
 16 17  1  0  0  0  0
 16 18  1  0  0  0  0
 16 19  1  0  0  0  0
 14 15  1  0  0  0  0
 14 16  1  0  0  0  0
 14 20  1  0  0  0  0
 11 12  1  0  0  0  0
 11 13  1  0  0  0  0
 11 14  1  0  0  0  0
  9 10  1  0  0  0  0
  9 11  1  0  0  0  0
  9 24  1  0  0  0  0
  7  8  1  0  0  0  0
  7  9  1  0  0  0  0
 28 29  1  0  0  0  0
 28 30  1  0  0  0  0
 28 31  1  0  0  0  0
 26 27  1  0  0  0  0
 26 28  1  0  0  0  0
M  END
$$$$
default_name
  -OEChem-01062215323D

 31 30  0     1  0  0  0  0  0999 V2000
   -3.5895   -3.5013    1.1082 H   0  0  0  0  0  0  0  0  0  0  0  0
   -3.5145   -2.5363    0.6082 C   0  0  0  0  0  0  0  0  0  0  0  0
   -4.2285   -1.8413    1.0452 H   0  0  0  0  0  0  0  0  0  0  0  0
   -3.7155   -2.6583   -0.4538 H   0  0  0  0  0  0  0  0  0  0  0  0
   -2.1155   -1.9963    0.7922 C   0  0  0  0  0  0  0  0  0  0  0  0
   -1.2875   -2.6383    1.4252 O   0  0  0  0  0  0  0  0  0  0  0  0
   -1.8575   -0.8123    0.2402 N   0  0  0  0  0  0  0  0  0  0  0  0
   -2.6005   -0.3333   -0.2478 H   0  0  0  0  0  0  0  0  0  0  0  0
   -0.5675   -0.1203    0.3102 C   0  0  1  0  0  0  0  0  0  0  0  0
   -0.4399    0.4575   -0.6059 H   0  0  0  0  0  0  0  0  0  0  0  0
   -0.5933    0.8464    1.5127 C   0  0  0  0  0  0  0  0  0  0  0  0
   -0.8299    0.2763    2.4132 H   0  0  0  0  0  0  0  0  0  0  0  0
    0.4109    1.2580    1.6362 H   0  0  0  0  0  0  0  0  0  0  0  0
   -1.5829    2.0211    1.4062 C   0  0  0  0  0  0  0  0  0  0  0  0
   -2.5790    1.6435    1.1750 H   0  0  0  0  0  0  0  0  0  0  0  0
   -1.6489    2.8419    2.6974 C   0  0  0  0  0  0  0  0  0  0  0  0
   -0.6552    3.2137    2.9512 H   0  0  0  0  0  0  0  0  0  0  0  0
   -2.3221    3.6884    2.5604 H   0  0  0  0  0  0  0  0  0  0  0  0
   -2.0219    2.2351    3.5197 H   0  0  0  0  0  0  0  0  0  0  0  0
   -1.1563    2.9546    0.2740 C   0  0  0  0  0  0  0  0  0  0  0  0
   -1.1315    2.4035   -0.6660 H   0  0  0  0  0  0  0  0  0  0  0  0
   -1.8707    3.7723    0.1786 H   0  0  0  0  0  0  0  0  0  0  0  0
   -0.1661    3.3638    0.4775 H   0  0  0  0  0  0  0  0  0  0  0  0
    0.5791   -1.1416    0.4006 C   0  0  0  0  0  0  0  0  0  0  0  0
    1.7449   -0.7571    0.4585 O   0  0  0  0  0  0  0  0  0  0  0  0
    0.2476   -2.4393    0.4019 N   0  0  0  0  0  0  0  0  0  0  0  0
   -0.7308   -2.6756    0.3580 H   0  0  0  0  0  0  0  0  0  0  0  0
    1.2186   -3.5292    0.4658 C   0  0  0  0  0  0  0  0  0  0  0  0
    1.8150   -3.4388    1.3765 H   0  0  0  0  0  0  0  0  0  0  0  0
    0.7068   -4.4928    0.4656 H   0  0  0  0  0  0  0  0  0  0  0  0
    1.8888   -3.4764   -0.3936 H   0  0  0  0  0  0  0  0  0  0  0  0
  5  6  2  0  0  0  0
  5  7  1  0  0  0  0
  2  3  1  0  0  0  0
  2  4  1  0  0  0  0
  2  5  1  0  0  0  0
  1  2  1  0  0  0  0
 24 25  2  0  0  0  0
 24 26  1  0  0  0  0
 20 21  1  0  0  0  0
 20 22  1  0  0  0  0
 20 23  1  0  0  0  0
 16 17  1  0  0  0  0
 16 18  1  0  0  0  0
 16 19  1  0  0  0  0
 14 15  1  0  0  0  0
 14 16  1  0  0  0  0
 14 20  1  0  0  0  0
 11 12  1  0  0  0  0
 11 13  1  0  0  0  0
 11 14  1  0  0  0  0
  9 10  1  0  0  0  0
  9 11  1  0  0  0  0
  9 24  1  0  0  0  0
  7  8  1  0  0  0  0
  7  9  1  0  0  0  0
 28 29  1  0  0  0  0
 28 30  1  0  0  0  0
 28 31  1  0  0  0  0
 26 27  1  0  0  0  0
 26 28  1  0  0  0  0
M  END
$$$$
default_name
  -OEChem-01062215323D

 31 30  0     1  0  0  0  0  0999 V2000
   -3.5895   -3.5013    1.1082 H   0  0  0  0  0  0  0  0  0  0  0  0
   -3.5145   -2.5363    0.6082 C   0  0  0  0  0  0  0  0  0  0  0  0
   -4.2285   -1.8413    1.0452 H   0  0  0  0  0  0  0  0  0  0  0  0
   -3.7155   -2.6583   -0.4538 H   0  0  0  0  0  0  0  0  0  0  0  0
   -2.1155   -1.9963    0.7922 C   0  0  0  0  0  0  0  0  0  0  0  0
   -1.2875   -2.6383    1.4252 O   0  0  0  0  0  0  0  0  0  0  0  0
   -1.8575   -0.8123    0.2402 N   0  0  0  0  0  0  0  0  0  0  0  0
   -2.6005   -0.3333   -0.2478 H   0  0  0  0  0  0  0  0  0  0  0  0
   -0.5675   -0.1203    0.3102 C   0  0  1  0  0  0  0  0  0  0  0  0
   -0.4399    0.4575   -0.6059 H   0  0  0  0  0  0  0  0  0  0  0  0
   -0.5933    0.8464    1.5127 C   0  0  0  0  0  0  0  0  0  0  0  0
   -0.8299    0.2763    2.4132 H   0  0  0  0  0  0  0  0  0  0  0  0
    0.4109    1.2580    1.6362 H   0  0  0  0  0  0  0  0  0  0  0  0
   -1.5829    2.0211    1.4062 C   0  0  0  0  0  0  0  0  0  0  0  0
   -2.5790    1.6435    1.1750 H   0  0  0  0  0  0  0  0  0  0  0  0
   -1.6489    2.8419    2.6974 C   0  0  0  0  0  0  0  0  0  0  0  0
   -0.6552    3.2137    2.9512 H   0  0  0  0  0  0  0  0  0  0  0  0
   -2.3221    3.6884    2.5604 H   0  0  0  0  0  0  0  0  0  0  0  0
   -2.0219    2.2351    3.5197 H   0  0  0  0  0  0  0  0  0  0  0  0
   -1.1563    2.9546    0.2740 C   0  0  0  0  0  0  0  0  0  0  0  0
   -1.1315    2.4035   -0.6660 H   0  0  0  0  0  0  0  0  0  0  0  0
   -1.8707    3.7723    0.1786 H   0  0  0  0  0  0  0  0  0  0  0  0
   -0.1661    3.3638    0.4775 H   0  0  0  0  0  0  0  0  0  0  0  0
    0.5791   -1.1416    0.4006 C   0  0  0  0  0  0  0  0  0  0  0  0
    1.7050   -0.7776    0.7323 O   0  0  0  0  0  0  0  0  0  0  0  0
    0.2940   -2.4143    0.0958 N   0  0  0  0  0  0  0  0  0  0  0  0
   -0.6544   -2.6359   -0.1615 H   0  0  0  0  0  0  0  0  0  0  0  0
    1.2744   -3.4974    0.1170 C   0  0  0  0  0  0  0  0  0  0  0  0
    1.7038   -3.5866    1.1175 H   0  0  0  0  0  0  0  0  0  0  0  0
    0.8013   -4.4417   -0.1565 H   0  0  0  0  0  0  0  0  0  0  0  0
    2.0792   -3.2798   -0.5869 H   0  0  0  0  0  0  0  0  0  0  0  0
  5  6  2  0  0  0  0
  5  7  1  0  0  0  0
  2  3  1  0  0  0  0
  2  4  1  0  0  0  0
  2  5  1  0  0  0  0
  1  2  1  0  0  0  0
 24 25  2  0  0  0  0
 24 26  1  0  0  0  0
 20 21  1  0  0  0  0
 20 22  1  0  0  0  0
 20 23  1  0  0  0  0
 16 17  1  0  0  0  0
 16 18  1  0  0  0  0
 16 19  1  0  0  0  0
 14 15  1  0  0  0  0
 14 16  1  0  0  0  0
 14 20  1  0  0  0  0
 11 12  1  0  0  0  0
 11 13  1  0  0  0  0
 11 14  1  0  0  0  0
  9 10  1  0  0  0  0
  9 11  1  0  0  0  0
  9 24  1  0  0  0  0
  7  8  1  0  0  0  0
  7  9  1  0  0  0  0
 28 29  1  0  0  0  0
 28 30  1  0  0  0  0
 28 31  1  0  0  0  0
 26 27  1  0  0  0  0
 26 28  1  0  0  0  0
M  END
$$$$
default_name
  -OEChem-01062215323D

 31 30  0     1  0  0  0  0  0999 V2000
   -3.5895   -3.5013    1.1082 H   0  0  0  0  0  0  0  0  0  0  0  0
   -3.5145   -2.5363    0.6082 C   0  0  0  0  0  0  0  0  0  0  0  0
   -4.2285   -1.8413    1.0452 H   0  0  0  0  0  0  0  0  0  0  0  0
   -3.7155   -2.6583   -0.4538 H   0  0  0  0  0  0  0  0  0  0  0  0
   -2.1155   -1.9963    0.7922 C   0  0  0  0  0  0  0  0  0  0  0  0
   -1.2875   -2.6383    1.4252 O   0  0  0  0  0  0  0  0  0  0  0  0
   -1.8575   -0.8123    0.2402 N   0  0  0  0  0  0  0  0  0  0  0  0
   -2.6005   -0.3333   -0.2478 H   0  0  0  0  0  0  0  0  0  0  0  0
   -0.5675   -0.1203    0.3102 C   0  0  1  0  0  0  0  0  0  0  0  0
   -0.4399    0.4575   -0.6059 H   0  0  0  0  0  0  0  0  0  0  0  0
   -0.5933    0.8464    1.5127 C   0  0  0  0  0  0  0  0  0  0  0  0
   -0.8299    0.2763    2.4132 H   0  0  0  0  0  0  0  0  0  0  0  0
    0.4109    1.2580    1.6362 H   0  0  0  0  0  0  0  0  0  0  0  0
   -1.5829    2.0211    1.4062 C   0  0  0  0  0  0  0  0  0  0  0  0
   -2.5790    1.6435    1.1750 H   0  0  0  0  0  0  0  0  0  0  0  0
   -1.6489    2.8419    2.6974 C   0  0  0  0  0  0  0  0  0  0  0  0
   -0.6552    3.2137    2.9512 H   0  0  0  0  0  0  0  0  0  0  0  0
   -2.3221    3.6884    2.5604 H   0  0  0  0  0  0  0  0  0  0  0  0
   -2.0219    2.2351    3.5197 H   0  0  0  0  0  0  0  0  0  0  0  0
   -1.1563    2.9546    0.2740 C   0  0  0  0  0  0  0  0  0  0  0  0
   -1.1315    2.4035   -0.6660 H   0  0  0  0  0  0  0  0  0  0  0  0
   -1.8707    3.7723    0.1786 H   0  0  0  0  0  0  0  0  0  0  0  0
   -0.1661    3.3638    0.4775 H   0  0  0  0  0  0  0  0  0  0  0  0
    0.5791   -1.1416    0.4006 C   0  0  0  0  0  0  0  0  0  0  0  0
    1.6198   -0.8508    0.9859 O   0  0  0  0  0  0  0  0  0  0  0  0
    0.3911   -2.3304   -0.1871 N   0  0  0  0  0  0  0  0  0  0  0  0
   -0.4921   -2.4963   -0.6426 H   0  0  0  0  0  0  0  0  0  0  0  0
    1.3878   -3.3986   -0.2042 C   0  0  0  0  0  0  0  0  0  0  0  0
    1.6431   -3.6812    0.8196 H   0  0  0  0  0  0  0  0  0  0  0  0
    0.9988   -4.2710   -0.7314 H   0  0  0  0  0  0  0  0  0  0  0  0
    2.2933   -3.0497   -0.7030 H   0  0  0  0  0  0  0  0  0  0  0  0
  5  6  2  0  0  0  0
  5  7  1  0  0  0  0
  2  3  1  0  0  0  0
  2  4  1  0  0  0  0
  2  5  1  0  0  0  0
  1  2  1  0  0  0  0
 24 25  2  0  0  0  0
 24 26  1  0  0  0  0
 20 21  1  0  0  0  0
 20 22  1  0  0  0  0
 20 23  1  0  0  0  0
 16 17  1  0  0  0  0
 16 18  1  0  0  0  0
 16 19  1  0  0  0  0
 14 15  1  0  0  0  0
 14 16  1  0  0  0  0
 14 20  1  0  0  0  0
 11 12  1  0  0  0  0
 11 13  1  0  0  0  0
 11 14  1  0  0  0  0
  9 10  1  0  0  0  0
  9 11  1  0  0  0  0
  9 24  1  0  0  0  0
  7  8  1  0  0  0  0
  7  9  1  0  0  0  0
 28 29  1  0  0  0  0
 28 30  1  0  0  0  0
 28 31  1  0  0  0  0
 26 27  1  0  0  0  0
 26 28  1  0  0  0  0
M  END
$$$$
default_name
  -OEChem-01062215323D

 31 30  0     1  0  0  0  0  0999 V2000
   -3.5895   -3.5013    1.1082 H   0  0  0  0  0  0  0  0  0  0  0  0
   -3.5145   -2.5363    0.6082 C   0  0  0  0  0  0  0  0  0  0  0  0
   -4.2285   -1.8413    1.0452 H   0  0  0  0  0  0  0  0  0  0  0  0
   -3.7155   -2.6583   -0.4538 H   0  0  0  0  0  0  0  0  0  0  0  0
   -2.1155   -1.9963    0.7922 C   0  0  0  0  0  0  0  0  0  0  0  0
   -1.2875   -2.6383    1.4252 O   0  0  0  0  0  0  0  0  0  0  0  0
   -1.8575   -0.8123    0.2402 N   0  0  0  0  0  0  0  0  0  0  0  0
   -2.6005   -0.3333   -0.2478 H   0  0  0  0  0  0  0  0  0  0  0  0
   -0.5675   -0.1203    0.3102 C   0  0  1  0  0  0  0  0  0  0  0  0
   -0.4399    0.4575   -0.6059 H   0  0  0  0  0  0  0  0  0  0  0  0
   -0.5933    0.8464    1.5127 C   0  0  0  0  0  0  0  0  0  0  0  0
   -0.8299    0.2763    2.4132 H   0  0  0  0  0  0  0  0  0  0  0  0
    0.4109    1.2580    1.6362 H   0  0  0  0  0  0  0  0  0  0  0  0
   -1.5829    2.0211    1.4062 C   0  0  0  0  0  0  0  0  0  0  0  0
   -2.5790    1.6435    1.1750 H   0  0  0  0  0  0  0  0  0  0  0  0
   -1.6489    2.8419    2.6974 C   0  0  0  0  0  0  0  0  0  0  0  0
   -0.6552    3.2137    2.9512 H   0  0  0  0  0  0  0  0  0  0  0  0
   -2.3221    3.6884    2.5604 H   0  0  0  0  0  0  0  0  0  0  0  0
   -2.0219    2.2351    3.5197 H   0  0  0  0  0  0  0  0  0  0  0  0
   -1.1563    2.9546    0.2740 C   0  0  0  0  0  0  0  0  0  0  0  0
   -1.1315    2.4035   -0.6660 H   0  0  0  0  0  0  0  0  0  0  0  0
   -1.8707    3.7723    0.1786 H   0  0  0  0  0  0  0  0  0  0  0  0
   -0.1661    3.3638    0.4775 H   0  0  0  0  0  0  0  0  0  0  0  0
    0.5791   -1.1416    0.4006 C   0  0  0  0  0  0  0  0  0  0  0  0
    1.4950   -0.9718    1.2022 O   0  0  0  0  0  0  0  0  0  0  0  0
    0.5322   -2.1932   -0.4275 N   0  0  0  0  0  0  0  0  0  0  0  0
   -0.2547   -2.2660   -1.0524 H   0  0  0  0  0  0  0  0  0  0  0  0
    1.5510   -3.2394   -0.4759 C   0  0  0  0  0  0  0  0  0  0  0  0
    1.6371   -3.7159    0.5033 H   0  0  0  0  0  0  0  0  0  0  0  0
    1.2857   -3.9922   -1.2198 H   0  0  0  0  0  0  0  0  0  0  0  0
    2.5166   -2.8017   -0.7340 H   0  0  0  0  0  0  0  0  0  0  0  0
  5  6  2  0  0  0  0
  5  7  1  0  0  0  0
  2  3  1  0  0  0  0
  2  4  1  0  0  0  0
  2  5  1  0  0  0  0
  1  2  1  0  0  0  0
 24 25  2  0  0  0  0
 24 26  1  0  0  0  0
 20 21  1  0  0  0  0
 20 22  1  0  0  0  0
 20 23  1  0  0  0  0
 16 17  1  0  0  0  0
 16 18  1  0  0  0  0
 16 19  1  0  0  0  0
 14 15  1  0  0  0  0
 14 16  1  0  0  0  0
 14 20  1  0  0  0  0
 11 12  1  0  0  0  0
 11 13  1  0  0  0  0
 11 14  1  0  0  0  0
  9 10  1  0  0  0  0
  9 11  1  0  0  0  0
  9 24  1  0  0  0  0
  7  8  1  0  0  0  0
  7  9  1  0  0  0  0
 28 29  1  0  0  0  0
 28 30  1  0  0  0  0
 28 31  1  0  0  0  0
 26 27  1  0  0  0  0
 26 28  1  0  0  0  0
M  END
$$$$
default_name
  -OEChem-01062215323D

 31 30  0     1  0  0  0  0  0999 V2000
   -3.5895   -3.5013    1.1082 H   0  0  0  0  0  0  0  0  0  0  0  0
   -3.5145   -2.5363    0.6082 C   0  0  0  0  0  0  0  0  0  0  0  0
   -4.2285   -1.8413    1.0452 H   0  0  0  0  0  0  0  0  0  0  0  0
   -3.7155   -2.6583   -0.4538 H   0  0  0  0  0  0  0  0  0  0  0  0
   -2.1155   -1.9963    0.7922 C   0  0  0  0  0  0  0  0  0  0  0  0
   -1.2875   -2.6383    1.4252 O   0  0  0  0  0  0  0  0  0  0  0  0
   -1.8575   -0.8123    0.2402 N   0  0  0  0  0  0  0  0  0  0  0  0
   -2.6005   -0.3333   -0.2478 H   0  0  0  0  0  0  0  0  0  0  0  0
   -0.5675   -0.1203    0.3102 C   0  0  1  0  0  0  0  0  0  0  0  0
   -0.4399    0.4575   -0.6059 H   0  0  0  0  0  0  0  0  0  0  0  0
   -0.5933    0.8464    1.5127 C   0  0  0  0  0  0  0  0  0  0  0  0
   -0.8299    0.2763    2.4132 H   0  0  0  0  0  0  0  0  0  0  0  0
    0.4109    1.2580    1.6362 H   0  0  0  0  0  0  0  0  0  0  0  0
   -1.5829    2.0211    1.4062 C   0  0  0  0  0  0  0  0  0  0  0  0
   -2.5790    1.6435    1.1750 H   0  0  0  0  0  0  0  0  0  0  0  0
   -1.6489    2.8419    2.6974 C   0  0  0  0  0  0  0  0  0  0  0  0
   -0.6552    3.2137    2.9512 H   0  0  0  0  0  0  0  0  0  0  0  0
   -2.3221    3.6884    2.5604 H   0  0  0  0  0  0  0  0  0  0  0  0
   -2.0219    2.2351    3.5197 H   0  0  0  0  0  0  0  0  0  0  0  0
   -1.1563    2.9546    0.2740 C   0  0  0  0  0  0  0  0  0  0  0  0
   -1.1315    2.4035   -0.6660 H   0  0  0  0  0  0  0  0  0  0  0  0
   -1.8707    3.7723    0.1786 H   0  0  0  0  0  0  0  0  0  0  0  0
   -0.1661    3.3638    0.4775 H   0  0  0  0  0  0  0  0  0  0  0  0
    0.5791   -1.1416    0.4006 C   0  0  0  0  0  0  0  0  0  0  0  0
    1.3391   -1.1322    1.3663 O   0  0  0  0  0  0  0  0  0  0  0  0
    0.7078   -2.0123   -0.6090 N   0  0  0  0  0  0  0  0  0  0  0  0
    0.0416   -1.9610   -1.3630 H   0  0  0  0  0  0  0  0  0  0  0  0
    1.7529   -3.0308   -0.6796 C   0  0  0  0  0  0  0  0  0  0  0  0
    1.6861   -3.6886    0.1900 H   0  0  0  0  0  0  0  0  0  0  0  0
    1.6425   -3.6243   -1.5884 H   0  0  0  0  0  0  0  0  0  0  0  0
    2.7338   -2.5529   -0.6776 H   0  0  0  0  0  0  0  0  0  0  0  0
  5  6  2  0  0  0  0
  5  7  1  0  0  0  0
  2  3  1  0  0  0  0
  2  4  1  0  0  0  0
  2  5  1  0  0  0  0
  1  2  1  0  0  0  0
 24 25  2  0  0  0  0
 24 26  1  0  0  0  0
 20 21  1  0  0  0  0
 20 22  1  0  0  0  0
 20 23  1  0  0  0  0
 16 17  1  0  0  0  0
 16 18  1  0  0  0  0
 16 19  1  0  0  0  0
 14 15  1  0  0  0  0
 14 16  1  0  0  0  0
 14 20  1  0  0  0  0
 11 12  1  0  0  0  0
 11 13  1  0  0  0  0
 11 14  1  0  0  0  0
  9 10  1  0  0  0  0
  9 11  1  0  0  0  0
  9 24  1  0  0  0  0
  7  8  1  0  0  0  0
  7  9  1  0  0  0  0
 28 29  1  0  0  0  0
 28 30  1  0  0  0  0
 28 31  1  0  0  0  0
 26 27  1  0  0  0  0
 26 28  1  0  0  0  0
M  END
$$$$
default_name
  -OEChem-01062215323D

 31 30  0     1  0  0  0  0  0999 V2000
   -3.5895   -3.5013    1.1082 H   0  0  0  0  0  0  0  0  0  0  0  0
   -3.5145   -2.5363    0.6082 C   0  0  0  0  0  0  0  0  0  0  0  0
   -4.2285   -1.8413    1.0452 H   0  0  0  0  0  0  0  0  0  0  0  0
   -3.7155   -2.6583   -0.4538 H   0  0  0  0  0  0  0  0  0  0  0  0
   -2.1155   -1.9963    0.7922 C   0  0  0  0  0  0  0  0  0  0  0  0
   -1.2875   -2.6383    1.4252 O   0  0  0  0  0  0  0  0  0  0  0  0
   -1.8575   -0.8123    0.2402 N   0  0  0  0  0  0  0  0  0  0  0  0
   -2.6005   -0.3333   -0.2478 H   0  0  0  0  0  0  0  0  0  0  0  0
   -0.5675   -0.1203    0.3102 C   0  0  1  0  0  0  0  0  0  0  0  0
   -0.4399    0.4575   -0.6059 H   0  0  0  0  0  0  0  0  0  0  0  0
   -0.5933    0.8464    1.5127 C   0  0  0  0  0  0  0  0  0  0  0  0
   -0.8299    0.2763    2.4132 H   0  0  0  0  0  0  0  0  0  0  0  0
    0.4109    1.2580    1.6362 H   0  0  0  0  0  0  0  0  0  0  0  0
   -1.5829    2.0211    1.4062 C   0  0  0  0  0  0  0  0  0  0  0  0
   -2.5790    1.6435    1.1750 H   0  0  0  0  0  0  0  0  0  0  0  0
   -1.6489    2.8419    2.6974 C   0  0  0  0  0  0  0  0  0  0  0  0
   -0.6552    3.2137    2.9512 H   0  0  0  0  0  0  0  0  0  0  0  0
   -2.3221    3.6884    2.5604 H   0  0  0  0  0  0  0  0  0  0  0  0
   -2.0219    2.2351    3.5197 H   0  0  0  0  0  0  0  0  0  0  0  0
   -1.1563    2.9546    0.2740 C   0  0  0  0  0  0  0  0  0  0  0  0
   -1.1315    2.4035   -0.6660 H   0  0  0  0  0  0  0  0  0  0  0  0
   -1.8707    3.7723    0.1786 H   0  0  0  0  0  0  0  0  0  0  0  0
   -0.1661    3.3638    0.4775 H   0  0  0  0  0  0  0  0  0  0  0  0
    0.5791   -1.1416    0.4006 C   0  0  0  0  0  0  0  0  0  0  0  0
    1.1628   -1.3213    1.4670 O   0  0  0  0  0  0  0  0  0  0  0  0
    0.9057   -1.7998   -0.7192 N   0  0  0  0  0  0  0  0  0  0  0  0
    0.3765   -1.6019   -1.5533 H   0  0  0  0  0  0  0  0  0  0  0  0
    1.9798   -2.7869   -0.8014 C   0  0  0  0  0  0  0  0  0  0  0  0
    1.7870   -3.6009   -0.0990 H   0  0  0  0  0  0  0  0  0  0  0  0
    2.0449   -3.1923   -1.8122 H   0  0  0  0  0  0  0  0  0  0  0  0
    2.9302   -2.3201   -0.5379 H   0  0  0  0  0  0  0  0  0  0  0  0
  5  6  2  0  0  0  0
  5  7  1  0  0  0  0
  2  3  1  0  0  0  0
  2  4  1  0  0  0  0
  2  5  1  0  0  0  0
  1  2  1  0  0  0  0
 24 25  2  0  0  0  0
 24 26  1  0  0  0  0
 20 21  1  0  0  0  0
 20 22  1  0  0  0  0
 20 23  1  0  0  0  0
 16 17  1  0  0  0  0
 16 18  1  0  0  0  0
 16 19  1  0  0  0  0
 14 15  1  0  0  0  0
 14 16  1  0  0  0  0
 14 20  1  0  0  0  0
 11 12  1  0  0  0  0
 11 13  1  0  0  0  0
 11 14  1  0  0  0  0
  9 10  1  0  0  0  0
  9 11  1  0  0  0  0
  9 24  1  0  0  0  0
  7  8  1  0  0  0  0
  7  9  1  0  0  0  0
 28 29  1  0  0  0  0
 28 30  1  0  0  0  0
 28 31  1  0  0  0  0
 26 27  1  0  0  0  0
 26 28  1  0  0  0  0
M  END
$$$$
default_name
  -OEChem-01062215323D

 31 30  0     1  0  0  0  0  0999 V2000
   -3.5895   -3.5013    1.1082 H   0  0  0  0  0  0  0  0  0  0  0  0
   -3.5145   -2.5363    0.6082 C   0  0  0  0  0  0  0  0  0  0  0  0
   -4.2285   -1.8413    1.0452 H   0  0  0  0  0  0  0  0  0  0  0  0
   -3.7155   -2.6583   -0.4538 H   0  0  0  0  0  0  0  0  0  0  0  0
   -2.1155   -1.9963    0.7922 C   0  0  0  0  0  0  0  0  0  0  0  0
   -1.2875   -2.6383    1.4252 O   0  0  0  0  0  0  0  0  0  0  0  0
   -1.8575   -0.8123    0.2402 N   0  0  0  0  0  0  0  0  0  0  0  0
   -2.6005   -0.3333   -0.2478 H   0  0  0  0  0  0  0  0  0  0  0  0
   -0.5675   -0.1203    0.3102 C   0  0  1  0  0  0  0  0  0  0  0  0
   -0.4399    0.4575   -0.6059 H   0  0  0  0  0  0  0  0  0  0  0  0
   -0.5933    0.8464    1.5127 C   0  0  0  0  0  0  0  0  0  0  0  0
   -0.8299    0.2763    2.4132 H   0  0  0  0  0  0  0  0  0  0  0  0
    0.4109    1.2580    1.6362 H   0  0  0  0  0  0  0  0  0  0  0  0
   -1.5829    2.0211    1.4062 C   0  0  0  0  0  0  0  0  0  0  0  0
   -2.5790    1.6435    1.1750 H   0  0  0  0  0  0  0  0  0  0  0  0
   -1.6489    2.8419    2.6974 C   0  0  0  0  0  0  0  0  0  0  0  0
   -0.6552    3.2137    2.9512 H   0  0  0  0  0  0  0  0  0  0  0  0
   -2.3221    3.6884    2.5604 H   0  0  0  0  0  0  0  0  0  0  0  0
   -2.0219    2.2351    3.5197 H   0  0  0  0  0  0  0  0  0  0  0  0
   -1.1563    2.9546    0.2740 C   0  0  0  0  0  0  0  0  0  0  0  0
   -1.1315    2.4035   -0.6660 H   0  0  0  0  0  0  0  0  0  0  0  0
   -1.8707    3.7723    0.1786 H   0  0  0  0  0  0  0  0  0  0  0  0
   -0.1661    3.3638    0.4775 H   0  0  0  0  0  0  0  0  0  0  0  0
    0.5791   -1.1416    0.4006 C   0  0  0  0  0  0  0  0  0  0  0  0
    0.9781   -1.5260    1.4976 O   0  0  0  0  0  0  0  0  0  0  0  0
    1.1127   -1.5702   -0.7507 N   0  0  0  0  0  0  0  0  0  0  0  0
    0.7272   -1.2132   -1.6102 H   0  0  0  0  0  0  0  0  0  0  0  0
    2.2161   -2.5244   -0.8330 C   0  0  0  0  0  0  0  0  0  0  0  0
    1.9327   -3.4590   -0.3438 H   0  0  0  0  0  0  0  0  0  0  0  0
    2.4655   -2.7258   -1.8759 H   0  0  0  0  0  0  0  0  0  0  0  0
    3.0923   -2.1192   -0.3243 H   0  0  0  0  0  0  0  0  0  0  0  0
  5  6  2  0  0  0  0
  5  7  1  0  0  0  0
  2  3  1  0  0  0  0
  2  4  1  0  0  0  0
  2  5  1  0  0  0  0
  1  2  1  0  0  0  0
 24 25  2  0  0  0  0
 24 26  1  0  0  0  0
 20 21  1  0  0  0  0
 20 22  1  0  0  0  0
 20 23  1  0  0  0  0
 16 17  1  0  0  0  0
 16 18  1  0  0  0  0
 16 19  1  0  0  0  0
 14 15  1  0  0  0  0
 14 16  1  0  0  0  0
 14 20  1  0  0  0  0
 11 12  1  0  0  0  0
 11 13  1  0  0  0  0
 11 14  1  0  0  0  0
  9 10  1  0  0  0  0
  9 11  1  0  0  0  0
  9 24  1  0  0  0  0
  7  8  1  0  0  0  0
  7  9  1  0  0  0  0
 28 29  1  0  0  0  0
 28 30  1  0  0  0  0
 28 31  1  0  0  0  0
 26 27  1  0  0  0  0
 26 28  1  0  0  0  0
M  END
$$$$
default_name
  -OEChem-01062215323D

 31 30  0     1  0  0  0  0  0999 V2000
   -3.5895   -3.5013    1.1082 H   0  0  0  0  0  0  0  0  0  0  0  0
   -3.5145   -2.5363    0.6082 C   0  0  0  0  0  0  0  0  0  0  0  0
   -4.2285   -1.8413    1.0452 H   0  0  0  0  0  0  0  0  0  0  0  0
   -3.7155   -2.6583   -0.4538 H   0  0  0  0  0  0  0  0  0  0  0  0
   -2.1155   -1.9963    0.7922 C   0  0  0  0  0  0  0  0  0  0  0  0
   -1.2875   -2.6383    1.4252 O   0  0  0  0  0  0  0  0  0  0  0  0
   -1.8575   -0.8123    0.2402 N   0  0  0  0  0  0  0  0  0  0  0  0
   -2.6005   -0.3333   -0.2478 H   0  0  0  0  0  0  0  0  0  0  0  0
   -0.5675   -0.1203    0.3102 C   0  0  1  0  0  0  0  0  0  0  0  0
   -0.4399    0.4575   -0.6059 H   0  0  0  0  0  0  0  0  0  0  0  0
   -0.5933    0.8464    1.5127 C   0  0  0  0  0  0  0  0  0  0  0  0
   -0.8299    0.2763    2.4132 H   0  0  0  0  0  0  0  0  0  0  0  0
    0.4109    1.2580    1.6362 H   0  0  0  0  0  0  0  0  0  0  0  0
   -1.5829    2.0211    1.4062 C   0  0  0  0  0  0  0  0  0  0  0  0
   -2.5790    1.6435    1.1750 H   0  0  0  0  0  0  0  0  0  0  0  0
   -1.6489    2.8419    2.6974 C   0  0  0  0  0  0  0  0  0  0  0  0
   -0.6552    3.2137    2.9512 H   0  0  0  0  0  0  0  0  0  0  0  0
   -2.3221    3.6884    2.5604 H   0  0  0  0  0  0  0  0  0  0  0  0
   -2.0219    2.2351    3.5197 H   0  0  0  0  0  0  0  0  0  0  0  0
   -1.1563    2.9546    0.2740 C   0  0  0  0  0  0  0  0  0  0  0  0
   -1.1315    2.4035   -0.6660 H   0  0  0  0  0  0  0  0  0  0  0  0
   -1.8707    3.7723    0.1786 H   0  0  0  0  0  0  0  0  0  0  0  0
   -0.1661    3.3638    0.4775 H   0  0  0  0  0  0  0  0  0  0  0  0
    0.5791   -1.1416    0.4006 C   0  0  0  0  0  0  0  0  0  0  0  0
    0.7975   -1.7324    1.4558 O   0  0  0  0  0  0  0  0  0  0  0  0
    1.3145   -1.3393   -0.7012 N   0  0  0  0  0  0  0  0  0  0  0  0
    1.0698   -0.8215   -1.5300 H   0  0  0  0  0  0  0  0  0  0  0  0
    2.4459   -2.2611   -0.7722 C   0  0  0  0  0  0  0  0  0  0  0  0
    2.1134   -3.2725   -0.5279 H   0  0  0  0  0  0  0  0  0  0  0  0
    2.8756   -2.2565   -1.7751 H   0  0  0  0  0  0  0  0  0  0  0  0
    3.2091   -1.9639   -0.0513 H   0  0  0  0  0  0  0  0  0  0  0  0
  5  6  2  0  0  0  0
  5  7  1  0  0  0  0
  2  3  1  0  0  0  0
  2  4  1  0  0  0  0
  2  5  1  0  0  0  0
  1  2  1  0  0  0  0
 24 25  2  0  0  0  0
 24 26  1  0  0  0  0
 20 21  1  0  0  0  0
 20 22  1  0  0  0  0
 20 23  1  0  0  0  0
 16 17  1  0  0  0  0
 16 18  1  0  0  0  0
 16 19  1  0  0  0  0
 14 15  1  0  0  0  0
 14 16  1  0  0  0  0
 14 20  1  0  0  0  0
 11 12  1  0  0  0  0
 11 13  1  0  0  0  0
 11 14  1  0  0  0  0
  9 10  1  0  0  0  0
  9 11  1  0  0  0  0
  9 24  1  0  0  0  0
  7  8  1  0  0  0  0
  7  9  1  0  0  0  0
 28 29  1  0  0  0  0
 28 30  1  0  0  0  0
 28 31  1  0  0  0  0
 26 27  1  0  0  0  0
 26 28  1  0  0  0  0
M  END
$$$$
default_name
  -OEChem-01062215323D

 31 30  0     1  0  0  0  0  0999 V2000
   -3.5895   -3.5013    1.1082 H   0  0  0  0  0  0  0  0  0  0  0  0
   -3.5145   -2.5363    0.6082 C   0  0  0  0  0  0  0  0  0  0  0  0
   -4.2285   -1.8413    1.0452 H   0  0  0  0  0  0  0  0  0  0  0  0
   -3.7155   -2.6583   -0.4538 H   0  0  0  0  0  0  0  0  0  0  0  0
   -2.1155   -1.9963    0.7922 C   0  0  0  0  0  0  0  0  0  0  0  0
   -1.2875   -2.6383    1.4252 O   0  0  0  0  0  0  0  0  0  0  0  0
   -1.8575   -0.8123    0.2402 N   0  0  0  0  0  0  0  0  0  0  0  0
   -2.6005   -0.3333   -0.2478 H   0  0  0  0  0  0  0  0  0  0  0  0
   -0.5675   -0.1203    0.3102 C   0  0  1  0  0  0  0  0  0  0  0  0
   -0.4399    0.4575   -0.6059 H   0  0  0  0  0  0  0  0  0  0  0  0
   -0.5933    0.8464    1.5127 C   0  0  0  0  0  0  0  0  0  0  0  0
   -0.8299    0.2763    2.4132 H   0  0  0  0  0  0  0  0  0  0  0  0
    0.4109    1.2580    1.6362 H   0  0  0  0  0  0  0  0  0  0  0  0
   -1.5829    2.0211    1.4062 C   0  0  0  0  0  0  0  0  0  0  0  0
   -2.5790    1.6435    1.1750 H   0  0  0  0  0  0  0  0  0  0  0  0
   -1.6489    2.8419    2.6974 C   0  0  0  0  0  0  0  0  0  0  0  0
   -0.6552    3.2137    2.9512 H   0  0  0  0  0  0  0  0  0  0  0  0
   -2.3221    3.6884    2.5604 H   0  0  0  0  0  0  0  0  0  0  0  0
   -2.0219    2.2351    3.5197 H   0  0  0  0  0  0  0  0  0  0  0  0
   -1.1563    2.9546    0.2740 C   0  0  0  0  0  0  0  0  0  0  0  0
   -1.1315    2.4035   -0.6660 H   0  0  0  0  0  0  0  0  0  0  0  0
   -1.8707    3.7723    0.1786 H   0  0  0  0  0  0  0  0  0  0  0  0
   -0.1661    3.3638    0.4775 H   0  0  0  0  0  0  0  0  0  0  0  0
    0.5791   -1.1416    0.4006 C   0  0  0  0  0  0  0  0  0  0  0  0
    0.6333   -1.9265    1.3447 O   0  0  0  0  0  0  0  0  0  0  0  0
    1.4974   -1.1227   -0.5742 N   0  0  0  0  0  0  0  0  0  0  0  0
    1.3810   -0.4534   -1.3181 H   0  0  0  0  0  0  0  0  0  0  0  0
    2.6533   -2.0150   -0.6233 C   0  0  0  0  0  0  0  0  0  0  0  0
    2.3167   -3.0540   -0.6387 H   0  0  0  0  0  0  0  0  0  0  0  0
    3.2473   -1.8164   -1.5167 H   0  0  0  0  0  0  0  0  0  0  0  0
    3.2727   -1.8648    0.2624 H   0  0  0  0  0  0  0  0  0  0  0  0
  5  6  2  0  0  0  0
  5  7  1  0  0  0  0
  2  3  1  0  0  0  0
  2  4  1  0  0  0  0
  2  5  1  0  0  0  0
  1  2  1  0  0  0  0
 24 25  2  0  0  0  0
 24 26  1  0  0  0  0
 20 21  1  0  0  0  0
 20 22  1  0  0  0  0
 20 23  1  0  0  0  0
 16 17  1  0  0  0  0
 16 18  1  0  0  0  0
 16 19  1  0  0  0  0
 14 15  1  0  0  0  0
 14 16  1  0  0  0  0
 14 20  1  0  0  0  0
 11 12  1  0  0  0  0
 11 13  1  0  0  0  0
 11 14  1  0  0  0  0
  9 10  1  0  0  0  0
  9 11  1  0  0  0  0
  9 24  1  0  0  0  0
  7  8  1  0  0  0  0
  7  9  1  0  0  0  0
 28 29  1  0  0  0  0
 28 30  1  0  0  0  0
 28 31  1  0  0  0  0
 26 27  1  0  0  0  0
 26 28  1  0  0  0  0
M  END
$$$$
default_name
  -OEChem-01062215323D

 31 30  0     1  0  0  0  0  0999 V2000
   -3.5895   -3.5013    1.1082 H   0  0  0  0  0  0  0  0  0  0  0  0
   -3.5145   -2.5363    0.6082 C   0  0  0  0  0  0  0  0  0  0  0  0
   -4.2285   -1.8413    1.0452 H   0  0  0  0  0  0  0  0  0  0  0  0
   -3.7155   -2.6583   -0.4538 H   0  0  0  0  0  0  0  0  0  0  0  0
   -2.1155   -1.9963    0.7922 C   0  0  0  0  0  0  0  0  0  0  0  0
   -1.2875   -2.6383    1.4252 O   0  0  0  0  0  0  0  0  0  0  0  0
   -1.8575   -0.8123    0.2402 N   0  0  0  0  0  0  0  0  0  0  0  0
   -2.6005   -0.3333   -0.2478 H   0  0  0  0  0  0  0  0  0  0  0  0
   -0.5675   -0.1203    0.3102 C   0  0  1  0  0  0  0  0  0  0  0  0
   -0.4399    0.4575   -0.6059 H   0  0  0  0  0  0  0  0  0  0  0  0
   -0.5933    0.8464    1.5127 C   0  0  0  0  0  0  0  0  0  0  0  0
   -0.8299    0.2763    2.4132 H   0  0  0  0  0  0  0  0  0  0  0  0
    0.4109    1.2580    1.6362 H   0  0  0  0  0  0  0  0  0  0  0  0
   -1.5829    2.0211    1.4062 C   0  0  0  0  0  0  0  0  0  0  0  0
   -2.5790    1.6435    1.1750 H   0  0  0  0  0  0  0  0  0  0  0  0
   -1.6489    2.8419    2.6974 C   0  0  0  0  0  0  0  0  0  0  0  0
   -0.6552    3.2137    2.9512 H   0  0  0  0  0  0  0  0  0  0  0  0
   -2.3221    3.6884    2.5604 H   0  0  0  0  0  0  0  0  0  0  0  0
   -2.0219    2.2351    3.5197 H   0  0  0  0  0  0  0  0  0  0  0  0
   -1.1563    2.9546    0.2740 C   0  0  0  0  0  0  0  0  0  0  0  0
   -1.1315    2.4035   -0.6660 H   0  0  0  0  0  0  0  0  0  0  0  0
   -1.8707    3.7723    0.1786 H   0  0  0  0  0  0  0  0  0  0  0  0
   -0.1661    3.3638    0.4775 H   0  0  0  0  0  0  0  0  0  0  0  0
    0.5791   -1.1416    0.4006 C   0  0  0  0  0  0  0  0  0  0  0  0
    0.4969   -2.0950    1.1716 O   0  0  0  0  0  0  0  0  0  0  0  0
    1.6490   -0.9352   -0.3783 N   0  0  0  0  0  0  0  0  0  0  0  0
    1.6396   -0.1339   -0.9888 H   0  0  0  0  0  0  0  0  0  0  0  0
    2.8244   -1.8029   -0.3963 C   0  0  0  0  0  0  0  0  0  0  0  0
    2.5288   -2.8186   -0.6686 H   0  0  0  0  0  0  0  0  0  0  0  0
    3.5552   -1.4355   -1.1184 H   0  0  0  0  0  0  0  0  0  0  0  0
    3.2786   -1.8286    0.5955 H   0  0  0  0  0  0  0  0  0  0  0  0
  5  6  2  0  0  0  0
  5  7  1  0  0  0  0
  2  3  1  0  0  0  0
  2  4  1  0  0  0  0
  2  5  1  0  0  0  0
  1  2  1  0  0  0  0
 24 25  2  0  0  0  0
 24 26  1  0  0  0  0
 20 21  1  0  0  0  0
 20 22  1  0  0  0  0
 20 23  1  0  0  0  0
 16 17  1  0  0  0  0
 16 18  1  0  0  0  0
 16 19  1  0  0  0  0
 14 15  1  0  0  0  0
 14 16  1  0  0  0  0
 14 20  1  0  0  0  0
 11 12  1  0  0  0  0
 11 13  1  0  0  0  0
 11 14  1  0  0  0  0
  9 10  1  0  0  0  0
  9 11  1  0  0  0  0
  9 24  1  0  0  0  0
  7  8  1  0  0  0  0
  7  9  1  0  0  0  0
 28 29  1  0  0  0  0
 28 30  1  0  0  0  0
 28 31  1  0  0  0  0
 26 27  1  0  0  0  0
 26 28  1  0  0  0  0
M  END
$$$$
default_name
  -OEChem-01062215323D

 31 30  0     1  0  0  0  0  0999 V2000
   -3.5895   -3.5013    1.1082 H   0  0  0  0  0  0  0  0  0  0  0  0
   -3.5145   -2.5363    0.6082 C   0  0  0  0  0  0  0  0  0  0  0  0
   -4.2285   -1.8413    1.0452 H   0  0  0  0  0  0  0  0  0  0  0  0
   -3.7155   -2.6583   -0.4538 H   0  0  0  0  0  0  0  0  0  0  0  0
   -2.1155   -1.9963    0.7922 C   0  0  0  0  0  0  0  0  0  0  0  0
   -1.2875   -2.6383    1.4252 O   0  0  0  0  0  0  0  0  0  0  0  0
   -1.8575   -0.8123    0.2402 N   0  0  0  0  0  0  0  0  0  0  0  0
   -2.6005   -0.3333   -0.2478 H   0  0  0  0  0  0  0  0  0  0  0  0
   -0.5675   -0.1203    0.3102 C   0  0  1  0  0  0  0  0  0  0  0  0
   -0.4399    0.4575   -0.6059 H   0  0  0  0  0  0  0  0  0  0  0  0
   -0.5933    0.8464    1.5127 C   0  0  0  0  0  0  0  0  0  0  0  0
   -0.8299    0.2763    2.4132 H   0  0  0  0  0  0  0  0  0  0  0  0
    0.4109    1.2580    1.6362 H   0  0  0  0  0  0  0  0  0  0  0  0
   -1.5829    2.0211    1.4062 C   0  0  0  0  0  0  0  0  0  0  0  0
   -2.5790    1.6435    1.1750 H   0  0  0  0  0  0  0  0  0  0  0  0
   -1.6489    2.8419    2.6974 C   0  0  0  0  0  0  0  0  0  0  0  0
   -0.6552    3.2137    2.9512 H   0  0  0  0  0  0  0  0  0  0  0  0
   -2.3221    3.6884    2.5604 H   0  0  0  0  0  0  0  0  0  0  0  0
   -2.0219    2.2351    3.5197 H   0  0  0  0  0  0  0  0  0  0  0  0
   -1.1563    2.9546    0.2740 C   0  0  0  0  0  0  0  0  0  0  0  0
   -1.1315    2.4035   -0.6660 H   0  0  0  0  0  0  0  0  0  0  0  0
   -1.8707    3.7723    0.1786 H   0  0  0  0  0  0  0  0  0  0  0  0
   -0.1661    3.3638    0.4775 H   0  0  0  0  0  0  0  0  0  0  0  0
    0.5791   -1.1416    0.4006 C   0  0  0  0  0  0  0  0  0  0  0  0
    0.3974   -2.2265    0.9485 O   0  0  0  0  0  0  0  0  0  0  0  0
    1.7588   -0.7896   -0.1268 N   0  0  0  0  0  0  0  0  0  0  0  0
    1.8279    0.1150   -0.5647 H   0  0  0  0  0  0  0  0  0  0  0  0
    2.9474   -1.6392   -0.1067 C   0  0  0  0  0  0  0  0  0  0  0  0
    2.7353   -2.5821   -0.6156 H   0  0  0  0  0  0  0  0  0  0  0  0
    3.7783   -1.1397   -0.6072 H   0  0  0  0  0  0  0  0  0  0  0  0
    3.2266   -1.8578    0.9252 H   0  0  0  0  0  0  0  0  0  0  0  0
  5  6  2  0  0  0  0
  5  7  1  0  0  0  0
  2  3  1  0  0  0  0
  2  4  1  0  0  0  0
  2  5  1  0  0  0  0
  1  2  1  0  0  0  0
 24 25  2  0  0  0  0
 24 26  1  0  0  0  0
 20 21  1  0  0  0  0
 20 22  1  0  0  0  0
 20 23  1  0  0  0  0
 16 17  1  0  0  0  0
 16 18  1  0  0  0  0
 16 19  1  0  0  0  0
 14 15  1  0  0  0  0
 14 16  1  0  0  0  0
 14 20  1  0  0  0  0
 11 12  1  0  0  0  0
 11 13  1  0  0  0  0
 11 14  1  0  0  0  0
  9 10  1  0  0  0  0
  9 11  1  0  0  0  0
  9 24  1  0  0  0  0
  7  8  1  0  0  0  0
  7  9  1  0  0  0  0
 28 29  1  0  0  0  0
 28 30  1  0  0  0  0
 28 31  1  0  0  0  0
 26 27  1  0  0  0  0
 26 28  1  0  0  0  0
M  END
$$$$
default_name
  -OEChem-01062215323D

 31 30  0     1  0  0  0  0  0999 V2000
   -3.5895   -3.5013    1.1082 H   0  0  0  0  0  0  0  0  0  0  0  0
   -3.5145   -2.5363    0.6082 C   0  0  0  0  0  0  0  0  0  0  0  0
   -4.2285   -1.8413    1.0452 H   0  0  0  0  0  0  0  0  0  0  0  0
   -3.7155   -2.6583   -0.4538 H   0  0  0  0  0  0  0  0  0  0  0  0
   -2.1155   -1.9963    0.7922 C   0  0  0  0  0  0  0  0  0  0  0  0
   -1.2875   -2.6383    1.4252 O   0  0  0  0  0  0  0  0  0  0  0  0
   -1.8575   -0.8123    0.2402 N   0  0  0  0  0  0  0  0  0  0  0  0
   -2.6005   -0.3333   -0.2478 H   0  0  0  0  0  0  0  0  0  0  0  0
   -0.5675   -0.1203    0.3102 C   0  0  1  0  0  0  0  0  0  0  0  0
   -0.4399    0.4575   -0.6059 H   0  0  0  0  0  0  0  0  0  0  0  0
   -0.5933    0.8464    1.5127 C   0  0  0  0  0  0  0  0  0  0  0  0
   -0.8299    0.2763    2.4132 H   0  0  0  0  0  0  0  0  0  0  0  0
    0.4109    1.2580    1.6362 H   0  0  0  0  0  0  0  0  0  0  0  0
   -1.5829    2.0211    1.4062 C   0  0  0  0  0  0  0  0  0  0  0  0
   -2.5790    1.6435    1.1750 H   0  0  0  0  0  0  0  0  0  0  0  0
   -1.6489    2.8419    2.6974 C   0  0  0  0  0  0  0  0  0  0  0  0
   -0.6552    3.2137    2.9512 H   0  0  0  0  0  0  0  0  0  0  0  0
   -2.3221    3.6884    2.5604 H   0  0  0  0  0  0  0  0  0  0  0  0
   -2.0219    2.2351    3.5197 H   0  0  0  0  0  0  0  0  0  0  0  0
   -1.1563    2.9546    0.2740 C   0  0  0  0  0  0  0  0  0  0  0  0
   -1.1315    2.4035   -0.6660 H   0  0  0  0  0  0  0  0  0  0  0  0
   -1.8707    3.7723    0.1786 H   0  0  0  0  0  0  0  0  0  0  0  0
   -0.1661    3.3638    0.4775 H   0  0  0  0  0  0  0  0  0  0  0  0
    0.5791   -1.1416    0.4006 C   0  0  0  0  0  0  0  0  0  0  0  0
    0.3416   -2.3120    0.6906 O   0  0  0  0  0  0  0  0  0  0  0  0
    1.8195   -0.6958    0.1631 N   0  0  0  0  0  0  0  0  0  0  0  0
    1.9331    0.2766   -0.0747 H   0  0  0  0  0  0  0  0  0  0  0  0
    3.0139   -1.5350    0.2257 C   0  0  0  0  0  0  0  0  0  0  0  0
    2.9220   -2.3608   -0.4833 H   0  0  0  0  0  0  0  0  0  0  0  0
    3.9015   -0.9492   -0.0180 H   0  0  0  0  0  0  0  0  0  0  0  0
    3.1201   -1.9504    1.2291 H   0  0  0  0  0  0  0  0  0  0  0  0
  5  6  2  0  0  0  0
  5  7  1  0  0  0  0
  2  3  1  0  0  0  0
  2  4  1  0  0  0  0
  2  5  1  0  0  0  0
  1  2  1  0  0  0  0
 24 25  2  0  0  0  0
 24 26  1  0  0  0  0
 20 21  1  0  0  0  0
 20 22  1  0  0  0  0
 20 23  1  0  0  0  0
 16 17  1  0  0  0  0
 16 18  1  0  0  0  0
 16 19  1  0  0  0  0
 14 15  1  0  0  0  0
 14 16  1  0  0  0  0
 14 20  1  0  0  0  0
 11 12  1  0  0  0  0
 11 13  1  0  0  0  0
 11 14  1  0  0  0  0
  9 10  1  0  0  0  0
  9 11  1  0  0  0  0
  9 24  1  0  0  0  0
  7  8  1  0  0  0  0
  7  9  1  0  0  0  0
 28 29  1  0  0  0  0
 28 30  1  0  0  0  0
 28 31  1  0  0  0  0
 26 27  1  0  0  0  0
 26 28  1  0  0  0  0
M  END
$$$$
default_name
  -OEChem-01062215323D

 31 30  0     1  0  0  0  0  0999 V2000
   -3.5895   -3.5013    1.1082 H   0  0  0  0  0  0  0  0  0  0  0  0
   -3.5145   -2.5363    0.6082 C   0  0  0  0  0  0  0  0  0  0  0  0
   -4.2285   -1.8413    1.0452 H   0  0  0  0  0  0  0  0  0  0  0  0
   -3.7155   -2.6583   -0.4538 H   0  0  0  0  0  0  0  0  0  0  0  0
   -2.1155   -1.9963    0.7922 C   0  0  0  0  0  0  0  0  0  0  0  0
   -1.2875   -2.6383    1.4252 O   0  0  0  0  0  0  0  0  0  0  0  0
   -1.8575   -0.8123    0.2402 N   0  0  0  0  0  0  0  0  0  0  0  0
   -2.6005   -0.3333   -0.2478 H   0  0  0  0  0  0  0  0  0  0  0  0
   -0.5675   -0.1203    0.3102 C   0  0  1  0  0  0  0  0  0  0  0  0
   -0.5531    0.6536   -0.4581 H   0  0  0  0  0  0  0  0  0  0  0  0
   -0.4426    0.5471    1.6959 C   0  0  0  0  0  0  0  0  0  0  0  0
   -0.5671   -0.2186    2.4640 H   0  0  0  0  0  0  0  0  0  0  0  0
    0.5698    0.9464    1.7880 H   0  0  0  0  0  0  0  0  0  0  0  0
   -1.4358    1.6886    1.9811 C   0  0  0  0  0  0  0  0  0  0  0  0
   -2.4534    1.3471    1.7917 H   0  0  0  0  0  0  0  0  0  0  0  0
   -1.3401    2.1927    3.4240 C   0  0  0  0  0  0  0  0  0  0  0  0
   -0.3220    2.5235    3.6341 H   0  0  0  0  0  0  0  0  0  0  0  0
   -2.0235    3.0301    3.5664 H   0  0  0  0  0  0  0  0  0  0  0  0
   -1.6097    1.4054    4.1247 H   0  0  0  0  0  0  0  0  0  0  0  0
   -1.1507    2.8658    1.0493 C   0  0  0  0  0  0  0  0  0  0  0  0
   -1.2433    2.5434    0.0122 H   0  0  0  0  0  0  0  0  0  0  0  0
   -1.8699    3.6646    1.2303 H   0  0  0  0  0  0  0  0  0  0  0  0
   -0.1422    3.2442    1.2198 H   0  0  0  0  0  0  0  0  0  0  0  0
    0.5797   -1.1047    0.0256 C   0  0  0  0  0  0  0  0  0  0  0  0
    0.3354   -2.2867   -0.2057 O   0  0  0  0  0  0  0  0  0  0  0  0
    1.8275   -0.6190    0.0535 N   0  0  0  0  0  0  0  0  0  0  0  0
    1.9467    0.3629    0.2445 H   0  0  0  0  0  0  0  0  0  0  0  0
    3.0226   -1.4269   -0.1788 C   0  0  0  0  0  0  0  0  0  0  0  0
    2.9715   -1.8847   -1.1692 H   0  0  0  0  0  0  0  0  0  0  0  0
    3.9175   -0.8059   -0.1157 H   0  0  0  0  0  0  0  0  0  0  0  0
    3.0812   -2.2211    0.5671 H   0  0  0  0  0  0  0  0  0  0  0  0
  5  6  2  0  0  0  0
  5  7  1  0  0  0  0
  2  3  1  0  0  0  0
  2  4  1  0  0  0  0
  2  5  1  0  0  0  0
  1  2  1  0  0  0  0
 24 25  2  0  0  0  0
 24 26  1  0  0  0  0
 20 21  1  0  0  0  0
 20 22  1  0  0  0  0
 20 23  1  0  0  0  0
 16 17  1  0  0  0  0
 16 18  1  0  0  0  0
 16 19  1  0  0  0  0
 14 15  1  0  0  0  0
 14 16  1  0  0  0  0
 14 20  1  0  0  0  0
 11 12  1  0  0  0  0
 11 13  1  0  0  0  0
 11 14  1  0  0  0  0
  9 10  1  0  0  0  0
  9 11  1  0  0  0  0
  9 24  1  0  0  0  0
  7  8  1  0  0  0  0
  7  9  1  0  0  0  0
 28 29  1  0  0  0  0
 28 30  1  0  0  0  0
 28 31  1  0  0  0  0
 26 27  1  0  0  0  0
 26 28  1  0  0  0  0
M  END
$$$$
default_name
  -OEChem-01062215323D

 31 30  0     1  0  0  0  0  0999 V2000
   -3.5895   -3.5013    1.1082 H   0  0  0  0  0  0  0  0  0  0  0  0
   -3.5145   -2.5363    0.6082 C   0  0  0  0  0  0  0  0  0  0  0  0
   -4.2285   -1.8413    1.0452 H   0  0  0  0  0  0  0  0  0  0  0  0
   -3.7155   -2.6583   -0.4538 H   0  0  0  0  0  0  0  0  0  0  0  0
   -2.1155   -1.9963    0.7922 C   0  0  0  0  0  0  0  0  0  0  0  0
   -1.2875   -2.6383    1.4252 O   0  0  0  0  0  0  0  0  0  0  0  0
   -1.8575   -0.8123    0.2402 N   0  0  0  0  0  0  0  0  0  0  0  0
   -2.6005   -0.3333   -0.2478 H   0  0  0  0  0  0  0  0  0  0  0  0
   -0.5675   -0.1203    0.3102 C   0  0  1  0  0  0  0  0  0  0  0  0
   -0.5531    0.6536   -0.4581 H   0  0  0  0  0  0  0  0  0  0  0  0
   -0.4426    0.5471    1.6959 C   0  0  0  0  0  0  0  0  0  0  0  0
   -0.5671   -0.2186    2.4640 H   0  0  0  0  0  0  0  0  0  0  0  0
    0.5698    0.9464    1.7880 H   0  0  0  0  0  0  0  0  0  0  0  0
   -1.4358    1.6886    1.9811 C   0  0  0  0  0  0  0  0  0  0  0  0
   -2.4534    1.3471    1.7917 H   0  0  0  0  0  0  0  0  0  0  0  0
   -1.3401    2.1927    3.4240 C   0  0  0  0  0  0  0  0  0  0  0  0
   -0.3220    2.5235    3.6341 H   0  0  0  0  0  0  0  0  0  0  0  0
   -2.0235    3.0301    3.5664 H   0  0  0  0  0  0  0  0  0  0  0  0
   -1.6097    1.4054    4.1247 H   0  0  0  0  0  0  0  0  0  0  0  0
   -1.1507    2.8658    1.0493 C   0  0  0  0  0  0  0  0  0  0  0  0
   -1.2433    2.5434    0.0122 H   0  0  0  0  0  0  0  0  0  0  0  0
   -1.8699    3.6646    1.2303 H   0  0  0  0  0  0  0  0  0  0  0  0
   -0.1422    3.2442    1.2198 H   0  0  0  0  0  0  0  0  0  0  0  0
    0.5797   -1.1047    0.0256 C   0  0  0  0  0  0  0  0  0  0  0  0
    0.3411   -2.2035   -0.4703 O   0  0  0  0  0  0  0  0  0  0  0  0
    1.8193   -0.7141    0.3491 N   0  0  0  0  0  0  0  0  0  0  0  0
    1.9351    0.2044    0.7465 H   0  0  0  0  0  0  0  0  0  0  0  0
    3.0103   -1.5385    0.1576 C   0  0  0  0  0  0  0  0  0  0  0  0
    3.1142   -1.7966   -0.8986 H   0  0  0  0  0  0  0  0  0  0  0  0
    3.9006   -0.9993    0.4850 H   0  0  0  0  0  0  0  0  0  0  0  0
    2.9158   -2.4614    0.7320 H   0  0  0  0  0  0  0  0  0  0  0  0
  5  6  2  0  0  0  0
  5  7  1  0  0  0  0
  2  3  1  0  0  0  0
  2  4  1  0  0  0  0
  2  5  1  0  0  0  0
  1  2  1  0  0  0  0
 24 25  2  0  0  0  0
 24 26  1  0  0  0  0
 20 21  1  0  0  0  0
 20 22  1  0  0  0  0
 20 23  1  0  0  0  0
 16 17  1  0  0  0  0
 16 18  1  0  0  0  0
 16 19  1  0  0  0  0
 14 15  1  0  0  0  0
 14 16  1  0  0  0  0
 14 20  1  0  0  0  0
 11 12  1  0  0  0  0
 11 13  1  0  0  0  0
 11 14  1  0  0  0  0
  9 10  1  0  0  0  0
  9 11  1  0  0  0  0
  9 24  1  0  0  0  0
  7  8  1  0  0  0  0
  7  9  1  0  0  0  0
 28 29  1  0  0  0  0
 28 30  1  0  0  0  0
 28 31  1  0  0  0  0
 26 27  1  0  0  0  0
 26 28  1  0  0  0  0
M  END
$$$$
default_name
  -OEChem-01062215323D

 31 30  0     1  0  0  0  0  0999 V2000
   -3.5895   -3.5013    1.1082 H   0  0  0  0  0  0  0  0  0  0  0  0
   -3.5145   -2.5363    0.6082 C   0  0  0  0  0  0  0  0  0  0  0  0
   -4.2285   -1.8413    1.0452 H   0  0  0  0  0  0  0  0  0  0  0  0
   -3.7155   -2.6583   -0.4538 H   0  0  0  0  0  0  0  0  0  0  0  0
   -2.1155   -1.9963    0.7922 C   0  0  0  0  0  0  0  0  0  0  0  0
   -1.2875   -2.6383    1.4252 O   0  0  0  0  0  0  0  0  0  0  0  0
   -1.8575   -0.8123    0.2402 N   0  0  0  0  0  0  0  0  0  0  0  0
   -2.6005   -0.3333   -0.2478 H   0  0  0  0  0  0  0  0  0  0  0  0
   -0.5675   -0.1203    0.3102 C   0  0  1  0  0  0  0  0  0  0  0  0
   -0.5531    0.6536   -0.4581 H   0  0  0  0  0  0  0  0  0  0  0  0
   -0.4426    0.5471    1.6959 C   0  0  0  0  0  0  0  0  0  0  0  0
   -0.5671   -0.2186    2.4640 H   0  0  0  0  0  0  0  0  0  0  0  0
    0.5698    0.9464    1.7880 H   0  0  0  0  0  0  0  0  0  0  0  0
   -1.4358    1.6886    1.9811 C   0  0  0  0  0  0  0  0  0  0  0  0
   -2.4534    1.3471    1.7917 H   0  0  0  0  0  0  0  0  0  0  0  0
   -1.3401    2.1927    3.4240 C   0  0  0  0  0  0  0  0  0  0  0  0
   -0.3220    2.5235    3.6341 H   0  0  0  0  0  0  0  0  0  0  0  0
   -2.0235    3.0301    3.5664 H   0  0  0  0  0  0  0  0  0  0  0  0
   -1.6097    1.4054    4.1247 H   0  0  0  0  0  0  0  0  0  0  0  0
   -1.1507    2.8658    1.0493 C   0  0  0  0  0  0  0  0  0  0  0  0
   -1.2433    2.5434    0.0122 H   0  0  0  0  0  0  0  0  0  0  0  0
   -1.8699    3.6646    1.2303 H   0  0  0  0  0  0  0  0  0  0  0  0
   -0.1422    3.2442    1.2198 H   0  0  0  0  0  0  0  0  0  0  0  0
    0.5797   -1.1047    0.0256 C   0  0  0  0  0  0  0  0  0  0  0  0
    0.3945   -2.0724   -0.7089 O   0  0  0  0  0  0  0  0  0  0  0  0
    1.7578   -0.8626    0.6149 N   0  0  0  0  0  0  0  0  0  0  0  0
    1.8332   -0.0452    1.1989 H   0  0  0  0  0  0  0  0  0  0  0  0
    2.9373   -1.7106    0.4590 C   0  0  0  0  0  0  0  0  0  0  0  0
    3.2114   -1.7706   -0.5967 H   0  0  0  0  0  0  0  0  0  0  0  0
    3.7754   -1.3013    1.0252 H   0  0  0  0  0  0  0  0  0  0  0  0
    2.7173   -2.7175    0.8174 H   0  0  0  0  0  0  0  0  0  0  0  0
  5  6  2  0  0  0  0
  5  7  1  0  0  0  0
  2  3  1  0  0  0  0
  2  4  1  0  0  0  0
  2  5  1  0  0  0  0
  1  2  1  0  0  0  0
 24 25  2  0  0  0  0
 24 26  1  0  0  0  0
 20 21  1  0  0  0  0
 20 22  1  0  0  0  0
 20 23  1  0  0  0  0
 16 17  1  0  0  0  0
 16 18  1  0  0  0  0
 16 19  1  0  0  0  0
 14 15  1  0  0  0  0
 14 16  1  0  0  0  0
 14 20  1  0  0  0  0
 11 12  1  0  0  0  0
 11 13  1  0  0  0  0
 11 14  1  0  0  0  0
  9 10  1  0  0  0  0
  9 11  1  0  0  0  0
  9 24  1  0  0  0  0
  7  8  1  0  0  0  0
  7  9  1  0  0  0  0
 28 29  1  0  0  0  0
 28 30  1  0  0  0  0
 28 31  1  0  0  0  0
 26 27  1  0  0  0  0
 26 28  1  0  0  0  0
M  END
$$$$
default_name
  -OEChem-01062215323D

 31 30  0     1  0  0  0  0  0999 V2000
   -3.5895   -3.5013    1.1082 H   0  0  0  0  0  0  0  0  0  0  0  0
   -3.5145   -2.5363    0.6082 C   0  0  0  0  0  0  0  0  0  0  0  0
   -4.2285   -1.8413    1.0452 H   0  0  0  0  0  0  0  0  0  0  0  0
   -3.7155   -2.6583   -0.4538 H   0  0  0  0  0  0  0  0  0  0  0  0
   -2.1155   -1.9963    0.7922 C   0  0  0  0  0  0  0  0  0  0  0  0
   -1.2875   -2.6383    1.4252 O   0  0  0  0  0  0  0  0  0  0  0  0
   -1.8575   -0.8123    0.2402 N   0  0  0  0  0  0  0  0  0  0  0  0
   -2.6005   -0.3333   -0.2478 H   0  0  0  0  0  0  0  0  0  0  0  0
   -0.5675   -0.1203    0.3102 C   0  0  1  0  0  0  0  0  0  0  0  0
   -0.5531    0.6536   -0.4581 H   0  0  0  0  0  0  0  0  0  0  0  0
   -0.4426    0.5471    1.6959 C   0  0  0  0  0  0  0  0  0  0  0  0
   -0.5671   -0.2186    2.4640 H   0  0  0  0  0  0  0  0  0  0  0  0
    0.5698    0.9464    1.7880 H   0  0  0  0  0  0  0  0  0  0  0  0
   -1.4358    1.6886    1.9811 C   0  0  0  0  0  0  0  0  0  0  0  0
   -2.4534    1.3471    1.7917 H   0  0  0  0  0  0  0  0  0  0  0  0
   -1.3401    2.1927    3.4240 C   0  0  0  0  0  0  0  0  0  0  0  0
   -0.3220    2.5235    3.6341 H   0  0  0  0  0  0  0  0  0  0  0  0
   -2.0235    3.0301    3.5664 H   0  0  0  0  0  0  0  0  0  0  0  0
   -1.6097    1.4054    4.1247 H   0  0  0  0  0  0  0  0  0  0  0  0
   -1.1507    2.8658    1.0493 C   0  0  0  0  0  0  0  0  0  0  0  0
   -1.2433    2.5434    0.0122 H   0  0  0  0  0  0  0  0  0  0  0  0
   -1.8699    3.6646    1.2303 H   0  0  0  0  0  0  0  0  0  0  0  0
   -0.1422    3.2442    1.2198 H   0  0  0  0  0  0  0  0  0  0  0  0
    0.5797   -1.1047    0.0256 C   0  0  0  0  0  0  0  0  0  0  0  0
    0.4918   -1.9022   -0.9052 O   0  0  0  0  0  0  0  0  0  0  0  0
    1.6472   -1.0544    0.8329 N   0  0  0  0  0  0  0  0  0  0  0  0
    1.6479   -0.3686    1.5708 H   0  0  0  0  0  0  0  0  0  0  0  0
    2.8087   -1.9316    0.7048 C   0  0  0  0  0  0  0  0  0  0  0  0
    3.2566   -1.8084   -0.2838 H   0  0  0  0  0  0  0  0  0  0  0  0
    3.5506   -1.6912    1.4679 H   0  0  0  0  0  0  0  0  0  0  0  0
    2.4991   -2.9718    0.8175 H   0  0  0  0  0  0  0  0  0  0  0  0
  5  6  2  0  0  0  0
  5  7  1  0  0  0  0
  2  3  1  0  0  0  0
  2  4  1  0  0  0  0
  2  5  1  0  0  0  0
  1  2  1  0  0  0  0
 24 25  2  0  0  0  0
 24 26  1  0  0  0  0
 20 21  1  0  0  0  0
 20 22  1  0  0  0  0
 20 23  1  0  0  0  0
 16 17  1  0  0  0  0
 16 18  1  0  0  0  0
 16 19  1  0  0  0  0
 14 15  1  0  0  0  0
 14 16  1  0  0  0  0
 14 20  1  0  0  0  0
 11 12  1  0  0  0  0
 11 13  1  0  0  0  0
 11 14  1  0  0  0  0
  9 10  1  0  0  0  0
  9 11  1  0  0  0  0
  9 24  1  0  0  0  0
  7  8  1  0  0  0  0
  7  9  1  0  0  0  0
 28 29  1  0  0  0  0
 28 30  1  0  0  0  0
 28 31  1  0  0  0  0
 26 27  1  0  0  0  0
 26 28  1  0  0  0  0
M  END
$$$$
default_name
  -OEChem-01062215323D

 31 30  0     1  0  0  0  0  0999 V2000
   -3.5895   -3.5013    1.1082 H   0  0  0  0  0  0  0  0  0  0  0  0
   -3.5145   -2.5363    0.6082 C   0  0  0  0  0  0  0  0  0  0  0  0
   -4.2285   -1.8413    1.0452 H   0  0  0  0  0  0  0  0  0  0  0  0
   -3.7155   -2.6583   -0.4538 H   0  0  0  0  0  0  0  0  0  0  0  0
   -2.1155   -1.9963    0.7922 C   0  0  0  0  0  0  0  0  0  0  0  0
   -1.2875   -2.6383    1.4252 O   0  0  0  0  0  0  0  0  0  0  0  0
   -1.8575   -0.8123    0.2402 N   0  0  0  0  0  0  0  0  0  0  0  0
   -2.6005   -0.3333   -0.2478 H   0  0  0  0  0  0  0  0  0  0  0  0
   -0.5675   -0.1203    0.3102 C   0  0  1  0  0  0  0  0  0  0  0  0
   -0.5531    0.6536   -0.4581 H   0  0  0  0  0  0  0  0  0  0  0  0
   -0.4426    0.5471    1.6959 C   0  0  0  0  0  0  0  0  0  0  0  0
   -0.5671   -0.2186    2.4640 H   0  0  0  0  0  0  0  0  0  0  0  0
    0.5698    0.9464    1.7880 H   0  0  0  0  0  0  0  0  0  0  0  0
   -1.4358    1.6886    1.9811 C   0  0  0  0  0  0  0  0  0  0  0  0
   -2.4534    1.3471    1.7917 H   0  0  0  0  0  0  0  0  0  0  0  0
   -1.3401    2.1927    3.4240 C   0  0  0  0  0  0  0  0  0  0  0  0
   -0.3220    2.5235    3.6341 H   0  0  0  0  0  0  0  0  0  0  0  0
   -2.0235    3.0301    3.5664 H   0  0  0  0  0  0  0  0  0  0  0  0
   -1.6097    1.4054    4.1247 H   0  0  0  0  0  0  0  0  0  0  0  0
   -1.1507    2.8658    1.0493 C   0  0  0  0  0  0  0  0  0  0  0  0
   -1.2433    2.5434    0.0122 H   0  0  0  0  0  0  0  0  0  0  0  0
   -1.8699    3.6646    1.2303 H   0  0  0  0  0  0  0  0  0  0  0  0
   -0.1422    3.2442    1.2198 H   0  0  0  0  0  0  0  0  0  0  0  0
    0.5797   -1.1047    0.0256 C   0  0  0  0  0  0  0  0  0  0  0  0
    0.6265   -1.7046   -1.0459 O   0  0  0  0  0  0  0  0  0  0  0  0
    1.4951   -1.2765    0.9880 N   0  0  0  0  0  0  0  0  0  0  0  0
    1.3918   -0.7440    1.8370 H   0  0  0  0  0  0  0  0  0  0  0  0
    2.6331   -2.1863    0.8783 C   0  0  0  0  0  0  0  0  0  0  0  0
    3.2465   -1.9075    0.0185 H   0  0  0  0  0  0  0  0  0  0  0  0
    3.2414   -2.1426    1.7830 H   0  0  0  0  0  0  0  0  0  0  0  0
    2.2761   -3.2070    0.7325 H   0  0  0  0  0  0  0  0  0  0  0  0
  5  6  2  0  0  0  0
  5  7  1  0  0  0  0
  2  3  1  0  0  0  0
  2  4  1  0  0  0  0
  2  5  1  0  0  0  0
  1  2  1  0  0  0  0
 24 25  2  0  0  0  0
 24 26  1  0  0  0  0
 20 21  1  0  0  0  0
 20 22  1  0  0  0  0
 20 23  1  0  0  0  0
 16 17  1  0  0  0  0
 16 18  1  0  0  0  0
 16 19  1  0  0  0  0
 14 15  1  0  0  0  0
 14 16  1  0  0  0  0
 14 20  1  0  0  0  0
 11 12  1  0  0  0  0
 11 13  1  0  0  0  0
 11 14  1  0  0  0  0
  9 10  1  0  0  0  0
  9 11  1  0  0  0  0
  9 24  1  0  0  0  0
  7  8  1  0  0  0  0
  7  9  1  0  0  0  0
 28 29  1  0  0  0  0
 28 30  1  0  0  0  0
 28 31  1  0  0  0  0
 26 27  1  0  0  0  0
 26 28  1  0  0  0  0
M  END
$$$$
default_name
  -OEChem-01062215323D

 31 30  0     1  0  0  0  0  0999 V2000
   -3.5895   -3.5013    1.1082 H   0  0  0  0  0  0  0  0  0  0  0  0
   -3.5145   -2.5363    0.6082 C   0  0  0  0  0  0  0  0  0  0  0  0
   -4.2285   -1.8413    1.0452 H   0  0  0  0  0  0  0  0  0  0  0  0
   -3.7155   -2.6583   -0.4538 H   0  0  0  0  0  0  0  0  0  0  0  0
   -2.1155   -1.9963    0.7922 C   0  0  0  0  0  0  0  0  0  0  0  0
   -1.2875   -2.6383    1.4252 O   0  0  0  0  0  0  0  0  0  0  0  0
   -1.8575   -0.8123    0.2402 N   0  0  0  0  0  0  0  0  0  0  0  0
   -2.6005   -0.3333   -0.2478 H   0  0  0  0  0  0  0  0  0  0  0  0
   -0.5675   -0.1203    0.3102 C   0  0  1  0  0  0  0  0  0  0  0  0
   -0.5531    0.6536   -0.4581 H   0  0  0  0  0  0  0  0  0  0  0  0
   -0.4426    0.5471    1.6959 C   0  0  0  0  0  0  0  0  0  0  0  0
   -0.5671   -0.2186    2.4640 H   0  0  0  0  0  0  0  0  0  0  0  0
    0.5698    0.9464    1.7880 H   0  0  0  0  0  0  0  0  0  0  0  0
   -1.4358    1.6886    1.9811 C   0  0  0  0  0  0  0  0  0  0  0  0
   -2.4534    1.3471    1.7917 H   0  0  0  0  0  0  0  0  0  0  0  0
   -1.3401    2.1927    3.4240 C   0  0  0  0  0  0  0  0  0  0  0  0
   -0.3220    2.5235    3.6341 H   0  0  0  0  0  0  0  0  0  0  0  0
   -2.0235    3.0301    3.5664 H   0  0  0  0  0  0  0  0  0  0  0  0
   -1.6097    1.4054    4.1247 H   0  0  0  0  0  0  0  0  0  0  0  0
   -1.1507    2.8658    1.0493 C   0  0  0  0  0  0  0  0  0  0  0  0
   -1.2433    2.5434    0.0122 H   0  0  0  0  0  0  0  0  0  0  0  0
   -1.8699    3.6646    1.2303 H   0  0  0  0  0  0  0  0  0  0  0  0
   -0.1422    3.2442    1.2198 H   0  0  0  0  0  0  0  0  0  0  0  0
    0.5797   -1.1047    0.0256 C   0  0  0  0  0  0  0  0  0  0  0  0
    0.7893   -1.4931   -1.1213 O   0  0  0  0  0  0  0  0  0  0  0  0
    1.3119   -1.5136    1.0698 N   0  0  0  0  0  0  0  0  0  0  0  0
    1.0823   -1.1456    1.9791 H   0  0  0  0  0  0  0  0  0  0  0  0
    2.4226   -2.4574    0.9676 C   0  0  0  0  0  0  0  0  0  0  0  0
    3.1820   -2.0611    0.2898 H   0  0  0  0  0  0  0  0  0  0  0  0
    2.8690   -2.6245    1.9490 H   0  0  0  0  0  0  0  0  0  0  0  0
    2.0636   -3.4071    0.5680 H   0  0  0  0  0  0  0  0  0  0  0  0
  5  6  2  0  0  0  0
  5  7  1  0  0  0  0
  2  3  1  0  0  0  0
  2  4  1  0  0  0  0
  2  5  1  0  0  0  0
  1  2  1  0  0  0  0
 24 25  2  0  0  0  0
 24 26  1  0  0  0  0
 20 21  1  0  0  0  0
 20 22  1  0  0  0  0
 20 23  1  0  0  0  0
 16 17  1  0  0  0  0
 16 18  1  0  0  0  0
 16 19  1  0  0  0  0
 14 15  1  0  0  0  0
 14 16  1  0  0  0  0
 14 20  1  0  0  0  0
 11 12  1  0  0  0  0
 11 13  1  0  0  0  0
 11 14  1  0  0  0  0
  9 10  1  0  0  0  0
  9 11  1  0  0  0  0
  9 24  1  0  0  0  0
  7  8  1  0  0  0  0
  7  9  1  0  0  0  0
 28 29  1  0  0  0  0
 28 30  1  0  0  0  0
 28 31  1  0  0  0  0
 26 27  1  0  0  0  0
 26 28  1  0  0  0  0
M  END
$$$$
default_name
  -OEChem-01062215323D

 31 30  0     1  0  0  0  0  0999 V2000
   -3.5895   -3.5013    1.1082 H   0  0  0  0  0  0  0  0  0  0  0  0
   -3.5145   -2.5363    0.6082 C   0  0  0  0  0  0  0  0  0  0  0  0
   -4.2285   -1.8413    1.0452 H   0  0  0  0  0  0  0  0  0  0  0  0
   -3.7155   -2.6583   -0.4538 H   0  0  0  0  0  0  0  0  0  0  0  0
   -2.1155   -1.9963    0.7922 C   0  0  0  0  0  0  0  0  0  0  0  0
   -1.2875   -2.6383    1.4252 O   0  0  0  0  0  0  0  0  0  0  0  0
   -1.8575   -0.8123    0.2402 N   0  0  0  0  0  0  0  0  0  0  0  0
   -2.6005   -0.3333   -0.2478 H   0  0  0  0  0  0  0  0  0  0  0  0
   -0.5675   -0.1203    0.3102 C   0  0  1  0  0  0  0  0  0  0  0  0
   -0.5531    0.6536   -0.4581 H   0  0  0  0  0  0  0  0  0  0  0  0
   -0.4426    0.5471    1.6959 C   0  0  0  0  0  0  0  0  0  0  0  0
   -0.5671   -0.2186    2.4640 H   0  0  0  0  0  0  0  0  0  0  0  0
    0.5698    0.9464    1.7880 H   0  0  0  0  0  0  0  0  0  0  0  0
   -1.4358    1.6886    1.9811 C   0  0  0  0  0  0  0  0  0  0  0  0
   -2.4534    1.3471    1.7917 H   0  0  0  0  0  0  0  0  0  0  0  0
   -1.3401    2.1927    3.4240 C   0  0  0  0  0  0  0  0  0  0  0  0
   -0.3220    2.5235    3.6341 H   0  0  0  0  0  0  0  0  0  0  0  0
   -2.0235    3.0301    3.5664 H   0  0  0  0  0  0  0  0  0  0  0  0
   -1.6097    1.4054    4.1247 H   0  0  0  0  0  0  0  0  0  0  0  0
   -1.1507    2.8658    1.0493 C   0  0  0  0  0  0  0  0  0  0  0  0
   -1.2433    2.5434    0.0122 H   0  0  0  0  0  0  0  0  0  0  0  0
   -1.8699    3.6646    1.2303 H   0  0  0  0  0  0  0  0  0  0  0  0
   -0.1422    3.2442    1.2198 H   0  0  0  0  0  0  0  0  0  0  0  0
    0.5797   -1.1047    0.0256 C   0  0  0  0  0  0  0  0  0  0  0  0
    0.9692   -1.2819   -1.1263 O   0  0  0  0  0  0  0  0  0  0  0  0
    1.1100   -1.7497    1.0727 N   0  0  0  0  0  0  0  0  0  0  0  0
    0.7407   -1.5462    1.9877 H   0  0  0  0  0  0  0  0  0  0  0  0
    2.1915   -2.7264    0.9667 C   0  0  0  0  0  0  0  0  0  0  0  0
    3.0674   -2.2587    0.5115 H   0  0  0  0  0  0  0  0  0  0  0  0
    2.4587   -3.1043    1.9547 H   0  0  0  0  0  0  0  0  0  0  0  0
    1.8759   -3.5585    0.3353 H   0  0  0  0  0  0  0  0  0  0  0  0
  5  6  2  0  0  0  0
  5  7  1  0  0  0  0
  2  3  1  0  0  0  0
  2  4  1  0  0  0  0
  2  5  1  0  0  0  0
  1  2  1  0  0  0  0
 24 25  2  0  0  0  0
 24 26  1  0  0  0  0
 20 21  1  0  0  0  0
 20 22  1  0  0  0  0
 20 23  1  0  0  0  0
 16 17  1  0  0  0  0
 16 18  1  0  0  0  0
 16 19  1  0  0  0  0
 14 15  1  0  0  0  0
 14 16  1  0  0  0  0
 14 20  1  0  0  0  0
 11 12  1  0  0  0  0
 11 13  1  0  0  0  0
 11 14  1  0  0  0  0
  9 10  1  0  0  0  0
  9 11  1  0  0  0  0
  9 24  1  0  0  0  0
  7  8  1  0  0  0  0
  7  9  1  0  0  0  0
 28 29  1  0  0  0  0
 28 30  1  0  0  0  0
 28 31  1  0  0  0  0
 26 27  1  0  0  0  0
 26 28  1  0  0  0  0
M  END
$$$$
default_name
  -OEChem-01062215323D

 31 30  0     1  0  0  0  0  0999 V2000
   -3.5895   -3.5013    1.1082 H   0  0  0  0  0  0  0  0  0  0  0  0
   -3.5145   -2.5363    0.6082 C   0  0  0  0  0  0  0  0  0  0  0  0
   -4.2285   -1.8413    1.0452 H   0  0  0  0  0  0  0  0  0  0  0  0
   -3.7155   -2.6583   -0.4538 H   0  0  0  0  0  0  0  0  0  0  0  0
   -2.1155   -1.9963    0.7922 C   0  0  0  0  0  0  0  0  0  0  0  0
   -1.2875   -2.6383    1.4252 O   0  0  0  0  0  0  0  0  0  0  0  0
   -1.8575   -0.8123    0.2402 N   0  0  0  0  0  0  0  0  0  0  0  0
   -2.6005   -0.3333   -0.2478 H   0  0  0  0  0  0  0  0  0  0  0  0
   -0.5675   -0.1203    0.3102 C   0  0  1  0  0  0  0  0  0  0  0  0
   -0.5531    0.6536   -0.4581 H   0  0  0  0  0  0  0  0  0  0  0  0
   -0.4426    0.5471    1.6959 C   0  0  0  0  0  0  0  0  0  0  0  0
   -0.5671   -0.2186    2.4640 H   0  0  0  0  0  0  0  0  0  0  0  0
    0.5698    0.9464    1.7880 H   0  0  0  0  0  0  0  0  0  0  0  0
   -1.4358    1.6886    1.9811 C   0  0  0  0  0  0  0  0  0  0  0  0
   -2.4534    1.3471    1.7917 H   0  0  0  0  0  0  0  0  0  0  0  0
   -1.3401    2.1927    3.4240 C   0  0  0  0  0  0  0  0  0  0  0  0
   -0.3220    2.5235    3.6341 H   0  0  0  0  0  0  0  0  0  0  0  0
   -2.0235    3.0301    3.5664 H   0  0  0  0  0  0  0  0  0  0  0  0
   -1.6097    1.4054    4.1247 H   0  0  0  0  0  0  0  0  0  0  0  0
   -1.1507    2.8658    1.0493 C   0  0  0  0  0  0  0  0  0  0  0  0
   -1.2433    2.5434    0.0122 H   0  0  0  0  0  0  0  0  0  0  0  0
   -1.8699    3.6646    1.2303 H   0  0  0  0  0  0  0  0  0  0  0  0
   -0.1422    3.2442    1.2198 H   0  0  0  0  0  0  0  0  0  0  0  0
    0.5797   -1.1047    0.0256 C   0  0  0  0  0  0  0  0  0  0  0  0
    1.1540   -1.0857   -1.0607 O   0  0  0  0  0  0  0  0  0  0  0  0
    0.9032   -1.9687    0.9965 N   0  0  0  0  0  0  0  0  0  0  0  0
    0.3900   -1.9185    1.8620 H   0  0  0  0  0  0  0  0  0  0  0  0
    1.9556   -2.9750    0.8755 C   0  0  0  0  0  0  0  0  0  0  0  0
    2.9106   -2.4869    0.6685 H   0  0  0  0  0  0  0  0  0  0  0  0
    2.0384   -3.5492    1.7996 H   0  0  0  0  0  0  0  0  0  0  0  0
    1.7260   -3.6508    0.0502 H   0  0  0  0  0  0  0  0  0  0  0  0
  5  6  2  0  0  0  0
  5  7  1  0  0  0  0
  2  3  1  0  0  0  0
  2  4  1  0  0  0  0
  2  5  1  0  0  0  0
  1  2  1  0  0  0  0
 24 25  2  0  0  0  0
 24 26  1  0  0  0  0
 20 21  1  0  0  0  0
 20 22  1  0  0  0  0
 20 23  1  0  0  0  0
 16 17  1  0  0  0  0
 16 18  1  0  0  0  0
 16 19  1  0  0  0  0
 14 15  1  0  0  0  0
 14 16  1  0  0  0  0
 14 20  1  0  0  0  0
 11 12  1  0  0  0  0
 11 13  1  0  0  0  0
 11 14  1  0  0  0  0
  9 10  1  0  0  0  0
  9 11  1  0  0  0  0
  9 24  1  0  0  0  0
  7  8  1  0  0  0  0
  7  9  1  0  0  0  0
 28 29  1  0  0  0  0
 28 30  1  0  0  0  0
 28 31  1  0  0  0  0
 26 27  1  0  0  0  0
 26 28  1  0  0  0  0
M  END
$$$$
default_name
  -OEChem-01062215323D

 31 30  0     1  0  0  0  0  0999 V2000
   -3.5895   -3.5013    1.1082 H   0  0  0  0  0  0  0  0  0  0  0  0
   -3.5145   -2.5363    0.6082 C   0  0  0  0  0  0  0  0  0  0  0  0
   -4.2285   -1.8413    1.0452 H   0  0  0  0  0  0  0  0  0  0  0  0
   -3.7155   -2.6583   -0.4538 H   0  0  0  0  0  0  0  0  0  0  0  0
   -2.1155   -1.9963    0.7922 C   0  0  0  0  0  0  0  0  0  0  0  0
   -1.2875   -2.6383    1.4252 O   0  0  0  0  0  0  0  0  0  0  0  0
   -1.8575   -0.8123    0.2402 N   0  0  0  0  0  0  0  0  0  0  0  0
   -2.6005   -0.3333   -0.2478 H   0  0  0  0  0  0  0  0  0  0  0  0
   -0.5675   -0.1203    0.3102 C   0  0  1  0  0  0  0  0  0  0  0  0
   -0.5531    0.6536   -0.4581 H   0  0  0  0  0  0  0  0  0  0  0  0
   -0.4426    0.5471    1.6959 C   0  0  0  0  0  0  0  0  0  0  0  0
   -0.5671   -0.2186    2.4640 H   0  0  0  0  0  0  0  0  0  0  0  0
    0.5698    0.9464    1.7880 H   0  0  0  0  0  0  0  0  0  0  0  0
   -1.4358    1.6886    1.9811 C   0  0  0  0  0  0  0  0  0  0  0  0
   -2.4534    1.3471    1.7917 H   0  0  0  0  0  0  0  0  0  0  0  0
   -1.3401    2.1927    3.4240 C   0  0  0  0  0  0  0  0  0  0  0  0
   -0.3220    2.5235    3.6341 H   0  0  0  0  0  0  0  0  0  0  0  0
   -2.0235    3.0301    3.5664 H   0  0  0  0  0  0  0  0  0  0  0  0
   -1.6097    1.4054    4.1247 H   0  0  0  0  0  0  0  0  0  0  0  0
   -1.1507    2.8658    1.0493 C   0  0  0  0  0  0  0  0  0  0  0  0
   -1.2433    2.5434    0.0122 H   0  0  0  0  0  0  0  0  0  0  0  0
   -1.8699    3.6646    1.2303 H   0  0  0  0  0  0  0  0  0  0  0  0
   -0.1422    3.2442    1.2198 H   0  0  0  0  0  0  0  0  0  0  0  0
    0.5797   -1.1047    0.0256 C   0  0  0  0  0  0  0  0  0  0  0  0
    1.3309   -0.9176   -0.9287 O   0  0  0  0  0  0  0  0  0  0  0  0
    0.7056   -2.1555    0.8464 N   0  0  0  0  0  0  0  0  0  0  0  0
    0.0543   -2.2370    1.6107 H   0  0  0  0  0  0  0  0  0  0  0  0
    1.7308   -3.1863    0.7005 C   0  0  0  0  0  0  0  0  0  0  0  0
    2.7221   -2.7301    0.7501 H   0  0  0  0  0  0  0  0  0  0  0  0
    1.6369   -3.9289    1.4943 H   0  0  0  0  0  0  0  0  0  0  0  0
    1.6240   -3.6777   -0.2678 H   0  0  0  0  0  0  0  0  0  0  0  0
  5  6  2  0  0  0  0
  5  7  1  0  0  0  0
  2  3  1  0  0  0  0
  2  4  1  0  0  0  0
  2  5  1  0  0  0  0
  1  2  1  0  0  0  0
 24 25  2  0  0  0  0
 24 26  1  0  0  0  0
 20 21  1  0  0  0  0
 20 22  1  0  0  0  0
 20 23  1  0  0  0  0
 16 17  1  0  0  0  0
 16 18  1  0  0  0  0
 16 19  1  0  0  0  0
 14 15  1  0  0  0  0
 14 16  1  0  0  0  0
 14 20  1  0  0  0  0
 11 12  1  0  0  0  0
 11 13  1  0  0  0  0
 11 14  1  0  0  0  0
  9 10  1  0  0  0  0
  9 11  1  0  0  0  0
  9 24  1  0  0  0  0
  7  8  1  0  0  0  0
  7  9  1  0  0  0  0
 28 29  1  0  0  0  0
 28 30  1  0  0  0  0
 28 31  1  0  0  0  0
 26 27  1  0  0  0  0
 26 28  1  0  0  0  0
M  END
$$$$
default_name
  -OEChem-01062215323D

 31 30  0     1  0  0  0  0  0999 V2000
   -3.5895   -3.5013    1.1082 H   0  0  0  0  0  0  0  0  0  0  0  0
   -3.5145   -2.5363    0.6082 C   0  0  0  0  0  0  0  0  0  0  0  0
   -4.2285   -1.8413    1.0452 H   0  0  0  0  0  0  0  0  0  0  0  0
   -3.7155   -2.6583   -0.4538 H   0  0  0  0  0  0  0  0  0  0  0  0
   -2.1155   -1.9963    0.7922 C   0  0  0  0  0  0  0  0  0  0  0  0
   -1.2875   -2.6383    1.4252 O   0  0  0  0  0  0  0  0  0  0  0  0
   -1.8575   -0.8123    0.2402 N   0  0  0  0  0  0  0  0  0  0  0  0
   -2.6005   -0.3333   -0.2478 H   0  0  0  0  0  0  0  0  0  0  0  0
   -0.5675   -0.1203    0.3102 C   0  0  1  0  0  0  0  0  0  0  0  0
   -0.5531    0.6536   -0.4581 H   0  0  0  0  0  0  0  0  0  0  0  0
   -0.4426    0.5471    1.6959 C   0  0  0  0  0  0  0  0  0  0  0  0
   -0.5671   -0.2186    2.4640 H   0  0  0  0  0  0  0  0  0  0  0  0
    0.5698    0.9464    1.7880 H   0  0  0  0  0  0  0  0  0  0  0  0
   -1.4358    1.6886    1.9811 C   0  0  0  0  0  0  0  0  0  0  0  0
   -2.4534    1.3471    1.7917 H   0  0  0  0  0  0  0  0  0  0  0  0
   -1.3401    2.1927    3.4240 C   0  0  0  0  0  0  0  0  0  0  0  0
   -0.3220    2.5235    3.6341 H   0  0  0  0  0  0  0  0  0  0  0  0
   -2.0235    3.0301    3.5664 H   0  0  0  0  0  0  0  0  0  0  0  0
   -1.6097    1.4054    4.1247 H   0  0  0  0  0  0  0  0  0  0  0  0
   -1.1507    2.8658    1.0493 C   0  0  0  0  0  0  0  0  0  0  0  0
   -1.2433    2.5434    0.0122 H   0  0  0  0  0  0  0  0  0  0  0  0
   -1.8699    3.6646    1.2303 H   0  0  0  0  0  0  0  0  0  0  0  0
   -0.1422    3.2442    1.2198 H   0  0  0  0  0  0  0  0  0  0  0  0
    0.5797   -1.1047    0.0256 C   0  0  0  0  0  0  0  0  0  0  0  0
    1.4881   -0.7892   -0.7395 O   0  0  0  0  0  0  0  0  0  0  0  0
    0.5307   -2.2976    0.6326 N   0  0  0  0  0  0  0  0  0  0  0  0
   -0.2435   -2.4801    1.2509 H   0  0  0  0  0  0  0  0  0  0  0  0
    1.5327   -3.3458    0.4534 C   0  0  0  0  0  0  0  0  0  0  0  0
    2.5149   -2.9717    0.7508 H   0  0  0  0  0  0  0  0  0  0  0  0
    1.2814   -4.2174    1.0596 H   0  0  0  0  0  0  0  0  0  0  0  0
    1.5768   -3.6375   -0.5971 H   0  0  0  0  0  0  0  0  0  0  0  0
  5  6  2  0  0  0  0
  5  7  1  0  0  0  0
  2  3  1  0  0  0  0
  2  4  1  0  0  0  0
  2  5  1  0  0  0  0
  1  2  1  0  0  0  0
 24 25  2  0  0  0  0
 24 26  1  0  0  0  0
 20 21  1  0  0  0  0
 20 22  1  0  0  0  0
 20 23  1  0  0  0  0
 16 17  1  0  0  0  0
 16 18  1  0  0  0  0
 16 19  1  0  0  0  0
 14 15  1  0  0  0  0
 14 16  1  0  0  0  0
 14 20  1  0  0  0  0
 11 12  1  0  0  0  0
 11 13  1  0  0  0  0
 11 14  1  0  0  0  0
  9 10  1  0  0  0  0
  9 11  1  0  0  0  0
  9 24  1  0  0  0  0
  7  8  1  0  0  0  0
  7  9  1  0  0  0  0
 28 29  1  0  0  0  0
 28 30  1  0  0  0  0
 28 31  1  0  0  0  0
 26 27  1  0  0  0  0
 26 28  1  0  0  0  0
M  END
$$$$
default_name
  -OEChem-01062215323D

 31 30  0     1  0  0  0  0  0999 V2000
   -3.5895   -3.5013    1.1082 H   0  0  0  0  0  0  0  0  0  0  0  0
   -3.5145   -2.5363    0.6082 C   0  0  0  0  0  0  0  0  0  0  0  0
   -4.2285   -1.8413    1.0452 H   0  0  0  0  0  0  0  0  0  0  0  0
   -3.7155   -2.6583   -0.4538 H   0  0  0  0  0  0  0  0  0  0  0  0
   -2.1155   -1.9963    0.7922 C   0  0  0  0  0  0  0  0  0  0  0  0
   -1.2875   -2.6383    1.4252 O   0  0  0  0  0  0  0  0  0  0  0  0
   -1.8575   -0.8123    0.2402 N   0  0  0  0  0  0  0  0  0  0  0  0
   -2.6005   -0.3333   -0.2478 H   0  0  0  0  0  0  0  0  0  0  0  0
   -0.5675   -0.1203    0.3102 C   0  0  1  0  0  0  0  0  0  0  0  0
   -0.5531    0.6536   -0.4581 H   0  0  0  0  0  0  0  0  0  0  0  0
   -0.4426    0.5471    1.6959 C   0  0  0  0  0  0  0  0  0  0  0  0
   -0.5671   -0.2186    2.4640 H   0  0  0  0  0  0  0  0  0  0  0  0
    0.5698    0.9464    1.7880 H   0  0  0  0  0  0  0  0  0  0  0  0
   -1.4358    1.6886    1.9811 C   0  0  0  0  0  0  0  0  0  0  0  0
   -2.4534    1.3471    1.7917 H   0  0  0  0  0  0  0  0  0  0  0  0
   -1.3401    2.1927    3.4240 C   0  0  0  0  0  0  0  0  0  0  0  0
   -0.3220    2.5235    3.6341 H   0  0  0  0  0  0  0  0  0  0  0  0
   -2.0235    3.0301    3.5664 H   0  0  0  0  0  0  0  0  0  0  0  0
   -1.6097    1.4054    4.1247 H   0  0  0  0  0  0  0  0  0  0  0  0
   -1.1507    2.8658    1.0493 C   0  0  0  0  0  0  0  0  0  0  0  0
   -1.2433    2.5434    0.0122 H   0  0  0  0  0  0  0  0  0  0  0  0
   -1.8699    3.6646    1.2303 H   0  0  0  0  0  0  0  0  0  0  0  0
   -0.1422    3.2442    1.2198 H   0  0  0  0  0  0  0  0  0  0  0  0
    0.5797   -1.1047    0.0256 C   0  0  0  0  0  0  0  0  0  0  0  0
    1.6146   -0.7092   -0.5060 O   0  0  0  0  0  0  0  0  0  0  0  0
    0.3903   -2.3852    0.3697 N   0  0  0  0  0  0  0  0  0  0  0  0
   -0.4833   -2.6312    0.8070 H   0  0  0  0  0  0  0  0  0  0  0  0
    1.3745   -3.4427    0.1510 C   0  0  0  0  0  0  0  0  0  0  0  0
    2.3031   -3.1954    0.6705 H   0  0  0  0  0  0  0  0  0  0  0  0
    0.9962   -4.3952    0.5252 H   0  0  0  0  0  0  0  0  0  0  0  0
    1.5877   -3.5328   -0.9153 H   0  0  0  0  0  0  0  0  0  0  0  0
  5  6  2  0  0  0  0
  5  7  1  0  0  0  0
  2  3  1  0  0  0  0
  2  4  1  0  0  0  0
  2  5  1  0  0  0  0
  1  2  1  0  0  0  0
 24 25  2  0  0  0  0
 24 26  1  0  0  0  0
 20 21  1  0  0  0  0
 20 22  1  0  0  0  0
 20 23  1  0  0  0  0
 16 17  1  0  0  0  0
 16 18  1  0  0  0  0
 16 19  1  0  0  0  0
 14 15  1  0  0  0  0
 14 16  1  0  0  0  0
 14 20  1  0  0  0  0
 11 12  1  0  0  0  0
 11 13  1  0  0  0  0
 11 14  1  0  0  0  0
  9 10  1  0  0  0  0
  9 11  1  0  0  0  0
  9 24  1  0  0  0  0
  7  8  1  0  0  0  0
  7  9  1  0  0  0  0
 28 29  1  0  0  0  0
 28 30  1  0  0  0  0
 28 31  1  0  0  0  0
 26 27  1  0  0  0  0
 26 28  1  0  0  0  0
M  END
$$$$
default_name
  -OEChem-01062215323D

 31 30  0     1  0  0  0  0  0999 V2000
   -3.5895   -3.5013    1.1082 H   0  0  0  0  0  0  0  0  0  0  0  0
   -3.5145   -2.5363    0.6082 C   0  0  0  0  0  0  0  0  0  0  0  0
   -4.2285   -1.8413    1.0452 H   0  0  0  0  0  0  0  0  0  0  0  0
   -3.7155   -2.6583   -0.4538 H   0  0  0  0  0  0  0  0  0  0  0  0
   -2.1155   -1.9963    0.7922 C   0  0  0  0  0  0  0  0  0  0  0  0
   -1.2875   -2.6383    1.4252 O   0  0  0  0  0  0  0  0  0  0  0  0
   -1.8575   -0.8123    0.2402 N   0  0  0  0  0  0  0  0  0  0  0  0
   -2.6005   -0.3333   -0.2478 H   0  0  0  0  0  0  0  0  0  0  0  0
   -0.5675   -0.1203    0.3102 C   0  0  1  0  0  0  0  0  0  0  0  0
   -0.5531    0.6536   -0.4581 H   0  0  0  0  0  0  0  0  0  0  0  0
   -0.4426    0.5471    1.6959 C   0  0  0  0  0  0  0  0  0  0  0  0
   -0.5671   -0.2186    2.4640 H   0  0  0  0  0  0  0  0  0  0  0  0
    0.5698    0.9464    1.7880 H   0  0  0  0  0  0  0  0  0  0  0  0
   -1.4358    1.6886    1.9811 C   0  0  0  0  0  0  0  0  0  0  0  0
   -2.4534    1.3471    1.7917 H   0  0  0  0  0  0  0  0  0  0  0  0
   -1.3401    2.1927    3.4240 C   0  0  0  0  0  0  0  0  0  0  0  0
   -0.3220    2.5235    3.6341 H   0  0  0  0  0  0  0  0  0  0  0  0
   -2.0235    3.0301    3.5664 H   0  0  0  0  0  0  0  0  0  0  0  0
   -1.6097    1.4054    4.1247 H   0  0  0  0  0  0  0  0  0  0  0  0
   -1.1507    2.8658    1.0493 C   0  0  0  0  0  0  0  0  0  0  0  0
   -1.2433    2.5434    0.0122 H   0  0  0  0  0  0  0  0  0  0  0  0
   -1.8699    3.6646    1.2303 H   0  0  0  0  0  0  0  0  0  0  0  0
   -0.1422    3.2442    1.2198 H   0  0  0  0  0  0  0  0  0  0  0  0
    0.5797   -1.1047    0.0256 C   0  0  0  0  0  0  0  0  0  0  0  0
    1.7020   -0.6831   -0.2440 O   0  0  0  0  0  0  0  0  0  0  0  0
    0.2941   -2.4123    0.0756 N   0  0  0  0  0  0  0  0  0  0  0  0
   -0.6486   -2.6800    0.3094 H   0  0  0  0  0  0  0  0  0  0  0  0
    1.2672   -3.4703   -0.1859 C   0  0  0  0  0  0  0  0  0  0  0  0
    2.1011   -3.3857    0.5147 H   0  0  0  0  0  0  0  0  0  0  0  0
    0.8008   -4.4502   -0.0726 H   0  0  0  0  0  0  0  0  0  0  0  0
    1.6560   -3.3708   -1.2005 H   0  0  0  0  0  0  0  0  0  0  0  0
  5  6  2  0  0  0  0
  5  7  1  0  0  0  0
  2  3  1  0  0  0  0
  2  4  1  0  0  0  0
  2  5  1  0  0  0  0
  1  2  1  0  0  0  0
 24 25  2  0  0  0  0
 24 26  1  0  0  0  0
 20 21  1  0  0  0  0
 20 22  1  0  0  0  0
 20 23  1  0  0  0  0
 16 17  1  0  0  0  0
 16 18  1  0  0  0  0
 16 19  1  0  0  0  0
 14 15  1  0  0  0  0
 14 16  1  0  0  0  0
 14 20  1  0  0  0  0
 11 12  1  0  0  0  0
 11 13  1  0  0  0  0
 11 14  1  0  0  0  0
  9 10  1  0  0  0  0
  9 11  1  0  0  0  0
  9 24  1  0  0  0  0
  7  8  1  0  0  0  0
  7  9  1  0  0  0  0
 28 29  1  0  0  0  0
 28 30  1  0  0  0  0
 28 31  1  0  0  0  0
 26 27  1  0  0  0  0
 26 28  1  0  0  0  0
M  END
$$$$
default_name
  -OEChem-01062215323D

 31 30  0     1  0  0  0  0  0999 V2000
   -3.5895   -3.5013    1.1082 H   0  0  0  0  0  0  0  0  0  0  0  0
   -3.5145   -2.5363    0.6082 C   0  0  0  0  0  0  0  0  0  0  0  0
   -4.2285   -1.8413    1.0452 H   0  0  0  0  0  0  0  0  0  0  0  0
   -3.7155   -2.6583   -0.4538 H   0  0  0  0  0  0  0  0  0  0  0  0
   -2.1155   -1.9963    0.7922 C   0  0  0  0  0  0  0  0  0  0  0  0
   -1.2875   -2.6383    1.4252 O   0  0  0  0  0  0  0  0  0  0  0  0
   -1.8575   -0.8123    0.2402 N   0  0  0  0  0  0  0  0  0  0  0  0
   -2.6005   -0.3333   -0.2478 H   0  0  0  0  0  0  0  0  0  0  0  0
   -0.5675   -0.1203    0.3102 C   0  0  1  0  0  0  0  0  0  0  0  0
   -0.5531    0.6536   -0.4581 H   0  0  0  0  0  0  0  0  0  0  0  0
   -0.4426    0.5471    1.6959 C   0  0  0  0  0  0  0  0  0  0  0  0
   -0.5671   -0.2186    2.4640 H   0  0  0  0  0  0  0  0  0  0  0  0
    0.5698    0.9464    1.7880 H   0  0  0  0  0  0  0  0  0  0  0  0
   -1.4358    1.6886    1.9811 C   0  0  0  0  0  0  0  0  0  0  0  0
   -2.4534    1.3471    1.7917 H   0  0  0  0  0  0  0  0  0  0  0  0
   -1.3401    2.1927    3.4240 C   0  0  0  0  0  0  0  0  0  0  0  0
   -0.3220    2.5235    3.6341 H   0  0  0  0  0  0  0  0  0  0  0  0
   -2.0235    3.0301    3.5664 H   0  0  0  0  0  0  0  0  0  0  0  0
   -1.6097    1.4054    4.1247 H   0  0  0  0  0  0  0  0  0  0  0  0
   -1.1507    2.8658    1.0493 C   0  0  0  0  0  0  0  0  0  0  0  0
   -1.2433    2.5434    0.0122 H   0  0  0  0  0  0  0  0  0  0  0  0
   -1.8699    3.6646    1.2303 H   0  0  0  0  0  0  0  0  0  0  0  0
   -0.1422    3.2442    1.2198 H   0  0  0  0  0  0  0  0  0  0  0  0
    0.5797   -1.1047    0.0256 C   0  0  0  0  0  0  0  0  0  0  0  0
    1.7443   -0.7126    0.0286 O   0  0  0  0  0  0  0  0  0  0  0  0
    0.2485   -2.3771   -0.2297 N   0  0  0  0  0  0  0  0  0  0  0  0
   -0.7282   -2.6231   -0.2080 H   0  0  0  0  0  0  0  0  0  0  0  0
    1.2180   -3.4269   -0.5344 C   0  0  0  0  0  0  0  0  0  0  0  0
    1.9226   -3.5298    0.2939 H   0  0  0  0  0  0  0  0  0  0  0  0
    0.7084   -4.3785   -0.6931 H   0  0  0  0  0  0  0  0  0  0  0  0
    1.7769   -3.1626   -1.4335 H   0  0  0  0  0  0  0  0  0  0  0  0
  5  6  2  0  0  0  0
  5  7  1  0  0  0  0
  2  3  1  0  0  0  0
  2  4  1  0  0  0  0
  2  5  1  0  0  0  0
  1  2  1  0  0  0  0
 24 25  2  0  0  0  0
 24 26  1  0  0  0  0
 20 21  1  0  0  0  0
 20 22  1  0  0  0  0
 20 23  1  0  0  0  0
 16 17  1  0  0  0  0
 16 18  1  0  0  0  0
 16 19  1  0  0  0  0
 14 15  1  0  0  0  0
 14 16  1  0  0  0  0
 14 20  1  0  0  0  0
 11 12  1  0  0  0  0
 11 13  1  0  0  0  0
 11 14  1  0  0  0  0
  9 10  1  0  0  0  0
  9 11  1  0  0  0  0
  9 24  1  0  0  0  0
  7  8  1  0  0  0  0
  7  9  1  0  0  0  0
 28 29  1  0  0  0  0
 28 30  1  0  0  0  0
 28 31  1  0  0  0  0
 26 27  1  0  0  0  0
 26 28  1  0  0  0  0
M  END
$$$$
default_name
  -OEChem-01062215323D

 31 30  0     1  0  0  0  0  0999 V2000
   -3.5895   -3.5013    1.1082 H   0  0  0  0  0  0  0  0  0  0  0  0
   -3.5145   -2.5363    0.6082 C   0  0  0  0  0  0  0  0  0  0  0  0
   -4.2285   -1.8413    1.0452 H   0  0  0  0  0  0  0  0  0  0  0  0
   -3.7155   -2.6583   -0.4538 H   0  0  0  0  0  0  0  0  0  0  0  0
   -2.1155   -1.9963    0.7922 C   0  0  0  0  0  0  0  0  0  0  0  0
   -1.2875   -2.6383    1.4252 O   0  0  0  0  0  0  0  0  0  0  0  0
   -1.8575   -0.8123    0.2402 N   0  0  0  0  0  0  0  0  0  0  0  0
   -2.6005   -0.3333   -0.2478 H   0  0  0  0  0  0  0  0  0  0  0  0
   -0.5675   -0.1203    0.3102 C   0  0  1  0  0  0  0  0  0  0  0  0
   -0.5531    0.6536   -0.4581 H   0  0  0  0  0  0  0  0  0  0  0  0
   -0.4426    0.5471    1.6959 C   0  0  0  0  0  0  0  0  0  0  0  0
   -0.5671   -0.2186    2.4640 H   0  0  0  0  0  0  0  0  0  0  0  0
    0.5698    0.9464    1.7880 H   0  0  0  0  0  0  0  0  0  0  0  0
   -1.4358    1.6886    1.9811 C   0  0  0  0  0  0  0  0  0  0  0  0
   -2.4534    1.3471    1.7917 H   0  0  0  0  0  0  0  0  0  0  0  0
   -1.3401    2.1927    3.4240 C   0  0  0  0  0  0  0  0  0  0  0  0
   -0.3220    2.5235    3.6341 H   0  0  0  0  0  0  0  0  0  0  0  0
   -2.0235    3.0301    3.5664 H   0  0  0  0  0  0  0  0  0  0  0  0
   -1.6097    1.4054    4.1247 H   0  0  0  0  0  0  0  0  0  0  0  0
   -1.1507    2.8658    1.0493 C   0  0  0  0  0  0  0  0  0  0  0  0
   -1.2433    2.5434    0.0122 H   0  0  0  0  0  0  0  0  0  0  0  0
   -1.8699    3.6646    1.2303 H   0  0  0  0  0  0  0  0  0  0  0  0
   -0.1422    3.2442    1.2198 H   0  0  0  0  0  0  0  0  0  0  0  0
    0.5797   -1.1047    0.0256 C   0  0  0  0  0  0  0  0  0  0  0  0
    1.7386   -0.7958    0.2932 O   0  0  0  0  0  0  0  0  0  0  0  0
    0.2568   -2.2820   -0.5253 N   0  0  0  0  0  0  0  0  0  0  0  0
   -0.7166   -2.4646   -0.7100 H   0  0  0  0  0  0  0  0  0  0  0  0
    1.2303   -3.3153   -0.8708 C   0  0  0  0  0  0  0  0  0  0  0  0
    1.7799   -3.6179    0.0234 H   0  0  0  0  0  0  0  0  0  0  0  0
    0.7254   -4.1851   -1.2938 H   0  0  0  0  0  0  0  0  0  0  0  0
    1.9423   -2.9222   -1.5983 H   0  0  0  0  0  0  0  0  0  0  0  0
  5  6  2  0  0  0  0
  5  7  1  0  0  0  0
  2  3  1  0  0  0  0
  2  4  1  0  0  0  0
  2  5  1  0  0  0  0
  1  2  1  0  0  0  0
 24 25  2  0  0  0  0
 24 26  1  0  0  0  0
 20 21  1  0  0  0  0
 20 22  1  0  0  0  0
 20 23  1  0  0  0  0
 16 17  1  0  0  0  0
 16 18  1  0  0  0  0
 16 19  1  0  0  0  0
 14 15  1  0  0  0  0
 14 16  1  0  0  0  0
 14 20  1  0  0  0  0
 11 12  1  0  0  0  0
 11 13  1  0  0  0  0
 11 14  1  0  0  0  0
  9 10  1  0  0  0  0
  9 11  1  0  0  0  0
  9 24  1  0  0  0  0
  7  8  1  0  0  0  0
  7  9  1  0  0  0  0
 28 29  1  0  0  0  0
 28 30  1  0  0  0  0
 28 31  1  0  0  0  0
 26 27  1  0  0  0  0
 26 28  1  0  0  0  0
M  END
$$$$
default_name
  -OEChem-01062215323D

 31 30  0     1  0  0  0  0  0999 V2000
   -3.5895   -3.5013    1.1082 H   0  0  0  0  0  0  0  0  0  0  0  0
   -3.5145   -2.5363    0.6082 C   0  0  0  0  0  0  0  0  0  0  0  0
   -4.2285   -1.8413    1.0452 H   0  0  0  0  0  0  0  0  0  0  0  0
   -3.7155   -2.6583   -0.4538 H   0  0  0  0  0  0  0  0  0  0  0  0
   -2.1155   -1.9963    0.7922 C   0  0  0  0  0  0  0  0  0  0  0  0
   -1.2875   -2.6383    1.4252 O   0  0  0  0  0  0  0  0  0  0  0  0
   -1.8575   -0.8123    0.2402 N   0  0  0  0  0  0  0  0  0  0  0  0
   -2.6005   -0.3333   -0.2478 H   0  0  0  0  0  0  0  0  0  0  0  0
   -0.5675   -0.1203    0.3102 C   0  0  1  0  0  0  0  0  0  0  0  0
   -0.5531    0.6536   -0.4581 H   0  0  0  0  0  0  0  0  0  0  0  0
   -0.4426    0.5471    1.6959 C   0  0  0  0  0  0  0  0  0  0  0  0
   -0.5671   -0.2186    2.4640 H   0  0  0  0  0  0  0  0  0  0  0  0
    0.5698    0.9464    1.7880 H   0  0  0  0  0  0  0  0  0  0  0  0
   -1.4358    1.6886    1.9811 C   0  0  0  0  0  0  0  0  0  0  0  0
   -2.4534    1.3471    1.7917 H   0  0  0  0  0  0  0  0  0  0  0  0
   -1.3401    2.1927    3.4240 C   0  0  0  0  0  0  0  0  0  0  0  0
   -0.3220    2.5235    3.6341 H   0  0  0  0  0  0  0  0  0  0  0  0
   -2.0235    3.0301    3.5664 H   0  0  0  0  0  0  0  0  0  0  0  0
   -1.6097    1.4054    4.1247 H   0  0  0  0  0  0  0  0  0  0  0  0
   -1.1507    2.8658    1.0493 C   0  0  0  0  0  0  0  0  0  0  0  0
   -1.2433    2.5434    0.0122 H   0  0  0  0  0  0  0  0  0  0  0  0
   -1.8699    3.6646    1.2303 H   0  0  0  0  0  0  0  0  0  0  0  0
   -0.1422    3.2442    1.2198 H   0  0  0  0  0  0  0  0  0  0  0  0
    0.5797   -1.1047    0.0256 C   0  0  0  0  0  0  0  0  0  0  0  0
    1.6852   -0.9269    0.5318 O   0  0  0  0  0  0  0  0  0  0  0  0
    0.3183   -2.1335   -0.7911 N   0  0  0  0  0  0  0  0  0  0  0  0
   -0.6147   -2.2150   -1.1624 H   0  0  0  0  0  0  0  0  0  0  0  0
    1.3033   -3.1431   -1.1722 C   0  0  0  0  0  0  0  0  0  0  0  0
    1.6827   -3.6439   -0.2786 H   0  0  0  0  0  0  0  0  0  0  0  0
    0.8505   -3.8831   -1.8339 H   0  0  0  0  0  0  0  0  0  0  0  0
    2.1408   -2.6662   -1.6837 H   0  0  0  0  0  0  0  0  0  0  0  0
  5  6  2  0  0  0  0
  5  7  1  0  0  0  0
  2  3  1  0  0  0  0
  2  4  1  0  0  0  0
  2  5  1  0  0  0  0
  1  2  1  0  0  0  0
 24 25  2  0  0  0  0
 24 26  1  0  0  0  0
 20 21  1  0  0  0  0
 20 22  1  0  0  0  0
 20 23  1  0  0  0  0
 16 17  1  0  0  0  0
 16 18  1  0  0  0  0
 16 19  1  0  0  0  0
 14 15  1  0  0  0  0
 14 16  1  0  0  0  0
 14 20  1  0  0  0  0
 11 12  1  0  0  0  0
 11 13  1  0  0  0  0
 11 14  1  0  0  0  0
  9 10  1  0  0  0  0
  9 11  1  0  0  0  0
  9 24  1  0  0  0  0
  7  8  1  0  0  0  0
  7  9  1  0  0  0  0
 28 29  1  0  0  0  0
 28 30  1  0  0  0  0
 28 31  1  0  0  0  0
 26 27  1  0  0  0  0
 26 28  1  0  0  0  0
M  END
$$$$
default_name
  -OEChem-01062215323D

 31 30  0     1  0  0  0  0  0999 V2000
   -3.5895   -3.5013    1.1082 H   0  0  0  0  0  0  0  0  0  0  0  0
   -3.5145   -2.5363    0.6082 C   0  0  0  0  0  0  0  0  0  0  0  0
   -4.2285   -1.8413    1.0452 H   0  0  0  0  0  0  0  0  0  0  0  0
   -3.7155   -2.6583   -0.4538 H   0  0  0  0  0  0  0  0  0  0  0  0
   -2.1155   -1.9963    0.7922 C   0  0  0  0  0  0  0  0  0  0  0  0
   -1.2875   -2.6383    1.4252 O   0  0  0  0  0  0  0  0  0  0  0  0
   -1.8575   -0.8123    0.2402 N   0  0  0  0  0  0  0  0  0  0  0  0
   -2.6005   -0.3333   -0.2478 H   0  0  0  0  0  0  0  0  0  0  0  0
   -0.5675   -0.1203    0.3102 C   0  0  1  0  0  0  0  0  0  0  0  0
   -0.5531    0.6536   -0.4581 H   0  0  0  0  0  0  0  0  0  0  0  0
   -0.4426    0.5471    1.6959 C   0  0  0  0  0  0  0  0  0  0  0  0
   -0.5671   -0.2186    2.4640 H   0  0  0  0  0  0  0  0  0  0  0  0
    0.5698    0.9464    1.7880 H   0  0  0  0  0  0  0  0  0  0  0  0
   -1.4358    1.6886    1.9811 C   0  0  0  0  0  0  0  0  0  0  0  0
   -2.4534    1.3471    1.7917 H   0  0  0  0  0  0  0  0  0  0  0  0
   -1.3401    2.1927    3.4240 C   0  0  0  0  0  0  0  0  0  0  0  0
   -0.3220    2.5235    3.6341 H   0  0  0  0  0  0  0  0  0  0  0  0
   -2.0235    3.0301    3.5664 H   0  0  0  0  0  0  0  0  0  0  0  0
   -1.6097    1.4054    4.1247 H   0  0  0  0  0  0  0  0  0  0  0  0
   -1.1507    2.8658    1.0493 C   0  0  0  0  0  0  0  0  0  0  0  0
   -1.2433    2.5434    0.0122 H   0  0  0  0  0  0  0  0  0  0  0  0
   -1.8699    3.6646    1.2303 H   0  0  0  0  0  0  0  0  0  0  0  0
   -0.1422    3.2442    1.2198 H   0  0  0  0  0  0  0  0  0  0  0  0
    0.5797   -1.1047    0.0256 C   0  0  0  0  0  0  0  0  0  0  0  0
    1.5879   -1.0971    0.7281 O   0  0  0  0  0  0  0  0  0  0  0  0
    0.4289   -1.9417   -1.0091 N   0  0  0  0  0  0  0  0  0  0  0  0
   -0.4294   -1.8916   -1.5343 H   0  0  0  0  0  0  0  0  0  0  0  0
    1.4320   -2.9222   -1.4180 C   0  0  0  0  0  0  0  0  0  0  0  0
    1.6375   -3.6061   -0.5914 H   0  0  0  0  0  0  0  0  0  0  0  0
    1.0753   -3.4931   -2.2766 H   0  0  0  0  0  0  0  0  0  0  0  0
    2.3590   -2.4119   -1.6839 H   0  0  0  0  0  0  0  0  0  0  0  0
  5  6  2  0  0  0  0
  5  7  1  0  0  0  0
  2  3  1  0  0  0  0
  2  4  1  0  0  0  0
  2  5  1  0  0  0  0
  1  2  1  0  0  0  0
 24 25  2  0  0  0  0
 24 26  1  0  0  0  0
 20 21  1  0  0  0  0
 20 22  1  0  0  0  0
 20 23  1  0  0  0  0
 16 17  1  0  0  0  0
 16 18  1  0  0  0  0
 16 19  1  0  0  0  0
 14 15  1  0  0  0  0
 14 16  1  0  0  0  0
 14 20  1  0  0  0  0
 11 12  1  0  0  0  0
 11 13  1  0  0  0  0
 11 14  1  0  0  0  0
  9 10  1  0  0  0  0
  9 11  1  0  0  0  0
  9 24  1  0  0  0  0
  7  8  1  0  0  0  0
  7  9  1  0  0  0  0
 28 29  1  0  0  0  0
 28 30  1  0  0  0  0
 28 31  1  0  0  0  0
 26 27  1  0  0  0  0
 26 28  1  0  0  0  0
M  END
$$$$
default_name
  -OEChem-01062215323D

 31 30  0     1  0  0  0  0  0999 V2000
   -3.5895   -3.5013    1.1082 H   0  0  0  0  0  0  0  0  0  0  0  0
   -3.5145   -2.5363    0.6082 C   0  0  0  0  0  0  0  0  0  0  0  0
   -4.2285   -1.8413    1.0452 H   0  0  0  0  0  0  0  0  0  0  0  0
   -3.7155   -2.6583   -0.4538 H   0  0  0  0  0  0  0  0  0  0  0  0
   -2.1155   -1.9963    0.7922 C   0  0  0  0  0  0  0  0  0  0  0  0
   -1.2875   -2.6383    1.4252 O   0  0  0  0  0  0  0  0  0  0  0  0
   -1.8575   -0.8123    0.2402 N   0  0  0  0  0  0  0  0  0  0  0  0
   -2.6005   -0.3333   -0.2478 H   0  0  0  0  0  0  0  0  0  0  0  0
   -0.5675   -0.1203    0.3102 C   0  0  1  0  0  0  0  0  0  0  0  0
   -0.5531    0.6536   -0.4581 H   0  0  0  0  0  0  0  0  0  0  0  0
   -0.4426    0.5471    1.6959 C   0  0  0  0  0  0  0  0  0  0  0  0
   -0.5671   -0.2186    2.4640 H   0  0  0  0  0  0  0  0  0  0  0  0
    0.5698    0.9464    1.7880 H   0  0  0  0  0  0  0  0  0  0  0  0
   -1.4358    1.6886    1.9811 C   0  0  0  0  0  0  0  0  0  0  0  0
   -2.4534    1.3471    1.7917 H   0  0  0  0  0  0  0  0  0  0  0  0
   -1.3401    2.1927    3.4240 C   0  0  0  0  0  0  0  0  0  0  0  0
   -0.3220    2.5235    3.6341 H   0  0  0  0  0  0  0  0  0  0  0  0
   -2.0235    3.0301    3.5664 H   0  0  0  0  0  0  0  0  0  0  0  0
   -1.6097    1.4054    4.1247 H   0  0  0  0  0  0  0  0  0  0  0  0
   -1.1507    2.8658    1.0493 C   0  0  0  0  0  0  0  0  0  0  0  0
   -1.2433    2.5434    0.0122 H   0  0  0  0  0  0  0  0  0  0  0  0
   -1.8699    3.6646    1.2303 H   0  0  0  0  0  0  0  0  0  0  0  0
   -0.1422    3.2442    1.2198 H   0  0  0  0  0  0  0  0  0  0  0  0
    0.5797   -1.1047    0.0256 C   0  0  0  0  0  0  0  0  0  0  0  0
    1.4532   -1.2947    0.8688 O   0  0  0  0  0  0  0  0  0  0  0  0
    0.5809   -1.7197   -1.1642 N   0  0  0  0  0  0  0  0  0  0  0  0
   -0.1733   -1.5162   -1.8004 H   0  0  0  0  0  0  0  0  0  0  0  0
    1.6075   -2.6675   -1.5915 C   0  0  0  0  0  0  0  0  0  0  0  0
    1.6476   -3.5070   -0.8938 H   0  0  0  0  0  0  0  0  0  0  0  0
    1.3845   -3.0418   -2.5917 H   0  0  0  0  0  0  0  0  0  0  0  0
    2.5820   -2.1766   -1.5988 H   0  0  0  0  0  0  0  0  0  0  0  0
  5  6  2  0  0  0  0
  5  7  1  0  0  0  0
  2  3  1  0  0  0  0
  2  4  1  0  0  0  0
  2  5  1  0  0  0  0
  1  2  1  0  0  0  0
 24 25  2  0  0  0  0
 24 26  1  0  0  0  0
 20 21  1  0  0  0  0
 20 22  1  0  0  0  0
 20 23  1  0  0  0  0
 16 17  1  0  0  0  0
 16 18  1  0  0  0  0
 16 19  1  0  0  0  0
 14 15  1  0  0  0  0
 14 16  1  0  0  0  0
 14 20  1  0  0  0  0
 11 12  1  0  0  0  0
 11 13  1  0  0  0  0
 11 14  1  0  0  0  0
  9 10  1  0  0  0  0
  9 11  1  0  0  0  0
  9 24  1  0  0  0  0
  7  8  1  0  0  0  0
  7  9  1  0  0  0  0
 28 29  1  0  0  0  0
 28 30  1  0  0  0  0
 28 31  1  0  0  0  0
 26 27  1  0  0  0  0
 26 28  1  0  0  0  0
M  END
$$$$
default_name
  -OEChem-01062215323D

 31 30  0     1  0  0  0  0  0999 V2000
   -3.5895   -3.5013    1.1082 H   0  0  0  0  0  0  0  0  0  0  0  0
   -3.5145   -2.5363    0.6082 C   0  0  0  0  0  0  0  0  0  0  0  0
   -4.2285   -1.8413    1.0452 H   0  0  0  0  0  0  0  0  0  0  0  0
   -3.7155   -2.6583   -0.4538 H   0  0  0  0  0  0  0  0  0  0  0  0
   -2.1155   -1.9963    0.7922 C   0  0  0  0  0  0  0  0  0  0  0  0
   -1.2875   -2.6383    1.4252 O   0  0  0  0  0  0  0  0  0  0  0  0
   -1.8575   -0.8123    0.2402 N   0  0  0  0  0  0  0  0  0  0  0  0
   -2.6005   -0.3333   -0.2478 H   0  0  0  0  0  0  0  0  0  0  0  0
   -0.5675   -0.1203    0.3102 C   0  0  1  0  0  0  0  0  0  0  0  0
   -0.5531    0.6536   -0.4581 H   0  0  0  0  0  0  0  0  0  0  0  0
   -0.4426    0.5471    1.6959 C   0  0  0  0  0  0  0  0  0  0  0  0
   -0.5671   -0.2186    2.4640 H   0  0  0  0  0  0  0  0  0  0  0  0
    0.5698    0.9464    1.7880 H   0  0  0  0  0  0  0  0  0  0  0  0
   -1.4358    1.6886    1.9811 C   0  0  0  0  0  0  0  0  0  0  0  0
   -2.4534    1.3471    1.7917 H   0  0  0  0  0  0  0  0  0  0  0  0
   -1.3401    2.1927    3.4240 C   0  0  0  0  0  0  0  0  0  0  0  0
   -0.3220    2.5235    3.6341 H   0  0  0  0  0  0  0  0  0  0  0  0
   -2.0235    3.0301    3.5664 H   0  0  0  0  0  0  0  0  0  0  0  0
   -1.6097    1.4054    4.1247 H   0  0  0  0  0  0  0  0  0  0  0  0
   -1.1507    2.8658    1.0493 C   0  0  0  0  0  0  0  0  0  0  0  0
   -1.2433    2.5434    0.0122 H   0  0  0  0  0  0  0  0  0  0  0  0
   -1.8699    3.6646    1.2303 H   0  0  0  0  0  0  0  0  0  0  0  0
   -0.1422    3.2442    1.2198 H   0  0  0  0  0  0  0  0  0  0  0  0
    0.5797   -1.1047    0.0256 C   0  0  0  0  0  0  0  0  0  0  0  0
    1.2904   -1.5062    0.9442 O   0  0  0  0  0  0  0  0  0  0  0  0
    0.7641   -1.4825   -1.2460 N   0  0  0  0  0  0  0  0  0  0  0  0
    0.1362   -1.1145   -1.9426 H   0  0  0  0  0  0  0  0  0  0  0  0
    1.8180   -2.3964   -1.6808 C   0  0  0  0  0  0  0  0  0  0  0  0
    1.7121   -3.3534   -1.1650 H   0  0  0  0  0  0  0  0  0  0  0  0
    1.7569   -2.5598   -2.7578 H   0  0  0  0  0  0  0  0  0  0  0  0
    2.7945   -1.9765   -1.4343 H   0  0  0  0  0  0  0  0  0  0  0  0
  5  6  2  0  0  0  0
  5  7  1  0  0  0  0
  2  3  1  0  0  0  0
  2  4  1  0  0  0  0
  2  5  1  0  0  0  0
  1  2  1  0  0  0  0
 24 25  2  0  0  0  0
 24 26  1  0  0  0  0
 20 21  1  0  0  0  0
 20 22  1  0  0  0  0
 20 23  1  0  0  0  0
 16 17  1  0  0  0  0
 16 18  1  0  0  0  0
 16 19  1  0  0  0  0
 14 15  1  0  0  0  0
 14 16  1  0  0  0  0
 14 20  1  0  0  0  0
 11 12  1  0  0  0  0
 11 13  1  0  0  0  0
 11 14  1  0  0  0  0
  9 10  1  0  0  0  0
  9 11  1  0  0  0  0
  9 24  1  0  0  0  0
  7  8  1  0  0  0  0
  7  9  1  0  0  0  0
 28 29  1  0  0  0  0
 28 30  1  0  0  0  0
 28 31  1  0  0  0  0
 26 27  1  0  0  0  0
 26 28  1  0  0  0  0
M  END
$$$$
default_name
  -OEChem-01062215323D

 31 30  0     1  0  0  0  0  0999 V2000
   -3.5895   -3.5013    1.1082 H   0  0  0  0  0  0  0  0  0  0  0  0
   -3.5145   -2.5363    0.6082 C   0  0  0  0  0  0  0  0  0  0  0  0
   -4.2285   -1.8413    1.0452 H   0  0  0  0  0  0  0  0  0  0  0  0
   -3.7155   -2.6583   -0.4538 H   0  0  0  0  0  0  0  0  0  0  0  0
   -2.1155   -1.9963    0.7922 C   0  0  0  0  0  0  0  0  0  0  0  0
   -1.2875   -2.6383    1.4252 O   0  0  0  0  0  0  0  0  0  0  0  0
   -1.8575   -0.8123    0.2402 N   0  0  0  0  0  0  0  0  0  0  0  0
   -2.6005   -0.3333   -0.2478 H   0  0  0  0  0  0  0  0  0  0  0  0
   -0.5675   -0.1203    0.3102 C   0  0  1  0  0  0  0  0  0  0  0  0
   -0.5531    0.6536   -0.4581 H   0  0  0  0  0  0  0  0  0  0  0  0
   -0.4426    0.5471    1.6959 C   0  0  0  0  0  0  0  0  0  0  0  0
   -0.5671   -0.2186    2.4640 H   0  0  0  0  0  0  0  0  0  0  0  0
    0.5698    0.9464    1.7880 H   0  0  0  0  0  0  0  0  0  0  0  0
   -1.4358    1.6886    1.9811 C   0  0  0  0  0  0  0  0  0  0  0  0
   -2.4534    1.3471    1.7917 H   0  0  0  0  0  0  0  0  0  0  0  0
   -1.3401    2.1927    3.4240 C   0  0  0  0  0  0  0  0  0  0  0  0
   -0.3220    2.5235    3.6341 H   0  0  0  0  0  0  0  0  0  0  0  0
   -2.0235    3.0301    3.5664 H   0  0  0  0  0  0  0  0  0  0  0  0
   -1.6097    1.4054    4.1247 H   0  0  0  0  0  0  0  0  0  0  0  0
   -1.1507    2.8658    1.0493 C   0  0  0  0  0  0  0  0  0  0  0  0
   -1.2433    2.5434    0.0122 H   0  0  0  0  0  0  0  0  0  0  0  0
   -1.8699    3.6646    1.2303 H   0  0  0  0  0  0  0  0  0  0  0  0
   -0.1422    3.2442    1.2198 H   0  0  0  0  0  0  0  0  0  0  0  0
    0.5797   -1.1047    0.0256 C   0  0  0  0  0  0  0  0  0  0  0  0
    1.1105   -1.7173    0.9492 O   0  0  0  0  0  0  0  0  0  0  0  0
    0.9660   -1.2464   -1.2489 N   0  0  0  0  0  0  0  0  0  0  0  0
    0.4778   -0.7139   -1.9512 H   0  0  0  0  0  0  0  0  0  0  0  0
    2.0491   -2.1273   -1.6798 C   0  0  0  0  0  0  0  0  0  0  0  0
    1.8267   -3.1558   -1.3867 H   0  0  0  0  0  0  0  0  0  0  0  0
    2.1673   -2.0800   -2.7635 H   0  0  0  0  0  0  0  0  0  0  0  0
    2.9822   -1.8252   -1.2016 H   0  0  0  0  0  0  0  0  0  0  0  0
  5  6  2  0  0  0  0
  5  7  1  0  0  0  0
  2  3  1  0  0  0  0
  2  4  1  0  0  0  0
  2  5  1  0  0  0  0
  1  2  1  0  0  0  0
 24 25  2  0  0  0  0
 24 26  1  0  0  0  0
 20 21  1  0  0  0  0
 20 22  1  0  0  0  0
 20 23  1  0  0  0  0
 16 17  1  0  0  0  0
 16 18  1  0  0  0  0
 16 19  1  0  0  0  0
 14 15  1  0  0  0  0
 14 16  1  0  0  0  0
 14 20  1  0  0  0  0
 11 12  1  0  0  0  0
 11 13  1  0  0  0  0
 11 14  1  0  0  0  0
  9 10  1  0  0  0  0
  9 11  1  0  0  0  0
  9 24  1  0  0  0  0
  7  8  1  0  0  0  0
  7  9  1  0  0  0  0
 28 29  1  0  0  0  0
 28 30  1  0  0  0  0
 28 31  1  0  0  0  0
 26 27  1  0  0  0  0
 26 28  1  0  0  0  0
M  END
$$$$
default_name
  -OEChem-01062215323D

 31 30  0     1  0  0  0  0  0999 V2000
   -3.5895   -3.5013    1.1082 H   0  0  0  0  0  0  0  0  0  0  0  0
   -3.5145   -2.5363    0.6082 C   0  0  0  0  0  0  0  0  0  0  0  0
   -4.2285   -1.8413    1.0452 H   0  0  0  0  0  0  0  0  0  0  0  0
   -3.7155   -2.6583   -0.4538 H   0  0  0  0  0  0  0  0  0  0  0  0
   -2.1155   -1.9963    0.7922 C   0  0  0  0  0  0  0  0  0  0  0  0
   -1.2875   -2.6383    1.4252 O   0  0  0  0  0  0  0  0  0  0  0  0
   -1.8575   -0.8123    0.2402 N   0  0  0  0  0  0  0  0  0  0  0  0
   -2.6005   -0.3333   -0.2478 H   0  0  0  0  0  0  0  0  0  0  0  0
   -0.5675   -0.1203    0.3102 C   0  0  1  0  0  0  0  0  0  0  0  0
   -0.5531    0.6536   -0.4581 H   0  0  0  0  0  0  0  0  0  0  0  0
   -0.4426    0.5471    1.6959 C   0  0  0  0  0  0  0  0  0  0  0  0
   -0.5671   -0.2186    2.4640 H   0  0  0  0  0  0  0  0  0  0  0  0
    0.5698    0.9464    1.7880 H   0  0  0  0  0  0  0  0  0  0  0  0
   -1.4358    1.6886    1.9811 C   0  0  0  0  0  0  0  0  0  0  0  0
   -2.4534    1.3471    1.7917 H   0  0  0  0  0  0  0  0  0  0  0  0
   -1.3401    2.1927    3.4240 C   0  0  0  0  0  0  0  0  0  0  0  0
   -0.3220    2.5235    3.6341 H   0  0  0  0  0  0  0  0  0  0  0  0
   -2.0235    3.0301    3.5664 H   0  0  0  0  0  0  0  0  0  0  0  0
   -1.6097    1.4054    4.1247 H   0  0  0  0  0  0  0  0  0  0  0  0
   -1.1507    2.8658    1.0493 C   0  0  0  0  0  0  0  0  0  0  0  0
   -1.2433    2.5434    0.0122 H   0  0  0  0  0  0  0  0  0  0  0  0
   -1.8699    3.6646    1.2303 H   0  0  0  0  0  0  0  0  0  0  0  0
   -0.1422    3.2442    1.2198 H   0  0  0  0  0  0  0  0  0  0  0  0
    0.5797   -1.1047    0.0256 C   0  0  0  0  0  0  0  0  0  0  0  0
    0.9257   -1.9136    0.8835 O   0  0  0  0  0  0  0  0  0  0  0  0
    1.1728   -1.0275   -1.1727 N   0  0  0  0  0  0  0  0  0  0  0  0
    0.8284   -0.3417   -1.8255 H   0  0  0  0  0  0  0  0  0  0  0  0
    2.2851   -1.8787   -1.5887 C   0  0  0  0  0  0  0  0  0  0  0  0
    1.9835   -2.9276   -1.5437 H   0  0  0  0  0  0  0  0  0  0  0  0
    2.5875   -1.6352   -2.6084 H   0  0  0  0  0  0  0  0  0  0  0  0
    3.1321   -1.7328   -0.9165 H   0  0  0  0  0  0  0  0  0  0  0  0
  5  6  2  0  0  0  0
  5  7  1  0  0  0  0
  2  3  1  0  0  0  0
  2  4  1  0  0  0  0
  2  5  1  0  0  0  0
  1  2  1  0  0  0  0
 24 25  2  0  0  0  0
 24 26  1  0  0  0  0
 20 21  1  0  0  0  0
 20 22  1  0  0  0  0
 20 23  1  0  0  0  0
 16 17  1  0  0  0  0
 16 18  1  0  0  0  0
 16 19  1  0  0  0  0
 14 15  1  0  0  0  0
 14 16  1  0  0  0  0
 14 20  1  0  0  0  0
 11 12  1  0  0  0  0
 11 13  1  0  0  0  0
 11 14  1  0  0  0  0
  9 10  1  0  0  0  0
  9 11  1  0  0  0  0
  9 24  1  0  0  0  0
  7  8  1  0  0  0  0
  7  9  1  0  0  0  0
 28 29  1  0  0  0  0
 28 30  1  0  0  0  0
 28 31  1  0  0  0  0
 26 27  1  0  0  0  0
 26 28  1  0  0  0  0
M  END
$$$$
default_name
  -OEChem-01062215323D

 31 30  0     1  0  0  0  0  0999 V2000
   -3.5895   -3.5013    1.1082 H   0  0  0  0  0  0  0  0  0  0  0  0
   -3.5145   -2.5363    0.6082 C   0  0  0  0  0  0  0  0  0  0  0  0
   -4.2285   -1.8413    1.0452 H   0  0  0  0  0  0  0  0  0  0  0  0
   -3.7155   -2.6583   -0.4538 H   0  0  0  0  0  0  0  0  0  0  0  0
   -2.1155   -1.9963    0.7922 C   0  0  0  0  0  0  0  0  0  0  0  0
   -1.2875   -2.6383    1.4252 O   0  0  0  0  0  0  0  0  0  0  0  0
   -1.8575   -0.8123    0.2402 N   0  0  0  0  0  0  0  0  0  0  0  0
   -2.6005   -0.3333   -0.2478 H   0  0  0  0  0  0  0  0  0  0  0  0
   -0.5675   -0.1203    0.3102 C   0  0  1  0  0  0  0  0  0  0  0  0
   -0.5531    0.6536   -0.4581 H   0  0  0  0  0  0  0  0  0  0  0  0
   -0.4426    0.5471    1.6959 C   0  0  0  0  0  0  0  0  0  0  0  0
   -0.5671   -0.2186    2.4640 H   0  0  0  0  0  0  0  0  0  0  0  0
    0.5698    0.9464    1.7880 H   0  0  0  0  0  0  0  0  0  0  0  0
   -1.4358    1.6886    1.9811 C   0  0  0  0  0  0  0  0  0  0  0  0
   -2.4534    1.3471    1.7917 H   0  0  0  0  0  0  0  0  0  0  0  0
   -1.3401    2.1927    3.4240 C   0  0  0  0  0  0  0  0  0  0  0  0
   -0.3220    2.5235    3.6341 H   0  0  0  0  0  0  0  0  0  0  0  0
   -2.0235    3.0301    3.5664 H   0  0  0  0  0  0  0  0  0  0  0  0
   -1.6097    1.4054    4.1247 H   0  0  0  0  0  0  0  0  0  0  0  0
   -1.1507    2.8658    1.0493 C   0  0  0  0  0  0  0  0  0  0  0  0
   -1.2433    2.5434    0.0122 H   0  0  0  0  0  0  0  0  0  0  0  0
   -1.8699    3.6646    1.2303 H   0  0  0  0  0  0  0  0  0  0  0  0
   -0.1422    3.2442    1.2198 H   0  0  0  0  0  0  0  0  0  0  0  0
    0.5797   -1.1047    0.0256 C   0  0  0  0  0  0  0  0  0  0  0  0
    0.7488   -2.0817    0.7516 O   0  0  0  0  0  0  0  0  0  0  0  0
    1.3704   -0.8406   -1.0226 N   0  0  0  0  0  0  0  0  0  0  0  0
    1.1641   -0.0232   -1.5742 H   0  0  0  0  0  0  0  0  0  0  0  0
    2.5098   -1.6675   -1.4136 C   0  0  0  0  0  0  0  0  0  0  0  0
    2.1720   -2.6844   -1.6254 H   0  0  0  0  0  0  0  0  0  0  0  0
    2.9891   -1.2555   -2.3031 H   0  0  0  0  0  0  0  0  0  0  0  0
    3.2341   -1.7059   -0.5985 H   0  0  0  0  0  0  0  0  0  0  0  0
  5  6  2  0  0  0  0
  5  7  1  0  0  0  0
  2  3  1  0  0  0  0
  2  4  1  0  0  0  0
  2  5  1  0  0  0  0
  1  2  1  0  0  0  0
 24 25  2  0  0  0  0
 24 26  1  0  0  0  0
 20 21  1  0  0  0  0
 20 22  1  0  0  0  0
 20 23  1  0  0  0  0
 16 17  1  0  0  0  0
 16 18  1  0  0  0  0
 16 19  1  0  0  0  0
 14 15  1  0  0  0  0
 14 16  1  0  0  0  0
 14 20  1  0  0  0  0
 11 12  1  0  0  0  0
 11 13  1  0  0  0  0
 11 14  1  0  0  0  0
  9 10  1  0  0  0  0
  9 11  1  0  0  0  0
  9 24  1  0  0  0  0
  7  8  1  0  0  0  0
  7  9  1  0  0  0  0
 28 29  1  0  0  0  0
 28 30  1  0  0  0  0
 28 31  1  0  0  0  0
 26 27  1  0  0  0  0
 26 28  1  0  0  0  0
M  END
$$$$
default_name
  -OEChem-01062215323D

 31 30  0     1  0  0  0  0  0999 V2000
   -3.5895   -3.5013    1.1082 H   0  0  0  0  0  0  0  0  0  0  0  0
   -3.5145   -2.5363    0.6082 C   0  0  0  0  0  0  0  0  0  0  0  0
   -4.2285   -1.8413    1.0452 H   0  0  0  0  0  0  0  0  0  0  0  0
   -3.7155   -2.6583   -0.4538 H   0  0  0  0  0  0  0  0  0  0  0  0
   -2.1155   -1.9963    0.7922 C   0  0  0  0  0  0  0  0  0  0  0  0
   -1.2875   -2.6383    1.4252 O   0  0  0  0  0  0  0  0  0  0  0  0
   -1.8575   -0.8123    0.2402 N   0  0  0  0  0  0  0  0  0  0  0  0
   -2.6005   -0.3333   -0.2478 H   0  0  0  0  0  0  0  0  0  0  0  0
   -0.5675   -0.1203    0.3102 C   0  0  1  0  0  0  0  0  0  0  0  0
   -0.5531    0.6536   -0.4581 H   0  0  0  0  0  0  0  0  0  0  0  0
   -0.4426    0.5471    1.6959 C   0  0  0  0  0  0  0  0  0  0  0  0
   -0.5671   -0.2186    2.4640 H   0  0  0  0  0  0  0  0  0  0  0  0
    0.5698    0.9464    1.7880 H   0  0  0  0  0  0  0  0  0  0  0  0
   -1.4358    1.6886    1.9811 C   0  0  0  0  0  0  0  0  0  0  0  0
   -2.4534    1.3471    1.7917 H   0  0  0  0  0  0  0  0  0  0  0  0
   -1.3401    2.1927    3.4240 C   0  0  0  0  0  0  0  0  0  0  0  0
   -0.3220    2.5235    3.6341 H   0  0  0  0  0  0  0  0  0  0  0  0
   -2.0235    3.0301    3.5664 H   0  0  0  0  0  0  0  0  0  0  0  0
   -1.6097    1.4054    4.1247 H   0  0  0  0  0  0  0  0  0  0  0  0
   -1.1507    2.8658    1.0493 C   0  0  0  0  0  0  0  0  0  0  0  0
   -1.2433    2.5434    0.0122 H   0  0  0  0  0  0  0  0  0  0  0  0
   -1.8699    3.6646    1.2303 H   0  0  0  0  0  0  0  0  0  0  0  0
   -0.1422    3.2442    1.2198 H   0  0  0  0  0  0  0  0  0  0  0  0
    0.5797   -1.1047    0.0256 C   0  0  0  0  0  0  0  0  0  0  0  0
    0.5917   -2.2101    0.5624 O   0  0  0  0  0  0  0  0  0  0  0  0
    1.5454   -0.6986   -0.8088 N   0  0  0  0  0  0  0  0  0  0  0  0
    1.4620    0.2199   -1.2143 H   0  0  0  0  0  0  0  0  0  0  0  0
    2.7080   -1.5080   -1.1665 C   0  0  0  0  0  0  0  0  0  0  0  0
    2.3792   -2.4428   -1.6260 H   0  0  0  0  0  0  0  0  0  0  0  0
    3.3445   -0.9670   -1.8684 H   0  0  0  0  0  0  0  0  0  0  0  0
    3.2813   -1.7461   -0.2692 H   0  0  0  0  0  0  0  0  0  0  0  0
  5  6  2  0  0  0  0
  5  7  1  0  0  0  0
  2  3  1  0  0  0  0
  2  4  1  0  0  0  0
  2  5  1  0  0  0  0
  1  2  1  0  0  0  0
 24 25  2  0  0  0  0
 24 26  1  0  0  0  0
 20 21  1  0  0  0  0
 20 22  1  0  0  0  0
 20 23  1  0  0  0  0
 16 17  1  0  0  0  0
 16 18  1  0  0  0  0
 16 19  1  0  0  0  0
 14 15  1  0  0  0  0
 14 16  1  0  0  0  0
 14 20  1  0  0  0  0
 11 12  1  0  0  0  0
 11 13  1  0  0  0  0
 11 14  1  0  0  0  0
  9 10  1  0  0  0  0
  9 11  1  0  0  0  0
  9 24  1  0  0  0  0
  7  8  1  0  0  0  0
  7  9  1  0  0  0  0
 28 29  1  0  0  0  0
 28 30  1  0  0  0  0
 28 31  1  0  0  0  0
 26 27  1  0  0  0  0
 26 28  1  0  0  0  0
M  END
$$$$
default_name
  -OEChem-01062215323D

 31 30  0     1  0  0  0  0  0999 V2000
   -3.5895   -3.5013    1.1082 H   0  0  0  0  0  0  0  0  0  0  0  0
   -3.5145   -2.5363    0.6082 C   0  0  0  0  0  0  0  0  0  0  0  0
   -4.2285   -1.8413    1.0452 H   0  0  0  0  0  0  0  0  0  0  0  0
   -3.7155   -2.6583   -0.4538 H   0  0  0  0  0  0  0  0  0  0  0  0
   -2.1155   -1.9963    0.7922 C   0  0  0  0  0  0  0  0  0  0  0  0
   -1.2875   -2.6383    1.4252 O   0  0  0  0  0  0  0  0  0  0  0  0
   -1.8575   -0.8123    0.2402 N   0  0  0  0  0  0  0  0  0  0  0  0
   -2.6005   -0.3333   -0.2478 H   0  0  0  0  0  0  0  0  0  0  0  0
   -0.5675   -0.1203    0.3102 C   0  0  1  0  0  0  0  0  0  0  0  0
   -0.5531    0.6536   -0.4581 H   0  0  0  0  0  0  0  0  0  0  0  0
   -0.4426    0.5471    1.6959 C   0  0  0  0  0  0  0  0  0  0  0  0
   -0.5671   -0.2186    2.4640 H   0  0  0  0  0  0  0  0  0  0  0  0
    0.5698    0.9464    1.7880 H   0  0  0  0  0  0  0  0  0  0  0  0
   -1.4358    1.6886    1.9811 C   0  0  0  0  0  0  0  0  0  0  0  0
   -2.4534    1.3471    1.7917 H   0  0  0  0  0  0  0  0  0  0  0  0
   -1.3401    2.1927    3.4240 C   0  0  0  0  0  0  0  0  0  0  0  0
   -0.3220    2.5235    3.6341 H   0  0  0  0  0  0  0  0  0  0  0  0
   -2.0235    3.0301    3.5664 H   0  0  0  0  0  0  0  0  0  0  0  0
   -1.6097    1.4054    4.1247 H   0  0  0  0  0  0  0  0  0  0  0  0
   -1.1507    2.8658    1.0493 C   0  0  0  0  0  0  0  0  0  0  0  0
   -1.2433    2.5434    0.0122 H   0  0  0  0  0  0  0  0  0  0  0  0
   -1.8699    3.6646    1.2303 H   0  0  0  0  0  0  0  0  0  0  0  0
   -0.1422    3.2442    1.2198 H   0  0  0  0  0  0  0  0  0  0  0  0
    0.5797   -1.1047    0.0256 C   0  0  0  0  0  0  0  0  0  0  0  0
    0.4651   -2.2901    0.3289 O   0  0  0  0  0  0  0  0  0  0  0  0
    1.6857   -0.6110   -0.5459 N   0  0  0  0  0  0  0  0  0  0  0  0
    1.7018    0.3710   -0.7705 H   0  0  0  0  0  0  0  0  0  0  0  0
    2.8661   -1.4111   -0.8642 C   0  0  0  0  0  0  0  0  0  0  0  0
    2.5910   -2.2192   -1.5457 H   0  0  0  0  0  0  0  0  0  0  0  0
    3.6297   -0.7891   -1.3339 H   0  0  0  0  0  0  0  0  0  0  0  0
    3.2704   -1.8508    0.0489 H   0  0  0  0  0  0  0  0  0  0  0  0
  5  6  2  0  0  0  0
  5  7  1  0  0  0  0
  2  3  1  0  0  0  0
  2  4  1  0  0  0  0
  2  5  1  0  0  0  0
  1  2  1  0  0  0  0
 24 25  2  0  0  0  0
 24 26  1  0  0  0  0
 20 21  1  0  0  0  0
 20 22  1  0  0  0  0
 20 23  1  0  0  0  0
 16 17  1  0  0  0  0
 16 18  1  0  0  0  0
 16 19  1  0  0  0  0
 14 15  1  0  0  0  0
 14 16  1  0  0  0  0
 14 20  1  0  0  0  0
 11 12  1  0  0  0  0
 11 13  1  0  0  0  0
 11 14  1  0  0  0  0
  9 10  1  0  0  0  0
  9 11  1  0  0  0  0
  9 24  1  0  0  0  0
  7  8  1  0  0  0  0
  7  9  1  0  0  0  0
 28 29  1  0  0  0  0
 28 30  1  0  0  0  0
 28 31  1  0  0  0  0
 26 27  1  0  0  0  0
 26 28  1  0  0  0  0
M  END
$$$$
default_name
  -OEChem-01062215323D

 31 30  0     1  0  0  0  0  0999 V2000
   -3.5895   -3.5013    1.1082 H   0  0  0  0  0  0  0  0  0  0  0  0
   -3.5145   -2.5363    0.6082 C   0  0  0  0  0  0  0  0  0  0  0  0
   -4.2285   -1.8413    1.0452 H   0  0  0  0  0  0  0  0  0  0  0  0
   -3.7155   -2.6583   -0.4538 H   0  0  0  0  0  0  0  0  0  0  0  0
   -2.1155   -1.9963    0.7922 C   0  0  0  0  0  0  0  0  0  0  0  0
   -1.2875   -2.6383    1.4252 O   0  0  0  0  0  0  0  0  0  0  0  0
   -1.8575   -0.8123    0.2402 N   0  0  0  0  0  0  0  0  0  0  0  0
   -2.6005   -0.3333   -0.2478 H   0  0  0  0  0  0  0  0  0  0  0  0
   -0.5675   -0.1203    0.3102 C   0  0  1  0  0  0  0  0  0  0  0  0
   -0.5531    0.6536   -0.4581 H   0  0  0  0  0  0  0  0  0  0  0  0
   -0.4426    0.5471    1.6959 C   0  0  0  0  0  0  0  0  0  0  0  0
   -0.5671   -0.2186    2.4640 H   0  0  0  0  0  0  0  0  0  0  0  0
    0.5698    0.9464    1.7880 H   0  0  0  0  0  0  0  0  0  0  0  0
   -1.4358    1.6886    1.9811 C   0  0  0  0  0  0  0  0  0  0  0  0
   -2.4534    1.3471    1.7917 H   0  0  0  0  0  0  0  0  0  0  0  0
   -1.3401    2.1927    3.4240 C   0  0  0  0  0  0  0  0  0  0  0  0
   -0.3220    2.5235    3.6341 H   0  0  0  0  0  0  0  0  0  0  0  0
   -2.0235    3.0301    3.5664 H   0  0  0  0  0  0  0  0  0  0  0  0
   -1.6097    1.4054    4.1247 H   0  0  0  0  0  0  0  0  0  0  0  0
   -1.1507    2.8658    1.0493 C   0  0  0  0  0  0  0  0  0  0  0  0
   -1.2433    2.5434    0.0122 H   0  0  0  0  0  0  0  0  0  0  0  0
   -1.8699    3.6646    1.2303 H   0  0  0  0  0  0  0  0  0  0  0  0
   -0.1422    3.2442    1.2198 H   0  0  0  0  0  0  0  0  0  0  0  0
    0.5797   -1.1047    0.0256 C   0  0  0  0  0  0  0  0  0  0  0  0
    0.3777   -2.3162    0.0669 O   0  0  0  0  0  0  0  0  0  0  0  0
    1.7820   -0.5839   -0.2518 N   0  0  0  0  0  0  0  0  0  0  0  0
    1.8671    0.4198   -0.2729 H   0  0  0  0  0  0  0  0  0  0  0  0
    2.9734   -1.3834   -0.5273 C   0  0  0  0  0  0  0  0  0  0  0  0
    2.7931   -2.0288   -1.3899 H   0  0  0  0  0  0  0  0  0  0  0  0
    3.8251   -0.7342   -0.7361 H   0  0  0  0  0  0  0  0  0  0  0  0
    3.2021   -2.0128    0.3342 H   0  0  0  0  0  0  0  0  0  0  0  0
  5  6  2  0  0  0  0
  5  7  1  0  0  0  0
  2  3  1  0  0  0  0
  2  4  1  0  0  0  0
  2  5  1  0  0  0  0
  1  2  1  0  0  0  0
 24 25  2  0  0  0  0
 24 26  1  0  0  0  0
 20 21  1  0  0  0  0
 20 22  1  0  0  0  0
 20 23  1  0  0  0  0
 16 17  1  0  0  0  0
 16 18  1  0  0  0  0
 16 19  1  0  0  0  0
 14 15  1  0  0  0  0
 14 16  1  0  0  0  0
 14 20  1  0  0  0  0
 11 12  1  0  0  0  0
 11 13  1  0  0  0  0
 11 14  1  0  0  0  0
  9 10  1  0  0  0  0
  9 11  1  0  0  0  0
  9 24  1  0  0  0  0
  7  8  1  0  0  0  0
  7  9  1  0  0  0  0
 28 29  1  0  0  0  0
 28 30  1  0  0  0  0
 28 31  1  0  0  0  0
 26 27  1  0  0  0  0
 26 28  1  0  0  0  0
M  END
$$$$
default_name
  -OEChem-01062215323D

 31 30  0     1  0  0  0  0  0999 V2000
   -3.5895   -3.5013    1.1082 H   0  0  0  0  0  0  0  0  0  0  0  0
   -3.5145   -2.5363    0.6082 C   0  0  0  0  0  0  0  0  0  0  0  0
   -4.2285   -1.8413    1.0452 H   0  0  0  0  0  0  0  0  0  0  0  0
   -3.7155   -2.6583   -0.4538 H   0  0  0  0  0  0  0  0  0  0  0  0
   -2.1155   -1.9963    0.7922 C   0  0  0  0  0  0  0  0  0  0  0  0
   -1.2875   -2.6383    1.4252 O   0  0  0  0  0  0  0  0  0  0  0  0
   -1.8575   -0.8123    0.2402 N   0  0  0  0  0  0  0  0  0  0  0  0
   -2.6005   -0.3333   -0.2478 H   0  0  0  0  0  0  0  0  0  0  0  0
   -0.5675   -0.1203    0.3102 C   0  0  1  0  0  0  0  0  0  0  0  0
   -0.6468    0.8079   -0.2568 H   0  0  0  0  0  0  0  0  0  0  0  0
   -0.2711    0.2181    1.7862 C   0  0  0  0  0  0  0  0  0  0  0  0
   -0.3010   -0.7050    2.3683 H   0  0  0  0  0  0  0  0  0  0  0  0
    0.7457    0.6128    1.8442 H   0  0  0  0  0  0  0  0  0  0  0  0
   -1.2193    1.2383    2.4426 C   0  0  0  0  0  0  0  0  0  0  0  0
   -2.2531    0.9219    2.3045 H   0  0  0  0  0  0  0  0  0  0  0  0
   -0.9450    1.4040    3.9402 C   0  0  0  0  0  0  0  0  0  0  0  0
    0.0918    1.7053    4.0958 H   0  0  0  0  0  0  0  0  0  0  0  0
   -1.6041    2.1688    4.3517 H   0  0  0  0  0  0  0  0  0  0  0  0
   -1.1273    0.4713    4.4696 H   0  0  0  0  0  0  0  0  0  0  0  0
   -1.0495    2.6035    1.7771 C   0  0  0  0  0  0  0  0  0  0  0  0
   -1.2702    2.5226    0.7128 H   0  0  0  0  0  0  0  0  0  0  0  0
   -1.7394    3.3209    2.2214 H   0  0  0  0  0  0  0  0  0  0  0  0
   -0.0269    2.9599    1.9066 H   0  0  0  0  0  0  0  0  0  0  0  0
    0.5339   -0.9836   -0.3283 C   0  0  0  0  0  0  0  0  0  0  0  0
    0.2608   -2.0882   -0.7924 O   0  0  0  0  0  0  0  0  0  0  0  0
    1.7765   -0.4840   -0.3410 N   0  0  0  0  0  0  0  0  0  0  0  0
    1.9201    0.4317    0.0536 H   0  0  0  0  0  0  0  0  0  0  0  0
    2.9323   -1.1860   -0.8944 C   0  0  0  0  0  0  0  0  0  0  0  0
    2.7582   -1.4082   -1.9496 H   0  0  0  0  0  0  0  0  0  0  0  0
    3.8292   -0.5721   -0.7996 H   0  0  0  0  0  0  0  0  0  0  0  0
    3.0812   -2.1270   -0.3625 H   0  0  0  0  0  0  0  0  0  0  0  0
  5  6  2  0  0  0  0
  5  7  1  0  0  0  0
  2  3  1  0  0  0  0
  2  4  1  0  0  0  0
  2  5  1  0  0  0  0
  1  2  1  0  0  0  0
 24 25  2  0  0  0  0
 24 26  1  0  0  0  0
 20 21  1  0  0  0  0
 20 22  1  0  0  0  0
 20 23  1  0  0  0  0
 16 17  1  0  0  0  0
 16 18  1  0  0  0  0
 16 19  1  0  0  0  0
 14 15  1  0  0  0  0
 14 16  1  0  0  0  0
 14 20  1  0  0  0  0
 11 12  1  0  0  0  0
 11 13  1  0  0  0  0
 11 14  1  0  0  0  0
  9 10  1  0  0  0  0
  9 11  1  0  0  0  0
  9 24  1  0  0  0  0
  7  8  1  0  0  0  0
  7  9  1  0  0  0  0
 28 29  1  0  0  0  0
 28 30  1  0  0  0  0
 28 31  1  0  0  0  0
 26 27  1  0  0  0  0
 26 28  1  0  0  0  0
M  END
$$$$
default_name
  -OEChem-01062215323D

 31 30  0     1  0  0  0  0  0999 V2000
   -3.5895   -3.5013    1.1082 H   0  0  0  0  0  0  0  0  0  0  0  0
   -3.5145   -2.5363    0.6082 C   0  0  0  0  0  0  0  0  0  0  0  0
   -4.2285   -1.8413    1.0452 H   0  0  0  0  0  0  0  0  0  0  0  0
   -3.7155   -2.6583   -0.4538 H   0  0  0  0  0  0  0  0  0  0  0  0
   -2.1155   -1.9963    0.7922 C   0  0  0  0  0  0  0  0  0  0  0  0
   -1.2875   -2.6383    1.4252 O   0  0  0  0  0  0  0  0  0  0  0  0
   -1.8575   -0.8123    0.2402 N   0  0  0  0  0  0  0  0  0  0  0  0
   -2.6005   -0.3333   -0.2478 H   0  0  0  0  0  0  0  0  0  0  0  0
   -0.5675   -0.1203    0.3102 C   0  0  1  0  0  0  0  0  0  0  0  0
   -0.6468    0.8079   -0.2568 H   0  0  0  0  0  0  0  0  0  0  0  0
   -0.2711    0.2181    1.7862 C   0  0  0  0  0  0  0  0  0  0  0  0
   -0.3010   -0.7050    2.3683 H   0  0  0  0  0  0  0  0  0  0  0  0
    0.7457    0.6128    1.8442 H   0  0  0  0  0  0  0  0  0  0  0  0
   -1.2193    1.2383    2.4426 C   0  0  0  0  0  0  0  0  0  0  0  0
   -2.2531    0.9219    2.3045 H   0  0  0  0  0  0  0  0  0  0  0  0
   -0.9450    1.4040    3.9402 C   0  0  0  0  0  0  0  0  0  0  0  0
    0.0918    1.7053    4.0958 H   0  0  0  0  0  0  0  0  0  0  0  0
   -1.6041    2.1688    4.3517 H   0  0  0  0  0  0  0  0  0  0  0  0
   -1.1273    0.4713    4.4696 H   0  0  0  0  0  0  0  0  0  0  0  0
   -1.0495    2.6035    1.7771 C   0  0  0  0  0  0  0  0  0  0  0  0
   -1.2702    2.5226    0.7128 H   0  0  0  0  0  0  0  0  0  0  0  0
   -1.7394    3.3209    2.2214 H   0  0  0  0  0  0  0  0  0  0  0  0
   -0.0269    2.9599    1.9066 H   0  0  0  0  0  0  0  0  0  0  0  0
    0.5339   -0.9836   -0.3283 C   0  0  0  0  0  0  0  0  0  0  0  0
    0.2339   -1.9470   -1.0297 O   0  0  0  0  0  0  0  0  0  0  0  0
    1.8047   -0.6439   -0.0762 N   0  0  0  0  0  0  0  0  0  0  0  0
    1.9704    0.1631    0.5037 H   0  0  0  0  0  0  0  0  0  0  0  0
    2.9614   -1.3714   -0.5934 C   0  0  0  0  0  0  0  0  0  0  0  0
    2.9335   -1.3801   -1.6854 H   0  0  0  0  0  0  0  0  0  0  0  0
    3.8863   -0.8972   -0.2615 H   0  0  0  0  0  0  0  0  0  0  0  0
    2.9370   -2.4028   -0.2382 H   0  0  0  0  0  0  0  0  0  0  0  0
  5  6  2  0  0  0  0
  5  7  1  0  0  0  0
  2  3  1  0  0  0  0
  2  4  1  0  0  0  0
  2  5  1  0  0  0  0
  1  2  1  0  0  0  0
 24 25  2  0  0  0  0
 24 26  1  0  0  0  0
 20 21  1  0  0  0  0
 20 22  1  0  0  0  0
 20 23  1  0  0  0  0
 16 17  1  0  0  0  0
 16 18  1  0  0  0  0
 16 19  1  0  0  0  0
 14 15  1  0  0  0  0
 14 16  1  0  0  0  0
 14 20  1  0  0  0  0
 11 12  1  0  0  0  0
 11 13  1  0  0  0  0
 11 14  1  0  0  0  0
  9 10  1  0  0  0  0
  9 11  1  0  0  0  0
  9 24  1  0  0  0  0
  7  8  1  0  0  0  0
  7  9  1  0  0  0  0
 28 29  1  0  0  0  0
 28 30  1  0  0  0  0
 28 31  1  0  0  0  0
 26 27  1  0  0  0  0
 26 28  1  0  0  0  0
M  END
$$$$
default_name
  -OEChem-01062215323D

 31 30  0     1  0  0  0  0  0999 V2000
   -3.5895   -3.5013    1.1082 H   0  0  0  0  0  0  0  0  0  0  0  0
   -3.5145   -2.5363    0.6082 C   0  0  0  0  0  0  0  0  0  0  0  0
   -4.2285   -1.8413    1.0452 H   0  0  0  0  0  0  0  0  0  0  0  0
   -3.7155   -2.6583   -0.4538 H   0  0  0  0  0  0  0  0  0  0  0  0
   -2.1155   -1.9963    0.7922 C   0  0  0  0  0  0  0  0  0  0  0  0
   -1.2875   -2.6383    1.4252 O   0  0  0  0  0  0  0  0  0  0  0  0
   -1.8575   -0.8123    0.2402 N   0  0  0  0  0  0  0  0  0  0  0  0
   -2.6005   -0.3333   -0.2478 H   0  0  0  0  0  0  0  0  0  0  0  0
   -0.5675   -0.1203    0.3102 C   0  0  1  0  0  0  0  0  0  0  0  0
   -0.6468    0.8079   -0.2568 H   0  0  0  0  0  0  0  0  0  0  0  0
   -0.2711    0.2181    1.7862 C   0  0  0  0  0  0  0  0  0  0  0  0
   -0.3010   -0.7050    2.3683 H   0  0  0  0  0  0  0  0  0  0  0  0
    0.7457    0.6128    1.8442 H   0  0  0  0  0  0  0  0  0  0  0  0
   -1.2193    1.2383    2.4426 C   0  0  0  0  0  0  0  0  0  0  0  0
   -2.2531    0.9219    2.3045 H   0  0  0  0  0  0  0  0  0  0  0  0
   -0.9450    1.4040    3.9402 C   0  0  0  0  0  0  0  0  0  0  0  0
    0.0918    1.7053    4.0958 H   0  0  0  0  0  0  0  0  0  0  0  0
   -1.6041    2.1688    4.3517 H   0  0  0  0  0  0  0  0  0  0  0  0
   -1.1273    0.4713    4.4696 H   0  0  0  0  0  0  0  0  0  0  0  0
   -1.0495    2.6035    1.7771 C   0  0  0  0  0  0  0  0  0  0  0  0
   -1.2702    2.5226    0.7128 H   0  0  0  0  0  0  0  0  0  0  0  0
   -1.7394    3.3209    2.2214 H   0  0  0  0  0  0  0  0  0  0  0  0
   -0.0269    2.9599    1.9066 H   0  0  0  0  0  0  0  0  0  0  0  0
    0.5339   -0.9836   -0.3283 C   0  0  0  0  0  0  0  0  0  0  0  0
    0.2576   -1.7638   -1.2367 O   0  0  0  0  0  0  0  0  0  0  0  0
    1.7763   -0.8505    0.1541 N   0  0  0  0  0  0  0  0  0  0  0  0
    1.9248   -0.1853    0.8959 H   0  0  0  0  0  0  0  0  0  0  0  0
    2.9260   -1.6093   -0.3328 C   0  0  0  0  0  0  0  0  0  0  0  0
    3.0673   -1.4208   -1.3995 H   0  0  0  0  0  0  0  0  0  0  0  0
    3.8284   -1.3172    0.2064 H   0  0  0  0  0  0  0  0  0  0  0  0
    2.7501   -2.6767   -0.1903 H   0  0  0  0  0  0  0  0  0  0  0  0
  5  6  2  0  0  0  0
  5  7  1  0  0  0  0
  2  3  1  0  0  0  0
  2  4  1  0  0  0  0
  2  5  1  0  0  0  0
  1  2  1  0  0  0  0
 24 25  2  0  0  0  0
 24 26  1  0  0  0  0
 20 21  1  0  0  0  0
 20 22  1  0  0  0  0
 20 23  1  0  0  0  0
 16 17  1  0  0  0  0
 16 18  1  0  0  0  0
 16 19  1  0  0  0  0
 14 15  1  0  0  0  0
 14 16  1  0  0  0  0
 14 20  1  0  0  0  0
 11 12  1  0  0  0  0
 11 13  1  0  0  0  0
 11 14  1  0  0  0  0
  9 10  1  0  0  0  0
  9 11  1  0  0  0  0
  9 24  1  0  0  0  0
  7  8  1  0  0  0  0
  7  9  1  0  0  0  0
 28 29  1  0  0  0  0
 28 30  1  0  0  0  0
 28 31  1  0  0  0  0
 26 27  1  0  0  0  0
 26 28  1  0  0  0  0
M  END
$$$$
default_name
  -OEChem-01062215323D

 31 30  0     1  0  0  0  0  0999 V2000
   -3.5895   -3.5013    1.1082 H   0  0  0  0  0  0  0  0  0  0  0  0
   -3.5145   -2.5363    0.6082 C   0  0  0  0  0  0  0  0  0  0  0  0
   -4.2285   -1.8413    1.0452 H   0  0  0  0  0  0  0  0  0  0  0  0
   -3.7155   -2.6583   -0.4538 H   0  0  0  0  0  0  0  0  0  0  0  0
   -2.1155   -1.9963    0.7922 C   0  0  0  0  0  0  0  0  0  0  0  0
   -1.2875   -2.6383    1.4252 O   0  0  0  0  0  0  0  0  0  0  0  0
   -1.8575   -0.8123    0.2402 N   0  0  0  0  0  0  0  0  0  0  0  0
   -2.6005   -0.3333   -0.2478 H   0  0  0  0  0  0  0  0  0  0  0  0
   -0.5675   -0.1203    0.3102 C   0  0  1  0  0  0  0  0  0  0  0  0
   -0.6468    0.8079   -0.2568 H   0  0  0  0  0  0  0  0  0  0  0  0
   -0.2711    0.2181    1.7862 C   0  0  0  0  0  0  0  0  0  0  0  0
   -0.3010   -0.7050    2.3683 H   0  0  0  0  0  0  0  0  0  0  0  0
    0.7457    0.6128    1.8442 H   0  0  0  0  0  0  0  0  0  0  0  0
   -1.2193    1.2383    2.4426 C   0  0  0  0  0  0  0  0  0  0  0  0
   -2.2531    0.9219    2.3045 H   0  0  0  0  0  0  0  0  0  0  0  0
   -0.9450    1.4040    3.9402 C   0  0  0  0  0  0  0  0  0  0  0  0
    0.0918    1.7053    4.0958 H   0  0  0  0  0  0  0  0  0  0  0  0
   -1.6041    2.1688    4.3517 H   0  0  0  0  0  0  0  0  0  0  0  0
   -1.1273    0.4713    4.4696 H   0  0  0  0  0  0  0  0  0  0  0  0
   -1.0495    2.6035    1.7771 C   0  0  0  0  0  0  0  0  0  0  0  0
   -1.2702    2.5226    0.7128 H   0  0  0  0  0  0  0  0  0  0  0  0
   -1.7394    3.3209    2.2214 H   0  0  0  0  0  0  0  0  0  0  0  0
   -0.0269    2.9599    1.9066 H   0  0  0  0  0  0  0  0  0  0  0  0
    0.5339   -0.9836   -0.3283 C   0  0  0  0  0  0  0  0  0  0  0  0
    0.3302   -1.5510   -1.3992 O   0  0  0  0  0  0  0  0  0  0  0  0
    1.6931   -1.0896    0.3341 N   0  0  0  0  0  0  0  0  0  0  0  0
    1.7863   -0.5895    1.2037 H   0  0  0  0  0  0  0  0  0  0  0  0
    2.8283   -1.8837   -0.1304 C   0  0  0  0  0  0  0  0  0  0  0  0
    3.1507   -1.5274   -1.1114 H   0  0  0  0  0  0  0  0  0  0  0  0
    3.6593   -1.8033    0.5721 H   0  0  0  0  0  0  0  0  0  0  0  0
    2.5331   -2.9301   -0.2219 H   0  0  0  0  0  0  0  0  0  0  0  0
  5  6  2  0  0  0  0
  5  7  1  0  0  0  0
  2  3  1  0  0  0  0
  2  4  1  0  0  0  0
  2  5  1  0  0  0  0
  1  2  1  0  0  0  0
 24 25  2  0  0  0  0
 24 26  1  0  0  0  0
 20 21  1  0  0  0  0
 20 22  1  0  0  0  0
 20 23  1  0  0  0  0
 16 17  1  0  0  0  0
 16 18  1  0  0  0  0
 16 19  1  0  0  0  0
 14 15  1  0  0  0  0
 14 16  1  0  0  0  0
 14 20  1  0  0  0  0
 11 12  1  0  0  0  0
 11 13  1  0  0  0  0
 11 14  1  0  0  0  0
  9 10  1  0  0  0  0
  9 11  1  0  0  0  0
  9 24  1  0  0  0  0
  7  8  1  0  0  0  0
  7  9  1  0  0  0  0
 28 29  1  0  0  0  0
 28 30  1  0  0  0  0
 28 31  1  0  0  0  0
 26 27  1  0  0  0  0
 26 28  1  0  0  0  0
M  END
$$$$
default_name
  -OEChem-01062215323D

 31 30  0     1  0  0  0  0  0999 V2000
   -3.5895   -3.5013    1.1082 H   0  0  0  0  0  0  0  0  0  0  0  0
   -3.5145   -2.5363    0.6082 C   0  0  0  0  0  0  0  0  0  0  0  0
   -4.2285   -1.8413    1.0452 H   0  0  0  0  0  0  0  0  0  0  0  0
   -3.7155   -2.6583   -0.4538 H   0  0  0  0  0  0  0  0  0  0  0  0
   -2.1155   -1.9963    0.7922 C   0  0  0  0  0  0  0  0  0  0  0  0
   -1.2875   -2.6383    1.4252 O   0  0  0  0  0  0  0  0  0  0  0  0
   -1.8575   -0.8123    0.2402 N   0  0  0  0  0  0  0  0  0  0  0  0
   -2.6005   -0.3333   -0.2478 H   0  0  0  0  0  0  0  0  0  0  0  0
   -0.5675   -0.1203    0.3102 C   0  0  1  0  0  0  0  0  0  0  0  0
   -0.6468    0.8079   -0.2568 H   0  0  0  0  0  0  0  0  0  0  0  0
   -0.2711    0.2181    1.7862 C   0  0  0  0  0  0  0  0  0  0  0  0
   -0.3010   -0.7050    2.3683 H   0  0  0  0  0  0  0  0  0  0  0  0
    0.7457    0.6128    1.8442 H   0  0  0  0  0  0  0  0  0  0  0  0
   -1.2193    1.2383    2.4426 C   0  0  0  0  0  0  0  0  0  0  0  0
   -2.2531    0.9219    2.3045 H   0  0  0  0  0  0  0  0  0  0  0  0
   -0.9450    1.4040    3.9402 C   0  0  0  0  0  0  0  0  0  0  0  0
    0.0918    1.7053    4.0958 H   0  0  0  0  0  0  0  0  0  0  0  0
   -1.6041    2.1688    4.3517 H   0  0  0  0  0  0  0  0  0  0  0  0
   -1.1273    0.4713    4.4696 H   0  0  0  0  0  0  0  0  0  0  0  0
   -1.0495    2.6035    1.7771 C   0  0  0  0  0  0  0  0  0  0  0  0
   -1.2702    2.5226    0.7128 H   0  0  0  0  0  0  0  0  0  0  0  0
   -1.7394    3.3209    2.2214 H   0  0  0  0  0  0  0  0  0  0  0  0
   -0.0269    2.9599    1.9066 H   0  0  0  0  0  0  0  0  0  0  0  0
    0.5339   -0.9836   -0.3283 C   0  0  0  0  0  0  0  0  0  0  0  0
    0.4468   -1.3231   -1.5061 O   0  0  0  0  0  0  0  0  0  0  0  0
    1.5610   -1.3451    0.4516 N   0  0  0  0  0  0  0  0  0  0  0  0
    1.5644   -1.0221    1.4059 H   0  0  0  0  0  0  0  0  0  0  0  0
    2.6751   -2.1757    0.0002 C   0  0  0  0  0  0  0  0  0  0  0  0
    3.1780   -1.6928   -0.8407 H   0  0  0  0  0  0  0  0  0  0  0  0
    3.3907   -2.3224    0.8106 H   0  0  0  0  0  0  0  0  0  0  0  0
    2.3009   -3.1457   -0.3309 H   0  0  0  0  0  0  0  0  0  0  0  0
  5  6  2  0  0  0  0
  5  7  1  0  0  0  0
  2  3  1  0  0  0  0
  2  4  1  0  0  0  0
  2  5  1  0  0  0  0
  1  2  1  0  0  0  0
 24 25  2  0  0  0  0
 24 26  1  0  0  0  0
 20 21  1  0  0  0  0
 20 22  1  0  0  0  0
 20 23  1  0  0  0  0
 16 17  1  0  0  0  0
 16 18  1  0  0  0  0
 16 19  1  0  0  0  0
 14 15  1  0  0  0  0
 14 16  1  0  0  0  0
 14 20  1  0  0  0  0
 11 12  1  0  0  0  0
 11 13  1  0  0  0  0
 11 14  1  0  0  0  0
  9 10  1  0  0  0  0
  9 11  1  0  0  0  0
  9 24  1  0  0  0  0
  7  8  1  0  0  0  0
  7  9  1  0  0  0  0
 28 29  1  0  0  0  0
 28 30  1  0  0  0  0
 28 31  1  0  0  0  0
 26 27  1  0  0  0  0
 26 28  1  0  0  0  0
M  END
$$$$
default_name
  -OEChem-01062215323D

 31 30  0     1  0  0  0  0  0999 V2000
   -3.5895   -3.5013    1.1082 H   0  0  0  0  0  0  0  0  0  0  0  0
   -3.5145   -2.5363    0.6082 C   0  0  0  0  0  0  0  0  0  0  0  0
   -4.2285   -1.8413    1.0452 H   0  0  0  0  0  0  0  0  0  0  0  0
   -3.7155   -2.6583   -0.4538 H   0  0  0  0  0  0  0  0  0  0  0  0
   -2.1155   -1.9963    0.7922 C   0  0  0  0  0  0  0  0  0  0  0  0
   -1.2875   -2.6383    1.4252 O   0  0  0  0  0  0  0  0  0  0  0  0
   -1.8575   -0.8123    0.2402 N   0  0  0  0  0  0  0  0  0  0  0  0
   -2.6005   -0.3333   -0.2478 H   0  0  0  0  0  0  0  0  0  0  0  0
   -0.5675   -0.1203    0.3102 C   0  0  1  0  0  0  0  0  0  0  0  0
   -0.6468    0.8079   -0.2568 H   0  0  0  0  0  0  0  0  0  0  0  0
   -0.2711    0.2181    1.7862 C   0  0  0  0  0  0  0  0  0  0  0  0
   -0.3010   -0.7050    2.3683 H   0  0  0  0  0  0  0  0  0  0  0  0
    0.7457    0.6128    1.8442 H   0  0  0  0  0  0  0  0  0  0  0  0
   -1.2193    1.2383    2.4426 C   0  0  0  0  0  0  0  0  0  0  0  0
   -2.2531    0.9219    2.3045 H   0  0  0  0  0  0  0  0  0  0  0  0
   -0.9450    1.4040    3.9402 C   0  0  0  0  0  0  0  0  0  0  0  0
    0.0918    1.7053    4.0958 H   0  0  0  0  0  0  0  0  0  0  0  0
   -1.6041    2.1688    4.3517 H   0  0  0  0  0  0  0  0  0  0  0  0
   -1.1273    0.4713    4.4696 H   0  0  0  0  0  0  0  0  0  0  0  0
   -1.0495    2.6035    1.7771 C   0  0  0  0  0  0  0  0  0  0  0  0
   -1.2702    2.5226    0.7128 H   0  0  0  0  0  0  0  0  0  0  0  0
   -1.7394    3.3209    2.2214 H   0  0  0  0  0  0  0  0  0  0  0  0
   -0.0269    2.9599    1.9066 H   0  0  0  0  0  0  0  0  0  0  0  0
    0.5339   -0.9836   -0.3283 C   0  0  0  0  0  0  0  0  0  0  0  0
    0.5995   -1.0957   -1.5503 O   0  0  0  0  0  0  0  0  0  0  0  0
    1.3889   -1.5994    0.4985 N   0  0  0  0  0  0  0  0  0  0  0  0
    1.2742   -1.4537    1.4888 H   0  0  0  0  0  0  0  0  0  0  0  0
    2.4768   -2.4655    0.0499 C   0  0  0  0  0  0  0  0  0  0  0  0
    3.1472   -1.9056   -0.6060 H   0  0  0  0  0  0  0  0  0  0  0  0
    3.0407   -2.8392    0.9059 H   0  0  0  0  0  0  0  0  0  0  0  0
    2.0693   -3.3088   -0.5099 H   0  0  0  0  0  0  0  0  0  0  0  0
  5  6  2  0  0  0  0
  5  7  1  0  0  0  0
  2  3  1  0  0  0  0
  2  4  1  0  0  0  0
  2  5  1  0  0  0  0
  1  2  1  0  0  0  0
 24 25  2  0  0  0  0
 24 26  1  0  0  0  0
 20 21  1  0  0  0  0
 20 22  1  0  0  0  0
 20 23  1  0  0  0  0
 16 17  1  0  0  0  0
 16 18  1  0  0  0  0
 16 19  1  0  0  0  0
 14 15  1  0  0  0  0
 14 16  1  0  0  0  0
 14 20  1  0  0  0  0
 11 12  1  0  0  0  0
 11 13  1  0  0  0  0
 11 14  1  0  0  0  0
  9 10  1  0  0  0  0
  9 11  1  0  0  0  0
  9 24  1  0  0  0  0
  7  8  1  0  0  0  0
  7  9  1  0  0  0  0
 28 29  1  0  0  0  0
 28 30  1  0  0  0  0
 28 31  1  0  0  0  0
 26 27  1  0  0  0  0
 26 28  1  0  0  0  0
M  END
$$$$
default_name
  -OEChem-01062215323D

 31 30  0     1  0  0  0  0  0999 V2000
   -3.5895   -3.5013    1.1082 H   0  0  0  0  0  0  0  0  0  0  0  0
   -3.5145   -2.5363    0.6082 C   0  0  0  0  0  0  0  0  0  0  0  0
   -4.2285   -1.8413    1.0452 H   0  0  0  0  0  0  0  0  0  0  0  0
   -3.7155   -2.6583   -0.4538 H   0  0  0  0  0  0  0  0  0  0  0  0
   -2.1155   -1.9963    0.7922 C   0  0  0  0  0  0  0  0  0  0  0  0
   -1.2875   -2.6383    1.4252 O   0  0  0  0  0  0  0  0  0  0  0  0
   -1.8575   -0.8123    0.2402 N   0  0  0  0  0  0  0  0  0  0  0  0
   -2.6005   -0.3333   -0.2478 H   0  0  0  0  0  0  0  0  0  0  0  0
   -0.5675   -0.1203    0.3102 C   0  0  1  0  0  0  0  0  0  0  0  0
   -0.6468    0.8079   -0.2568 H   0  0  0  0  0  0  0  0  0  0  0  0
   -0.2711    0.2181    1.7862 C   0  0  0  0  0  0  0  0  0  0  0  0
   -0.3010   -0.7050    2.3683 H   0  0  0  0  0  0  0  0  0  0  0  0
    0.7457    0.6128    1.8442 H   0  0  0  0  0  0  0  0  0  0  0  0
   -1.2193    1.2383    2.4426 C   0  0  0  0  0  0  0  0  0  0  0  0
   -2.2531    0.9219    2.3045 H   0  0  0  0  0  0  0  0  0  0  0  0
   -0.9450    1.4040    3.9402 C   0  0  0  0  0  0  0  0  0  0  0  0
    0.0918    1.7053    4.0958 H   0  0  0  0  0  0  0  0  0  0  0  0
   -1.6041    2.1688    4.3517 H   0  0  0  0  0  0  0  0  0  0  0  0
   -1.1273    0.4713    4.4696 H   0  0  0  0  0  0  0  0  0  0  0  0
   -1.0495    2.6035    1.7771 C   0  0  0  0  0  0  0  0  0  0  0  0
   -1.2702    2.5226    0.7128 H   0  0  0  0  0  0  0  0  0  0  0  0
   -1.7394    3.3209    2.2214 H   0  0  0  0  0  0  0  0  0  0  0  0
   -0.0269    2.9599    1.9066 H   0  0  0  0  0  0  0  0  0  0  0  0
    0.5339   -0.9836   -0.3283 C   0  0  0  0  0  0  0  0  0  0  0  0
    0.7777   -0.8843   -1.5286 O   0  0  0  0  0  0  0  0  0  0  0  0
    1.1885   -1.8352    0.4717 N   0  0  0  0  0  0  0  0  0  0  0  0
    0.9355   -1.8547    1.4467 H   0  0  0  0  0  0  0  0  0  0  0  0
    2.2468   -2.7333    0.0154 C   0  0  0  0  0  0  0  0  0  0  0  0
    3.0606   -2.1514   -0.4232 H   0  0  0  0  0  0  0  0  0  0  0  0
    2.6334   -3.3184    0.8512 H   0  0  0  0  0  0  0  0  0  0  0  0
    1.8541   -3.4083   -0.7466 H   0  0  0  0  0  0  0  0  0  0  0  0
  5  6  2  0  0  0  0
  5  7  1  0  0  0  0
  2  3  1  0  0  0  0
  2  4  1  0  0  0  0
  2  5  1  0  0  0  0
  1  2  1  0  0  0  0
 24 25  2  0  0  0  0
 24 26  1  0  0  0  0
 20 21  1  0  0  0  0
 20 22  1  0  0  0  0
 20 23  1  0  0  0  0
 16 17  1  0  0  0  0
 16 18  1  0  0  0  0
 16 19  1  0  0  0  0
 14 15  1  0  0  0  0
 14 16  1  0  0  0  0
 14 20  1  0  0  0  0
 11 12  1  0  0  0  0
 11 13  1  0  0  0  0
 11 14  1  0  0  0  0
  9 10  1  0  0  0  0
  9 11  1  0  0  0  0
  9 24  1  0  0  0  0
  7  8  1  0  0  0  0
  7  9  1  0  0  0  0
 28 29  1  0  0  0  0
 28 30  1  0  0  0  0
 28 31  1  0  0  0  0
 26 27  1  0  0  0  0
 26 28  1  0  0  0  0
M  END
$$$$
default_name
  -OEChem-01062215323D

 31 30  0     1  0  0  0  0  0999 V2000
   -3.5895   -3.5013    1.1082 H   0  0  0  0  0  0  0  0  0  0  0  0
   -3.5145   -2.5363    0.6082 C   0  0  0  0  0  0  0  0  0  0  0  0
   -4.2285   -1.8413    1.0452 H   0  0  0  0  0  0  0  0  0  0  0  0
   -3.7155   -2.6583   -0.4538 H   0  0  0  0  0  0  0  0  0  0  0  0
   -2.1155   -1.9963    0.7922 C   0  0  0  0  0  0  0  0  0  0  0  0
   -1.2875   -2.6383    1.4252 O   0  0  0  0  0  0  0  0  0  0  0  0
   -1.8575   -0.8123    0.2402 N   0  0  0  0  0  0  0  0  0  0  0  0
   -2.6005   -0.3333   -0.2478 H   0  0  0  0  0  0  0  0  0  0  0  0
   -0.5675   -0.1203    0.3102 C   0  0  1  0  0  0  0  0  0  0  0  0
   -0.6468    0.8079   -0.2568 H   0  0  0  0  0  0  0  0  0  0  0  0
   -0.2711    0.2181    1.7862 C   0  0  0  0  0  0  0  0  0  0  0  0
   -0.3010   -0.7050    2.3683 H   0  0  0  0  0  0  0  0  0  0  0  0
    0.7457    0.6128    1.8442 H   0  0  0  0  0  0  0  0  0  0  0  0
   -1.2193    1.2383    2.4426 C   0  0  0  0  0  0  0  0  0  0  0  0
   -2.2531    0.9219    2.3045 H   0  0  0  0  0  0  0  0  0  0  0  0
   -0.9450    1.4040    3.9402 C   0  0  0  0  0  0  0  0  0  0  0  0
    0.0918    1.7053    4.0958 H   0  0  0  0  0  0  0  0  0  0  0  0
   -1.6041    2.1688    4.3517 H   0  0  0  0  0  0  0  0  0  0  0  0
   -1.1273    0.4713    4.4696 H   0  0  0  0  0  0  0  0  0  0  0  0
   -1.0495    2.6035    1.7771 C   0  0  0  0  0  0  0  0  0  0  0  0
   -1.2702    2.5226    0.7128 H   0  0  0  0  0  0  0  0  0  0  0  0
   -1.7394    3.3209    2.2214 H   0  0  0  0  0  0  0  0  0  0  0  0
   -0.0269    2.9599    1.9066 H   0  0  0  0  0  0  0  0  0  0  0  0
    0.5339   -0.9836   -0.3283 C   0  0  0  0  0  0  0  0  0  0  0  0
    0.9695   -0.7032   -1.4426 O   0  0  0  0  0  0  0  0  0  0  0  0
    0.9735   -2.0366    0.3731 N   0  0  0  0  0  0  0  0  0  0  0  0
    0.5713   -2.1978    1.2826 H   0  0  0  0  0  0  0  0  0  0  0  0
    2.0010   -2.9609   -0.1009 C   0  0  0  0  0  0  0  0  0  0  0  0
    2.9239   -2.4133   -0.3047 H   0  0  0  0  0  0  0  0  0  0  0  0
    2.1964   -3.7275    0.6505 H   0  0  0  0  0  0  0  0  0  0  0  0
    1.6699   -3.4374   -1.0250 H   0  0  0  0  0  0  0  0  0  0  0  0
  5  6  2  0  0  0  0
  5  7  1  0  0  0  0
  2  3  1  0  0  0  0
  2  4  1  0  0  0  0
  2  5  1  0  0  0  0
  1  2  1  0  0  0  0
 24 25  2  0  0  0  0
 24 26  1  0  0  0  0
 20 21  1  0  0  0  0
 20 22  1  0  0  0  0
 20 23  1  0  0  0  0
 16 17  1  0  0  0  0
 16 18  1  0  0  0  0
 16 19  1  0  0  0  0
 14 15  1  0  0  0  0
 14 16  1  0  0  0  0
 14 20  1  0  0  0  0
 11 12  1  0  0  0  0
 11 13  1  0  0  0  0
 11 14  1  0  0  0  0
  9 10  1  0  0  0  0
  9 11  1  0  0  0  0
  9 24  1  0  0  0  0
  7  8  1  0  0  0  0
  7  9  1  0  0  0  0
 28 29  1  0  0  0  0
 28 30  1  0  0  0  0
 28 31  1  0  0  0  0
 26 27  1  0  0  0  0
 26 28  1  0  0  0  0
M  END
$$$$
default_name
  -OEChem-01062215323D

 31 30  0     1  0  0  0  0  0999 V2000
   -3.5895   -3.5013    1.1082 H   0  0  0  0  0  0  0  0  0  0  0  0
   -3.5145   -2.5363    0.6082 C   0  0  0  0  0  0  0  0  0  0  0  0
   -4.2285   -1.8413    1.0452 H   0  0  0  0  0  0  0  0  0  0  0  0
   -3.7155   -2.6583   -0.4538 H   0  0  0  0  0  0  0  0  0  0  0  0
   -2.1155   -1.9963    0.7922 C   0  0  0  0  0  0  0  0  0  0  0  0
   -1.2875   -2.6383    1.4252 O   0  0  0  0  0  0  0  0  0  0  0  0
   -1.8575   -0.8123    0.2402 N   0  0  0  0  0  0  0  0  0  0  0  0
   -2.6005   -0.3333   -0.2478 H   0  0  0  0  0  0  0  0  0  0  0  0
   -0.5675   -0.1203    0.3102 C   0  0  1  0  0  0  0  0  0  0  0  0
   -0.6468    0.8079   -0.2568 H   0  0  0  0  0  0  0  0  0  0  0  0
   -0.2711    0.2181    1.7862 C   0  0  0  0  0  0  0  0  0  0  0  0
   -0.3010   -0.7050    2.3683 H   0  0  0  0  0  0  0  0  0  0  0  0
    0.7457    0.6128    1.8442 H   0  0  0  0  0  0  0  0  0  0  0  0
   -1.2193    1.2383    2.4426 C   0  0  0  0  0  0  0  0  0  0  0  0
   -2.2531    0.9219    2.3045 H   0  0  0  0  0  0  0  0  0  0  0  0
   -0.9450    1.4040    3.9402 C   0  0  0  0  0  0  0  0  0  0  0  0
    0.0918    1.7053    4.0958 H   0  0  0  0  0  0  0  0  0  0  0  0
   -1.6041    2.1688    4.3517 H   0  0  0  0  0  0  0  0  0  0  0  0
   -1.1273    0.4713    4.4696 H   0  0  0  0  0  0  0  0  0  0  0  0
   -1.0495    2.6035    1.7771 C   0  0  0  0  0  0  0  0  0  0  0  0
   -1.2702    2.5226    0.7128 H   0  0  0  0  0  0  0  0  0  0  0  0
   -1.7394    3.3209    2.2214 H   0  0  0  0  0  0  0  0  0  0  0  0
   -0.0269    2.9599    1.9066 H   0  0  0  0  0  0  0  0  0  0  0  0
    0.5339   -0.9836   -0.3283 C   0  0  0  0  0  0  0  0  0  0  0  0
    1.1618   -0.5648   -1.2981 O   0  0  0  0  0  0  0  0  0  0  0  0
    0.7585   -2.1896    0.2092 N   0  0  0  0  0  0  0  0  0  0  0  0
    0.2066   -2.4598    1.0075 H   0  0  0  0  0  0  0  0  0  0  0  0
    1.7559   -3.1328   -0.2912 C   0  0  0  0  0  0  0  0  0  0  0  0
    2.7466   -2.6736   -0.2587 H   0  0  0  0  0  0  0  0  0  0  0  0
    1.7595   -4.0384    0.3172 H   0  0  0  0  0  0  0  0  0  0  0  0
    1.5293   -3.3942   -1.3260 H   0  0  0  0  0  0  0  0  0  0  0  0
  5  6  2  0  0  0  0
  5  7  1  0  0  0  0
  2  3  1  0  0  0  0
  2  4  1  0  0  0  0
  2  5  1  0  0  0  0
  1  2  1  0  0  0  0
 24 25  2  0  0  0  0
 24 26  1  0  0  0  0
 20 21  1  0  0  0  0
 20 22  1  0  0  0  0
 20 23  1  0  0  0  0
 16 17  1  0  0  0  0
 16 18  1  0  0  0  0
 16 19  1  0  0  0  0
 14 15  1  0  0  0  0
 14 16  1  0  0  0  0
 14 20  1  0  0  0  0
 11 12  1  0  0  0  0
 11 13  1  0  0  0  0
 11 14  1  0  0  0  0
  9 10  1  0  0  0  0
  9 11  1  0  0  0  0
  9 24  1  0  0  0  0
  7  8  1  0  0  0  0
  7  9  1  0  0  0  0
 28 29  1  0  0  0  0
 28 30  1  0  0  0  0
 28 31  1  0  0  0  0
 26 27  1  0  0  0  0
 26 28  1  0  0  0  0
M  END
$$$$
default_name
  -OEChem-01062215323D

 31 30  0     1  0  0  0  0  0999 V2000
   -3.5895   -3.5013    1.1082 H   0  0  0  0  0  0  0  0  0  0  0  0
   -3.5145   -2.5363    0.6082 C   0  0  0  0  0  0  0  0  0  0  0  0
   -4.2285   -1.8413    1.0452 H   0  0  0  0  0  0  0  0  0  0  0  0
   -3.7155   -2.6583   -0.4538 H   0  0  0  0  0  0  0  0  0  0  0  0
   -2.1155   -1.9963    0.7922 C   0  0  0  0  0  0  0  0  0  0  0  0
   -1.2875   -2.6383    1.4252 O   0  0  0  0  0  0  0  0  0  0  0  0
   -1.8575   -0.8123    0.2402 N   0  0  0  0  0  0  0  0  0  0  0  0
   -2.6005   -0.3333   -0.2478 H   0  0  0  0  0  0  0  0  0  0  0  0
   -0.5675   -0.1203    0.3102 C   0  0  1  0  0  0  0  0  0  0  0  0
   -0.6468    0.8079   -0.2568 H   0  0  0  0  0  0  0  0  0  0  0  0
   -0.2711    0.2181    1.7862 C   0  0  0  0  0  0  0  0  0  0  0  0
   -0.3010   -0.7050    2.3683 H   0  0  0  0  0  0  0  0  0  0  0  0
    0.7457    0.6128    1.8442 H   0  0  0  0  0  0  0  0  0  0  0  0
   -1.2193    1.2383    2.4426 C   0  0  0  0  0  0  0  0  0  0  0  0
   -2.2531    0.9219    2.3045 H   0  0  0  0  0  0  0  0  0  0  0  0
   -0.9450    1.4040    3.9402 C   0  0  0  0  0  0  0  0  0  0  0  0
    0.0918    1.7053    4.0958 H   0  0  0  0  0  0  0  0  0  0  0  0
   -1.6041    2.1688    4.3517 H   0  0  0  0  0  0  0  0  0  0  0  0
   -1.1273    0.4713    4.4696 H   0  0  0  0  0  0  0  0  0  0  0  0
   -1.0495    2.6035    1.7771 C   0  0  0  0  0  0  0  0  0  0  0  0
   -1.2702    2.5226    0.7128 H   0  0  0  0  0  0  0  0  0  0  0  0
   -1.7394    3.3209    2.2214 H   0  0  0  0  0  0  0  0  0  0  0  0
   -0.0269    2.9599    1.9066 H   0  0  0  0  0  0  0  0  0  0  0  0
    0.5339   -0.9836   -0.3283 C   0  0  0  0  0  0  0  0  0  0  0  0
    1.3413   -0.4786   -1.1050 O   0  0  0  0  0  0  0  0  0  0  0  0
    0.5582   -2.2840   -0.0087 N   0  0  0  0  0  0  0  0  0  0  0  0
   -0.1340   -2.6226    0.6404 H   0  0  0  0  0  0  0  0  0  0  0  0
    1.5284   -3.2372   -0.5424 C   0  0  0  0  0  0  0  0  0  0  0  0
    2.5406   -2.9145   -0.2883 H   0  0  0  0  0  0  0  0  0  0  0  0
    1.3525   -4.2301   -0.1257 H   0  0  0  0  0  0  0  0  0  0  0  0
    1.4418   -3.2815   -1.6292 H   0  0  0  0  0  0  0  0  0  0  0  0
  5  6  2  0  0  0  0
  5  7  1  0  0  0  0
  2  3  1  0  0  0  0
  2  4  1  0  0  0  0
  2  5  1  0  0  0  0
  1  2  1  0  0  0  0
 24 25  2  0  0  0  0
 24 26  1  0  0  0  0
 20 21  1  0  0  0  0
 20 22  1  0  0  0  0
 20 23  1  0  0  0  0
 16 17  1  0  0  0  0
 16 18  1  0  0  0  0
 16 19  1  0  0  0  0
 14 15  1  0  0  0  0
 14 16  1  0  0  0  0
 14 20  1  0  0  0  0
 11 12  1  0  0  0  0
 11 13  1  0  0  0  0
 11 14  1  0  0  0  0
  9 10  1  0  0  0  0
  9 11  1  0  0  0  0
  9 24  1  0  0  0  0
  7  8  1  0  0  0  0
  7  9  1  0  0  0  0
 28 29  1  0  0  0  0
 28 30  1  0  0  0  0
 28 31  1  0  0  0  0
 26 27  1  0  0  0  0
 26 28  1  0  0  0  0
M  END
$$$$
default_name
  -OEChem-01062215323D

 31 30  0     1  0  0  0  0  0999 V2000
   -3.5895   -3.5013    1.1082 H   0  0  0  0  0  0  0  0  0  0  0  0
   -3.5145   -2.5363    0.6082 C   0  0  0  0  0  0  0  0  0  0  0  0
   -4.2285   -1.8413    1.0452 H   0  0  0  0  0  0  0  0  0  0  0  0
   -3.7155   -2.6583   -0.4538 H   0  0  0  0  0  0  0  0  0  0  0  0
   -2.1155   -1.9963    0.7922 C   0  0  0  0  0  0  0  0  0  0  0  0
   -1.2875   -2.6383    1.4252 O   0  0  0  0  0  0  0  0  0  0  0  0
   -1.8575   -0.8123    0.2402 N   0  0  0  0  0  0  0  0  0  0  0  0
   -2.6005   -0.3333   -0.2478 H   0  0  0  0  0  0  0  0  0  0  0  0
   -0.5675   -0.1203    0.3102 C   0  0  1  0  0  0  0  0  0  0  0  0
   -0.6468    0.8079   -0.2568 H   0  0  0  0  0  0  0  0  0  0  0  0
   -0.2711    0.2181    1.7862 C   0  0  0  0  0  0  0  0  0  0  0  0
   -0.3010   -0.7050    2.3683 H   0  0  0  0  0  0  0  0  0  0  0  0
    0.7457    0.6128    1.8442 H   0  0  0  0  0  0  0  0  0  0  0  0
   -1.2193    1.2383    2.4426 C   0  0  0  0  0  0  0  0  0  0  0  0
   -2.2531    0.9219    2.3045 H   0  0  0  0  0  0  0  0  0  0  0  0
   -0.9450    1.4040    3.9402 C   0  0  0  0  0  0  0  0  0  0  0  0
    0.0918    1.7053    4.0958 H   0  0  0  0  0  0  0  0  0  0  0  0
   -1.6041    2.1688    4.3517 H   0  0  0  0  0  0  0  0  0  0  0  0
   -1.1273    0.4713    4.4696 H   0  0  0  0  0  0  0  0  0  0  0  0
   -1.0495    2.6035    1.7771 C   0  0  0  0  0  0  0  0  0  0  0  0
   -1.2702    2.5226    0.7128 H   0  0  0  0  0  0  0  0  0  0  0  0
   -1.7394    3.3209    2.2214 H   0  0  0  0  0  0  0  0  0  0  0  0
   -0.0269    2.9599    1.9066 H   0  0  0  0  0  0  0  0  0  0  0  0
    0.5339   -0.9836   -0.3283 C   0  0  0  0  0  0  0  0  0  0  0  0
    1.4959   -0.4504   -0.8764 O   0  0  0  0  0  0  0  0  0  0  0  0
    0.3862   -2.3133   -0.2657 N   0  0  0  0  0  0  0  0  0  0  0  0
   -0.4270   -2.6753    0.2060 H   0  0  0  0  0  0  0  0  0  0  0  0
    1.3340   -3.2671   -0.8375 C   0  0  0  0  0  0  0  0  0  0  0  0
    2.3201   -3.1196   -0.3914 H   0  0  0  0  0  0  0  0  0  0  0  0
    1.0031   -4.2894   -0.6482 H   0  0  0  0  0  0  0  0  0  0  0  0
    1.4135   -3.1071   -1.9139 H   0  0  0  0  0  0  0  0  0  0  0  0
  5  6  2  0  0  0  0
  5  7  1  0  0  0  0
  2  3  1  0  0  0  0
  2  4  1  0  0  0  0
  2  5  1  0  0  0  0
  1  2  1  0  0  0  0
 24 25  2  0  0  0  0
 24 26  1  0  0  0  0
 20 21  1  0  0  0  0
 20 22  1  0  0  0  0
 20 23  1  0  0  0  0
 16 17  1  0  0  0  0
 16 18  1  0  0  0  0
 16 19  1  0  0  0  0
 14 15  1  0  0  0  0
 14 16  1  0  0  0  0
 14 20  1  0  0  0  0
 11 12  1  0  0  0  0
 11 13  1  0  0  0  0
 11 14  1  0  0  0  0
  9 10  1  0  0  0  0
  9 11  1  0  0  0  0
  9 24  1  0  0  0  0
  7  8  1  0  0  0  0
  7  9  1  0  0  0  0
 28 29  1  0  0  0  0
 28 30  1  0  0  0  0
 28 31  1  0  0  0  0
 26 27  1  0  0  0  0
 26 28  1  0  0  0  0
M  END
$$$$
default_name
  -OEChem-01062215323D

 31 30  0     1  0  0  0  0  0999 V2000
   -3.5895   -3.5013    1.1082 H   0  0  0  0  0  0  0  0  0  0  0  0
   -3.5145   -2.5363    0.6082 C   0  0  0  0  0  0  0  0  0  0  0  0
   -4.2285   -1.8413    1.0452 H   0  0  0  0  0  0  0  0  0  0  0  0
   -3.7155   -2.6583   -0.4538 H   0  0  0  0  0  0  0  0  0  0  0  0
   -2.1155   -1.9963    0.7922 C   0  0  0  0  0  0  0  0  0  0  0  0
   -1.2875   -2.6383    1.4252 O   0  0  0  0  0  0  0  0  0  0  0  0
   -1.8575   -0.8123    0.2402 N   0  0  0  0  0  0  0  0  0  0  0  0
   -2.6005   -0.3333   -0.2478 H   0  0  0  0  0  0  0  0  0  0  0  0
   -0.5675   -0.1203    0.3102 C   0  0  1  0  0  0  0  0  0  0  0  0
   -0.6468    0.8079   -0.2568 H   0  0  0  0  0  0  0  0  0  0  0  0
   -0.2711    0.2181    1.7862 C   0  0  0  0  0  0  0  0  0  0  0  0
   -0.3010   -0.7050    2.3683 H   0  0  0  0  0  0  0  0  0  0  0  0
    0.7457    0.6128    1.8442 H   0  0  0  0  0  0  0  0  0  0  0  0
   -1.2193    1.2383    2.4426 C   0  0  0  0  0  0  0  0  0  0  0  0
   -2.2531    0.9219    2.3045 H   0  0  0  0  0  0  0  0  0  0  0  0
   -0.9450    1.4040    3.9402 C   0  0  0  0  0  0  0  0  0  0  0  0
    0.0918    1.7053    4.0958 H   0  0  0  0  0  0  0  0  0  0  0  0
   -1.6041    2.1688    4.3517 H   0  0  0  0  0  0  0  0  0  0  0  0
   -1.1273    0.4713    4.4696 H   0  0  0  0  0  0  0  0  0  0  0  0
   -1.0495    2.6035    1.7771 C   0  0  0  0  0  0  0  0  0  0  0  0
   -1.2702    2.5226    0.7128 H   0  0  0  0  0  0  0  0  0  0  0  0
   -1.7394    3.3209    2.2214 H   0  0  0  0  0  0  0  0  0  0  0  0
   -0.0269    2.9599    1.9066 H   0  0  0  0  0  0  0  0  0  0  0  0
    0.5339   -0.9836   -0.3283 C   0  0  0  0  0  0  0  0  0  0  0  0
    1.6151   -0.4822   -0.6279 O   0  0  0  0  0  0  0  0  0  0  0  0
    0.2543   -2.2755   -0.5444 N   0  0  0  0  0  0  0  0  0  0  0  0
   -0.6527   -2.6142   -0.2658 H   0  0  0  0  0  0  0  0  0  0  0  0
    1.1858   -3.2203   -1.1563 C   0  0  0  0  0  0  0  0  0  0  0  0
    2.1000   -3.2749   -0.5610 H   0  0  0  0  0  0  0  0  0  0  0  0
    0.7352   -4.2123   -1.2146 H   0  0  0  0  0  0  0  0  0  0  0  0
    1.4463   -2.8828   -2.1607 H   0  0  0  0  0  0  0  0  0  0  0  0
  5  6  2  0  0  0  0
  5  7  1  0  0  0  0
  2  3  1  0  0  0  0
  2  4  1  0  0  0  0
  2  5  1  0  0  0  0
  1  2  1  0  0  0  0
 24 25  2  0  0  0  0
 24 26  1  0  0  0  0
 20 21  1  0  0  0  0
 20 22  1  0  0  0  0
 20 23  1  0  0  0  0
 16 17  1  0  0  0  0
 16 18  1  0  0  0  0
 16 19  1  0  0  0  0
 14 15  1  0  0  0  0
 14 16  1  0  0  0  0
 14 20  1  0  0  0  0
 11 12  1  0  0  0  0
 11 13  1  0  0  0  0
 11 14  1  0  0  0  0
  9 10  1  0  0  0  0
  9 11  1  0  0  0  0
  9 24  1  0  0  0  0
  7  8  1  0  0  0  0
  7  9  1  0  0  0  0
 28 29  1  0  0  0  0
 28 30  1  0  0  0  0
 28 31  1  0  0  0  0
 26 27  1  0  0  0  0
 26 28  1  0  0  0  0
M  END
$$$$
default_name
  -OEChem-01062215323D

 31 30  0     1  0  0  0  0  0999 V2000
   -3.5895   -3.5013    1.1082 H   0  0  0  0  0  0  0  0  0  0  0  0
   -3.5145   -2.5363    0.6082 C   0  0  0  0  0  0  0  0  0  0  0  0
   -4.2285   -1.8413    1.0452 H   0  0  0  0  0  0  0  0  0  0  0  0
   -3.7155   -2.6583   -0.4538 H   0  0  0  0  0  0  0  0  0  0  0  0
   -2.1155   -1.9963    0.7922 C   0  0  0  0  0  0  0  0  0  0  0  0
   -1.2875   -2.6383    1.4252 O   0  0  0  0  0  0  0  0  0  0  0  0
   -1.8575   -0.8123    0.2402 N   0  0  0  0  0  0  0  0  0  0  0  0
   -2.6005   -0.3333   -0.2478 H   0  0  0  0  0  0  0  0  0  0  0  0
   -0.5675   -0.1203    0.3102 C   0  0  1  0  0  0  0  0  0  0  0  0
   -0.6468    0.8079   -0.2568 H   0  0  0  0  0  0  0  0  0  0  0  0
   -0.2711    0.2181    1.7862 C   0  0  0  0  0  0  0  0  0  0  0  0
   -0.3010   -0.7050    2.3683 H   0  0  0  0  0  0  0  0  0  0  0  0
    0.7457    0.6128    1.8442 H   0  0  0  0  0  0  0  0  0  0  0  0
   -1.2193    1.2383    2.4426 C   0  0  0  0  0  0  0  0  0  0  0  0
   -2.2531    0.9219    2.3045 H   0  0  0  0  0  0  0  0  0  0  0  0
   -0.9450    1.4040    3.9402 C   0  0  0  0  0  0  0  0  0  0  0  0
    0.0918    1.7053    4.0958 H   0  0  0  0  0  0  0  0  0  0  0  0
   -1.6041    2.1688    4.3517 H   0  0  0  0  0  0  0  0  0  0  0  0
   -1.1273    0.4713    4.4696 H   0  0  0  0  0  0  0  0  0  0  0  0
   -1.0495    2.6035    1.7771 C   0  0  0  0  0  0  0  0  0  0  0  0
   -1.2702    2.5226    0.7128 H   0  0  0  0  0  0  0  0  0  0  0  0
   -1.7394    3.3209    2.2214 H   0  0  0  0  0  0  0  0  0  0  0  0
   -0.0269    2.9599    1.9066 H   0  0  0  0  0  0  0  0  0  0  0  0
    0.5339   -0.9836   -0.3283 C   0  0  0  0  0  0  0  0  0  0  0  0
    1.6907   -0.5717   -0.3764 O   0  0  0  0  0  0  0  0  0  0  0  0
    0.1715   -2.1731   -0.8258 N   0  0  0  0  0  0  0  0  0  0  0  0
   -0.7955   -2.4435   -0.7431 H   0  0  0  0  0  0  0  0  0  0  0  0
    1.0940   -3.1002   -1.4772 C   0  0  0  0  0  0  0  0  0  0  0  0
    1.8954   -3.3698   -0.7856 H   0  0  0  0  0  0  0  0  0  0  0  0
    0.5669   -4.0041   -1.7864 H   0  0  0  0  0  0  0  0  0  0  0  0
    1.5379   -2.6239   -2.3528 H   0  0  0  0  0  0  0  0  0  0  0  0
  5  6  2  0  0  0  0
  5  7  1  0  0  0  0
  2  3  1  0  0  0  0
  2  4  1  0  0  0  0
  2  5  1  0  0  0  0
  1  2  1  0  0  0  0
 24 25  2  0  0  0  0
 24 26  1  0  0  0  0
 20 21  1  0  0  0  0
 20 22  1  0  0  0  0
 20 23  1  0  0  0  0
 16 17  1  0  0  0  0
 16 18  1  0  0  0  0
 16 19  1  0  0  0  0
 14 15  1  0  0  0  0
 14 16  1  0  0  0  0
 14 20  1  0  0  0  0
 11 12  1  0  0  0  0
 11 13  1  0  0  0  0
 11 14  1  0  0  0  0
  9 10  1  0  0  0  0
  9 11  1  0  0  0  0
  9 24  1  0  0  0  0
  7  8  1  0  0  0  0
  7  9  1  0  0  0  0
 28 29  1  0  0  0  0
 28 30  1  0  0  0  0
 28 31  1  0  0  0  0
 26 27  1  0  0  0  0
 26 28  1  0  0  0  0
M  END
$$$$
default_name
  -OEChem-01062215323D

 31 30  0     1  0  0  0  0  0999 V2000
   -3.5895   -3.5013    1.1082 H   0  0  0  0  0  0  0  0  0  0  0  0
   -3.5145   -2.5363    0.6082 C   0  0  0  0  0  0  0  0  0  0  0  0
   -4.2285   -1.8413    1.0452 H   0  0  0  0  0  0  0  0  0  0  0  0
   -3.7155   -2.6583   -0.4538 H   0  0  0  0  0  0  0  0  0  0  0  0
   -2.1155   -1.9963    0.7922 C   0  0  0  0  0  0  0  0  0  0  0  0
   -1.2875   -2.6383    1.4252 O   0  0  0  0  0  0  0  0  0  0  0  0
   -1.8575   -0.8123    0.2402 N   0  0  0  0  0  0  0  0  0  0  0  0
   -2.6005   -0.3333   -0.2478 H   0  0  0  0  0  0  0  0  0  0  0  0
   -0.5675   -0.1203    0.3102 C   0  0  1  0  0  0  0  0  0  0  0  0
   -0.6468    0.8079   -0.2568 H   0  0  0  0  0  0  0  0  0  0  0  0
   -0.2711    0.2181    1.7862 C   0  0  0  0  0  0  0  0  0  0  0  0
   -0.3010   -0.7050    2.3683 H   0  0  0  0  0  0  0  0  0  0  0  0
    0.7457    0.6128    1.8442 H   0  0  0  0  0  0  0  0  0  0  0  0
   -1.2193    1.2383    2.4426 C   0  0  0  0  0  0  0  0  0  0  0  0
   -2.2531    0.9219    2.3045 H   0  0  0  0  0  0  0  0  0  0  0  0
   -0.9450    1.4040    3.9402 C   0  0  0  0  0  0  0  0  0  0  0  0
    0.0918    1.7053    4.0958 H   0  0  0  0  0  0  0  0  0  0  0  0
   -1.6041    2.1688    4.3517 H   0  0  0  0  0  0  0  0  0  0  0  0
   -1.1273    0.4713    4.4696 H   0  0  0  0  0  0  0  0  0  0  0  0
   -1.0495    2.6035    1.7771 C   0  0  0  0  0  0  0  0  0  0  0  0
   -1.2702    2.5226    0.7128 H   0  0  0  0  0  0  0  0  0  0  0  0
   -1.7394    3.3209    2.2214 H   0  0  0  0  0  0  0  0  0  0  0  0
   -0.0269    2.9599    1.9066 H   0  0  0  0  0  0  0  0  0  0  0  0
    0.5339   -0.9836   -0.3283 C   0  0  0  0  0  0  0  0  0  0  0  0
    1.7176   -0.7129   -0.1391 O   0  0  0  0  0  0  0  0  0  0  0  0
    0.1433   -2.0132   -1.0906 N   0  0  0  0  0  0  0  0  0  0  0  0
   -0.8458   -2.1748   -1.1932 H   0  0  0  0  0  0  0  0  0  0  0  0
    1.0648   -2.9149   -1.7781 C   0  0  0  0  0  0  0  0  0  0  0  0
    1.7202   -3.3979   -1.0499 H   0  0  0  0  0  0  0  0  0  0  0  0
    0.5098   -3.6790   -2.3245 H   0  0  0  0  0  0  0  0  0  0  0  0
    1.6820   -2.3482   -2.4770 H   0  0  0  0  0  0  0  0  0  0  0  0
  5  6  2  0  0  0  0
  5  7  1  0  0  0  0
  2  3  1  0  0  0  0
  2  4  1  0  0  0  0
  2  5  1  0  0  0  0
  1  2  1  0  0  0  0
 24 25  2  0  0  0  0
 24 26  1  0  0  0  0
 20 21  1  0  0  0  0
 20 22  1  0  0  0  0
 20 23  1  0  0  0  0
 16 17  1  0  0  0  0
 16 18  1  0  0  0  0
 16 19  1  0  0  0  0
 14 15  1  0  0  0  0
 14 16  1  0  0  0  0
 14 20  1  0  0  0  0
 11 12  1  0  0  0  0
 11 13  1  0  0  0  0
 11 14  1  0  0  0  0
  9 10  1  0  0  0  0
  9 11  1  0  0  0  0
  9 24  1  0  0  0  0
  7  8  1  0  0  0  0
  7  9  1  0  0  0  0
 28 29  1  0  0  0  0
 28 30  1  0  0  0  0
 28 31  1  0  0  0  0
 26 27  1  0  0  0  0
 26 28  1  0  0  0  0
M  END
$$$$
default_name
  -OEChem-01062215323D

 31 30  0     1  0  0  0  0  0999 V2000
   -3.5895   -3.5013    1.1082 H   0  0  0  0  0  0  0  0  0  0  0  0
   -3.5145   -2.5363    0.6082 C   0  0  0  0  0  0  0  0  0  0  0  0
   -4.2285   -1.8413    1.0452 H   0  0  0  0  0  0  0  0  0  0  0  0
   -3.7155   -2.6583   -0.4538 H   0  0  0  0  0  0  0  0  0  0  0  0
   -2.1155   -1.9963    0.7922 C   0  0  0  0  0  0  0  0  0  0  0  0
   -1.2875   -2.6383    1.4252 O   0  0  0  0  0  0  0  0  0  0  0  0
   -1.8575   -0.8123    0.2402 N   0  0  0  0  0  0  0  0  0  0  0  0
   -2.6005   -0.3333   -0.2478 H   0  0  0  0  0  0  0  0  0  0  0  0
   -0.5675   -0.1203    0.3102 C   0  0  1  0  0  0  0  0  0  0  0  0
   -0.6468    0.8079   -0.2568 H   0  0  0  0  0  0  0  0  0  0  0  0
   -0.2711    0.2181    1.7862 C   0  0  0  0  0  0  0  0  0  0  0  0
   -0.3010   -0.7050    2.3683 H   0  0  0  0  0  0  0  0  0  0  0  0
    0.7457    0.6128    1.8442 H   0  0  0  0  0  0  0  0  0  0  0  0
   -1.2193    1.2383    2.4426 C   0  0  0  0  0  0  0  0  0  0  0  0
   -2.2531    0.9219    2.3045 H   0  0  0  0  0  0  0  0  0  0  0  0
   -0.9450    1.4040    3.9402 C   0  0  0  0  0  0  0  0  0  0  0  0
    0.0918    1.7053    4.0958 H   0  0  0  0  0  0  0  0  0  0  0  0
   -1.6041    2.1688    4.3517 H   0  0  0  0  0  0  0  0  0  0  0  0
   -1.1273    0.4713    4.4696 H   0  0  0  0  0  0  0  0  0  0  0  0
   -1.0495    2.6035    1.7771 C   0  0  0  0  0  0  0  0  0  0  0  0
   -1.2702    2.5226    0.7128 H   0  0  0  0  0  0  0  0  0  0  0  0
   -1.7394    3.3209    2.2214 H   0  0  0  0  0  0  0  0  0  0  0  0
   -0.0269    2.9599    1.9066 H   0  0  0  0  0  0  0  0  0  0  0  0
    0.5339   -0.9836   -0.3283 C   0  0  0  0  0  0  0  0  0  0  0  0
    1.6939   -0.8961    0.0678 O   0  0  0  0  0  0  0  0  0  0  0  0
    0.1717   -1.8067   -1.3209 N   0  0  0  0  0  0  0  0  0  0  0  0
   -0.8002   -1.8265   -1.5854 H   0  0  0  0  0  0  0  0  0  0  0  0
    1.1002   -2.6769   -2.0387 C   0  0  0  0  0  0  0  0  0  0  0  0
    1.5863   -3.3573   -1.3358 H   0  0  0  0  0  0  0  0  0  0  0  0
    0.5678   -3.2590   -2.7924 H   0  0  0  0  0  0  0  0  0  0  0  0
    1.8690   -2.0742   -2.5250 H   0  0  0  0  0  0  0  0  0  0  0  0
  5  6  2  0  0  0  0
  5  7  1  0  0  0  0
  2  3  1  0  0  0  0
  2  4  1  0  0  0  0
  2  5  1  0  0  0  0
  1  2  1  0  0  0  0
 24 25  2  0  0  0  0
 24 26  1  0  0  0  0
 20 21  1  0  0  0  0
 20 22  1  0  0  0  0
 20 23  1  0  0  0  0
 16 17  1  0  0  0  0
 16 18  1  0  0  0  0
 16 19  1  0  0  0  0
 14 15  1  0  0  0  0
 14 16  1  0  0  0  0
 14 20  1  0  0  0  0
 11 12  1  0  0  0  0
 11 13  1  0  0  0  0
 11 14  1  0  0  0  0
  9 10  1  0  0  0  0
  9 11  1  0  0  0  0
  9 24  1  0  0  0  0
  7  8  1  0  0  0  0
  7  9  1  0  0  0  0
 28 29  1  0  0  0  0
 28 30  1  0  0  0  0
 28 31  1  0  0  0  0
 26 27  1  0  0  0  0
 26 28  1  0  0  0  0
M  END
$$$$
default_name
  -OEChem-01062215323D

 31 30  0     1  0  0  0  0  0999 V2000
   -3.5895   -3.5013    1.1082 H   0  0  0  0  0  0  0  0  0  0  0  0
   -3.5145   -2.5363    0.6082 C   0  0  0  0  0  0  0  0  0  0  0  0
   -4.2285   -1.8413    1.0452 H   0  0  0  0  0  0  0  0  0  0  0  0
   -3.7155   -2.6583   -0.4538 H   0  0  0  0  0  0  0  0  0  0  0  0
   -2.1155   -1.9963    0.7922 C   0  0  0  0  0  0  0  0  0  0  0  0
   -1.2875   -2.6383    1.4252 O   0  0  0  0  0  0  0  0  0  0  0  0
   -1.8575   -0.8123    0.2402 N   0  0  0  0  0  0  0  0  0  0  0  0
   -2.6005   -0.3333   -0.2478 H   0  0  0  0  0  0  0  0  0  0  0  0
   -0.5675   -0.1203    0.3102 C   0  0  1  0  0  0  0  0  0  0  0  0
   -0.6468    0.8079   -0.2568 H   0  0  0  0  0  0  0  0  0  0  0  0
   -0.2711    0.2181    1.7862 C   0  0  0  0  0  0  0  0  0  0  0  0
   -0.3010   -0.7050    2.3683 H   0  0  0  0  0  0  0  0  0  0  0  0
    0.7457    0.6128    1.8442 H   0  0  0  0  0  0  0  0  0  0  0  0
   -1.2193    1.2383    2.4426 C   0  0  0  0  0  0  0  0  0  0  0  0
   -2.2531    0.9219    2.3045 H   0  0  0  0  0  0  0  0  0  0  0  0
   -0.9450    1.4040    3.9402 C   0  0  0  0  0  0  0  0  0  0  0  0
    0.0918    1.7053    4.0958 H   0  0  0  0  0  0  0  0  0  0  0  0
   -1.6041    2.1688    4.3517 H   0  0  0  0  0  0  0  0  0  0  0  0
   -1.1273    0.4713    4.4696 H   0  0  0  0  0  0  0  0  0  0  0  0
   -1.0495    2.6035    1.7771 C   0  0  0  0  0  0  0  0  0  0  0  0
   -1.2702    2.5226    0.7128 H   0  0  0  0  0  0  0  0  0  0  0  0
   -1.7394    3.3209    2.2214 H   0  0  0  0  0  0  0  0  0  0  0  0
   -0.0269    2.9599    1.9066 H   0  0  0  0  0  0  0  0  0  0  0  0
    0.5339   -0.9836   -0.3283 C   0  0  0  0  0  0  0  0  0  0  0  0
    1.6213   -1.1089    0.2303 O   0  0  0  0  0  0  0  0  0  0  0  0
    0.2548   -1.5675   -1.5009 N   0  0  0  0  0  0  0  0  0  0  0  0
   -0.6617   -1.4222   -1.8932 H   0  0  0  0  0  0  0  0  0  0  0  0
    1.1979   -2.4026   -2.2412 C   0  0  0  0  0  0  0  0  0  0  0  0
    1.5029   -3.2506   -1.6239 H   0  0  0  0  0  0  0  0  0  0  0  0
    0.7368   -2.7729   -3.1581 H   0  0  0  0  0  0  0  0  0  0  0  0
    2.0859   -1.8208   -2.4934 H   0  0  0  0  0  0  0  0  0  0  0  0
  5  6  2  0  0  0  0
  5  7  1  0  0  0  0
  2  3  1  0  0  0  0
  2  4  1  0  0  0  0
  2  5  1  0  0  0  0
  1  2  1  0  0  0  0
 24 25  2  0  0  0  0
 24 26  1  0  0  0  0
 20 21  1  0  0  0  0
 20 22  1  0  0  0  0
 20 23  1  0  0  0  0
 16 17  1  0  0  0  0
 16 18  1  0  0  0  0
 16 19  1  0  0  0  0
 14 15  1  0  0  0  0
 14 16  1  0  0  0  0
 14 20  1  0  0  0  0
 11 12  1  0  0  0  0
 11 13  1  0  0  0  0
 11 14  1  0  0  0  0
  9 10  1  0  0  0  0
  9 11  1  0  0  0  0
  9 24  1  0  0  0  0
  7  8  1  0  0  0  0
  7  9  1  0  0  0  0
 28 29  1  0  0  0  0
 28 30  1  0  0  0  0
 28 31  1  0  0  0  0
 26 27  1  0  0  0  0
 26 28  1  0  0  0  0
M  END
$$$$
default_name
  -OEChem-01062215323D

 31 30  0     1  0  0  0  0  0999 V2000
   -3.5895   -3.5013    1.1082 H   0  0  0  0  0  0  0  0  0  0  0  0
   -3.5145   -2.5363    0.6082 C   0  0  0  0  0  0  0  0  0  0  0  0
   -4.2285   -1.8413    1.0452 H   0  0  0  0  0  0  0  0  0  0  0  0
   -3.7155   -2.6583   -0.4538 H   0  0  0  0  0  0  0  0  0  0  0  0
   -2.1155   -1.9963    0.7922 C   0  0  0  0  0  0  0  0  0  0  0  0
   -1.2875   -2.6383    1.4252 O   0  0  0  0  0  0  0  0  0  0  0  0
   -1.8575   -0.8123    0.2402 N   0  0  0  0  0  0  0  0  0  0  0  0
   -2.6005   -0.3333   -0.2478 H   0  0  0  0  0  0  0  0  0  0  0  0
   -0.5675   -0.1203    0.3102 C   0  0  1  0  0  0  0  0  0  0  0  0
   -0.6468    0.8079   -0.2568 H   0  0  0  0  0  0  0  0  0  0  0  0
   -0.2711    0.2181    1.7862 C   0  0  0  0  0  0  0  0  0  0  0  0
   -0.3010   -0.7050    2.3683 H   0  0  0  0  0  0  0  0  0  0  0  0
    0.7457    0.6128    1.8442 H   0  0  0  0  0  0  0  0  0  0  0  0
   -1.2193    1.2383    2.4426 C   0  0  0  0  0  0  0  0  0  0  0  0
   -2.2531    0.9219    2.3045 H   0  0  0  0  0  0  0  0  0  0  0  0
   -0.9450    1.4040    3.9402 C   0  0  0  0  0  0  0  0  0  0  0  0
    0.0918    1.7053    4.0958 H   0  0  0  0  0  0  0  0  0  0  0  0
   -1.6041    2.1688    4.3517 H   0  0  0  0  0  0  0  0  0  0  0  0
   -1.1273    0.4713    4.4696 H   0  0  0  0  0  0  0  0  0  0  0  0
   -1.0495    2.6035    1.7771 C   0  0  0  0  0  0  0  0  0  0  0  0
   -1.2702    2.5226    0.7128 H   0  0  0  0  0  0  0  0  0  0  0  0
   -1.7394    3.3209    2.2214 H   0  0  0  0  0  0  0  0  0  0  0  0
   -0.0269    2.9599    1.9066 H   0  0  0  0  0  0  0  0  0  0  0  0
    0.5339   -0.9836   -0.3283 C   0  0  0  0  0  0  0  0  0  0  0  0
    1.5047   -1.3368    0.3373 O   0  0  0  0  0  0  0  0  0  0  0  0
    0.3869   -1.3121   -1.6184 N   0  0  0  0  0  0  0  0  0  0  0  0
   -0.4398   -0.9896   -2.0954 H   0  0  0  0  0  0  0  0  0  0  0  0
    1.3511   -2.1106   -2.3717 C   0  0  0  0  0  0  0  0  0  0  0  0
    1.4756   -3.0852   -1.8945 H   0  0  0  0  0  0  0  0  0  0  0  0
    1.0055   -2.2538   -3.3966 H   0  0  0  0  0  0  0  0  0  0  0  0
    2.3181   -1.6052   -2.3844 H   0  0  0  0  0  0  0  0  0  0  0  0
  5  6  2  0  0  0  0
  5  7  1  0  0  0  0
  2  3  1  0  0  0  0
  2  4  1  0  0  0  0
  2  5  1  0  0  0  0
  1  2  1  0  0  0  0
 24 25  2  0  0  0  0
 24 26  1  0  0  0  0
 20 21  1  0  0  0  0
 20 22  1  0  0  0  0
 20 23  1  0  0  0  0
 16 17  1  0  0  0  0
 16 18  1  0  0  0  0
 16 19  1  0  0  0  0
 14 15  1  0  0  0  0
 14 16  1  0  0  0  0
 14 20  1  0  0  0  0
 11 12  1  0  0  0  0
 11 13  1  0  0  0  0
 11 14  1  0  0  0  0
  9 10  1  0  0  0  0
  9 11  1  0  0  0  0
  9 24  1  0  0  0  0
  7  8  1  0  0  0  0
  7  9  1  0  0  0  0
 28 29  1  0  0  0  0
 28 30  1  0  0  0  0
 28 31  1  0  0  0  0
 26 27  1  0  0  0  0
 26 28  1  0  0  0  0
M  END
$$$$
default_name
  -OEChem-01062215323D

 31 30  0     1  0  0  0  0  0999 V2000
   -3.5895   -3.5013    1.1082 H   0  0  0  0  0  0  0  0  0  0  0  0
   -3.5145   -2.5363    0.6082 C   0  0  0  0  0  0  0  0  0  0  0  0
   -4.2285   -1.8413    1.0452 H   0  0  0  0  0  0  0  0  0  0  0  0
   -3.7155   -2.6583   -0.4538 H   0  0  0  0  0  0  0  0  0  0  0  0
   -2.1155   -1.9963    0.7922 C   0  0  0  0  0  0  0  0  0  0  0  0
   -1.2875   -2.6383    1.4252 O   0  0  0  0  0  0  0  0  0  0  0  0
   -1.8575   -0.8123    0.2402 N   0  0  0  0  0  0  0  0  0  0  0  0
   -2.6005   -0.3333   -0.2478 H   0  0  0  0  0  0  0  0  0  0  0  0
   -0.5675   -0.1203    0.3102 C   0  0  1  0  0  0  0  0  0  0  0  0
   -0.6468    0.8079   -0.2568 H   0  0  0  0  0  0  0  0  0  0  0  0
   -0.2711    0.2181    1.7862 C   0  0  0  0  0  0  0  0  0  0  0  0
   -0.3010   -0.7050    2.3683 H   0  0  0  0  0  0  0  0  0  0  0  0
    0.7457    0.6128    1.8442 H   0  0  0  0  0  0  0  0  0  0  0  0
   -1.2193    1.2383    2.4426 C   0  0  0  0  0  0  0  0  0  0  0  0
   -2.2531    0.9219    2.3045 H   0  0  0  0  0  0  0  0  0  0  0  0
   -0.9450    1.4040    3.9402 C   0  0  0  0  0  0  0  0  0  0  0  0
    0.0918    1.7053    4.0958 H   0  0  0  0  0  0  0  0  0  0  0  0
   -1.6041    2.1688    4.3517 H   0  0  0  0  0  0  0  0  0  0  0  0
   -1.1273    0.4713    4.4696 H   0  0  0  0  0  0  0  0  0  0  0  0
   -1.0495    2.6035    1.7771 C   0  0  0  0  0  0  0  0  0  0  0  0
   -1.2702    2.5226    0.7128 H   0  0  0  0  0  0  0  0  0  0  0  0
   -1.7394    3.3209    2.2214 H   0  0  0  0  0  0  0  0  0  0  0  0
   -0.0269    2.9599    1.9066 H   0  0  0  0  0  0  0  0  0  0  0  0
    0.5339   -0.9836   -0.3283 C   0  0  0  0  0  0  0  0  0  0  0  0
    1.3520   -1.5642    0.3815 O   0  0  0  0  0  0  0  0  0  0  0  0
    0.5591   -1.0578   -1.6653 N   0  0  0  0  0  0  0  0  0  0  0  0
   -0.1496   -0.5581   -2.1783 H   0  0  0  0  0  0  0  0  0  0  0  0
    1.5495   -1.8208   -2.4215 C   0  0  0  0  0  0  0  0  0  0  0  0
    1.5064   -2.8724   -2.1292 H   0  0  0  0  0  0  0  0  0  0  0  0
    1.3554   -1.7370   -3.4919 H   0  0  0  0  0  0  0  0  0  0  0  0
    2.5497   -1.4421   -2.2054 H   0  0  0  0  0  0  0  0  0  0  0  0
  5  6  2  0  0  0  0
  5  7  1  0  0  0  0
  2  3  1  0  0  0  0
  2  4  1  0  0  0  0
  2  5  1  0  0  0  0
  1  2  1  0  0  0  0
 24 25  2  0  0  0  0
 24 26  1  0  0  0  0
 20 21  1  0  0  0  0
 20 22  1  0  0  0  0
 20 23  1  0  0  0  0
 16 17  1  0  0  0  0
 16 18  1  0  0  0  0
 16 19  1  0  0  0  0
 14 15  1  0  0  0  0
 14 16  1  0  0  0  0
 14 20  1  0  0  0  0
 11 12  1  0  0  0  0
 11 13  1  0  0  0  0
 11 14  1  0  0  0  0
  9 10  1  0  0  0  0
  9 11  1  0  0  0  0
  9 24  1  0  0  0  0
  7  8  1  0  0  0  0
  7  9  1  0  0  0  0
 28 29  1  0  0  0  0
 28 30  1  0  0  0  0
 28 31  1  0  0  0  0
 26 27  1  0  0  0  0
 26 28  1  0  0  0  0
M  END
$$$$
default_name
  -OEChem-01062215323D

 31 30  0     1  0  0  0  0  0999 V2000
   -3.5895   -3.5013    1.1082 H   0  0  0  0  0  0  0  0  0  0  0  0
   -3.5145   -2.5363    0.6082 C   0  0  0  0  0  0  0  0  0  0  0  0
   -4.2285   -1.8413    1.0452 H   0  0  0  0  0  0  0  0  0  0  0  0
   -3.7155   -2.6583   -0.4538 H   0  0  0  0  0  0  0  0  0  0  0  0
   -2.1155   -1.9963    0.7922 C   0  0  0  0  0  0  0  0  0  0  0  0
   -1.2875   -2.6383    1.4252 O   0  0  0  0  0  0  0  0  0  0  0  0
   -1.8575   -0.8123    0.2402 N   0  0  0  0  0  0  0  0  0  0  0  0
   -2.6005   -0.3333   -0.2478 H   0  0  0  0  0  0  0  0  0  0  0  0
   -0.5675   -0.1203    0.3102 C   0  0  1  0  0  0  0  0  0  0  0  0
   -0.6468    0.8079   -0.2568 H   0  0  0  0  0  0  0  0  0  0  0  0
   -0.2711    0.2181    1.7862 C   0  0  0  0  0  0  0  0  0  0  0  0
   -0.3010   -0.7050    2.3683 H   0  0  0  0  0  0  0  0  0  0  0  0
    0.7457    0.6128    1.8442 H   0  0  0  0  0  0  0  0  0  0  0  0
   -1.2193    1.2383    2.4426 C   0  0  0  0  0  0  0  0  0  0  0  0
   -2.2531    0.9219    2.3045 H   0  0  0  0  0  0  0  0  0  0  0  0
   -0.9450    1.4040    3.9402 C   0  0  0  0  0  0  0  0  0  0  0  0
    0.0918    1.7053    4.0958 H   0  0  0  0  0  0  0  0  0  0  0  0
   -1.6041    2.1688    4.3517 H   0  0  0  0  0  0  0  0  0  0  0  0
   -1.1273    0.4713    4.4696 H   0  0  0  0  0  0  0  0  0  0  0  0
   -1.0495    2.6035    1.7771 C   0  0  0  0  0  0  0  0  0  0  0  0
   -1.2702    2.5226    0.7128 H   0  0  0  0  0  0  0  0  0  0  0  0
   -1.7394    3.3209    2.2214 H   0  0  0  0  0  0  0  0  0  0  0  0
   -0.0269    2.9599    1.9066 H   0  0  0  0  0  0  0  0  0  0  0  0
    0.5339   -0.9836   -0.3283 C   0  0  0  0  0  0  0  0  0  0  0  0
    1.1737   -1.7757    0.3598 O   0  0  0  0  0  0  0  0  0  0  0  0
    0.7595   -0.8219   -1.6386 N   0  0  0  0  0  0  0  0  0  0  0  0
    0.1891   -0.1571   -2.1362 H   0  0  0  0  0  0  0  0  0  0  0  0
    1.7794   -1.5530   -2.3870 C   0  0  0  0  0  0  0  0  0  0  0  0
    1.5930   -2.6267   -2.3121 H   0  0  0  0  0  0  0  0  0  0  0  0
    1.7627   -1.2578   -3.4372 H   0  0  0  0  0  0  0  0  0  0  0  0
    2.7649   -1.3426   -1.9686 H   0  0  0  0  0  0  0  0  0  0  0  0
  5  6  2  0  0  0  0
  5  7  1  0  0  0  0
  2  3  1  0  0  0  0
  2  4  1  0  0  0  0
  2  5  1  0  0  0  0
  1  2  1  0  0  0  0
 24 25  2  0  0  0  0
 24 26  1  0  0  0  0
 20 21  1  0  0  0  0
 20 22  1  0  0  0  0
 20 23  1  0  0  0  0
 16 17  1  0  0  0  0
 16 18  1  0  0  0  0
 16 19  1  0  0  0  0
 14 15  1  0  0  0  0
 14 16  1  0  0  0  0
 14 20  1  0  0  0  0
 11 12  1  0  0  0  0
 11 13  1  0  0  0  0
 11 14  1  0  0  0  0
  9 10  1  0  0  0  0
  9 11  1  0  0  0  0
  9 24  1  0  0  0  0
  7  8  1  0  0  0  0
  7  9  1  0  0  0  0
 28 29  1  0  0  0  0
 28 30  1  0  0  0  0
 28 31  1  0  0  0  0
 26 27  1  0  0  0  0
 26 28  1  0  0  0  0
M  END
$$$$
default_name
  -OEChem-01062215323D

 31 30  0     1  0  0  0  0  0999 V2000
   -3.5895   -3.5013    1.1082 H   0  0  0  0  0  0  0  0  0  0  0  0
   -3.5145   -2.5363    0.6082 C   0  0  0  0  0  0  0  0  0  0  0  0
   -4.2285   -1.8413    1.0452 H   0  0  0  0  0  0  0  0  0  0  0  0
   -3.7155   -2.6583   -0.4538 H   0  0  0  0  0  0  0  0  0  0  0  0
   -2.1155   -1.9963    0.7922 C   0  0  0  0  0  0  0  0  0  0  0  0
   -1.2875   -2.6383    1.4252 O   0  0  0  0  0  0  0  0  0  0  0  0
   -1.8575   -0.8123    0.2402 N   0  0  0  0  0  0  0  0  0  0  0  0
   -2.6005   -0.3333   -0.2478 H   0  0  0  0  0  0  0  0  0  0  0  0
   -0.5675   -0.1203    0.3102 C   0  0  1  0  0  0  0  0  0  0  0  0
   -0.6468    0.8079   -0.2568 H   0  0  0  0  0  0  0  0  0  0  0  0
   -0.2711    0.2181    1.7862 C   0  0  0  0  0  0  0  0  0  0  0  0
   -0.3010   -0.7050    2.3683 H   0  0  0  0  0  0  0  0  0  0  0  0
    0.7457    0.6128    1.8442 H   0  0  0  0  0  0  0  0  0  0  0  0
   -1.2193    1.2383    2.4426 C   0  0  0  0  0  0  0  0  0  0  0  0
   -2.2531    0.9219    2.3045 H   0  0  0  0  0  0  0  0  0  0  0  0
   -0.9450    1.4040    3.9402 C   0  0  0  0  0  0  0  0  0  0  0  0
    0.0918    1.7053    4.0958 H   0  0  0  0  0  0  0  0  0  0  0  0
   -1.6041    2.1688    4.3517 H   0  0  0  0  0  0  0  0  0  0  0  0
   -1.1273    0.4713    4.4696 H   0  0  0  0  0  0  0  0  0  0  0  0
   -1.0495    2.6035    1.7771 C   0  0  0  0  0  0  0  0  0  0  0  0
   -1.2702    2.5226    0.7128 H   0  0  0  0  0  0  0  0  0  0  0  0
   -1.7394    3.3209    2.2214 H   0  0  0  0  0  0  0  0  0  0  0  0
   -0.0269    2.9599    1.9066 H   0  0  0  0  0  0  0  0  0  0  0  0
    0.5339   -0.9836   -0.3283 C   0  0  0  0  0  0  0  0  0  0  0  0
    0.9819   -1.9567    0.2738 O   0  0  0  0  0  0  0  0  0  0  0  0
    0.9745   -0.6206   -1.5399 N   0  0  0  0  0  0  0  0  0  0  0  0
    0.5533    0.1861   -1.9721 H   0  0  0  0  0  0  0  0  0  0  0  0
    2.0252   -1.3254   -2.2706 C   0  0  0  0  0  0  0  0  0  0  0  0
    1.7297   -2.3647   -2.4305 H   0  0  0  0  0  0  0  0  0  0  0  0
    2.1997   -0.8487   -3.2365 H   0  0  0  0  0  0  0  0  0  0  0  0
    2.9491   -1.3135   -1.6902 H   0  0  0  0  0  0  0  0  0  0  0  0
  5  6  2  0  0  0  0
  5  7  1  0  0  0  0
  2  3  1  0  0  0  0
  2  4  1  0  0  0  0
  2  5  1  0  0  0  0
  1  2  1  0  0  0  0
 24 25  2  0  0  0  0
 24 26  1  0  0  0  0
 20 21  1  0  0  0  0
 20 22  1  0  0  0  0
 20 23  1  0  0  0  0
 16 17  1  0  0  0  0
 16 18  1  0  0  0  0
 16 19  1  0  0  0  0
 14 15  1  0  0  0  0
 14 16  1  0  0  0  0
 14 20  1  0  0  0  0
 11 12  1  0  0  0  0
 11 13  1  0  0  0  0
 11 14  1  0  0  0  0
  9 10  1  0  0  0  0
  9 11  1  0  0  0  0
  9 24  1  0  0  0  0
  7  8  1  0  0  0  0
  7  9  1  0  0  0  0
 28 29  1  0  0  0  0
 28 30  1  0  0  0  0
 28 31  1  0  0  0  0
 26 27  1  0  0  0  0
 26 28  1  0  0  0  0
M  END
$$$$
default_name
  -OEChem-01062215323D

 31 30  0     1  0  0  0  0  0999 V2000
   -3.5895   -3.5013    1.1082 H   0  0  0  0  0  0  0  0  0  0  0  0
   -3.5145   -2.5363    0.6082 C   0  0  0  0  0  0  0  0  0  0  0  0
   -4.2285   -1.8413    1.0452 H   0  0  0  0  0  0  0  0  0  0  0  0
   -3.7155   -2.6583   -0.4538 H   0  0  0  0  0  0  0  0  0  0  0  0
   -2.1155   -1.9963    0.7922 C   0  0  0  0  0  0  0  0  0  0  0  0
   -1.2875   -2.6383    1.4252 O   0  0  0  0  0  0  0  0  0  0  0  0
   -1.8575   -0.8123    0.2402 N   0  0  0  0  0  0  0  0  0  0  0  0
   -2.6005   -0.3333   -0.2478 H   0  0  0  0  0  0  0  0  0  0  0  0
   -0.5675   -0.1203    0.3102 C   0  0  1  0  0  0  0  0  0  0  0  0
   -0.6468    0.8079   -0.2568 H   0  0  0  0  0  0  0  0  0  0  0  0
   -0.2711    0.2181    1.7862 C   0  0  0  0  0  0  0  0  0  0  0  0
   -0.3010   -0.7050    2.3683 H   0  0  0  0  0  0  0  0  0  0  0  0
    0.7457    0.6128    1.8442 H   0  0  0  0  0  0  0  0  0  0  0  0
   -1.2193    1.2383    2.4426 C   0  0  0  0  0  0  0  0  0  0  0  0
   -2.2531    0.9219    2.3045 H   0  0  0  0  0  0  0  0  0  0  0  0
   -0.9450    1.4040    3.9402 C   0  0  0  0  0  0  0  0  0  0  0  0
    0.0918    1.7053    4.0958 H   0  0  0  0  0  0  0  0  0  0  0  0
   -1.6041    2.1688    4.3517 H   0  0  0  0  0  0  0  0  0  0  0  0
   -1.1273    0.4713    4.4696 H   0  0  0  0  0  0  0  0  0  0  0  0
   -1.0495    2.6035    1.7771 C   0  0  0  0  0  0  0  0  0  0  0  0
   -1.2702    2.5226    0.7128 H   0  0  0  0  0  0  0  0  0  0  0  0
   -1.7394    3.3209    2.2214 H   0  0  0  0  0  0  0  0  0  0  0  0
   -0.0269    2.9599    1.9066 H   0  0  0  0  0  0  0  0  0  0  0  0
    0.5339   -0.9836   -0.3283 C   0  0  0  0  0  0  0  0  0  0  0  0
    0.7897   -2.0951    0.1293 O   0  0  0  0  0  0  0  0  0  0  0  0
    1.1895   -0.4675   -1.3760 N   0  0  0  0  0  0  0  0  0  0  0  0
    0.9180    0.4480   -1.6970 H   0  0  0  0  0  0  0  0  0  0  0  0
    2.2703   -1.1535   -2.0804 C   0  0  0  0  0  0  0  0  0  0  0  0
    1.9071   -2.1044   -2.4765 H   0  0  0  0  0  0  0  0  0  0  0  0
    2.6366   -0.5378   -2.9032 H   0  0  0  0  0  0  0  0  0  0  0  0
    3.0898   -1.3568   -1.3892 H   0  0  0  0  0  0  0  0  0  0  0  0
  5  6  2  0  0  0  0
  5  7  1  0  0  0  0
  2  3  1  0  0  0  0
  2  4  1  0  0  0  0
  2  5  1  0  0  0  0
  1  2  1  0  0  0  0
 24 25  2  0  0  0  0
 24 26  1  0  0  0  0
 20 21  1  0  0  0  0
 20 22  1  0  0  0  0
 20 23  1  0  0  0  0
 16 17  1  0  0  0  0
 16 18  1  0  0  0  0
 16 19  1  0  0  0  0
 14 15  1  0  0  0  0
 14 16  1  0  0  0  0
 14 20  1  0  0  0  0
 11 12  1  0  0  0  0
 11 13  1  0  0  0  0
 11 14  1  0  0  0  0
  9 10  1  0  0  0  0
  9 11  1  0  0  0  0
  9 24  1  0  0  0  0
  7  8  1  0  0  0  0
  7  9  1  0  0  0  0
 28 29  1  0  0  0  0
 28 30  1  0  0  0  0
 28 31  1  0  0  0  0
 26 27  1  0  0  0  0
 26 28  1  0  0  0  0
M  END
$$$$
default_name
  -OEChem-01062215323D

 31 30  0     1  0  0  0  0  0999 V2000
   -3.5895   -3.5013    1.1082 H   0  0  0  0  0  0  0  0  0  0  0  0
   -3.5145   -2.5363    0.6082 C   0  0  0  0  0  0  0  0  0  0  0  0
   -4.2285   -1.8413    1.0452 H   0  0  0  0  0  0  0  0  0  0  0  0
   -3.7155   -2.6583   -0.4538 H   0  0  0  0  0  0  0  0  0  0  0  0
   -2.1155   -1.9963    0.7922 C   0  0  0  0  0  0  0  0  0  0  0  0
   -1.2875   -2.6383    1.4252 O   0  0  0  0  0  0  0  0  0  0  0  0
   -1.8575   -0.8123    0.2402 N   0  0  0  0  0  0  0  0  0  0  0  0
   -2.6005   -0.3333   -0.2478 H   0  0  0  0  0  0  0  0  0  0  0  0
   -0.5675   -0.1203    0.3102 C   0  0  1  0  0  0  0  0  0  0  0  0
   -0.6468    0.8079   -0.2568 H   0  0  0  0  0  0  0  0  0  0  0  0
   -0.2711    0.2181    1.7862 C   0  0  0  0  0  0  0  0  0  0  0  0
   -0.3010   -0.7050    2.3683 H   0  0  0  0  0  0  0  0  0  0  0  0
    0.7457    0.6128    1.8442 H   0  0  0  0  0  0  0  0  0  0  0  0
   -1.2193    1.2383    2.4426 C   0  0  0  0  0  0  0  0  0  0  0  0
   -2.2531    0.9219    2.3045 H   0  0  0  0  0  0  0  0  0  0  0  0
   -0.9450    1.4040    3.9402 C   0  0  0  0  0  0  0  0  0  0  0  0
    0.0918    1.7053    4.0958 H   0  0  0  0  0  0  0  0  0  0  0  0
   -1.6041    2.1688    4.3517 H   0  0  0  0  0  0  0  0  0  0  0  0
   -1.1273    0.4713    4.4696 H   0  0  0  0  0  0  0  0  0  0  0  0
   -1.0495    2.6035    1.7771 C   0  0  0  0  0  0  0  0  0  0  0  0
   -1.2702    2.5226    0.7128 H   0  0  0  0  0  0  0  0  0  0  0  0
   -1.7394    3.3209    2.2214 H   0  0  0  0  0  0  0  0  0  0  0  0
   -0.0269    2.9599    1.9066 H   0  0  0  0  0  0  0  0  0  0  0  0
    0.5339   -0.9836   -0.3283 C   0  0  0  0  0  0  0  0  0  0  0  0
    0.6102   -2.1813   -0.0638 O   0  0  0  0  0  0  0  0  0  0  0  0
    1.3898   -0.3731   -1.1581 N   0  0  0  0  0  0  0  0  0  0  0  0
    1.2586    0.6109   -1.3299 H   0  0  0  0  0  0  0  0  0  0  0  0
    2.4978   -1.0491   -1.8291 C   0  0  0  0  0  0  0  0  0  0  0  0
    2.1130   -1.8635   -2.4470 H   0  0  0  0  0  0  0  0  0  0  0  0
    3.0436   -0.3461   -2.4603 H   0  0  0  0  0  0  0  0  0  0  0  0
    3.1772   -1.4694   -1.0860 H   0  0  0  0  0  0  0  0  0  0  0  0
  5  6  2  0  0  0  0
  5  7  1  0  0  0  0
  2  3  1  0  0  0  0
  2  4  1  0  0  0  0
  2  5  1  0  0  0  0
  1  2  1  0  0  0  0
 24 25  2  0  0  0  0
 24 26  1  0  0  0  0
 20 21  1  0  0  0  0
 20 22  1  0  0  0  0
 20 23  1  0  0  0  0
 16 17  1  0  0  0  0
 16 18  1  0  0  0  0
 16 19  1  0  0  0  0
 14 15  1  0  0  0  0
 14 16  1  0  0  0  0
 14 20  1  0  0  0  0
 11 12  1  0  0  0  0
 11 13  1  0  0  0  0
 11 14  1  0  0  0  0
  9 10  1  0  0  0  0
  9 11  1  0  0  0  0
  9 24  1  0  0  0  0
  7  8  1  0  0  0  0
  7  9  1  0  0  0  0
 28 29  1  0  0  0  0
 28 30  1  0  0  0  0
 28 31  1  0  0  0  0
 26 27  1  0  0  0  0
 26 28  1  0  0  0  0
M  END
$$$$
default_name
  -OEChem-01062215323D

 31 30  0     1  0  0  0  0  0999 V2000
   -3.5895   -3.5013    1.1082 H   0  0  0  0  0  0  0  0  0  0  0  0
   -3.5145   -2.5363    0.6082 C   0  0  0  0  0  0  0  0  0  0  0  0
   -4.2285   -1.8413    1.0452 H   0  0  0  0  0  0  0  0  0  0  0  0
   -3.7155   -2.6583   -0.4538 H   0  0  0  0  0  0  0  0  0  0  0  0
   -2.1155   -1.9963    0.7922 C   0  0  0  0  0  0  0  0  0  0  0  0
   -1.2875   -2.6383    1.4252 O   0  0  0  0  0  0  0  0  0  0  0  0
   -1.8575   -0.8123    0.2402 N   0  0  0  0  0  0  0  0  0  0  0  0
   -2.6005   -0.3333   -0.2478 H   0  0  0  0  0  0  0  0  0  0  0  0
   -0.5675   -0.1203    0.3102 C   0  0  1  0  0  0  0  0  0  0  0  0
   -0.6468    0.8079   -0.2568 H   0  0  0  0  0  0  0  0  0  0  0  0
   -0.2711    0.2181    1.7862 C   0  0  0  0  0  0  0  0  0  0  0  0
   -0.3010   -0.7050    2.3683 H   0  0  0  0  0  0  0  0  0  0  0  0
    0.7457    0.6128    1.8442 H   0  0  0  0  0  0  0  0  0  0  0  0
   -1.2193    1.2383    2.4426 C   0  0  0  0  0  0  0  0  0  0  0  0
   -2.2531    0.9219    2.3045 H   0  0  0  0  0  0  0  0  0  0  0  0
   -0.9450    1.4040    3.9402 C   0  0  0  0  0  0  0  0  0  0  0  0
    0.0918    1.7053    4.0958 H   0  0  0  0  0  0  0  0  0  0  0  0
   -1.6041    2.1688    4.3517 H   0  0  0  0  0  0  0  0  0  0  0  0
   -1.1273    0.4713    4.4696 H   0  0  0  0  0  0  0  0  0  0  0  0
   -1.0495    2.6035    1.7771 C   0  0  0  0  0  0  0  0  0  0  0  0
   -1.2702    2.5226    0.7128 H   0  0  0  0  0  0  0  0  0  0  0  0
   -1.7394    3.3209    2.2214 H   0  0  0  0  0  0  0  0  0  0  0  0
   -0.0269    2.9599    1.9066 H   0  0  0  0  0  0  0  0  0  0  0  0
    0.5339   -0.9836   -0.3283 C   0  0  0  0  0  0  0  0  0  0  0  0
    0.4556   -2.2095   -0.2924 O   0  0  0  0  0  0  0  0  0  0  0  0
    1.5617   -0.3439   -0.9011 N   0  0  0  0  0  0  0  0  0  0  0  0
    1.5516    0.6635   -0.8955 H   0  0  0  0  0  0  0  0  0  0  0  0
    2.6923   -1.0192   -1.5340 C   0  0  0  0  0  0  0  0  0  0  0  0
    2.3336   -1.6584   -2.3439 H   0  0  0  0  0  0  0  0  0  0  0  0
    3.3930   -0.2868   -1.9378 H   0  0  0  0  0  0  0  0  0  0  0  0
    3.2055   -1.6439   -0.8013 H   0  0  0  0  0  0  0  0  0  0  0  0
  5  6  2  0  0  0  0
  5  7  1  0  0  0  0
  2  3  1  0  0  0  0
  2  4  1  0  0  0  0
  2  5  1  0  0  0  0
  1  2  1  0  0  0  0
 24 25  2  0  0  0  0
 24 26  1  0  0  0  0
 20 21  1  0  0  0  0
 20 22  1  0  0  0  0
 20 23  1  0  0  0  0
 16 17  1  0  0  0  0
 16 18  1  0  0  0  0
 16 19  1  0  0  0  0
 14 15  1  0  0  0  0
 14 16  1  0  0  0  0
 14 20  1  0  0  0  0
 11 12  1  0  0  0  0
 11 13  1  0  0  0  0
 11 14  1  0  0  0  0
  9 10  1  0  0  0  0
  9 11  1  0  0  0  0
  9 24  1  0  0  0  0
  7  8  1  0  0  0  0
  7  9  1  0  0  0  0
 28 29  1  0  0  0  0
 28 30  1  0  0  0  0
 28 31  1  0  0  0  0
 26 27  1  0  0  0  0
 26 28  1  0  0  0  0
M  END
$$$$
default_name
  -OEChem-01062215323D

 31 30  0     1  0  0  0  0  0999 V2000
   -3.5895   -3.5013    1.1082 H   0  0  0  0  0  0  0  0  0  0  0  0
   -3.5145   -2.5363    0.6082 C   0  0  0  0  0  0  0  0  0  0  0  0
   -4.2285   -1.8413    1.0452 H   0  0  0  0  0  0  0  0  0  0  0  0
   -3.7155   -2.6583   -0.4538 H   0  0  0  0  0  0  0  0  0  0  0  0
   -2.1155   -1.9963    0.7922 C   0  0  0  0  0  0  0  0  0  0  0  0
   -1.2875   -2.6383    1.4252 O   0  0  0  0  0  0  0  0  0  0  0  0
   -1.8575   -0.8123    0.2402 N   0  0  0  0  0  0  0  0  0  0  0  0
   -2.6005   -0.3333   -0.2478 H   0  0  0  0  0  0  0  0  0  0  0  0
   -0.5675   -0.1203    0.3102 C   0  0  1  0  0  0  0  0  0  0  0  0
   -0.6468    0.8079   -0.2568 H   0  0  0  0  0  0  0  0  0  0  0  0
   -0.2711    0.2181    1.7862 C   0  0  0  0  0  0  0  0  0  0  0  0
   -0.3010   -0.7050    2.3683 H   0  0  0  0  0  0  0  0  0  0  0  0
    0.7457    0.6128    1.8442 H   0  0  0  0  0  0  0  0  0  0  0  0
   -1.2193    1.2383    2.4426 C   0  0  0  0  0  0  0  0  0  0  0  0
   -2.2531    0.9219    2.3045 H   0  0  0  0  0  0  0  0  0  0  0  0
   -0.9450    1.4040    3.9402 C   0  0  0  0  0  0  0  0  0  0  0  0
    0.0918    1.7053    4.0958 H   0  0  0  0  0  0  0  0  0  0  0  0
   -1.6041    2.1688    4.3517 H   0  0  0  0  0  0  0  0  0  0  0  0
   -1.1273    0.4713    4.4696 H   0  0  0  0  0  0  0  0  0  0  0  0
   -1.0495    2.6035    1.7771 C   0  0  0  0  0  0  0  0  0  0  0  0
   -1.2702    2.5226    0.7128 H   0  0  0  0  0  0  0  0  0  0  0  0
   -1.7394    3.3209    2.2214 H   0  0  0  0  0  0  0  0  0  0  0  0
   -0.0269    2.9599    1.9066 H   0  0  0  0  0  0  0  0  0  0  0  0
    0.5339   -0.9836   -0.3283 C   0  0  0  0  0  0  0  0  0  0  0  0
    0.3364   -2.1777   -0.5410 O   0  0  0  0  0  0  0  0  0  0  0  0
    1.6936   -0.3817   -0.6224 N   0  0  0  0  0  0  0  0  0  0  0  0
    1.7773    0.6024   -0.4237 H   0  0  0  0  0  0  0  0  0  0  0  0
    2.8404   -1.0659   -1.2152 C   0  0  0  0  0  0  0  0  0  0  0  0
    2.5536   -1.5031   -2.1743 H   0  0  0  0  0  0  0  0  0  0  0  0
    3.6610   -0.3639   -1.3714 H   0  0  0  0  0  0  0  0  0  0  0  0
    3.1728   -1.8682   -0.5545 H   0  0  0  0  0  0  0  0  0  0  0  0
  5  6  2  0  0  0  0
  5  7  1  0  0  0  0
  2  3  1  0  0  0  0
  2  4  1  0  0  0  0
  2  5  1  0  0  0  0
  1  2  1  0  0  0  0
 24 25  2  0  0  0  0
 24 26  1  0  0  0  0
 20 21  1  0  0  0  0
 20 22  1  0  0  0  0
 20 23  1  0  0  0  0
 16 17  1  0  0  0  0
 16 18  1  0  0  0  0
 16 19  1  0  0  0  0
 14 15  1  0  0  0  0
 14 16  1  0  0  0  0
 14 20  1  0  0  0  0
 11 12  1  0  0  0  0
 11 13  1  0  0  0  0
 11 14  1  0  0  0  0
  9 10  1  0  0  0  0
  9 11  1  0  0  0  0
  9 24  1  0  0  0  0
  7  8  1  0  0  0  0
  7  9  1  0  0  0  0
 28 29  1  0  0  0  0
 28 30  1  0  0  0  0
 28 31  1  0  0  0  0
 26 27  1  0  0  0  0
 26 28  1  0  0  0  0
M  END
$$$$
default_name
  -OEChem-01062215323D

 31 30  0     1  0  0  0  0  0999 V2000
   -3.5895   -3.5013    1.1082 H   0  0  0  0  0  0  0  0  0  0  0  0
   -3.5145   -2.5363    0.6082 C   0  0  0  0  0  0  0  0  0  0  0  0
   -4.2285   -1.8413    1.0452 H   0  0  0  0  0  0  0  0  0  0  0  0
   -3.7155   -2.6583   -0.4538 H   0  0  0  0  0  0  0  0  0  0  0  0
   -2.1155   -1.9963    0.7922 C   0  0  0  0  0  0  0  0  0  0  0  0
   -1.2875   -2.6383    1.4252 O   0  0  0  0  0  0  0  0  0  0  0  0
   -1.8575   -0.8123    0.2402 N   0  0  0  0  0  0  0  0  0  0  0  0
   -2.6005   -0.3333   -0.2478 H   0  0  0  0  0  0  0  0  0  0  0  0
   -0.5675   -0.1203    0.3102 C   0  0  1  0  0  0  0  0  0  0  0  0
   -0.7146    0.9100   -0.0158 H   0  0  0  0  0  0  0  0  0  0  0  0
   -0.0902   -0.1181    1.7776 C   0  0  0  0  0  0  0  0  0  0  0  0
   -0.0496   -1.1498    2.1325 H   0  0  0  0  0  0  0  0  0  0  0  0
    0.9266    0.2799    1.8010 H   0  0  0  0  0  0  0  0  0  0  0  0
   -0.9482    0.7009    2.7594 C   0  0  0  0  0  0  0  0  0  0  0  0
   -1.9917    0.3968    2.6785 H   0  0  0  0  0  0  0  0  0  0  0  0
   -0.4905    0.5294    4.2108 C   0  0  0  0  0  0  0  0  0  0  0  0
    0.5581    0.8149    4.3048 H   0  0  0  0  0  0  0  0  0  0  0  0
   -1.0923    1.1630    4.8628 H   0  0  0  0  0  0  0  0  0  0  0  0
   -0.6077   -0.5036    4.5311 H   0  0  0  0  0  0  0  0  0  0  0  0
   -0.8595    2.1855    2.4081 C   0  0  0  0  0  0  0  0  0  0  0  0
   -1.2102    2.3425    1.3881 H   0  0  0  0  0  0  0  0  0  0  0  0
   -1.4879    2.7647    3.0846 H   0  0  0  0  0  0  0  0  0  0  0  0
    0.1719    2.5302    2.4911 H   0  0  0  0  0  0  0  0  0  0  0  0
    0.4450   -0.7866   -0.6370 C   0  0  0  0  0  0  0  0  0  0  0  0
    0.1146   -1.7638   -1.3048 O   0  0  0  0  0  0  0  0  0  0  0  0
    1.6774   -0.2644   -0.6851 N   0  0  0  0  0  0  0  0  0  0  0  0
    1.8703    0.5414   -0.1120 H   0  0  0  0  0  0  0  0  0  0  0  0
    2.7545   -0.7915   -1.5197 C   0  0  0  0  0  0  0  0  0  0  0  0
    2.4510   -0.7728   -2.5689 H   0  0  0  0  0  0  0  0  0  0  0  0
    3.6574   -0.1916   -1.3962 H   0  0  0  0  0  0  0  0  0  0  0  0
    2.9664   -1.8244   -1.2390 H   0  0  0  0  0  0  0  0  0  0  0  0
  5  6  2  0  0  0  0
  5  7  1  0  0  0  0
  2  3  1  0  0  0  0
  2  4  1  0  0  0  0
  2  5  1  0  0  0  0
  1  2  1  0  0  0  0
 24 25  2  0  0  0  0
 24 26  1  0  0  0  0
 20 21  1  0  0  0  0
 20 22  1  0  0  0  0
 20 23  1  0  0  0  0
 16 17  1  0  0  0  0
 16 18  1  0  0  0  0
 16 19  1  0  0  0  0
 14 15  1  0  0  0  0
 14 16  1  0  0  0  0
 14 20  1  0  0  0  0
 11 12  1  0  0  0  0
 11 13  1  0  0  0  0
 11 14  1  0  0  0  0
  9 10  1  0  0  0  0
  9 11  1  0  0  0  0
  9 24  1  0  0  0  0
  7  8  1  0  0  0  0
  7  9  1  0  0  0  0
 28 29  1  0  0  0  0
 28 30  1  0  0  0  0
 28 31  1  0  0  0  0
 26 27  1  0  0  0  0
 26 28  1  0  0  0  0
M  END
$$$$
default_name
  -OEChem-01062215323D

 31 30  0     1  0  0  0  0  0999 V2000
   -3.5895   -3.5013    1.1082 H   0  0  0  0  0  0  0  0  0  0  0  0
   -3.5145   -2.5363    0.6082 C   0  0  0  0  0  0  0  0  0  0  0  0
   -4.2285   -1.8413    1.0452 H   0  0  0  0  0  0  0  0  0  0  0  0
   -3.7155   -2.6583   -0.4538 H   0  0  0  0  0  0  0  0  0  0  0  0
   -2.1155   -1.9963    0.7922 C   0  0  0  0  0  0  0  0  0  0  0  0
   -1.2875   -2.6383    1.4252 O   0  0  0  0  0  0  0  0  0  0  0  0
   -1.8575   -0.8123    0.2402 N   0  0  0  0  0  0  0  0  0  0  0  0
   -2.6005   -0.3333   -0.2478 H   0  0  0  0  0  0  0  0  0  0  0  0
   -0.5675   -0.1203    0.3102 C   0  0  1  0  0  0  0  0  0  0  0  0
   -0.7146    0.9100   -0.0158 H   0  0  0  0  0  0  0  0  0  0  0  0
   -0.0902   -0.1181    1.7776 C   0  0  0  0  0  0  0  0  0  0  0  0
   -0.0496   -1.1498    2.1325 H   0  0  0  0  0  0  0  0  0  0  0  0
    0.9266    0.2799    1.8010 H   0  0  0  0  0  0  0  0  0  0  0  0
   -0.9482    0.7009    2.7594 C   0  0  0  0  0  0  0  0  0  0  0  0
   -1.9917    0.3968    2.6785 H   0  0  0  0  0  0  0  0  0  0  0  0
   -0.4905    0.5294    4.2108 C   0  0  0  0  0  0  0  0  0  0  0  0
    0.5581    0.8149    4.3048 H   0  0  0  0  0  0  0  0  0  0  0  0
   -1.0923    1.1630    4.8628 H   0  0  0  0  0  0  0  0  0  0  0  0
   -0.6077   -0.5036    4.5311 H   0  0  0  0  0  0  0  0  0  0  0  0
   -0.8595    2.1855    2.4081 C   0  0  0  0  0  0  0  0  0  0  0  0
   -1.2102    2.3425    1.3881 H   0  0  0  0  0  0  0  0  0  0  0  0
   -1.4879    2.7647    3.0846 H   0  0  0  0  0  0  0  0  0  0  0  0
    0.1719    2.5302    2.4911 H   0  0  0  0  0  0  0  0  0  0  0  0
    0.4450   -0.7866   -0.6370 C   0  0  0  0  0  0  0  0  0  0  0  0
    0.0588   -1.5732   -1.4985 O   0  0  0  0  0  0  0  0  0  0  0  0
    1.7378   -0.4794   -0.4693 N   0  0  0  0  0  0  0  0  0  0  0  0
    1.9754    0.1790    0.2553 H   0  0  0  0  0  0  0  0  0  0  0  0
    2.8204   -1.0395   -1.2749 C   0  0  0  0  0  0  0  0  0  0  0  0
    2.6576   -0.8008   -2.3283 H   0  0  0  0  0  0  0  0  0  0  0  0
    3.7801   -0.6288   -0.9575 H   0  0  0  0  0  0  0  0  0  0  0  0
    2.8382   -2.1249   -1.1646 H   0  0  0  0  0  0  0  0  0  0  0  0
  5  6  2  0  0  0  0
  5  7  1  0  0  0  0
  2  3  1  0  0  0  0
  2  4  1  0  0  0  0
  2  5  1  0  0  0  0
  1  2  1  0  0  0  0
 24 25  2  0  0  0  0
 24 26  1  0  0  0  0
 20 21  1  0  0  0  0
 20 22  1  0  0  0  0
 20 23  1  0  0  0  0
 16 17  1  0  0  0  0
 16 18  1  0  0  0  0
 16 19  1  0  0  0  0
 14 15  1  0  0  0  0
 14 16  1  0  0  0  0
 14 20  1  0  0  0  0
 11 12  1  0  0  0  0
 11 13  1  0  0  0  0
 11 14  1  0  0  0  0
  9 10  1  0  0  0  0
  9 11  1  0  0  0  0
  9 24  1  0  0  0  0
  7  8  1  0  0  0  0
  7  9  1  0  0  0  0
 28 29  1  0  0  0  0
 28 30  1  0  0  0  0
 28 31  1  0  0  0  0
 26 27  1  0  0  0  0
 26 28  1  0  0  0  0
M  END
$$$$
default_name
  -OEChem-01062215323D

 31 30  0     1  0  0  0  0  0999 V2000
   -3.5895   -3.5013    1.1082 H   0  0  0  0  0  0  0  0  0  0  0  0
   -3.5145   -2.5363    0.6082 C   0  0  0  0  0  0  0  0  0  0  0  0
   -4.2285   -1.8413    1.0452 H   0  0  0  0  0  0  0  0  0  0  0  0
   -3.7155   -2.6583   -0.4538 H   0  0  0  0  0  0  0  0  0  0  0  0
   -2.1155   -1.9963    0.7922 C   0  0  0  0  0  0  0  0  0  0  0  0
   -1.2875   -2.6383    1.4252 O   0  0  0  0  0  0  0  0  0  0  0  0
   -1.8575   -0.8123    0.2402 N   0  0  0  0  0  0  0  0  0  0  0  0
   -2.6005   -0.3333   -0.2478 H   0  0  0  0  0  0  0  0  0  0  0  0
   -0.5675   -0.1203    0.3102 C   0  0  1  0  0  0  0  0  0  0  0  0
   -0.7146    0.9100   -0.0158 H   0  0  0  0  0  0  0  0  0  0  0  0
   -0.0902   -0.1181    1.7776 C   0  0  0  0  0  0  0  0  0  0  0  0
   -0.0496   -1.1498    2.1325 H   0  0  0  0  0  0  0  0  0  0  0  0
    0.9266    0.2799    1.8010 H   0  0  0  0  0  0  0  0  0  0  0  0
   -0.9482    0.7009    2.7594 C   0  0  0  0  0  0  0  0  0  0  0  0
   -1.9917    0.3968    2.6785 H   0  0  0  0  0  0  0  0  0  0  0  0
   -0.4905    0.5294    4.2108 C   0  0  0  0  0  0  0  0  0  0  0  0
    0.5581    0.8149    4.3048 H   0  0  0  0  0  0  0  0  0  0  0  0
   -1.0923    1.1630    4.8628 H   0  0  0  0  0  0  0  0  0  0  0  0
   -0.6077   -0.5036    4.5311 H   0  0  0  0  0  0  0  0  0  0  0  0
   -0.8595    2.1855    2.4081 C   0  0  0  0  0  0  0  0  0  0  0  0
   -1.2102    2.3425    1.3881 H   0  0  0  0  0  0  0  0  0  0  0  0
   -1.4879    2.7647    3.0846 H   0  0  0  0  0  0  0  0  0  0  0  0
    0.1719    2.5302    2.4911 H   0  0  0  0  0  0  0  0  0  0  0  0
    0.4450   -0.7866   -0.6370 C   0  0  0  0  0  0  0  0  0  0  0  0
    0.0570   -1.3472   -1.6594 O   0  0  0  0  0  0  0  0  0  0  0  0
    1.7377   -0.7336   -0.2906 N   0  0  0  0  0  0  0  0  0  0  0  0
    1.9780   -0.2504    0.5602 H   0  0  0  0  0  0  0  0  0  0  0  0
    2.8170   -1.3313   -1.0733 C   0  0  0  0  0  0  0  0  0  0  0  0
    2.8257   -0.9018   -2.0776 H   0  0  0  0  0  0  0  0  0  0  0  0
    3.7796   -1.1453   -0.5946 H   0  0  0  0  0  0  0  0  0  0  0  0
    2.6582   -2.4074   -1.1583 H   0  0  0  0  0  0  0  0  0  0  0  0
  5  6  2  0  0  0  0
  5  7  1  0  0  0  0
  2  3  1  0  0  0  0
  2  4  1  0  0  0  0
  2  5  1  0  0  0  0
  1  2  1  0  0  0  0
 24 25  2  0  0  0  0
 24 26  1  0  0  0  0
 20 21  1  0  0  0  0
 20 22  1  0  0  0  0
 20 23  1  0  0  0  0
 16 17  1  0  0  0  0
 16 18  1  0  0  0  0
 16 19  1  0  0  0  0
 14 15  1  0  0  0  0
 14 16  1  0  0  0  0
 14 20  1  0  0  0  0
 11 12  1  0  0  0  0
 11 13  1  0  0  0  0
 11 14  1  0  0  0  0
  9 10  1  0  0  0  0
  9 11  1  0  0  0  0
  9 24  1  0  0  0  0
  7  8  1  0  0  0  0
  7  9  1  0  0  0  0
 28 29  1  0  0  0  0
 28 30  1  0  0  0  0
 28 31  1  0  0  0  0
 26 27  1  0  0  0  0
 26 28  1  0  0  0  0
M  END
$$$$
default_name
  -OEChem-01062215323D

 31 30  0     1  0  0  0  0  0999 V2000
   -3.5895   -3.5013    1.1082 H   0  0  0  0  0  0  0  0  0  0  0  0
   -3.5145   -2.5363    0.6082 C   0  0  0  0  0  0  0  0  0  0  0  0
   -4.2285   -1.8413    1.0452 H   0  0  0  0  0  0  0  0  0  0  0  0
   -3.7155   -2.6583   -0.4538 H   0  0  0  0  0  0  0  0  0  0  0  0
   -2.1155   -1.9963    0.7922 C   0  0  0  0  0  0  0  0  0  0  0  0
   -1.2875   -2.6383    1.4252 O   0  0  0  0  0  0  0  0  0  0  0  0
   -1.8575   -0.8123    0.2402 N   0  0  0  0  0  0  0  0  0  0  0  0
   -2.6005   -0.3333   -0.2478 H   0  0  0  0  0  0  0  0  0  0  0  0
   -0.5675   -0.1203    0.3102 C   0  0  1  0  0  0  0  0  0  0  0  0
   -0.7146    0.9100   -0.0158 H   0  0  0  0  0  0  0  0  0  0  0  0
   -0.0902   -0.1181    1.7776 C   0  0  0  0  0  0  0  0  0  0  0  0
   -0.0496   -1.1498    2.1325 H   0  0  0  0  0  0  0  0  0  0  0  0
    0.9266    0.2799    1.8010 H   0  0  0  0  0  0  0  0  0  0  0  0
   -0.9482    0.7009    2.7594 C   0  0  0  0  0  0  0  0  0  0  0  0
   -1.9917    0.3968    2.6785 H   0  0  0  0  0  0  0  0  0  0  0  0
   -0.4905    0.5294    4.2108 C   0  0  0  0  0  0  0  0  0  0  0  0
    0.5581    0.8149    4.3048 H   0  0  0  0  0  0  0  0  0  0  0  0
   -1.0923    1.1630    4.8628 H   0  0  0  0  0  0  0  0  0  0  0  0
   -0.6077   -0.5036    4.5311 H   0  0  0  0  0  0  0  0  0  0  0  0
   -0.8595    2.1855    2.4081 C   0  0  0  0  0  0  0  0  0  0  0  0
   -1.2102    2.3425    1.3881 H   0  0  0  0  0  0  0  0  0  0  0  0
   -1.4879    2.7647    3.0846 H   0  0  0  0  0  0  0  0  0  0  0  0
    0.1719    2.5302    2.4911 H   0  0  0  0  0  0  0  0  0  0  0  0
    0.4450   -0.7866   -0.6370 C   0  0  0  0  0  0  0  0  0  0  0  0
    0.1094   -1.1012   -1.7765 O   0  0  0  0  0  0  0  0  0  0  0  0
    1.6770   -1.0094   -0.1613 N   0  0  0  0  0  0  0  0  0  0  0  0
    1.8778   -0.7175    0.7818 H   0  0  0  0  0  0  0  0  0  0  0  0
    2.7446   -1.6469   -0.9286 C   0  0  0  0  0  0  0  0  0  0  0  0
    2.9439   -1.0688   -1.8338 H   0  0  0  0  0  0  0  0  0  0  0  0
    3.6562   -1.7061   -0.3320 H   0  0  0  0  0  0  0  0  0  0  0  0
    2.4385   -2.6527   -1.2205 H   0  0  0  0  0  0  0  0  0  0  0  0
  5  6  2  0  0  0  0
  5  7  1  0  0  0  0
  2  3  1  0  0  0  0
  2  4  1  0  0  0  0
  2  5  1  0  0  0  0
  1  2  1  0  0  0  0
 24 25  2  0  0  0  0
 24 26  1  0  0  0  0
 20 21  1  0  0  0  0
 20 22  1  0  0  0  0
 20 23  1  0  0  0  0
 16 17  1  0  0  0  0
 16 18  1  0  0  0  0
 16 19  1  0  0  0  0
 14 15  1  0  0  0  0
 14 16  1  0  0  0  0
 14 20  1  0  0  0  0
 11 12  1  0  0  0  0
 11 13  1  0  0  0  0
 11 14  1  0  0  0  0
  9 10  1  0  0  0  0
  9 11  1  0  0  0  0
  9 24  1  0  0  0  0
  7  8  1  0  0  0  0
  7  9  1  0  0  0  0
 28 29  1  0  0  0  0
 28 30  1  0  0  0  0
 28 31  1  0  0  0  0
 26 27  1  0  0  0  0
 26 28  1  0  0  0  0
M  END
$$$$
default_name
  -OEChem-01062215323D

 31 30  0     1  0  0  0  0  0999 V2000
   -3.5895   -3.5013    1.1082 H   0  0  0  0  0  0  0  0  0  0  0  0
   -3.5145   -2.5363    0.6082 C   0  0  0  0  0  0  0  0  0  0  0  0
   -4.2285   -1.8413    1.0452 H   0  0  0  0  0  0  0  0  0  0  0  0
   -3.7155   -2.6583   -0.4538 H   0  0  0  0  0  0  0  0  0  0  0  0
   -2.1155   -1.9963    0.7922 C   0  0  0  0  0  0  0  0  0  0  0  0
   -1.2875   -2.6383    1.4252 O   0  0  0  0  0  0  0  0  0  0  0  0
   -1.8575   -0.8123    0.2402 N   0  0  0  0  0  0  0  0  0  0  0  0
   -2.6005   -0.3333   -0.2478 H   0  0  0  0  0  0  0  0  0  0  0  0
   -0.5675   -0.1203    0.3102 C   0  0  1  0  0  0  0  0  0  0  0  0
   -0.7146    0.9100   -0.0158 H   0  0  0  0  0  0  0  0  0  0  0  0
   -0.0902   -0.1181    1.7776 C   0  0  0  0  0  0  0  0  0  0  0  0
   -0.0496   -1.1498    2.1325 H   0  0  0  0  0  0  0  0  0  0  0  0
    0.9266    0.2799    1.8010 H   0  0  0  0  0  0  0  0  0  0  0  0
   -0.9482    0.7009    2.7594 C   0  0  0  0  0  0  0  0  0  0  0  0
   -1.9917    0.3968    2.6785 H   0  0  0  0  0  0  0  0  0  0  0  0
   -0.4905    0.5294    4.2108 C   0  0  0  0  0  0  0  0  0  0  0  0
    0.5581    0.8149    4.3048 H   0  0  0  0  0  0  0  0  0  0  0  0
   -1.0923    1.1630    4.8628 H   0  0  0  0  0  0  0  0  0  0  0  0
   -0.6077   -0.5036    4.5311 H   0  0  0  0  0  0  0  0  0  0  0  0
   -0.8595    2.1855    2.4081 C   0  0  0  0  0  0  0  0  0  0  0  0
   -1.2102    2.3425    1.3881 H   0  0  0  0  0  0  0  0  0  0  0  0
   -1.4879    2.7647    3.0846 H   0  0  0  0  0  0  0  0  0  0  0  0
    0.1719    2.5302    2.4911 H   0  0  0  0  0  0  0  0  0  0  0  0
    0.4450   -0.7866   -0.6370 C   0  0  0  0  0  0  0  0  0  0  0  0
    0.2123   -0.8520   -1.8418 O   0  0  0  0  0  0  0  0  0  0  0  0
    1.5600   -1.2883   -0.0903 N   0  0  0  0  0  0  0  0  0  0  0  0
    1.6819   -1.1905    0.9050 H   0  0  0  0  0  0  0  0  0  0  0  0
    2.6082   -1.9649   -0.8507 C   0  0  0  0  0  0  0  0  0  0  0  0
    3.0041   -1.2905   -1.6134 H   0  0  0  0  0  0  0  0  0  0  0  0
    3.4182   -2.2727   -0.1878 H   0  0  0  0  0  0  0  0  0  0  0  0
    2.1942   -2.8440   -1.3471 H   0  0  0  0  0  0  0  0  0  0  0  0
  5  6  2  0  0  0  0
  5  7  1  0  0  0  0
  2  3  1  0  0  0  0
  2  4  1  0  0  0  0
  2  5  1  0  0  0  0
  1  2  1  0  0  0  0
 24 25  2  0  0  0  0
 24 26  1  0  0  0  0
 20 21  1  0  0  0  0
 20 22  1  0  0  0  0
 20 23  1  0  0  0  0
 16 17  1  0  0  0  0
 16 18  1  0  0  0  0
 16 19  1  0  0  0  0
 14 15  1  0  0  0  0
 14 16  1  0  0  0  0
 14 20  1  0  0  0  0
 11 12  1  0  0  0  0
 11 13  1  0  0  0  0
 11 14  1  0  0  0  0
  9 10  1  0  0  0  0
  9 11  1  0  0  0  0
  9 24  1  0  0  0  0
  7  8  1  0  0  0  0
  7  9  1  0  0  0  0
 28 29  1  0  0  0  0
 28 30  1  0  0  0  0
 28 31  1  0  0  0  0
 26 27  1  0  0  0  0
 26 28  1  0  0  0  0
M  END
$$$$
default_name
  -OEChem-01062215323D

 31 30  0     1  0  0  0  0  0999 V2000
   -3.5895   -3.5013    1.1082 H   0  0  0  0  0  0  0  0  0  0  0  0
   -3.5145   -2.5363    0.6082 C   0  0  0  0  0  0  0  0  0  0  0  0
   -4.2285   -1.8413    1.0452 H   0  0  0  0  0  0  0  0  0  0  0  0
   -3.7155   -2.6583   -0.4538 H   0  0  0  0  0  0  0  0  0  0  0  0
   -2.1155   -1.9963    0.7922 C   0  0  0  0  0  0  0  0  0  0  0  0
   -1.2875   -2.6383    1.4252 O   0  0  0  0  0  0  0  0  0  0  0  0
   -1.8575   -0.8123    0.2402 N   0  0  0  0  0  0  0  0  0  0  0  0
   -2.6005   -0.3333   -0.2478 H   0  0  0  0  0  0  0  0  0  0  0  0
   -0.5675   -0.1203    0.3102 C   0  0  1  0  0  0  0  0  0  0  0  0
   -0.7146    0.9100   -0.0158 H   0  0  0  0  0  0  0  0  0  0  0  0
   -0.0902   -0.1181    1.7776 C   0  0  0  0  0  0  0  0  0  0  0  0
   -0.0496   -1.1498    2.1325 H   0  0  0  0  0  0  0  0  0  0  0  0
    0.9266    0.2799    1.8010 H   0  0  0  0  0  0  0  0  0  0  0  0
   -0.9482    0.7009    2.7594 C   0  0  0  0  0  0  0  0  0  0  0  0
   -1.9917    0.3968    2.6785 H   0  0  0  0  0  0  0  0  0  0  0  0
   -0.4905    0.5294    4.2108 C   0  0  0  0  0  0  0  0  0  0  0  0
    0.5581    0.8149    4.3048 H   0  0  0  0  0  0  0  0  0  0  0  0
   -1.0923    1.1630    4.8628 H   0  0  0  0  0  0  0  0  0  0  0  0
   -0.6077   -0.5036    4.5311 H   0  0  0  0  0  0  0  0  0  0  0  0
   -0.8595    2.1855    2.4081 C   0  0  0  0  0  0  0  0  0  0  0  0
   -1.2102    2.3425    1.3881 H   0  0  0  0  0  0  0  0  0  0  0  0
   -1.4879    2.7647    3.0846 H   0  0  0  0  0  0  0  0  0  0  0  0
    0.1719    2.5302    2.4911 H   0  0  0  0  0  0  0  0  0  0  0  0
    0.4450   -0.7866   -0.6370 C   0  0  0  0  0  0  0  0  0  0  0  0
    0.3587   -0.6165   -1.8509 O   0  0  0  0  0  0  0  0  0  0  0  0
    1.3945   -1.5511   -0.0823 N   0  0  0  0  0  0  0  0  0  0  0  0
    1.4034   -1.6371    0.9215 H   0  0  0  0  0  0  0  0  0  0  0  0
    2.4170   -2.2635   -0.8450 C   0  0  0  0  0  0  0  0  0  0  0  0
    3.0022   -1.5518   -1.4316 H   0  0  0  0  0  0  0  0  0  0  0  0
    3.0818   -2.8068   -0.1717 H   0  0  0  0  0  0  0  0  0  0  0  0
    1.9420   -2.9683   -1.5293 H   0  0  0  0  0  0  0  0  0  0  0  0
  5  6  2  0  0  0  0
  5  7  1  0  0  0  0
  2  3  1  0  0  0  0
  2  4  1  0  0  0  0
  2  5  1  0  0  0  0
  1  2  1  0  0  0  0
 24 25  2  0  0  0  0
 24 26  1  0  0  0  0
 20 21  1  0  0  0  0
 20 22  1  0  0  0  0
 20 23  1  0  0  0  0
 16 17  1  0  0  0  0
 16 18  1  0  0  0  0
 16 19  1  0  0  0  0
 14 15  1  0  0  0  0
 14 16  1  0  0  0  0
 14 20  1  0  0  0  0
 11 12  1  0  0  0  0
 11 13  1  0  0  0  0
 11 14  1  0  0  0  0
  9 10  1  0  0  0  0
  9 11  1  0  0  0  0
  9 24  1  0  0  0  0
  7  8  1  0  0  0  0
  7  9  1  0  0  0  0
 28 29  1  0  0  0  0
 28 30  1  0  0  0  0
 28 31  1  0  0  0  0
 26 27  1  0  0  0  0
 26 28  1  0  0  0  0
M  END
$$$$
default_name
  -OEChem-01062215323D

 31 30  0     1  0  0  0  0  0999 V2000
   -3.5895   -3.5013    1.1082 H   0  0  0  0  0  0  0  0  0  0  0  0
   -3.5145   -2.5363    0.6082 C   0  0  0  0  0  0  0  0  0  0  0  0
   -4.2285   -1.8413    1.0452 H   0  0  0  0  0  0  0  0  0  0  0  0
   -3.7155   -2.6583   -0.4538 H   0  0  0  0  0  0  0  0  0  0  0  0
   -2.1155   -1.9963    0.7922 C   0  0  0  0  0  0  0  0  0  0  0  0
   -1.2875   -2.6383    1.4252 O   0  0  0  0  0  0  0  0  0  0  0  0
   -1.8575   -0.8123    0.2402 N   0  0  0  0  0  0  0  0  0  0  0  0
   -2.6005   -0.3333   -0.2478 H   0  0  0  0  0  0  0  0  0  0  0  0
   -0.5675   -0.1203    0.3102 C   0  0  1  0  0  0  0  0  0  0  0  0
   -0.7146    0.9100   -0.0158 H   0  0  0  0  0  0  0  0  0  0  0  0
   -0.0902   -0.1181    1.7776 C   0  0  0  0  0  0  0  0  0  0  0  0
   -0.0496   -1.1498    2.1325 H   0  0  0  0  0  0  0  0  0  0  0  0
    0.9266    0.2799    1.8010 H   0  0  0  0  0  0  0  0  0  0  0  0
   -0.9482    0.7009    2.7594 C   0  0  0  0  0  0  0  0  0  0  0  0
   -1.9917    0.3968    2.6785 H   0  0  0  0  0  0  0  0  0  0  0  0
   -0.4905    0.5294    4.2108 C   0  0  0  0  0  0  0  0  0  0  0  0
    0.5581    0.8149    4.3048 H   0  0  0  0  0  0  0  0  0  0  0  0
   -1.0923    1.1630    4.8628 H   0  0  0  0  0  0  0  0  0  0  0  0
   -0.6077   -0.5036    4.5311 H   0  0  0  0  0  0  0  0  0  0  0  0
   -0.8595    2.1855    2.4081 C   0  0  0  0  0  0  0  0  0  0  0  0
   -1.2102    2.3425    1.3881 H   0  0  0  0  0  0  0  0  0  0  0  0
   -1.4879    2.7647    3.0846 H   0  0  0  0  0  0  0  0  0  0  0  0
    0.1719    2.5302    2.4911 H   0  0  0  0  0  0  0  0  0  0  0  0
    0.4450   -0.7866   -0.6370 C   0  0  0  0  0  0  0  0  0  0  0  0
    0.5387   -0.4109   -1.8032 O   0  0  0  0  0  0  0  0  0  0  0  0
    1.1919   -1.7799   -0.1378 N   0  0  0  0  0  0  0  0  0  0  0  0
    1.0613   -2.0269    0.8301 H   0  0  0  0  0  0  0  0  0  0  0  0
    2.1841   -2.5225   -0.9118 C   0  0  0  0  0  0  0  0  0  0  0  0
    2.9384   -1.8349   -1.3007 H   0  0  0  0  0  0  0  0  0  0  0  0
    2.6700   -3.2717   -0.2848 H   0  0  0  0  0  0  0  0  0  0  0  0
    1.6989   -3.0171   -1.7547 H   0  0  0  0  0  0  0  0  0  0  0  0
  5  6  2  0  0  0  0
  5  7  1  0  0  0  0
  2  3  1  0  0  0  0
  2  4  1  0  0  0  0
  2  5  1  0  0  0  0
  1  2  1  0  0  0  0
 24 25  2  0  0  0  0
 24 26  1  0  0  0  0
 20 21  1  0  0  0  0
 20 22  1  0  0  0  0
 20 23  1  0  0  0  0
 16 17  1  0  0  0  0
 16 18  1  0  0  0  0
 16 19  1  0  0  0  0
 14 15  1  0  0  0  0
 14 16  1  0  0  0  0
 14 20  1  0  0  0  0
 11 12  1  0  0  0  0
 11 13  1  0  0  0  0
 11 14  1  0  0  0  0
  9 10  1  0  0  0  0
  9 11  1  0  0  0  0
  9 24  1  0  0  0  0
  7  8  1  0  0  0  0
  7  9  1  0  0  0  0
 28 29  1  0  0  0  0
 28 30  1  0  0  0  0
 28 31  1  0  0  0  0
 26 27  1  0  0  0  0
 26 28  1  0  0  0  0
M  END
$$$$
default_name
  -OEChem-01062215323D

 31 30  0     1  0  0  0  0  0999 V2000
   -3.5895   -3.5013    1.1082 H   0  0  0  0  0  0  0  0  0  0  0  0
   -3.5145   -2.5363    0.6082 C   0  0  0  0  0  0  0  0  0  0  0  0
   -4.2285   -1.8413    1.0452 H   0  0  0  0  0  0  0  0  0  0  0  0
   -3.7155   -2.6583   -0.4538 H   0  0  0  0  0  0  0  0  0  0  0  0
   -2.1155   -1.9963    0.7922 C   0  0  0  0  0  0  0  0  0  0  0  0
   -1.2875   -2.6383    1.4252 O   0  0  0  0  0  0  0  0  0  0  0  0
   -1.8575   -0.8123    0.2402 N   0  0  0  0  0  0  0  0  0  0  0  0
   -2.6005   -0.3333   -0.2478 H   0  0  0  0  0  0  0  0  0  0  0  0
   -0.5675   -0.1203    0.3102 C   0  0  1  0  0  0  0  0  0  0  0  0
   -0.7146    0.9100   -0.0158 H   0  0  0  0  0  0  0  0  0  0  0  0
   -0.0902   -0.1181    1.7776 C   0  0  0  0  0  0  0  0  0  0  0  0
   -0.0496   -1.1498    2.1325 H   0  0  0  0  0  0  0  0  0  0  0  0
    0.9266    0.2799    1.8010 H   0  0  0  0  0  0  0  0  0  0  0  0
   -0.9482    0.7009    2.7594 C   0  0  0  0  0  0  0  0  0  0  0  0
   -1.9917    0.3968    2.6785 H   0  0  0  0  0  0  0  0  0  0  0  0
   -0.4905    0.5294    4.2108 C   0  0  0  0  0  0  0  0  0  0  0  0
    0.5581    0.8149    4.3048 H   0  0  0  0  0  0  0  0  0  0  0  0
   -1.0923    1.1630    4.8628 H   0  0  0  0  0  0  0  0  0  0  0  0
   -0.6077   -0.5036    4.5311 H   0  0  0  0  0  0  0  0  0  0  0  0
   -0.8595    2.1855    2.4081 C   0  0  0  0  0  0  0  0  0  0  0  0
   -1.2102    2.3425    1.3881 H   0  0  0  0  0  0  0  0  0  0  0  0
   -1.4879    2.7647    3.0846 H   0  0  0  0  0  0  0  0  0  0  0  0
    0.1719    2.5302    2.4911 H   0  0  0  0  0  0  0  0  0  0  0  0
    0.4450   -0.7866   -0.6370 C   0  0  0  0  0  0  0  0  0  0  0  0
    0.7400   -0.2490   -1.7019 O   0  0  0  0  0  0  0  0  0  0  0  0
    0.9660   -1.9592   -0.2532 N   0  0  0  0  0  0  0  0  0  0  0  0
    0.6791   -2.3334    0.6371 H   0  0  0  0  0  0  0  0  0  0  0  0
    1.9253   -2.7242   -1.0465 C   0  0  0  0  0  0  0  0  0  0  0  0
    2.8170   -2.1204   -1.2297 H   0  0  0  0  0  0  0  0  0  0  0  0
    2.2108   -3.6359   -0.5195 H   0  0  0  0  0  0  0  0  0  0  0  0
    1.4817   -2.9871   -2.0081 H   0  0  0  0  0  0  0  0  0  0  0  0
  5  6  2  0  0  0  0
  5  7  1  0  0  0  0
  2  3  1  0  0  0  0
  2  4  1  0  0  0  0
  2  5  1  0  0  0  0
  1  2  1  0  0  0  0
 24 25  2  0  0  0  0
 24 26  1  0  0  0  0
 20 21  1  0  0  0  0
 20 22  1  0  0  0  0
 20 23  1  0  0  0  0
 16 17  1  0  0  0  0
 16 18  1  0  0  0  0
 16 19  1  0  0  0  0
 14 15  1  0  0  0  0
 14 16  1  0  0  0  0
 14 20  1  0  0  0  0
 11 12  1  0  0  0  0
 11 13  1  0  0  0  0
 11 14  1  0  0  0  0
  9 10  1  0  0  0  0
  9 11  1  0  0  0  0
  9 24  1  0  0  0  0
  7  8  1  0  0  0  0
  7  9  1  0  0  0  0
 28 29  1  0  0  0  0
 28 30  1  0  0  0  0
 28 31  1  0  0  0  0
 26 27  1  0  0  0  0
 26 28  1  0  0  0  0
M  END
$$$$
default_name
  -OEChem-01062215323D

 31 30  0     1  0  0  0  0  0999 V2000
   -3.5895   -3.5013    1.1082 H   0  0  0  0  0  0  0  0  0  0  0  0
   -3.5145   -2.5363    0.6082 C   0  0  0  0  0  0  0  0  0  0  0  0
   -4.2285   -1.8413    1.0452 H   0  0  0  0  0  0  0  0  0  0  0  0
   -3.7155   -2.6583   -0.4538 H   0  0  0  0  0  0  0  0  0  0  0  0
   -2.1155   -1.9963    0.7922 C   0  0  0  0  0  0  0  0  0  0  0  0
   -1.2875   -2.6383    1.4252 O   0  0  0  0  0  0  0  0  0  0  0  0
   -1.8575   -0.8123    0.2402 N   0  0  0  0  0  0  0  0  0  0  0  0
   -2.6005   -0.3333   -0.2478 H   0  0  0  0  0  0  0  0  0  0  0  0
   -0.5675   -0.1203    0.3102 C   0  0  1  0  0  0  0  0  0  0  0  0
   -0.7146    0.9100   -0.0158 H   0  0  0  0  0  0  0  0  0  0  0  0
   -0.0902   -0.1181    1.7776 C   0  0  0  0  0  0  0  0  0  0  0  0
   -0.0496   -1.1498    2.1325 H   0  0  0  0  0  0  0  0  0  0  0  0
    0.9266    0.2799    1.8010 H   0  0  0  0  0  0  0  0  0  0  0  0
   -0.9482    0.7009    2.7594 C   0  0  0  0  0  0  0  0  0  0  0  0
   -1.9917    0.3968    2.6785 H   0  0  0  0  0  0  0  0  0  0  0  0
   -0.4905    0.5294    4.2108 C   0  0  0  0  0  0  0  0  0  0  0  0
    0.5581    0.8149    4.3048 H   0  0  0  0  0  0  0  0  0  0  0  0
   -1.0923    1.1630    4.8628 H   0  0  0  0  0  0  0  0  0  0  0  0
   -0.6077   -0.5036    4.5311 H   0  0  0  0  0  0  0  0  0  0  0  0
   -0.8595    2.1855    2.4081 C   0  0  0  0  0  0  0  0  0  0  0  0
   -1.2102    2.3425    1.3881 H   0  0  0  0  0  0  0  0  0  0  0  0
   -1.4879    2.7647    3.0846 H   0  0  0  0  0  0  0  0  0  0  0  0
    0.1719    2.5302    2.4911 H   0  0  0  0  0  0  0  0  0  0  0  0
    0.4450   -0.7866   -0.6370 C   0  0  0  0  0  0  0  0  0  0  0  0
    0.9488   -0.1421   -1.5539 O   0  0  0  0  0  0  0  0  0  0  0  0
    0.7321   -2.0767   -0.4205 N   0  0  0  0  0  0  0  0  0  0  0  0
    0.2826   -2.5356    0.3556 H   0  0  0  0  0  0  0  0  0  0  0  0
    1.6583   -2.8548   -1.2400 C   0  0  0  0  0  0  0  0  0  0  0  0
    2.6462   -2.3889   -1.2233 H   0  0  0  0  0  0  0  0  0  0  0  0
    1.7355   -3.8746   -0.8596 H   0  0  0  0  0  0  0  0  0  0  0  0
    1.3050   -2.8804   -2.2720 H   0  0  0  0  0  0  0  0  0  0  0  0
  5  6  2  0  0  0  0
  5  7  1  0  0  0  0
  2  3  1  0  0  0  0
  2  4  1  0  0  0  0
  2  5  1  0  0  0  0
  1  2  1  0  0  0  0
 24 25  2  0  0  0  0
 24 26  1  0  0  0  0
 20 21  1  0  0  0  0
 20 22  1  0  0  0  0
 20 23  1  0  0  0  0
 16 17  1  0  0  0  0
 16 18  1  0  0  0  0
 16 19  1  0  0  0  0
 14 15  1  0  0  0  0
 14 16  1  0  0  0  0
 14 20  1  0  0  0  0
 11 12  1  0  0  0  0
 11 13  1  0  0  0  0
 11 14  1  0  0  0  0
  9 10  1  0  0  0  0
  9 11  1  0  0  0  0
  9 24  1  0  0  0  0
  7  8  1  0  0  0  0
  7  9  1  0  0  0  0
 28 29  1  0  0  0  0
 28 30  1  0  0  0  0
 28 31  1  0  0  0  0
 26 27  1  0  0  0  0
 26 28  1  0  0  0  0
M  END
$$$$
default_name
  -OEChem-01062215323D

 31 30  0     1  0  0  0  0  0999 V2000
   -3.5895   -3.5013    1.1082 H   0  0  0  0  0  0  0  0  0  0  0  0
   -3.5145   -2.5363    0.6082 C   0  0  0  0  0  0  0  0  0  0  0  0
   -4.2285   -1.8413    1.0452 H   0  0  0  0  0  0  0  0  0  0  0  0
   -3.7155   -2.6583   -0.4538 H   0  0  0  0  0  0  0  0  0  0  0  0
   -2.1155   -1.9963    0.7922 C   0  0  0  0  0  0  0  0  0  0  0  0
   -1.2875   -2.6383    1.4252 O   0  0  0  0  0  0  0  0  0  0  0  0
   -1.8575   -0.8123    0.2402 N   0  0  0  0  0  0  0  0  0  0  0  0
   -2.6005   -0.3333   -0.2478 H   0  0  0  0  0  0  0  0  0  0  0  0
   -0.5675   -0.1203    0.3102 C   0  0  1  0  0  0  0  0  0  0  0  0
   -0.7146    0.9100   -0.0158 H   0  0  0  0  0  0  0  0  0  0  0  0
   -0.0902   -0.1181    1.7776 C   0  0  0  0  0  0  0  0  0  0  0  0
   -0.0496   -1.1498    2.1325 H   0  0  0  0  0  0  0  0  0  0  0  0
    0.9266    0.2799    1.8010 H   0  0  0  0  0  0  0  0  0  0  0  0
   -0.9482    0.7009    2.7594 C   0  0  0  0  0  0  0  0  0  0  0  0
   -1.9917    0.3968    2.6785 H   0  0  0  0  0  0  0  0  0  0  0  0
   -0.4905    0.5294    4.2108 C   0  0  0  0  0  0  0  0  0  0  0  0
    0.5581    0.8149    4.3048 H   0  0  0  0  0  0  0  0  0  0  0  0
   -1.0923    1.1630    4.8628 H   0  0  0  0  0  0  0  0  0  0  0  0
   -0.6077   -0.5036    4.5311 H   0  0  0  0  0  0  0  0  0  0  0  0
   -0.8595    2.1855    2.4081 C   0  0  0  0  0  0  0  0  0  0  0  0
   -1.2102    2.3425    1.3881 H   0  0  0  0  0  0  0  0  0  0  0  0
   -1.4879    2.7647    3.0846 H   0  0  0  0  0  0  0  0  0  0  0  0
    0.1719    2.5302    2.4911 H   0  0  0  0  0  0  0  0  0  0  0  0
    0.4450   -0.7866   -0.6370 C   0  0  0  0  0  0  0  0  0  0  0  0
    1.1510   -0.0972   -1.3693 O   0  0  0  0  0  0  0  0  0  0  0  0
    0.5063   -2.1245   -0.6284 N   0  0  0  0  0  0  0  0  0  0  0  0
   -0.1010   -2.6198    0.0048 H   0  0  0  0  0  0  0  0  0  0  0  0
    1.4013   -2.9055   -1.4791 C   0  0  0  0  0  0  0  0  0  0  0  0
    2.4377   -2.6222   -1.2820 H   0  0  0  0  0  0  0  0  0  0  0  0
    1.2765   -3.9714   -1.2822 H   0  0  0  0  0  0  0  0  0  0  0  0
    1.1810   -2.7042   -2.5286 H   0  0  0  0  0  0  0  0  0  0  0  0
  5  6  2  0  0  0  0
  5  7  1  0  0  0  0
  2  3  1  0  0  0  0
  2  4  1  0  0  0  0
  2  5  1  0  0  0  0
  1  2  1  0  0  0  0
 24 25  2  0  0  0  0
 24 26  1  0  0  0  0
 20 21  1  0  0  0  0
 20 22  1  0  0  0  0
 20 23  1  0  0  0  0
 16 17  1  0  0  0  0
 16 18  1  0  0  0  0
 16 19  1  0  0  0  0
 14 15  1  0  0  0  0
 14 16  1  0  0  0  0
 14 20  1  0  0  0  0
 11 12  1  0  0  0  0
 11 13  1  0  0  0  0
 11 14  1  0  0  0  0
  9 10  1  0  0  0  0
  9 11  1  0  0  0  0
  9 24  1  0  0  0  0
  7  8  1  0  0  0  0
  7  9  1  0  0  0  0
 28 29  1  0  0  0  0
 28 30  1  0  0  0  0
 28 31  1  0  0  0  0
 26 27  1  0  0  0  0
 26 28  1  0  0  0  0
M  END
$$$$
default_name
  -OEChem-01062215323D

 31 30  0     1  0  0  0  0  0999 V2000
   -3.5895   -3.5013    1.1082 H   0  0  0  0  0  0  0  0  0  0  0  0
   -3.5145   -2.5363    0.6082 C   0  0  0  0  0  0  0  0  0  0  0  0
   -4.2285   -1.8413    1.0452 H   0  0  0  0  0  0  0  0  0  0  0  0
   -3.7155   -2.6583   -0.4538 H   0  0  0  0  0  0  0  0  0  0  0  0
   -2.1155   -1.9963    0.7922 C   0  0  0  0  0  0  0  0  0  0  0  0
   -1.2875   -2.6383    1.4252 O   0  0  0  0  0  0  0  0  0  0  0  0
   -1.8575   -0.8123    0.2402 N   0  0  0  0  0  0  0  0  0  0  0  0
   -2.6005   -0.3333   -0.2478 H   0  0  0  0  0  0  0  0  0  0  0  0
   -0.5675   -0.1203    0.3102 C   0  0  1  0  0  0  0  0  0  0  0  0
   -0.7146    0.9100   -0.0158 H   0  0  0  0  0  0  0  0  0  0  0  0
   -0.0902   -0.1181    1.7776 C   0  0  0  0  0  0  0  0  0  0  0  0
   -0.0496   -1.1498    2.1325 H   0  0  0  0  0  0  0  0  0  0  0  0
    0.9266    0.2799    1.8010 H   0  0  0  0  0  0  0  0  0  0  0  0
   -0.9482    0.7009    2.7594 C   0  0  0  0  0  0  0  0  0  0  0  0
   -1.9917    0.3968    2.6785 H   0  0  0  0  0  0  0  0  0  0  0  0
   -0.4905    0.5294    4.2108 C   0  0  0  0  0  0  0  0  0  0  0  0
    0.5581    0.8149    4.3048 H   0  0  0  0  0  0  0  0  0  0  0  0
   -1.0923    1.1630    4.8628 H   0  0  0  0  0  0  0  0  0  0  0  0
   -0.6077   -0.5036    4.5311 H   0  0  0  0  0  0  0  0  0  0  0  0
   -0.8595    2.1855    2.4081 C   0  0  0  0  0  0  0  0  0  0  0  0
   -1.2102    2.3425    1.3881 H   0  0  0  0  0  0  0  0  0  0  0  0
   -1.4879    2.7647    3.0846 H   0  0  0  0  0  0  0  0  0  0  0  0
    0.1719    2.5302    2.4911 H   0  0  0  0  0  0  0  0  0  0  0  0
    0.4450   -0.7866   -0.6370 C   0  0  0  0  0  0  0  0  0  0  0  0
    1.3328   -0.1176   -1.1607 O   0  0  0  0  0  0  0  0  0  0  0  0
    0.3038   -2.0992   -0.8626 N   0  0  0  0  0  0  0  0  0  0  0  0
   -0.4456   -2.5803   -0.3914 H   0  0  0  0  0  0  0  0  0  0  0  0
    1.1718   -2.8727   -1.7475 C   0  0  0  0  0  0  0  0  0  0  0  0
    2.2058   -2.8043   -1.4019 H   0  0  0  0  0  0  0  0  0  0  0  0
    0.8651   -3.9197   -1.7583 H   0  0  0  0  0  0  0  0  0  0  0  0
    1.1180   -2.4705   -2.7603 H   0  0  0  0  0  0  0  0  0  0  0  0
  5  6  2  0  0  0  0
  5  7  1  0  0  0  0
  2  3  1  0  0  0  0
  2  4  1  0  0  0  0
  2  5  1  0  0  0  0
  1  2  1  0  0  0  0
 24 25  2  0  0  0  0
 24 26  1  0  0  0  0
 20 21  1  0  0  0  0
 20 22  1  0  0  0  0
 20 23  1  0  0  0  0
 16 17  1  0  0  0  0
 16 18  1  0  0  0  0
 16 19  1  0  0  0  0
 14 15  1  0  0  0  0
 14 16  1  0  0  0  0
 14 20  1  0  0  0  0
 11 12  1  0  0  0  0
 11 13  1  0  0  0  0
 11 14  1  0  0  0  0
  9 10  1  0  0  0  0
  9 11  1  0  0  0  0
  9 24  1  0  0  0  0
  7  8  1  0  0  0  0
  7  9  1  0  0  0  0
 28 29  1  0  0  0  0
 28 30  1  0  0  0  0
 28 31  1  0  0  0  0
 26 27  1  0  0  0  0
 26 28  1  0  0  0  0
M  END
$$$$
default_name
  -OEChem-01062215323D

 31 30  0     1  0  0  0  0  0999 V2000
   -3.5895   -3.5013    1.1082 H   0  0  0  0  0  0  0  0  0  0  0  0
   -3.5145   -2.5363    0.6082 C   0  0  0  0  0  0  0  0  0  0  0  0
   -4.2285   -1.8413    1.0452 H   0  0  0  0  0  0  0  0  0  0  0  0
   -3.7155   -2.6583   -0.4538 H   0  0  0  0  0  0  0  0  0  0  0  0
   -2.1155   -1.9963    0.7922 C   0  0  0  0  0  0  0  0  0  0  0  0
   -1.2875   -2.6383    1.4252 O   0  0  0  0  0  0  0  0  0  0  0  0
   -1.8575   -0.8123    0.2402 N   0  0  0  0  0  0  0  0  0  0  0  0
   -2.6005   -0.3333   -0.2478 H   0  0  0  0  0  0  0  0  0  0  0  0
   -0.5675   -0.1203    0.3102 C   0  0  1  0  0  0  0  0  0  0  0  0
   -0.7146    0.9100   -0.0158 H   0  0  0  0  0  0  0  0  0  0  0  0
   -0.0902   -0.1181    1.7776 C   0  0  0  0  0  0  0  0  0  0  0  0
   -0.0496   -1.1498    2.1325 H   0  0  0  0  0  0  0  0  0  0  0  0
    0.9266    0.2799    1.8010 H   0  0  0  0  0  0  0  0  0  0  0  0
   -0.9482    0.7009    2.7594 C   0  0  0  0  0  0  0  0  0  0  0  0
   -1.9917    0.3968    2.6785 H   0  0  0  0  0  0  0  0  0  0  0  0
   -0.4905    0.5294    4.2108 C   0  0  0  0  0  0  0  0  0  0  0  0
    0.5581    0.8149    4.3048 H   0  0  0  0  0  0  0  0  0  0  0  0
   -1.0923    1.1630    4.8628 H   0  0  0  0  0  0  0  0  0  0  0  0
   -0.6077   -0.5036    4.5311 H   0  0  0  0  0  0  0  0  0  0  0  0
   -0.8595    2.1855    2.4081 C   0  0  0  0  0  0  0  0  0  0  0  0
   -1.2102    2.3425    1.3881 H   0  0  0  0  0  0  0  0  0  0  0  0
   -1.4879    2.7647    3.0846 H   0  0  0  0  0  0  0  0  0  0  0  0
    0.1719    2.5302    2.4911 H   0  0  0  0  0  0  0  0  0  0  0  0
    0.4450   -0.7866   -0.6370 C   0  0  0  0  0  0  0  0  0  0  0  0
    1.4817   -0.2017   -0.9423 O   0  0  0  0  0  0  0  0  0  0  0  0
    0.1385   -2.0026   -1.1073 N   0  0  0  0  0  0  0  0  0  0  0  0
   -0.7277   -2.4196   -0.8060 H   0  0  0  0  0  0  0  0  0  0  0  0
    0.9854   -2.7588   -2.0269 C   0  0  0  0  0  0  0  0  0  0  0  0
    1.9661   -2.9228   -1.5746 H   0  0  0  0  0  0  0  0  0  0  0  0
    0.5293   -3.7232   -2.2555 H   0  0  0  0  0  0  0  0  0  0  0  0
    1.1204   -2.1952   -2.9514 H   0  0  0  0  0  0  0  0  0  0  0  0
  5  6  2  0  0  0  0
  5  7  1  0  0  0  0
  2  3  1  0  0  0  0
  2  4  1  0  0  0  0
  2  5  1  0  0  0  0
  1  2  1  0  0  0  0
 24 25  2  0  0  0  0
 24 26  1  0  0  0  0
 20 21  1  0  0  0  0
 20 22  1  0  0  0  0
 20 23  1  0  0  0  0
 16 17  1  0  0  0  0
 16 18  1  0  0  0  0
 16 19  1  0  0  0  0
 14 15  1  0  0  0  0
 14 16  1  0  0  0  0
 14 20  1  0  0  0  0
 11 12  1  0  0  0  0
 11 13  1  0  0  0  0
 11 14  1  0  0  0  0
  9 10  1  0  0  0  0
  9 11  1  0  0  0  0
  9 24  1  0  0  0  0
  7  8  1  0  0  0  0
  7  9  1  0  0  0  0
 28 29  1  0  0  0  0
 28 30  1  0  0  0  0
 28 31  1  0  0  0  0
 26 27  1  0  0  0  0
 26 28  1  0  0  0  0
M  END
$$$$
default_name
  -OEChem-01062215323D

 31 30  0     1  0  0  0  0  0999 V2000
   -3.5895   -3.5013    1.1082 H   0  0  0  0  0  0  0  0  0  0  0  0
   -3.5145   -2.5363    0.6082 C   0  0  0  0  0  0  0  0  0  0  0  0
   -4.2285   -1.8413    1.0452 H   0  0  0  0  0  0  0  0  0  0  0  0
   -3.7155   -2.6583   -0.4538 H   0  0  0  0  0  0  0  0  0  0  0  0
   -2.1155   -1.9963    0.7922 C   0  0  0  0  0  0  0  0  0  0  0  0
   -1.2875   -2.6383    1.4252 O   0  0  0  0  0  0  0  0  0  0  0  0
   -1.8575   -0.8123    0.2402 N   0  0  0  0  0  0  0  0  0  0  0  0
   -2.6005   -0.3333   -0.2478 H   0  0  0  0  0  0  0  0  0  0  0  0
   -0.5675   -0.1203    0.3102 C   0  0  1  0  0  0  0  0  0  0  0  0
   -0.7146    0.9100   -0.0158 H   0  0  0  0  0  0  0  0  0  0  0  0
   -0.0902   -0.1181    1.7776 C   0  0  0  0  0  0  0  0  0  0  0  0
   -0.0496   -1.1498    2.1325 H   0  0  0  0  0  0  0  0  0  0  0  0
    0.9266    0.2799    1.8010 H   0  0  0  0  0  0  0  0  0  0  0  0
   -0.9482    0.7009    2.7594 C   0  0  0  0  0  0  0  0  0  0  0  0
   -1.9917    0.3968    2.6785 H   0  0  0  0  0  0  0  0  0  0  0  0
   -0.4905    0.5294    4.2108 C   0  0  0  0  0  0  0  0  0  0  0  0
    0.5581    0.8149    4.3048 H   0  0  0  0  0  0  0  0  0  0  0  0
   -1.0923    1.1630    4.8628 H   0  0  0  0  0  0  0  0  0  0  0  0
   -0.6077   -0.5036    4.5311 H   0  0  0  0  0  0  0  0  0  0  0  0
   -0.8595    2.1855    2.4081 C   0  0  0  0  0  0  0  0  0  0  0  0
   -1.2102    2.3425    1.3881 H   0  0  0  0  0  0  0  0  0  0  0  0
   -1.4879    2.7647    3.0846 H   0  0  0  0  0  0  0  0  0  0  0  0
    0.1719    2.5302    2.4911 H   0  0  0  0  0  0  0  0  0  0  0  0
    0.4450   -0.7866   -0.6370 C   0  0  0  0  0  0  0  0  0  0  0  0
    1.5877   -0.3440   -0.7290 O   0  0  0  0  0  0  0  0  0  0  0  0
    0.0217   -1.8413   -1.3456 N   0  0  0  0  0  0  0  0  0  0  0  0
   -0.9282   -2.1489   -1.2108 H   0  0  0  0  0  0  0  0  0  0  0  0
    0.8549   -2.5714   -2.2982 C   0  0  0  0  0  0  0  0  0  0  0  0
    1.7351   -2.9697   -1.7886 H   0  0  0  0  0  0  0  0  0  0  0  0
    0.2920   -3.3952   -2.7399 H   0  0  0  0  0  0  0  0  0  0  0  0
    1.1880   -1.8972   -3.0888 H   0  0  0  0  0  0  0  0  0  0  0  0
  5  6  2  0  0  0  0
  5  7  1  0  0  0  0
  2  3  1  0  0  0  0
  2  4  1  0  0  0  0
  2  5  1  0  0  0  0
  1  2  1  0  0  0  0
 24 25  2  0  0  0  0
 24 26  1  0  0  0  0
 20 21  1  0  0  0  0
 20 22  1  0  0  0  0
 20 23  1  0  0  0  0
 16 17  1  0  0  0  0
 16 18  1  0  0  0  0
 16 19  1  0  0  0  0
 14 15  1  0  0  0  0
 14 16  1  0  0  0  0
 14 20  1  0  0  0  0
 11 12  1  0  0  0  0
 11 13  1  0  0  0  0
 11 14  1  0  0  0  0
  9 10  1  0  0  0  0
  9 11  1  0  0  0  0
  9 24  1  0  0  0  0
  7  8  1  0  0  0  0
  7  9  1  0  0  0  0
 28 29  1  0  0  0  0
 28 30  1  0  0  0  0
 28 31  1  0  0  0  0
 26 27  1  0  0  0  0
 26 28  1  0  0  0  0
M  END
$$$$
default_name
  -OEChem-01062215323D

 31 30  0     1  0  0  0  0  0999 V2000
   -3.5895   -3.5013    1.1082 H   0  0  0  0  0  0  0  0  0  0  0  0
   -3.5145   -2.5363    0.6082 C   0  0  0  0  0  0  0  0  0  0  0  0
   -4.2285   -1.8413    1.0452 H   0  0  0  0  0  0  0  0  0  0  0  0
   -3.7155   -2.6583   -0.4538 H   0  0  0  0  0  0  0  0  0  0  0  0
   -2.1155   -1.9963    0.7922 C   0  0  0  0  0  0  0  0  0  0  0  0
   -1.2875   -2.6383    1.4252 O   0  0  0  0  0  0  0  0  0  0  0  0
   -1.8575   -0.8123    0.2402 N   0  0  0  0  0  0  0  0  0  0  0  0
   -2.6005   -0.3333   -0.2478 H   0  0  0  0  0  0  0  0  0  0  0  0
   -0.5675   -0.1203    0.3102 C   0  0  1  0  0  0  0  0  0  0  0  0
   -0.7146    0.9100   -0.0158 H   0  0  0  0  0  0  0  0  0  0  0  0
   -0.0902   -0.1181    1.7776 C   0  0  0  0  0  0  0  0  0  0  0  0
   -0.0496   -1.1498    2.1325 H   0  0  0  0  0  0  0  0  0  0  0  0
    0.9266    0.2799    1.8010 H   0  0  0  0  0  0  0  0  0  0  0  0
   -0.9482    0.7009    2.7594 C   0  0  0  0  0  0  0  0  0  0  0  0
   -1.9917    0.3968    2.6785 H   0  0  0  0  0  0  0  0  0  0  0  0
   -0.4905    0.5294    4.2108 C   0  0  0  0  0  0  0  0  0  0  0  0
    0.5581    0.8149    4.3048 H   0  0  0  0  0  0  0  0  0  0  0  0
   -1.0923    1.1630    4.8628 H   0  0  0  0  0  0  0  0  0  0  0  0
   -0.6077   -0.5036    4.5311 H   0  0  0  0  0  0  0  0  0  0  0  0
   -0.8595    2.1855    2.4081 C   0  0  0  0  0  0  0  0  0  0  0  0
   -1.2102    2.3425    1.3881 H   0  0  0  0  0  0  0  0  0  0  0  0
   -1.4879    2.7647    3.0846 H   0  0  0  0  0  0  0  0  0  0  0  0
    0.1719    2.5302    2.4911 H   0  0  0  0  0  0  0  0  0  0  0  0
    0.4450   -0.7866   -0.6370 C   0  0  0  0  0  0  0  0  0  0  0  0
    1.6434   -0.5346   -0.5353 O   0  0  0  0  0  0  0  0  0  0  0  0
   -0.0388   -1.6262   -1.5615 N   0  0  0  0  0  0  0  0  0  0  0  0
   -1.0333   -1.7865   -1.5781 H   0  0  0  0  0  0  0  0  0  0  0  0
    0.7890   -2.3234   -2.5431 C   0  0  0  0  0  0  0  0  0  0  0  0
    1.5285   -2.9417   -2.0291 H   0  0  0  0  0  0  0  0  0  0  0  0
    0.1694   -2.9580   -3.1785 H   0  0  0  0  0  0  0  0  0  0  0  0
    1.3162   -1.5967   -3.1632 H   0  0  0  0  0  0  0  0  0  0  0  0
  5  6  2  0  0  0  0
  5  7  1  0  0  0  0
  2  3  1  0  0  0  0
  2  4  1  0  0  0  0
  2  5  1  0  0  0  0
  1  2  1  0  0  0  0
 24 25  2  0  0  0  0
 24 26  1  0  0  0  0
 20 21  1  0  0  0  0
 20 22  1  0  0  0  0
 20 23  1  0  0  0  0
 16 17  1  0  0  0  0
 16 18  1  0  0  0  0
 16 19  1  0  0  0  0
 14 15  1  0  0  0  0
 14 16  1  0  0  0  0
 14 20  1  0  0  0  0
 11 12  1  0  0  0  0
 11 13  1  0  0  0  0
 11 14  1  0  0  0  0
  9 10  1  0  0  0  0
  9 11  1  0  0  0  0
  9 24  1  0  0  0  0
  7  8  1  0  0  0  0
  7  9  1  0  0  0  0
 28 29  1  0  0  0  0
 28 30  1  0  0  0  0
 28 31  1  0  0  0  0
 26 27  1  0  0  0  0
 26 28  1  0  0  0  0
M  END
$$$$
default_name
  -OEChem-01062215323D

 31 30  0     1  0  0  0  0  0999 V2000
   -3.5895   -3.5013    1.1082 H   0  0  0  0  0  0  0  0  0  0  0  0
   -3.5145   -2.5363    0.6082 C   0  0  0  0  0  0  0  0  0  0  0  0
   -4.2285   -1.8413    1.0452 H   0  0  0  0  0  0  0  0  0  0  0  0
   -3.7155   -2.6583   -0.4538 H   0  0  0  0  0  0  0  0  0  0  0  0
   -2.1155   -1.9963    0.7922 C   0  0  0  0  0  0  0  0  0  0  0  0
   -1.2875   -2.6383    1.4252 O   0  0  0  0  0  0  0  0  0  0  0  0
   -1.8575   -0.8123    0.2402 N   0  0  0  0  0  0  0  0  0  0  0  0
   -2.6005   -0.3333   -0.2478 H   0  0  0  0  0  0  0  0  0  0  0  0
   -0.5675   -0.1203    0.3102 C   0  0  1  0  0  0  0  0  0  0  0  0
   -0.7146    0.9100   -0.0158 H   0  0  0  0  0  0  0  0  0  0  0  0
   -0.0902   -0.1181    1.7776 C   0  0  0  0  0  0  0  0  0  0  0  0
   -0.0496   -1.1498    2.1325 H   0  0  0  0  0  0  0  0  0  0  0  0
    0.9266    0.2799    1.8010 H   0  0  0  0  0  0  0  0  0  0  0  0
   -0.9482    0.7009    2.7594 C   0  0  0  0  0  0  0  0  0  0  0  0
   -1.9917    0.3968    2.6785 H   0  0  0  0  0  0  0  0  0  0  0  0
   -0.4905    0.5294    4.2108 C   0  0  0  0  0  0  0  0  0  0  0  0
    0.5581    0.8149    4.3048 H   0  0  0  0  0  0  0  0  0  0  0  0
   -1.0923    1.1630    4.8628 H   0  0  0  0  0  0  0  0  0  0  0  0
   -0.6077   -0.5036    4.5311 H   0  0  0  0  0  0  0  0  0  0  0  0
   -0.8595    2.1855    2.4081 C   0  0  0  0  0  0  0  0  0  0  0  0
   -1.2102    2.3425    1.3881 H   0  0  0  0  0  0  0  0  0  0  0  0
   -1.4879    2.7647    3.0846 H   0  0  0  0  0  0  0  0  0  0  0  0
    0.1719    2.5302    2.4911 H   0  0  0  0  0  0  0  0  0  0  0  0
    0.4450   -0.7866   -0.6370 C   0  0  0  0  0  0  0  0  0  0  0  0
    1.6452   -0.7606   -0.3744 O   0  0  0  0  0  0  0  0  0  0  0  0
   -0.0387   -1.3721   -1.7402 N   0  0  0  0  0  0  0  0  0  0  0  0
   -1.0358   -1.3571   -1.8829 H   0  0  0  0  0  0  0  0  0  0  0  0
    0.7924   -2.0317   -2.7447 C   0  0  0  0  0  0  0  0  0  0  0  0
    1.3604   -2.8407   -2.2799 H   0  0  0  0  0  0  0  0  0  0  0  0
    0.1698   -2.4414   -3.5415 H   0  0  0  0  0  0  0  0  0  0  0  0
    1.4962   -1.3142   -3.1695 H   0  0  0  0  0  0  0  0  0  0  0  0
  5  6  2  0  0  0  0
  5  7  1  0  0  0  0
  2  3  1  0  0  0  0
  2  4  1  0  0  0  0
  2  5  1  0  0  0  0
  1  2  1  0  0  0  0
 24 25  2  0  0  0  0
 24 26  1  0  0  0  0
 20 21  1  0  0  0  0
 20 22  1  0  0  0  0
 20 23  1  0  0  0  0
 16 17  1  0  0  0  0
 16 18  1  0  0  0  0
 16 19  1  0  0  0  0
 14 15  1  0  0  0  0
 14 16  1  0  0  0  0
 14 20  1  0  0  0  0
 11 12  1  0  0  0  0
 11 13  1  0  0  0  0
 11 14  1  0  0  0  0
  9 10  1  0  0  0  0
  9 11  1  0  0  0  0
  9 24  1  0  0  0  0
  7  8  1  0  0  0  0
  7  9  1  0  0  0  0
 28 29  1  0  0  0  0
 28 30  1  0  0  0  0
 28 31  1  0  0  0  0
 26 27  1  0  0  0  0
 26 28  1  0  0  0  0
M  END
$$$$
default_name
  -OEChem-01062215323D

 31 30  0     1  0  0  0  0  0999 V2000
   -3.5895   -3.5013    1.1082 H   0  0  0  0  0  0  0  0  0  0  0  0
   -3.5145   -2.5363    0.6082 C   0  0  0  0  0  0  0  0  0  0  0  0
   -4.2285   -1.8413    1.0452 H   0  0  0  0  0  0  0  0  0  0  0  0
   -3.7155   -2.6583   -0.4538 H   0  0  0  0  0  0  0  0  0  0  0  0
   -2.1155   -1.9963    0.7922 C   0  0  0  0  0  0  0  0  0  0  0  0
   -1.2875   -2.6383    1.4252 O   0  0  0  0  0  0  0  0  0  0  0  0
   -1.8575   -0.8123    0.2402 N   0  0  0  0  0  0  0  0  0  0  0  0
   -2.6005   -0.3333   -0.2478 H   0  0  0  0  0  0  0  0  0  0  0  0
   -0.5675   -0.1203    0.3102 C   0  0  1  0  0  0  0  0  0  0  0  0
   -0.7146    0.9100   -0.0158 H   0  0  0  0  0  0  0  0  0  0  0  0
   -0.0902   -0.1181    1.7776 C   0  0  0  0  0  0  0  0  0  0  0  0
   -0.0496   -1.1498    2.1325 H   0  0  0  0  0  0  0  0  0  0  0  0
    0.9266    0.2799    1.8010 H   0  0  0  0  0  0  0  0  0  0  0  0
   -0.9482    0.7009    2.7594 C   0  0  0  0  0  0  0  0  0  0  0  0
   -1.9917    0.3968    2.6785 H   0  0  0  0  0  0  0  0  0  0  0  0
   -0.4905    0.5294    4.2108 C   0  0  0  0  0  0  0  0  0  0  0  0
    0.5581    0.8149    4.3048 H   0  0  0  0  0  0  0  0  0  0  0  0
   -1.0923    1.1630    4.8628 H   0  0  0  0  0  0  0  0  0  0  0  0
   -0.6077   -0.5036    4.5311 H   0  0  0  0  0  0  0  0  0  0  0  0
   -0.8595    2.1855    2.4081 C   0  0  0  0  0  0  0  0  0  0  0  0
   -1.2102    2.3425    1.3881 H   0  0  0  0  0  0  0  0  0  0  0  0
   -1.4879    2.7647    3.0846 H   0  0  0  0  0  0  0  0  0  0  0  0
    0.1719    2.5302    2.4911 H   0  0  0  0  0  0  0  0  0  0  0  0
    0.4450   -0.7866   -0.6370 C   0  0  0  0  0  0  0  0  0  0  0  0
    1.5928   -1.0066   -0.2573 O   0  0  0  0  0  0  0  0  0  0  0  0
    0.0220   -1.0962   -1.8694 N   0  0  0  0  0  0  0  0  0  0  0  0
   -0.9357   -0.8900   -2.1045 H   0  0  0  0  0  0  0  0  0  0  0  0
    0.8648   -1.7161   -2.8894 C   0  0  0  0  0  0  0  0  0  0  0  0
    1.2422   -2.6737   -2.5237 H   0  0  0  0  0  0  0  0  0  0  0  0
    0.2932   -1.8807   -3.8040 H   0  0  0  0  0  0  0  0  0  0  0  0
    1.7159   -1.0689   -3.1072 H   0  0  0  0  0  0  0  0  0  0  0  0
  5  6  2  0  0  0  0
  5  7  1  0  0  0  0
  2  3  1  0  0  0  0
  2  4  1  0  0  0  0
  2  5  1  0  0  0  0
  1  2  1  0  0  0  0
 24 25  2  0  0  0  0
 24 26  1  0  0  0  0
 20 21  1  0  0  0  0
 20 22  1  0  0  0  0
 20 23  1  0  0  0  0
 16 17  1  0  0  0  0
 16 18  1  0  0  0  0
 16 19  1  0  0  0  0
 14 15  1  0  0  0  0
 14 16  1  0  0  0  0
 14 20  1  0  0  0  0
 11 12  1  0  0  0  0
 11 13  1  0  0  0  0
 11 14  1  0  0  0  0
  9 10  1  0  0  0  0
  9 11  1  0  0  0  0
  9 24  1  0  0  0  0
  7  8  1  0  0  0  0
  7  9  1  0  0  0  0
 28 29  1  0  0  0  0
 28 30  1  0  0  0  0
 28 31  1  0  0  0  0
 26 27  1  0  0  0  0
 26 28  1  0  0  0  0
M  END
$$$$
default_name
  -OEChem-01062215323D

 31 30  0     1  0  0  0  0  0999 V2000
   -3.5895   -3.5013    1.1082 H   0  0  0  0  0  0  0  0  0  0  0  0
   -3.5145   -2.5363    0.6082 C   0  0  0  0  0  0  0  0  0  0  0  0
   -4.2285   -1.8413    1.0452 H   0  0  0  0  0  0  0  0  0  0  0  0
   -3.7155   -2.6583   -0.4538 H   0  0  0  0  0  0  0  0  0  0  0  0
   -2.1155   -1.9963    0.7922 C   0  0  0  0  0  0  0  0  0  0  0  0
   -1.2875   -2.6383    1.4252 O   0  0  0  0  0  0  0  0  0  0  0  0
   -1.8575   -0.8123    0.2402 N   0  0  0  0  0  0  0  0  0  0  0  0
   -2.6005   -0.3333   -0.2478 H   0  0  0  0  0  0  0  0  0  0  0  0
   -0.5675   -0.1203    0.3102 C   0  0  1  0  0  0  0  0  0  0  0  0
   -0.7146    0.9100   -0.0158 H   0  0  0  0  0  0  0  0  0  0  0  0
   -0.0902   -0.1181    1.7776 C   0  0  0  0  0  0  0  0  0  0  0  0
   -0.0496   -1.1498    2.1325 H   0  0  0  0  0  0  0  0  0  0  0  0
    0.9266    0.2799    1.8010 H   0  0  0  0  0  0  0  0  0  0  0  0
   -0.9482    0.7009    2.7594 C   0  0  0  0  0  0  0  0  0  0  0  0
   -1.9917    0.3968    2.6785 H   0  0  0  0  0  0  0  0  0  0  0  0
   -0.4905    0.5294    4.2108 C   0  0  0  0  0  0  0  0  0  0  0  0
    0.5581    0.8149    4.3048 H   0  0  0  0  0  0  0  0  0  0  0  0
   -1.0923    1.1630    4.8628 H   0  0  0  0  0  0  0  0  0  0  0  0
   -0.6077   -0.5036    4.5311 H   0  0  0  0  0  0  0  0  0  0  0  0
   -0.8595    2.1855    2.4081 C   0  0  0  0  0  0  0  0  0  0  0  0
   -1.2102    2.3425    1.3881 H   0  0  0  0  0  0  0  0  0  0  0  0
   -1.4879    2.7647    3.0846 H   0  0  0  0  0  0  0  0  0  0  0  0
    0.1719    2.5302    2.4911 H   0  0  0  0  0  0  0  0  0  0  0  0
    0.4450   -0.7866   -0.6370 C   0  0  0  0  0  0  0  0  0  0  0  0
    1.4900   -1.2558   -0.1920 O   0  0  0  0  0  0  0  0  0  0  0  0
    0.1390   -0.8174   -1.9405 N   0  0  0  0  0  0  0  0  0  0  0  0
   -0.7397   -0.4170   -2.2277 H   0  0  0  0  0  0  0  0  0  0  0  0
    1.0012   -1.3981   -2.9672 C   0  0  0  0  0  0  0  0  0  0  0  0
    1.1820   -2.4520   -2.7441 H   0  0  0  0  0  0  0  0  0  0  0  0
    0.5312   -1.3140   -3.9483 H   0  0  0  0  0  0  0  0  0  0  0  0
    1.9601   -0.8776   -2.9807 H   0  0  0  0  0  0  0  0  0  0  0  0
  5  6  2  0  0  0  0
  5  7  1  0  0  0  0
  2  3  1  0  0  0  0
  2  4  1  0  0  0  0
  2  5  1  0  0  0  0
  1  2  1  0  0  0  0
 24 25  2  0  0  0  0
 24 26  1  0  0  0  0
 20 21  1  0  0  0  0
 20 22  1  0  0  0  0
 20 23  1  0  0  0  0
 16 17  1  0  0  0  0
 16 18  1  0  0  0  0
 16 19  1  0  0  0  0
 14 15  1  0  0  0  0
 14 16  1  0  0  0  0
 14 20  1  0  0  0  0
 11 12  1  0  0  0  0
 11 13  1  0  0  0  0
 11 14  1  0  0  0  0
  9 10  1  0  0  0  0
  9 11  1  0  0  0  0
  9 24  1  0  0  0  0
  7  8  1  0  0  0  0
  7  9  1  0  0  0  0
 28 29  1  0  0  0  0
 28 30  1  0  0  0  0
 28 31  1  0  0  0  0
 26 27  1  0  0  0  0
 26 28  1  0  0  0  0
M  END
$$$$
default_name
  -OEChem-01062215323D

 31 30  0     1  0  0  0  0  0999 V2000
   -3.5895   -3.5013    1.1082 H   0  0  0  0  0  0  0  0  0  0  0  0
   -3.5145   -2.5363    0.6082 C   0  0  0  0  0  0  0  0  0  0  0  0
   -4.2285   -1.8413    1.0452 H   0  0  0  0  0  0  0  0  0  0  0  0
   -3.7155   -2.6583   -0.4538 H   0  0  0  0  0  0  0  0  0  0  0  0
   -2.1155   -1.9963    0.7922 C   0  0  0  0  0  0  0  0  0  0  0  0
   -1.2875   -2.6383    1.4252 O   0  0  0  0  0  0  0  0  0  0  0  0
   -1.8575   -0.8123    0.2402 N   0  0  0  0  0  0  0  0  0  0  0  0
   -2.6005   -0.3333   -0.2478 H   0  0  0  0  0  0  0  0  0  0  0  0
   -0.5675   -0.1203    0.3102 C   0  0  1  0  0  0  0  0  0  0  0  0
   -0.7146    0.9100   -0.0158 H   0  0  0  0  0  0  0  0  0  0  0  0
   -0.0902   -0.1181    1.7776 C   0  0  0  0  0  0  0  0  0  0  0  0
   -0.0496   -1.1498    2.1325 H   0  0  0  0  0  0  0  0  0  0  0  0
    0.9266    0.2799    1.8010 H   0  0  0  0  0  0  0  0  0  0  0  0
   -0.9482    0.7009    2.7594 C   0  0  0  0  0  0  0  0  0  0  0  0
   -1.9917    0.3968    2.6785 H   0  0  0  0  0  0  0  0  0  0  0  0
   -0.4905    0.5294    4.2108 C   0  0  0  0  0  0  0  0  0  0  0  0
    0.5581    0.8149    4.3048 H   0  0  0  0  0  0  0  0  0  0  0  0
   -1.0923    1.1630    4.8628 H   0  0  0  0  0  0  0  0  0  0  0  0
   -0.6077   -0.5036    4.5311 H   0  0  0  0  0  0  0  0  0  0  0  0
   -0.8595    2.1855    2.4081 C   0  0  0  0  0  0  0  0  0  0  0  0
   -1.2102    2.3425    1.3881 H   0  0  0  0  0  0  0  0  0  0  0  0
   -1.4879    2.7647    3.0846 H   0  0  0  0  0  0  0  0  0  0  0  0
    0.1719    2.5302    2.4911 H   0  0  0  0  0  0  0  0  0  0  0  0
    0.4450   -0.7866   -0.6370 C   0  0  0  0  0  0  0  0  0  0  0  0
    1.3435   -1.4913   -0.1829 O   0  0  0  0  0  0  0  0  0  0  0  0
    0.3045   -0.5546   -1.9485 N   0  0  0  0  0  0  0  0  0  0  0  0
   -0.4612    0.0296   -2.2442 H   0  0  0  0  0  0  0  0  0  0  0  0
    1.1924   -1.0994   -2.9730 C   0  0  0  0  0  0  0  0  0  0  0  0
    1.1839   -2.1907   -2.9259 H   0  0  0  0  0  0  0  0  0  0  0  0
    0.8676   -0.7800   -3.9644 H   0  0  0  0  0  0  0  0  0  0  0  0
    2.2124   -0.7533   -2.7985 H   0  0  0  0  0  0  0  0  0  0  0  0
  5  6  2  0  0  0  0
  5  7  1  0  0  0  0
  2  3  1  0  0  0  0
  2  4  1  0  0  0  0
  2  5  1  0  0  0  0
  1  2  1  0  0  0  0
 24 25  2  0  0  0  0
 24 26  1  0  0  0  0
 20 21  1  0  0  0  0
 20 22  1  0  0  0  0
 20 23  1  0  0  0  0
 16 17  1  0  0  0  0
 16 18  1  0  0  0  0
 16 19  1  0  0  0  0
 14 15  1  0  0  0  0
 14 16  1  0  0  0  0
 14 20  1  0  0  0  0
 11 12  1  0  0  0  0
 11 13  1  0  0  0  0
 11 14  1  0  0  0  0
  9 10  1  0  0  0  0
  9 11  1  0  0  0  0
  9 24  1  0  0  0  0
  7  8  1  0  0  0  0
  7  9  1  0  0  0  0
 28 29  1  0  0  0  0
 28 30  1  0  0  0  0
 28 31  1  0  0  0  0
 26 27  1  0  0  0  0
 26 28  1  0  0  0  0
M  END
$$$$
default_name
  -OEChem-01062215323D

 31 30  0     1  0  0  0  0  0999 V2000
   -3.5895   -3.5013    1.1082 H   0  0  0  0  0  0  0  0  0  0  0  0
   -3.5145   -2.5363    0.6082 C   0  0  0  0  0  0  0  0  0  0  0  0
   -4.2285   -1.8413    1.0452 H   0  0  0  0  0  0  0  0  0  0  0  0
   -3.7155   -2.6583   -0.4538 H   0  0  0  0  0  0  0  0  0  0  0  0
   -2.1155   -1.9963    0.7922 C   0  0  0  0  0  0  0  0  0  0  0  0
   -1.2875   -2.6383    1.4252 O   0  0  0  0  0  0  0  0  0  0  0  0
   -1.8575   -0.8123    0.2402 N   0  0  0  0  0  0  0  0  0  0  0  0
   -2.6005   -0.3333   -0.2478 H   0  0  0  0  0  0  0  0  0  0  0  0
   -0.5675   -0.1203    0.3102 C   0  0  1  0  0  0  0  0  0  0  0  0
   -0.7146    0.9100   -0.0158 H   0  0  0  0  0  0  0  0  0  0  0  0
   -0.0902   -0.1181    1.7776 C   0  0  0  0  0  0  0  0  0  0  0  0
   -0.0496   -1.1498    2.1325 H   0  0  0  0  0  0  0  0  0  0  0  0
    0.9266    0.2799    1.8010 H   0  0  0  0  0  0  0  0  0  0  0  0
   -0.9482    0.7009    2.7594 C   0  0  0  0  0  0  0  0  0  0  0  0
   -1.9917    0.3968    2.6785 H   0  0  0  0  0  0  0  0  0  0  0  0
   -0.4905    0.5294    4.2108 C   0  0  0  0  0  0  0  0  0  0  0  0
    0.5581    0.8149    4.3048 H   0  0  0  0  0  0  0  0  0  0  0  0
   -1.0923    1.1630    4.8628 H   0  0  0  0  0  0  0  0  0  0  0  0
   -0.6077   -0.5036    4.5311 H   0  0  0  0  0  0  0  0  0  0  0  0
   -0.8595    2.1855    2.4081 C   0  0  0  0  0  0  0  0  0  0  0  0
   -1.2102    2.3425    1.3881 H   0  0  0  0  0  0  0  0  0  0  0  0
   -1.4879    2.7647    3.0846 H   0  0  0  0  0  0  0  0  0  0  0  0
    0.1719    2.5302    2.4911 H   0  0  0  0  0  0  0  0  0  0  0  0
    0.4450   -0.7866   -0.6370 C   0  0  0  0  0  0  0  0  0  0  0  0
    1.1635   -1.6969   -0.2306 O   0  0  0  0  0  0  0  0  0  0  0  0
    0.5071   -0.3257   -1.8930 N   0  0  0  0  0  0  0  0  0  0  0  0
   -0.1192    0.4194   -2.1528 H   0  0  0  0  0  0  0  0  0  0  0  0
    1.4253   -0.8404   -2.9062 C   0  0  0  0  0  0  0  0  0  0  0  0
    1.2477   -1.9076   -3.0568 H   0  0  0  0  0  0  0  0  0  0  0  0
    1.2795   -0.3150   -3.8513 H   0  0  0  0  0  0  0  0  0  0  0  0
    2.4554   -0.7045   -2.5730 H   0  0  0  0  0  0  0  0  0  0  0  0
  5  6  2  0  0  0  0
  5  7  1  0  0  0  0
  2  3  1  0  0  0  0
  2  4  1  0  0  0  0
  2  5  1  0  0  0  0
  1  2  1  0  0  0  0
 24 25  2  0  0  0  0
 24 26  1  0  0  0  0
 20 21  1  0  0  0  0
 20 22  1  0  0  0  0
 20 23  1  0  0  0  0
 16 17  1  0  0  0  0
 16 18  1  0  0  0  0
 16 19  1  0  0  0  0
 14 15  1  0  0  0  0
 14 16  1  0  0  0  0
 14 20  1  0  0  0  0
 11 12  1  0  0  0  0
 11 13  1  0  0  0  0
 11 14  1  0  0  0  0
  9 10  1  0  0  0  0
  9 11  1  0  0  0  0
  9 24  1  0  0  0  0
  7  8  1  0  0  0  0
  7  9  1  0  0  0  0
 28 29  1  0  0  0  0
 28 30  1  0  0  0  0
 28 31  1  0  0  0  0
 26 27  1  0  0  0  0
 26 28  1  0  0  0  0
M  END
$$$$
default_name
  -OEChem-01062215323D

 31 30  0     1  0  0  0  0  0999 V2000
   -3.5895   -3.5013    1.1082 H   0  0  0  0  0  0  0  0  0  0  0  0
   -3.5145   -2.5363    0.6082 C   0  0  0  0  0  0  0  0  0  0  0  0
   -4.2285   -1.8413    1.0452 H   0  0  0  0  0  0  0  0  0  0  0  0
   -3.7155   -2.6583   -0.4538 H   0  0  0  0  0  0  0  0  0  0  0  0
   -2.1155   -1.9963    0.7922 C   0  0  0  0  0  0  0  0  0  0  0  0
   -1.2875   -2.6383    1.4252 O   0  0  0  0  0  0  0  0  0  0  0  0
   -1.8575   -0.8123    0.2402 N   0  0  0  0  0  0  0  0  0  0  0  0
   -2.6005   -0.3333   -0.2478 H   0  0  0  0  0  0  0  0  0  0  0  0
   -0.5675   -0.1203    0.3102 C   0  0  1  0  0  0  0  0  0  0  0  0
   -0.7146    0.9100   -0.0158 H   0  0  0  0  0  0  0  0  0  0  0  0
   -0.0902   -0.1181    1.7776 C   0  0  0  0  0  0  0  0  0  0  0  0
   -0.0496   -1.1498    2.1325 H   0  0  0  0  0  0  0  0  0  0  0  0
    0.9266    0.2799    1.8010 H   0  0  0  0  0  0  0  0  0  0  0  0
   -0.9482    0.7009    2.7594 C   0  0  0  0  0  0  0  0  0  0  0  0
   -1.9917    0.3968    2.6785 H   0  0  0  0  0  0  0  0  0  0  0  0
   -0.4905    0.5294    4.2108 C   0  0  0  0  0  0  0  0  0  0  0  0
    0.5581    0.8149    4.3048 H   0  0  0  0  0  0  0  0  0  0  0  0
   -1.0923    1.1630    4.8628 H   0  0  0  0  0  0  0  0  0  0  0  0
   -0.6077   -0.5036    4.5311 H   0  0  0  0  0  0  0  0  0  0  0  0
   -0.8595    2.1855    2.4081 C   0  0  0  0  0  0  0  0  0  0  0  0
   -1.2102    2.3425    1.3881 H   0  0  0  0  0  0  0  0  0  0  0  0
   -1.4879    2.7647    3.0846 H   0  0  0  0  0  0  0  0  0  0  0  0
    0.1719    2.5302    2.4911 H   0  0  0  0  0  0  0  0  0  0  0  0
    0.4450   -0.7866   -0.6370 C   0  0  0  0  0  0  0  0  0  0  0  0
    0.9623   -1.8587   -0.3319 O   0  0  0  0  0  0  0  0  0  0  0  0
    0.7330   -0.1464   -1.7776 N   0  0  0  0  0  0  0  0  0  0  0  0
    0.2631    0.7259   -1.9598 H   0  0  0  0  0  0  0  0  0  0  0  0
    1.6841   -0.6387   -2.7715 C   0  0  0  0  0  0  0  0  0  0  0  0
    1.3692   -1.6221   -3.1278 H   0  0  0  0  0  0  0  0  0  0  0  0
    1.7387    0.0492   -3.6166 H   0  0  0  0  0  0  0  0  0  0  0  0
    2.6727   -0.7345   -2.3197 H   0  0  0  0  0  0  0  0  0  0  0  0
  5  6  2  0  0  0  0
  5  7  1  0  0  0  0
  2  3  1  0  0  0  0
  2  4  1  0  0  0  0
  2  5  1  0  0  0  0
  1  2  1  0  0  0  0
 24 25  2  0  0  0  0
 24 26  1  0  0  0  0
 20 21  1  0  0  0  0
 20 22  1  0  0  0  0
 20 23  1  0  0  0  0
 16 17  1  0  0  0  0
 16 18  1  0  0  0  0
 16 19  1  0  0  0  0
 14 15  1  0  0  0  0
 14 16  1  0  0  0  0
 14 20  1  0  0  0  0
 11 12  1  0  0  0  0
 11 13  1  0  0  0  0
 11 14  1  0  0  0  0
  9 10  1  0  0  0  0
  9 11  1  0  0  0  0
  9 24  1  0  0  0  0
  7  8  1  0  0  0  0
  7  9  1  0  0  0  0
 28 29  1  0  0  0  0
 28 30  1  0  0  0  0
 28 31  1  0  0  0  0
 26 27  1  0  0  0  0
 26 28  1  0  0  0  0
M  END
$$$$
default_name
  -OEChem-01062215323D

 31 30  0     1  0  0  0  0  0999 V2000
   -3.5895   -3.5013    1.1082 H   0  0  0  0  0  0  0  0  0  0  0  0
   -3.5145   -2.5363    0.6082 C   0  0  0  0  0  0  0  0  0  0  0  0
   -4.2285   -1.8413    1.0452 H   0  0  0  0  0  0  0  0  0  0  0  0
   -3.7155   -2.6583   -0.4538 H   0  0  0  0  0  0  0  0  0  0  0  0
   -2.1155   -1.9963    0.7922 C   0  0  0  0  0  0  0  0  0  0  0  0
   -1.2875   -2.6383    1.4252 O   0  0  0  0  0  0  0  0  0  0  0  0
   -1.8575   -0.8123    0.2402 N   0  0  0  0  0  0  0  0  0  0  0  0
   -2.6005   -0.3333   -0.2478 H   0  0  0  0  0  0  0  0  0  0  0  0
   -0.5675   -0.1203    0.3102 C   0  0  1  0  0  0  0  0  0  0  0  0
   -0.7146    0.9100   -0.0158 H   0  0  0  0  0  0  0  0  0  0  0  0
   -0.0902   -0.1181    1.7776 C   0  0  0  0  0  0  0  0  0  0  0  0
   -0.0496   -1.1498    2.1325 H   0  0  0  0  0  0  0  0  0  0  0  0
    0.9266    0.2799    1.8010 H   0  0  0  0  0  0  0  0  0  0  0  0
   -0.9482    0.7009    2.7594 C   0  0  0  0  0  0  0  0  0  0  0  0
   -1.9917    0.3968    2.6785 H   0  0  0  0  0  0  0  0  0  0  0  0
   -0.4905    0.5294    4.2108 C   0  0  0  0  0  0  0  0  0  0  0  0
    0.5581    0.8149    4.3048 H   0  0  0  0  0  0  0  0  0  0  0  0
   -1.0923    1.1630    4.8628 H   0  0  0  0  0  0  0  0  0  0  0  0
   -0.6077   -0.5036    4.5311 H   0  0  0  0  0  0  0  0  0  0  0  0
   -0.8595    2.1855    2.4081 C   0  0  0  0  0  0  0  0  0  0  0  0
   -1.2102    2.3425    1.3881 H   0  0  0  0  0  0  0  0  0  0  0  0
   -1.4879    2.7647    3.0846 H   0  0  0  0  0  0  0  0  0  0  0  0
    0.1719    2.5302    2.4911 H   0  0  0  0  0  0  0  0  0  0  0  0
    0.4450   -0.7866   -0.6370 C   0  0  0  0  0  0  0  0  0  0  0  0
    0.7534   -1.9657   -0.4799 O   0  0  0  0  0  0  0  0  0  0  0  0
    0.9669   -0.0289   -1.6103 N   0  0  0  0  0  0  0  0  0  0  0  0
    0.6595    0.9281   -1.6783 H   0  0  0  0  0  0  0  0  0  0  0  0
    1.9511   -0.5081   -2.5780 C   0  0  0  0  0  0  0  0  0  0  0  0
    1.5399   -1.3536   -3.1342 H   0  0  0  0  0  0  0  0  0  0  0  0
    2.2140    0.2878   -3.2764 H   0  0  0  0  0  0  0  0  0  0  0  0
    2.8494   -0.8412   -2.0558 H   0  0  0  0  0  0  0  0  0  0  0  0
  5  6  2  0  0  0  0
  5  7  1  0  0  0  0
  2  3  1  0  0  0  0
  2  4  1  0  0  0  0
  2  5  1  0  0  0  0
  1  2  1  0  0  0  0
 24 25  2  0  0  0  0
 24 26  1  0  0  0  0
 20 21  1  0  0  0  0
 20 22  1  0  0  0  0
 20 23  1  0  0  0  0
 16 17  1  0  0  0  0
 16 18  1  0  0  0  0
 16 19  1  0  0  0  0
 14 15  1  0  0  0  0
 14 16  1  0  0  0  0
 14 20  1  0  0  0  0
 11 12  1  0  0  0  0
 11 13  1  0  0  0  0
 11 14  1  0  0  0  0
  9 10  1  0  0  0  0
  9 11  1  0  0  0  0
  9 24  1  0  0  0  0
  7  8  1  0  0  0  0
  7  9  1  0  0  0  0
 28 29  1  0  0  0  0
 28 30  1  0  0  0  0
 28 31  1  0  0  0  0
 26 27  1  0  0  0  0
 26 28  1  0  0  0  0
M  END
$$$$
default_name
  -OEChem-01062215323D

 31 30  0     1  0  0  0  0  0999 V2000
   -3.5895   -3.5013    1.1082 H   0  0  0  0  0  0  0  0  0  0  0  0
   -3.5145   -2.5363    0.6082 C   0  0  0  0  0  0  0  0  0  0  0  0
   -4.2285   -1.8413    1.0452 H   0  0  0  0  0  0  0  0  0  0  0  0
   -3.7155   -2.6583   -0.4538 H   0  0  0  0  0  0  0  0  0  0  0  0
   -2.1155   -1.9963    0.7922 C   0  0  0  0  0  0  0  0  0  0  0  0
   -1.2875   -2.6383    1.4252 O   0  0  0  0  0  0  0  0  0  0  0  0
   -1.8575   -0.8123    0.2402 N   0  0  0  0  0  0  0  0  0  0  0  0
   -2.6005   -0.3333   -0.2478 H   0  0  0  0  0  0  0  0  0  0  0  0
   -0.5675   -0.1203    0.3102 C   0  0  1  0  0  0  0  0  0  0  0  0
   -0.7146    0.9100   -0.0158 H   0  0  0  0  0  0  0  0  0  0  0  0
   -0.0902   -0.1181    1.7776 C   0  0  0  0  0  0  0  0  0  0  0  0
   -0.0496   -1.1498    2.1325 H   0  0  0  0  0  0  0  0  0  0  0  0
    0.9266    0.2799    1.8010 H   0  0  0  0  0  0  0  0  0  0  0  0
   -0.9482    0.7009    2.7594 C   0  0  0  0  0  0  0  0  0  0  0  0
   -1.9917    0.3968    2.6785 H   0  0  0  0  0  0  0  0  0  0  0  0
   -0.4905    0.5294    4.2108 C   0  0  0  0  0  0  0  0  0  0  0  0
    0.5581    0.8149    4.3048 H   0  0  0  0  0  0  0  0  0  0  0  0
   -1.0923    1.1630    4.8628 H   0  0  0  0  0  0  0  0  0  0  0  0
   -0.6077   -0.5036    4.5311 H   0  0  0  0  0  0  0  0  0  0  0  0
   -0.8595    2.1855    2.4081 C   0  0  0  0  0  0  0  0  0  0  0  0
   -1.2102    2.3425    1.3881 H   0  0  0  0  0  0  0  0  0  0  0  0
   -1.4879    2.7647    3.0846 H   0  0  0  0  0  0  0  0  0  0  0  0
    0.1719    2.5302    2.4911 H   0  0  0  0  0  0  0  0  0  0  0  0
    0.4450   -0.7866   -0.6370 C   0  0  0  0  0  0  0  0  0  0  0  0
    0.5512   -2.0106   -0.6645 O   0  0  0  0  0  0  0  0  0  0  0  0
    1.1927    0.0188   -1.4024 N   0  0  0  0  0  0  0  0  0  0  0  0
    1.0431    1.0123   -1.3275 H   0  0  0  0  0  0  0  0  0  0  0  0
    2.2081   -0.4575   -2.3389 C   0  0  0  0  0  0  0  0  0  0  0  0
    1.7484   -1.1203   -3.0755 H   0  0  0  0  0  0  0  0  0  0  0  0
    2.6730    0.3846   -2.8539 H   0  0  0  0  0  0  0  0  0  0  0  0
    2.9734   -1.0174   -1.7992 H   0  0  0  0  0  0  0  0  0  0  0  0
  5  6  2  0  0  0  0
  5  7  1  0  0  0  0
  2  3  1  0  0  0  0
  2  4  1  0  0  0  0
  2  5  1  0  0  0  0
  1  2  1  0  0  0  0
 24 25  2  0  0  0  0
 24 26  1  0  0  0  0
 20 21  1  0  0  0  0
 20 22  1  0  0  0  0
 20 23  1  0  0  0  0
 16 17  1  0  0  0  0
 16 18  1  0  0  0  0
 16 19  1  0  0  0  0
 14 15  1  0  0  0  0
 14 16  1  0  0  0  0
 14 20  1  0  0  0  0
 11 12  1  0  0  0  0
 11 13  1  0  0  0  0
 11 14  1  0  0  0  0
  9 10  1  0  0  0  0
  9 11  1  0  0  0  0
  9 24  1  0  0  0  0
  7  8  1  0  0  0  0
  7  9  1  0  0  0  0
 28 29  1  0  0  0  0
 28 30  1  0  0  0  0
 28 31  1  0  0  0  0
 26 27  1  0  0  0  0
 26 28  1  0  0  0  0
M  END
$$$$
default_name
  -OEChem-01062215323D

 31 30  0     1  0  0  0  0  0999 V2000
   -3.5895   -3.5013    1.1082 H   0  0  0  0  0  0  0  0  0  0  0  0
   -3.5145   -2.5363    0.6082 C   0  0  0  0  0  0  0  0  0  0  0  0
   -4.2285   -1.8413    1.0452 H   0  0  0  0  0  0  0  0  0  0  0  0
   -3.7155   -2.6583   -0.4538 H   0  0  0  0  0  0  0  0  0  0  0  0
   -2.1155   -1.9963    0.7922 C   0  0  0  0  0  0  0  0  0  0  0  0
   -1.2875   -2.6383    1.4252 O   0  0  0  0  0  0  0  0  0  0  0  0
   -1.8575   -0.8123    0.2402 N   0  0  0  0  0  0  0  0  0  0  0  0
   -2.6005   -0.3333   -0.2478 H   0  0  0  0  0  0  0  0  0  0  0  0
   -0.5675   -0.1203    0.3102 C   0  0  1  0  0  0  0  0  0  0  0  0
   -0.7146    0.9100   -0.0158 H   0  0  0  0  0  0  0  0  0  0  0  0
   -0.0902   -0.1181    1.7776 C   0  0  0  0  0  0  0  0  0  0  0  0
   -0.0496   -1.1498    2.1325 H   0  0  0  0  0  0  0  0  0  0  0  0
    0.9266    0.2799    1.8010 H   0  0  0  0  0  0  0  0  0  0  0  0
   -0.9482    0.7009    2.7594 C   0  0  0  0  0  0  0  0  0  0  0  0
   -1.9917    0.3968    2.6785 H   0  0  0  0  0  0  0  0  0  0  0  0
   -0.4905    0.5294    4.2108 C   0  0  0  0  0  0  0  0  0  0  0  0
    0.5581    0.8149    4.3048 H   0  0  0  0  0  0  0  0  0  0  0  0
   -1.0923    1.1630    4.8628 H   0  0  0  0  0  0  0  0  0  0  0  0
   -0.6077   -0.5036    4.5311 H   0  0  0  0  0  0  0  0  0  0  0  0
   -0.8595    2.1855    2.4081 C   0  0  0  0  0  0  0  0  0  0  0  0
   -1.2102    2.3425    1.3881 H   0  0  0  0  0  0  0  0  0  0  0  0
   -1.4879    2.7647    3.0846 H   0  0  0  0  0  0  0  0  0  0  0  0
    0.1719    2.5302    2.4911 H   0  0  0  0  0  0  0  0  0  0  0  0
    0.4450   -0.7866   -0.6370 C   0  0  0  0  0  0  0  0  0  0  0  0
    0.3695   -1.9902   -0.8731 O   0  0  0  0  0  0  0  0  0  0  0  0
    1.3952   -0.0064   -1.1682 N   0  0  0  0  0  0  0  0  0  0  0  0
    1.3877    0.9727   -0.9313 H   0  0  0  0  0  0  0  0  0  0  0  0
    2.4376   -0.4902   -2.0705 C   0  0  0  0  0  0  0  0  0  0  0  0
    1.9804   -0.9382   -2.9556 H   0  0  0  0  0  0  0  0  0  0  0  0
    3.0844    0.3330   -2.3778 H   0  0  0  0  0  0  0  0  0  0  0  0
    3.0364   -1.2511   -1.5675 H   0  0  0  0  0  0  0  0  0  0  0  0
  5  6  2  0  0  0  0
  5  7  1  0  0  0  0
  2  3  1  0  0  0  0
  2  4  1  0  0  0  0
  2  5  1  0  0  0  0
  1  2  1  0  0  0  0
 24 25  2  0  0  0  0
 24 26  1  0  0  0  0
 20 21  1  0  0  0  0
 20 22  1  0  0  0  0
 20 23  1  0  0  0  0
 16 17  1  0  0  0  0
 16 18  1  0  0  0  0
 16 19  1  0  0  0  0
 14 15  1  0  0  0  0
 14 16  1  0  0  0  0
 14 20  1  0  0  0  0
 11 12  1  0  0  0  0
 11 13  1  0  0  0  0
 11 14  1  0  0  0  0
  9 10  1  0  0  0  0
  9 11  1  0  0  0  0
  9 24  1  0  0  0  0
  7  8  1  0  0  0  0
  7  9  1  0  0  0  0
 28 29  1  0  0  0  0
 28 30  1  0  0  0  0
 28 31  1  0  0  0  0
 26 27  1  0  0  0  0
 26 28  1  0  0  0  0
M  END
$$$$
default_name
  -OEChem-01062215323D

 31 30  0     1  0  0  0  0  0999 V2000
   -3.5895   -3.5013    1.1082 H   0  0  0  0  0  0  0  0  0  0  0  0
   -3.5145   -2.5363    0.6082 C   0  0  0  0  0  0  0  0  0  0  0  0
   -4.2285   -1.8413    1.0452 H   0  0  0  0  0  0  0  0  0  0  0  0
   -3.7155   -2.6583   -0.4538 H   0  0  0  0  0  0  0  0  0  0  0  0
   -2.1155   -1.9963    0.7922 C   0  0  0  0  0  0  0  0  0  0  0  0
   -1.2875   -2.6383    1.4252 O   0  0  0  0  0  0  0  0  0  0  0  0
   -1.8575   -0.8123    0.2402 N   0  0  0  0  0  0  0  0  0  0  0  0
   -2.6005   -0.3333   -0.2478 H   0  0  0  0  0  0  0  0  0  0  0  0
   -0.5675   -0.1203    0.3102 C   0  0  1  0  0  0  0  0  0  0  0  0
   -0.7146    0.9100   -0.0158 H   0  0  0  0  0  0  0  0  0  0  0  0
   -0.0902   -0.1181    1.7776 C   0  0  0  0  0  0  0  0  0  0  0  0
   -0.0496   -1.1498    2.1325 H   0  0  0  0  0  0  0  0  0  0  0  0
    0.9266    0.2799    1.8010 H   0  0  0  0  0  0  0  0  0  0  0  0
   -0.9482    0.7009    2.7594 C   0  0  0  0  0  0  0  0  0  0  0  0
   -1.9917    0.3968    2.6785 H   0  0  0  0  0  0  0  0  0  0  0  0
   -0.4905    0.5294    4.2108 C   0  0  0  0  0  0  0  0  0  0  0  0
    0.5581    0.8149    4.3048 H   0  0  0  0  0  0  0  0  0  0  0  0
   -1.0923    1.1630    4.8628 H   0  0  0  0  0  0  0  0  0  0  0  0
   -0.6077   -0.5036    4.5311 H   0  0  0  0  0  0  0  0  0  0  0  0
   -0.8595    2.1855    2.4081 C   0  0  0  0  0  0  0  0  0  0  0  0
   -1.2102    2.3425    1.3881 H   0  0  0  0  0  0  0  0  0  0  0  0
   -1.4879    2.7647    3.0846 H   0  0  0  0  0  0  0  0  0  0  0  0
    0.1719    2.5302    2.4911 H   0  0  0  0  0  0  0  0  0  0  0  0
    0.4450   -0.7866   -0.6370 C   0  0  0  0  0  0  0  0  0  0  0  0
    0.2205   -1.9060   -1.0915 O   0  0  0  0  0  0  0  0  0  0  0  0
    1.5605   -0.1030   -0.9235 N   0  0  0  0  0  0  0  0  0  0  0  0
    1.6698    0.8121   -0.5167 H   0  0  0  0  0  0  0  0  0  0  0  0
    2.6240   -0.6041   -1.7911 C   0  0  0  0  0  0  0  0  0  0  0  0
    2.2200   -0.8197   -2.7828 H   0  0  0  0  0  0  0  0  0  0  0  0
    3.4202    0.1365   -1.8806 H   0  0  0  0  0  0  0  0  0  0  0  0
    3.0340   -1.5264   -1.3764 H   0  0  0  0  0  0  0  0  0  0  0  0
  5  6  2  0  0  0  0
  5  7  1  0  0  0  0
  2  3  1  0  0  0  0
  2  4  1  0  0  0  0
  2  5  1  0  0  0  0
  1  2  1  0  0  0  0
 24 25  2  0  0  0  0
 24 26  1  0  0  0  0
 20 21  1  0  0  0  0
 20 22  1  0  0  0  0
 20 23  1  0  0  0  0
 16 17  1  0  0  0  0
 16 18  1  0  0  0  0
 16 19  1  0  0  0  0
 14 15  1  0  0  0  0
 14 16  1  0  0  0  0
 14 20  1  0  0  0  0
 11 12  1  0  0  0  0
 11 13  1  0  0  0  0
 11 14  1  0  0  0  0
  9 10  1  0  0  0  0
  9 11  1  0  0  0  0
  9 24  1  0  0  0  0
  7  8  1  0  0  0  0
  7  9  1  0  0  0  0
 28 29  1  0  0  0  0
 28 30  1  0  0  0  0
 28 31  1  0  0  0  0
 26 27  1  0  0  0  0
 26 28  1  0  0  0  0
M  END
$$$$
default_name
  -OEChem-01062215323D

 31 30  0     1  0  0  0  0  0999 V2000
   -3.5895   -3.5013    1.1082 H   0  0  0  0  0  0  0  0  0  0  0  0
   -3.5145   -2.5363    0.6082 C   0  0  0  0  0  0  0  0  0  0  0  0
   -4.2285   -1.8413    1.0452 H   0  0  0  0  0  0  0  0  0  0  0  0
   -3.7155   -2.6583   -0.4538 H   0  0  0  0  0  0  0  0  0  0  0  0
   -2.1155   -1.9963    0.7922 C   0  0  0  0  0  0  0  0  0  0  0  0
   -1.2875   -2.6383    1.4252 O   0  0  0  0  0  0  0  0  0  0  0  0
   -1.8575   -0.8123    0.2402 N   0  0  0  0  0  0  0  0  0  0  0  0
   -2.6005   -0.3333   -0.2478 H   0  0  0  0  0  0  0  0  0  0  0  0
   -0.5675   -0.1203    0.3102 C   0  0  1  0  0  0  0  0  0  0  0  0
   -0.7519    0.9528    0.2486 H   0  0  0  0  0  0  0  0  0  0  0  0
    0.0875   -0.4387    1.6706 C   0  0  0  0  0  0  0  0  0  0  0  0
    0.1698   -1.5225    1.7727 H   0  0  0  0  0  0  0  0  0  0  0  0
    1.1002   -0.0296    1.6614 H   0  0  0  0  0  0  0  0  0  0  0  0
   -0.6409    0.1129    2.9098 C   0  0  0  0  0  0  0  0  0  0  0  0
   -1.6871   -0.1924    2.8882 H   0  0  0  0  0  0  0  0  0  0  0  0
   -0.0077   -0.3713    4.2174 C   0  0  0  0  0  0  0  0  0  0  0  0
    1.0450   -0.0870    4.2468 H   0  0  0  0  0  0  0  0  0  0  0  0
   -0.5231    0.0815    5.0647 H   0  0  0  0  0  0  0  0  0  0  0  0
   -0.0862   -1.4528    4.3048 H   0  0  0  0  0  0  0  0  0  0  0  0
   -0.5937    1.6404    2.8991 C   0  0  0  0  0  0  0  0  0  0  0  0
   -1.0676    2.0155    1.9921 H   0  0  0  0  0  0  0  0  0  0  0  0
   -1.1326    2.0340    3.7609 H   0  0  0  0  0  0  0  0  0  0  0  0
    0.4406    1.9845    2.9335 H   0  0  0  0  0  0  0  0  0  0  0  0
    0.3189   -0.5271   -0.8793 C   0  0  0  0  0  0  0  0  0  0  0  0
   -0.0933   -1.3355   -1.7080 O   0  0  0  0  0  0  0  0  0  0  0  0
    1.5368    0.0250   -0.9554 N   0  0  0  0  0  0  0  0  0  0  0  0
    1.8006    0.6843   -0.2408 H   0  0  0  0  0  0  0  0  0  0  0  0
    2.5016   -0.2701   -2.0122 C   0  0  0  0  0  0  0  0  0  0  0  0
    2.0707   -0.0218   -2.9847 H   0  0  0  0  0  0  0  0  0  0  0  0
    3.4139    0.3098   -1.8647 H   0  0  0  0  0  0  0  0  0  0  0  0
    2.7447   -1.3338   -2.0026 H   0  0  0  0  0  0  0  0  0  0  0  0
  5  6  2  0  0  0  0
  5  7  1  0  0  0  0
  2  3  1  0  0  0  0
  2  4  1  0  0  0  0
  2  5  1  0  0  0  0
  1  2  1  0  0  0  0
 24 25  2  0  0  0  0
 24 26  1  0  0  0  0
 20 21  1  0  0  0  0
 20 22  1  0  0  0  0
 20 23  1  0  0  0  0
 16 17  1  0  0  0  0
 16 18  1  0  0  0  0
 16 19  1  0  0  0  0
 14 15  1  0  0  0  0
 14 16  1  0  0  0  0
 14 20  1  0  0  0  0
 11 12  1  0  0  0  0
 11 13  1  0  0  0  0
 11 14  1  0  0  0  0
  9 10  1  0  0  0  0
  9 11  1  0  0  0  0
  9 24  1  0  0  0  0
  7  8  1  0  0  0  0
  7  9  1  0  0  0  0
 28 29  1  0  0  0  0
 28 30  1  0  0  0  0
 28 31  1  0  0  0  0
 26 27  1  0  0  0  0
 26 28  1  0  0  0  0
M  END
$$$$
default_name
  -OEChem-01062215323D

 31 30  0     1  0  0  0  0  0999 V2000
   -3.5895   -3.5013    1.1082 H   0  0  0  0  0  0  0  0  0  0  0  0
   -3.5145   -2.5363    0.6082 C   0  0  0  0  0  0  0  0  0  0  0  0
   -4.2285   -1.8413    1.0452 H   0  0  0  0  0  0  0  0  0  0  0  0
   -3.7155   -2.6583   -0.4538 H   0  0  0  0  0  0  0  0  0  0  0  0
   -2.1155   -1.9963    0.7922 C   0  0  0  0  0  0  0  0  0  0  0  0
   -1.2875   -2.6383    1.4252 O   0  0  0  0  0  0  0  0  0  0  0  0
   -1.8575   -0.8123    0.2402 N   0  0  0  0  0  0  0  0  0  0  0  0
   -2.6005   -0.3333   -0.2478 H   0  0  0  0  0  0  0  0  0  0  0  0
   -0.5675   -0.1203    0.3102 C   0  0  1  0  0  0  0  0  0  0  0  0
   -0.7519    0.9528    0.2486 H   0  0  0  0  0  0  0  0  0  0  0  0
    0.0875   -0.4387    1.6706 C   0  0  0  0  0  0  0  0  0  0  0  0
    0.1698   -1.5225    1.7727 H   0  0  0  0  0  0  0  0  0  0  0  0
    1.1002   -0.0296    1.6614 H   0  0  0  0  0  0  0  0  0  0  0  0
   -0.6409    0.1129    2.9098 C   0  0  0  0  0  0  0  0  0  0  0  0
   -1.6871   -0.1924    2.8882 H   0  0  0  0  0  0  0  0  0  0  0  0
   -0.0077   -0.3713    4.2174 C   0  0  0  0  0  0  0  0  0  0  0  0
    1.0450   -0.0870    4.2468 H   0  0  0  0  0  0  0  0  0  0  0  0
   -0.5231    0.0815    5.0647 H   0  0  0  0  0  0  0  0  0  0  0  0
   -0.0862   -1.4528    4.3048 H   0  0  0  0  0  0  0  0  0  0  0  0
   -0.5937    1.6404    2.8991 C   0  0  0  0  0  0  0  0  0  0  0  0
   -1.0676    2.0155    1.9921 H   0  0  0  0  0  0  0  0  0  0  0  0
   -1.1326    2.0340    3.7609 H   0  0  0  0  0  0  0  0  0  0  0  0
    0.4406    1.9845    2.9335 H   0  0  0  0  0  0  0  0  0  0  0  0
    0.3189   -0.5271   -0.8793 C   0  0  0  0  0  0  0  0  0  0  0  0
   -0.1722   -1.1075   -1.8448 O   0  0  0  0  0  0  0  0  0  0  0  0
    1.6231   -0.2318   -0.8033 N   0  0  0  0  0  0  0  0  0  0  0  0
    1.9496    0.2509    0.0185 H   0  0  0  0  0  0  0  0  0  0  0  0
    2.5967   -0.5654   -1.8403 C   0  0  0  0  0  0  0  0  0  0  0  0
    2.3054   -0.0982   -2.7837 H   0  0  0  0  0  0  0  0  0  0  0  0
    3.5890   -0.2122   -1.5557 H   0  0  0  0  0  0  0  0  0  0  0  0
    2.6261   -1.6467   -1.9840 H   0  0  0  0  0  0  0  0  0  0  0  0
  5  6  2  0  0  0  0
  5  7  1  0  0  0  0
  2  3  1  0  0  0  0
  2  4  1  0  0  0  0
  2  5  1  0  0  0  0
  1  2  1  0  0  0  0
 24 25  2  0  0  0  0
 24 26  1  0  0  0  0
 20 21  1  0  0  0  0
 20 22  1  0  0  0  0
 20 23  1  0  0  0  0
 16 17  1  0  0  0  0
 16 18  1  0  0  0  0
 16 19  1  0  0  0  0
 14 15  1  0  0  0  0
 14 16  1  0  0  0  0
 14 20  1  0  0  0  0
 11 12  1  0  0  0  0
 11 13  1  0  0  0  0
 11 14  1  0  0  0  0
  9 10  1  0  0  0  0
  9 11  1  0  0  0  0
  9 24  1  0  0  0  0
  7  8  1  0  0  0  0
  7  9  1  0  0  0  0
 28 29  1  0  0  0  0
 28 30  1  0  0  0  0
 28 31  1  0  0  0  0
 26 27  1  0  0  0  0
 26 28  1  0  0  0  0
M  END
$$$$
default_name
  -OEChem-01062215323D

 31 30  0     1  0  0  0  0  0999 V2000
   -3.5895   -3.5013    1.1082 H   0  0  0  0  0  0  0  0  0  0  0  0
   -3.5145   -2.5363    0.6082 C   0  0  0  0  0  0  0  0  0  0  0  0
   -4.2285   -1.8413    1.0452 H   0  0  0  0  0  0  0  0  0  0  0  0
   -3.7155   -2.6583   -0.4538 H   0  0  0  0  0  0  0  0  0  0  0  0
   -2.1155   -1.9963    0.7922 C   0  0  0  0  0  0  0  0  0  0  0  0
   -1.2875   -2.6383    1.4252 O   0  0  0  0  0  0  0  0  0  0  0  0
   -1.8575   -0.8123    0.2402 N   0  0  0  0  0  0  0  0  0  0  0  0
   -2.6005   -0.3333   -0.2478 H   0  0  0  0  0  0  0  0  0  0  0  0
   -0.5675   -0.1203    0.3102 C   0  0  1  0  0  0  0  0  0  0  0  0
   -0.7519    0.9528    0.2486 H   0  0  0  0  0  0  0  0  0  0  0  0
    0.0875   -0.4387    1.6706 C   0  0  0  0  0  0  0  0  0  0  0  0
    0.1698   -1.5225    1.7727 H   0  0  0  0  0  0  0  0  0  0  0  0
    1.1002   -0.0296    1.6614 H   0  0  0  0  0  0  0  0  0  0  0  0
   -0.6409    0.1129    2.9098 C   0  0  0  0  0  0  0  0  0  0  0  0
   -1.6871   -0.1924    2.8882 H   0  0  0  0  0  0  0  0  0  0  0  0
   -0.0077   -0.3713    4.2174 C   0  0  0  0  0  0  0  0  0  0  0  0
    1.0450   -0.0870    4.2468 H   0  0  0  0  0  0  0  0  0  0  0  0
   -0.5231    0.0815    5.0647 H   0  0  0  0  0  0  0  0  0  0  0  0
   -0.0862   -1.4528    4.3048 H   0  0  0  0  0  0  0  0  0  0  0  0
   -0.5937    1.6404    2.8991 C   0  0  0  0  0  0  0  0  0  0  0  0
   -1.0676    2.0155    1.9921 H   0  0  0  0  0  0  0  0  0  0  0  0
   -1.1326    2.0340    3.7609 H   0  0  0  0  0  0  0  0  0  0  0  0
    0.4406    1.9845    2.9335 H   0  0  0  0  0  0  0  0  0  0  0  0
    0.3189   -0.5271   -0.8793 C   0  0  0  0  0  0  0  0  0  0  0  0
   -0.1935   -0.8510   -1.9483 O   0  0  0  0  0  0  0  0  0  0  0  0
    1.6446   -0.5198   -0.6888 N   0  0  0  0  0  0  0  0  0  0  0  0
    1.9891   -0.2362    0.2145 H   0  0  0  0  0  0  0  0  0  0  0  0
    2.6178   -0.8953   -1.7118 C   0  0  0  0  0  0  0  0  0  0  0  0
    2.5030   -0.2490   -2.5849 H   0  0  0  0  0  0  0  0  0  0  0  0
    3.6326   -0.7975   -1.3231 H   0  0  0  0  0  0  0  0  0  0  0  0
    2.4477   -1.9279   -2.0207 H   0  0  0  0  0  0  0  0  0  0  0  0
  5  6  2  0  0  0  0
  5  7  1  0  0  0  0
  2  3  1  0  0  0  0
  2  4  1  0  0  0  0
  2  5  1  0  0  0  0
  1  2  1  0  0  0  0
 24 25  2  0  0  0  0
 24 26  1  0  0  0  0
 20 21  1  0  0  0  0
 20 22  1  0  0  0  0
 20 23  1  0  0  0  0
 16 17  1  0  0  0  0
 16 18  1  0  0  0  0
 16 19  1  0  0  0  0
 14 15  1  0  0  0  0
 14 16  1  0  0  0  0
 14 20  1  0  0  0  0
 11 12  1  0  0  0  0
 11 13  1  0  0  0  0
 11 14  1  0  0  0  0
  9 10  1  0  0  0  0
  9 11  1  0  0  0  0
  9 24  1  0  0  0  0
  7  8  1  0  0  0  0
  7  9  1  0  0  0  0
 28 29  1  0  0  0  0
 28 30  1  0  0  0  0
 28 31  1  0  0  0  0
 26 27  1  0  0  0  0
 26 28  1  0  0  0  0
M  END
$$$$
default_name
  -OEChem-01062215323D

 31 30  0     1  0  0  0  0  0999 V2000
   -3.5895   -3.5013    1.1082 H   0  0  0  0  0  0  0  0  0  0  0  0
   -3.5145   -2.5363    0.6082 C   0  0  0  0  0  0  0  0  0  0  0  0
   -4.2285   -1.8413    1.0452 H   0  0  0  0  0  0  0  0  0  0  0  0
   -3.7155   -2.6583   -0.4538 H   0  0  0  0  0  0  0  0  0  0  0  0
   -2.1155   -1.9963    0.7922 C   0  0  0  0  0  0  0  0  0  0  0  0
   -1.2875   -2.6383    1.4252 O   0  0  0  0  0  0  0  0  0  0  0  0
   -1.8575   -0.8123    0.2402 N   0  0  0  0  0  0  0  0  0  0  0  0
   -2.6005   -0.3333   -0.2478 H   0  0  0  0  0  0  0  0  0  0  0  0
   -0.5675   -0.1203    0.3102 C   0  0  1  0  0  0  0  0  0  0  0  0
   -0.7519    0.9528    0.2486 H   0  0  0  0  0  0  0  0  0  0  0  0
    0.0875   -0.4387    1.6706 C   0  0  0  0  0  0  0  0  0  0  0  0
    0.1698   -1.5225    1.7727 H   0  0  0  0  0  0  0  0  0  0  0  0
    1.1002   -0.0296    1.6614 H   0  0  0  0  0  0  0  0  0  0  0  0
   -0.6409    0.1129    2.9098 C   0  0  0  0  0  0  0  0  0  0  0  0
   -1.6871   -0.1924    2.8882 H   0  0  0  0  0  0  0  0  0  0  0  0
   -0.0077   -0.3713    4.2174 C   0  0  0  0  0  0  0  0  0  0  0  0
    1.0450   -0.0870    4.2468 H   0  0  0  0  0  0  0  0  0  0  0  0
   -0.5231    0.0815    5.0647 H   0  0  0  0  0  0  0  0  0  0  0  0
   -0.0862   -1.4528    4.3048 H   0  0  0  0  0  0  0  0  0  0  0  0
   -0.5937    1.6404    2.8991 C   0  0  0  0  0  0  0  0  0  0  0  0
   -1.0676    2.0155    1.9921 H   0  0  0  0  0  0  0  0  0  0  0  0
   -1.1326    2.0340    3.7609 H   0  0  0  0  0  0  0  0  0  0  0  0
    0.4406    1.9845    2.9335 H   0  0  0  0  0  0  0  0  0  0  0  0
    0.3189   -0.5271   -0.8793 C   0  0  0  0  0  0  0  0  0  0  0  0
   -0.1556   -0.5835   -2.0115 O   0  0  0  0  0  0  0  0  0  0  0  0
    1.5999   -0.8193   -0.6196 N   0  0  0  0  0  0  0  0  0  0  0  0
    1.9163   -0.7439    0.3339 H   0  0  0  0  0  0  0  0  0  0  0  0
    2.5633   -1.2374   -1.6355 C   0  0  0  0  0  0  0  0  0  0  0  0
    2.6502   -0.4638   -2.4018 H   0  0  0  0  0  0  0  0  0  0  0  0
    3.5415   -1.4062   -1.1828 H   0  0  0  0  0  0  0  0  0  0  0  0
    2.2216   -2.1584   -2.1104 H   0  0  0  0  0  0  0  0  0  0  0  0
  5  6  2  0  0  0  0
  5  7  1  0  0  0  0
  2  3  1  0  0  0  0
  2  4  1  0  0  0  0
  2  5  1  0  0  0  0
  1  2  1  0  0  0  0
 24 25  2  0  0  0  0
 24 26  1  0  0  0  0
 20 21  1  0  0  0  0
 20 22  1  0  0  0  0
 20 23  1  0  0  0  0
 16 17  1  0  0  0  0
 16 18  1  0  0  0  0
 16 19  1  0  0  0  0
 14 15  1  0  0  0  0
 14 16  1  0  0  0  0
 14 20  1  0  0  0  0
 11 12  1  0  0  0  0
 11 13  1  0  0  0  0
 11 14  1  0  0  0  0
  9 10  1  0  0  0  0
  9 11  1  0  0  0  0
  9 24  1  0  0  0  0
  7  8  1  0  0  0  0
  7  9  1  0  0  0  0
 28 29  1  0  0  0  0
 28 30  1  0  0  0  0
 28 31  1  0  0  0  0
 26 27  1  0  0  0  0
 26 28  1  0  0  0  0
M  END
$$$$
default_name
  -OEChem-01062215323D

 31 30  0     1  0  0  0  0  0999 V2000
   -3.5895   -3.5013    1.1082 H   0  0  0  0  0  0  0  0  0  0  0  0
   -3.5145   -2.5363    0.6082 C   0  0  0  0  0  0  0  0  0  0  0  0
   -4.2285   -1.8413    1.0452 H   0  0  0  0  0  0  0  0  0  0  0  0
   -3.7155   -2.6583   -0.4538 H   0  0  0  0  0  0  0  0  0  0  0  0
   -2.1155   -1.9963    0.7922 C   0  0  0  0  0  0  0  0  0  0  0  0
   -1.2875   -2.6383    1.4252 O   0  0  0  0  0  0  0  0  0  0  0  0
   -1.8575   -0.8123    0.2402 N   0  0  0  0  0  0  0  0  0  0  0  0
   -2.6005   -0.3333   -0.2478 H   0  0  0  0  0  0  0  0  0  0  0  0
   -0.5675   -0.1203    0.3102 C   0  0  1  0  0  0  0  0  0  0  0  0
   -0.7519    0.9528    0.2486 H   0  0  0  0  0  0  0  0  0  0  0  0
    0.0875   -0.4387    1.6706 C   0  0  0  0  0  0  0  0  0  0  0  0
    0.1698   -1.5225    1.7727 H   0  0  0  0  0  0  0  0  0  0  0  0
    1.1002   -0.0296    1.6614 H   0  0  0  0  0  0  0  0  0  0  0  0
   -0.6409    0.1129    2.9098 C   0  0  0  0  0  0  0  0  0  0  0  0
   -1.6871   -0.1924    2.8882 H   0  0  0  0  0  0  0  0  0  0  0  0
   -0.0077   -0.3713    4.2174 C   0  0  0  0  0  0  0  0  0  0  0  0
    1.0450   -0.0870    4.2468 H   0  0  0  0  0  0  0  0  0  0  0  0
   -0.5231    0.0815    5.0647 H   0  0  0  0  0  0  0  0  0  0  0  0
   -0.0862   -1.4528    4.3048 H   0  0  0  0  0  0  0  0  0  0  0  0
   -0.5937    1.6404    2.8991 C   0  0  0  0  0  0  0  0  0  0  0  0
   -1.0676    2.0155    1.9921 H   0  0  0  0  0  0  0  0  0  0  0  0
   -1.1326    2.0340    3.7609 H   0  0  0  0  0  0  0  0  0  0  0  0
    0.4406    1.9845    2.9335 H   0  0  0  0  0  0  0  0  0  0  0  0
    0.3189   -0.5271   -0.8793 C   0  0  0  0  0  0  0  0  0  0  0  0
   -0.0611   -0.3233   -2.0301 O   0  0  0  0  0  0  0  0  0  0  0  0
    1.4920   -1.1100   -0.6006 N   0  0  0  0  0  0  0  0  0  0  0  0
    1.7362   -1.2376    0.3685 H   0  0  0  0  0  0  0  0  0  0  0  0
    2.4370   -1.5682   -1.6164 C   0  0  0  0  0  0  0  0  0  0  0  0
    2.7368   -0.7281   -2.2469 H   0  0  0  0  0  0  0  0  0  0  0  0
    3.3222   -1.9970   -1.1442 H   0  0  0  0  0  0  0  0  0  0  0  0
    1.9632   -2.3224   -2.2469 H   0  0  0  0  0  0  0  0  0  0  0  0
  5  6  2  0  0  0  0
  5  7  1  0  0  0  0
  2  3  1  0  0  0  0
  2  4  1  0  0  0  0
  2  5  1  0  0  0  0
  1  2  1  0  0  0  0
 24 25  2  0  0  0  0
 24 26  1  0  0  0  0
 20 21  1  0  0  0  0
 20 22  1  0  0  0  0
 20 23  1  0  0  0  0
 16 17  1  0  0  0  0
 16 18  1  0  0  0  0
 16 19  1  0  0  0  0
 14 15  1  0  0  0  0
 14 16  1  0  0  0  0
 14 20  1  0  0  0  0
 11 12  1  0  0  0  0
 11 13  1  0  0  0  0
 11 14  1  0  0  0  0
  9 10  1  0  0  0  0
  9 11  1  0  0  0  0
  9 24  1  0  0  0  0
  7  8  1  0  0  0  0
  7  9  1  0  0  0  0
 28 29  1  0  0  0  0
 28 30  1  0  0  0  0
 28 31  1  0  0  0  0
 26 27  1  0  0  0  0
 26 28  1  0  0  0  0
M  END
$$$$
default_name
  -OEChem-01062215323D

 31 30  0     1  0  0  0  0  0999 V2000
   -3.5895   -3.5013    1.1082 H   0  0  0  0  0  0  0  0  0  0  0  0
   -3.5145   -2.5363    0.6082 C   0  0  0  0  0  0  0  0  0  0  0  0
   -4.2285   -1.8413    1.0452 H   0  0  0  0  0  0  0  0  0  0  0  0
   -3.7155   -2.6583   -0.4538 H   0  0  0  0  0  0  0  0  0  0  0  0
   -2.1155   -1.9963    0.7922 C   0  0  0  0  0  0  0  0  0  0  0  0
   -1.2875   -2.6383    1.4252 O   0  0  0  0  0  0  0  0  0  0  0  0
   -1.8575   -0.8123    0.2402 N   0  0  0  0  0  0  0  0  0  0  0  0
   -2.6005   -0.3333   -0.2478 H   0  0  0  0  0  0  0  0  0  0  0  0
   -0.5675   -0.1203    0.3102 C   0  0  1  0  0  0  0  0  0  0  0  0
   -0.7519    0.9528    0.2486 H   0  0  0  0  0  0  0  0  0  0  0  0
    0.0875   -0.4387    1.6706 C   0  0  0  0  0  0  0  0  0  0  0  0
    0.1698   -1.5225    1.7727 H   0  0  0  0  0  0  0  0  0  0  0  0
    1.1002   -0.0296    1.6614 H   0  0  0  0  0  0  0  0  0  0  0  0
   -0.6409    0.1129    2.9098 C   0  0  0  0  0  0  0  0  0  0  0  0
   -1.6871   -0.1924    2.8882 H   0  0  0  0  0  0  0  0  0  0  0  0
   -0.0077   -0.3713    4.2174 C   0  0  0  0  0  0  0  0  0  0  0  0
    1.0450   -0.0870    4.2468 H   0  0  0  0  0  0  0  0  0  0  0  0
   -0.5231    0.0815    5.0647 H   0  0  0  0  0  0  0  0  0  0  0  0
   -0.0862   -1.4528    4.3048 H   0  0  0  0  0  0  0  0  0  0  0  0
   -0.5937    1.6404    2.8991 C   0  0  0  0  0  0  0  0  0  0  0  0
   -1.0676    2.0155    1.9921 H   0  0  0  0  0  0  0  0  0  0  0  0
   -1.1326    2.0340    3.7609 H   0  0  0  0  0  0  0  0  0  0  0  0
    0.4406    1.9845    2.9335 H   0  0  0  0  0  0  0  0  0  0  0  0
    0.3189   -0.5271   -0.8793 C   0  0  0  0  0  0  0  0  0  0  0  0
    0.0835   -0.0881   -2.0028 O   0  0  0  0  0  0  0  0  0  0  0  0
    1.3284   -1.3721   -0.6329 N   0  0  0  0  0  0  0  0  0  0  0  0
    1.4611   -1.6835    0.3160 H   0  0  0  0  0  0  0  0  0  0  0  0
    2.2474   -1.8653   -1.6561 C   0  0  0  0  0  0  0  0  0  0  0  0
    2.7569   -1.0238   -2.1307 H   0  0  0  0  0  0  0  0  0  0  0  0
    2.9894   -2.5294   -1.2101 H   0  0  0  0  0  0  0  0  0  0  0  0
    1.6902   -2.4087   -2.4208 H   0  0  0  0  0  0  0  0  0  0  0  0
  5  6  2  0  0  0  0
  5  7  1  0  0  0  0
  2  3  1  0  0  0  0
  2  4  1  0  0  0  0
  2  5  1  0  0  0  0
  1  2  1  0  0  0  0
 24 25  2  0  0  0  0
 24 26  1  0  0  0  0
 20 21  1  0  0  0  0
 20 22  1  0  0  0  0
 20 23  1  0  0  0  0
 16 17  1  0  0  0  0
 16 18  1  0  0  0  0
 16 19  1  0  0  0  0
 14 15  1  0  0  0  0
 14 16  1  0  0  0  0
 14 20  1  0  0  0  0
 11 12  1  0  0  0  0
 11 13  1  0  0  0  0
 11 14  1  0  0  0  0
  9 10  1  0  0  0  0
  9 11  1  0  0  0  0
  9 24  1  0  0  0  0
  7  8  1  0  0  0  0
  7  9  1  0  0  0  0
 28 29  1  0  0  0  0
 28 30  1  0  0  0  0
 28 31  1  0  0  0  0
 26 27  1  0  0  0  0
 26 28  1  0  0  0  0
M  END
$$$$
default_name
  -OEChem-01062215323D

 31 30  0     1  0  0  0  0  0999 V2000
   -3.5895   -3.5013    1.1082 H   0  0  0  0  0  0  0  0  0  0  0  0
   -3.5145   -2.5363    0.6082 C   0  0  0  0  0  0  0  0  0  0  0  0
   -4.2285   -1.8413    1.0452 H   0  0  0  0  0  0  0  0  0  0  0  0
   -3.7155   -2.6583   -0.4538 H   0  0  0  0  0  0  0  0  0  0  0  0
   -2.1155   -1.9963    0.7922 C   0  0  0  0  0  0  0  0  0  0  0  0
   -1.2875   -2.6383    1.4252 O   0  0  0  0  0  0  0  0  0  0  0  0
   -1.8575   -0.8123    0.2402 N   0  0  0  0  0  0  0  0  0  0  0  0
   -2.6005   -0.3333   -0.2478 H   0  0  0  0  0  0  0  0  0  0  0  0
   -0.5675   -0.1203    0.3102 C   0  0  1  0  0  0  0  0  0  0  0  0
   -0.7519    0.9528    0.2486 H   0  0  0  0  0  0  0  0  0  0  0  0
    0.0875   -0.4387    1.6706 C   0  0  0  0  0  0  0  0  0  0  0  0
    0.1698   -1.5225    1.7727 H   0  0  0  0  0  0  0  0  0  0  0  0
    1.1002   -0.0296    1.6614 H   0  0  0  0  0  0  0  0  0  0  0  0
   -0.6409    0.1129    2.9098 C   0  0  0  0  0  0  0  0  0  0  0  0
   -1.6871   -0.1924    2.8882 H   0  0  0  0  0  0  0  0  0  0  0  0
   -0.0077   -0.3713    4.2174 C   0  0  0  0  0  0  0  0  0  0  0  0
    1.0450   -0.0870    4.2468 H   0  0  0  0  0  0  0  0  0  0  0  0
   -0.5231    0.0815    5.0647 H   0  0  0  0  0  0  0  0  0  0  0  0
   -0.0862   -1.4528    4.3048 H   0  0  0  0  0  0  0  0  0  0  0  0
   -0.5937    1.6404    2.8991 C   0  0  0  0  0  0  0  0  0  0  0  0
   -1.0676    2.0155    1.9921 H   0  0  0  0  0  0  0  0  0  0  0  0
   -1.1326    2.0340    3.7609 H   0  0  0  0  0  0  0  0  0  0  0  0
    0.4406    1.9845    2.9335 H   0  0  0  0  0  0  0  0  0  0  0  0
    0.3189   -0.5271   -0.8793 C   0  0  0  0  0  0  0  0  0  0  0  0
    0.2684    0.1060   -1.9314 O   0  0  0  0  0  0  0  0  0  0  0  0
    1.1200   -1.5876   -0.7145 N   0  0  0  0  0  0  0  0  0  0  0  0
    1.1097   -2.0513    0.1799 H   0  0  0  0  0  0  0  0  0  0  0  0
    2.0076   -2.1085   -1.7516 C   0  0  0  0  0  0  0  0  0  0  0  0
    2.7093   -1.3307   -2.0613 H   0  0  0  0  0  0  0  0  0  0  0  0
    2.5659   -2.9673   -1.3759 H   0  0  0  0  0  0  0  0  0  0  0  0
    1.4210   -2.4115   -2.6204 H   0  0  0  0  0  0  0  0  0  0  0  0
  5  6  2  0  0  0  0
  5  7  1  0  0  0  0
  2  3  1  0  0  0  0
  2  4  1  0  0  0  0
  2  5  1  0  0  0  0
  1  2  1  0  0  0  0
 24 25  2  0  0  0  0
 24 26  1  0  0  0  0
 20 21  1  0  0  0  0
 20 22  1  0  0  0  0
 20 23  1  0  0  0  0
 16 17  1  0  0  0  0
 16 18  1  0  0  0  0
 16 19  1  0  0  0  0
 14 15  1  0  0  0  0
 14 16  1  0  0  0  0
 14 20  1  0  0  0  0
 11 12  1  0  0  0  0
 11 13  1  0  0  0  0
 11 14  1  0  0  0  0
  9 10  1  0  0  0  0
  9 11  1  0  0  0  0
  9 24  1  0  0  0  0
  7  8  1  0  0  0  0
  7  9  1  0  0  0  0
 28 29  1  0  0  0  0
 28 30  1  0  0  0  0
 28 31  1  0  0  0  0
 26 27  1  0  0  0  0
 26 28  1  0  0  0  0
M  END
$$$$
default_name
  -OEChem-01062215323D

 31 30  0     1  0  0  0  0  0999 V2000
   -3.5895   -3.5013    1.1082 H   0  0  0  0  0  0  0  0  0  0  0  0
   -3.5145   -2.5363    0.6082 C   0  0  0  0  0  0  0  0  0  0  0  0
   -4.2285   -1.8413    1.0452 H   0  0  0  0  0  0  0  0  0  0  0  0
   -3.7155   -2.6583   -0.4538 H   0  0  0  0  0  0  0  0  0  0  0  0
   -2.1155   -1.9963    0.7922 C   0  0  0  0  0  0  0  0  0  0  0  0
   -1.2875   -2.6383    1.4252 O   0  0  0  0  0  0  0  0  0  0  0  0
   -1.8575   -0.8123    0.2402 N   0  0  0  0  0  0  0  0  0  0  0  0
   -2.6005   -0.3333   -0.2478 H   0  0  0  0  0  0  0  0  0  0  0  0
   -0.5675   -0.1203    0.3102 C   0  0  1  0  0  0  0  0  0  0  0  0
   -0.7519    0.9528    0.2486 H   0  0  0  0  0  0  0  0  0  0  0  0
    0.0875   -0.4387    1.6706 C   0  0  0  0  0  0  0  0  0  0  0  0
    0.1698   -1.5225    1.7727 H   0  0  0  0  0  0  0  0  0  0  0  0
    1.1002   -0.0296    1.6614 H   0  0  0  0  0  0  0  0  0  0  0  0
   -0.6409    0.1129    2.9098 C   0  0  0  0  0  0  0  0  0  0  0  0
   -1.6871   -0.1924    2.8882 H   0  0  0  0  0  0  0  0  0  0  0  0
   -0.0077   -0.3713    4.2174 C   0  0  0  0  0  0  0  0  0  0  0  0
    1.0450   -0.0870    4.2468 H   0  0  0  0  0  0  0  0  0  0  0  0
   -0.5231    0.0815    5.0647 H   0  0  0  0  0  0  0  0  0  0  0  0
   -0.0862   -1.4528    4.3048 H   0  0  0  0  0  0  0  0  0  0  0  0
   -0.5937    1.6404    2.8991 C   0  0  0  0  0  0  0  0  0  0  0  0
   -1.0676    2.0155    1.9921 H   0  0  0  0  0  0  0  0  0  0  0  0
   -1.1326    2.0340    3.7609 H   0  0  0  0  0  0  0  0  0  0  0  0
    0.4406    1.9845    2.9335 H   0  0  0  0  0  0  0  0  0  0  0  0
    0.3189   -0.5271   -0.8793 C   0  0  0  0  0  0  0  0  0  0  0  0
    0.4809    0.2459   -1.8209 O   0  0  0  0  0  0  0  0  0  0  0  0
    0.8813   -1.7420   -0.8396 N   0  0  0  0  0  0  0  0  0  0  0  0
    0.7059   -2.3160   -0.0305 H   0  0  0  0  0  0  0  0  0  0  0  0
    1.7338   -2.2811   -1.8966 C   0  0  0  0  0  0  0  0  0  0  0  0
    2.5970   -1.6281   -2.0433 H   0  0  0  0  0  0  0  0  0  0  0  0
    2.0805   -3.2808   -1.6304 H   0  0  0  0  0  0  0  0  0  0  0  0
    1.1742   -2.3305   -2.8320 H   0  0  0  0  0  0  0  0  0  0  0  0
  5  6  2  0  0  0  0
  5  7  1  0  0  0  0
  2  3  1  0  0  0  0
  2  4  1  0  0  0  0
  2  5  1  0  0  0  0
  1  2  1  0  0  0  0
 24 25  2  0  0  0  0
 24 26  1  0  0  0  0
 20 21  1  0  0  0  0
 20 22  1  0  0  0  0
 20 23  1  0  0  0  0
 16 17  1  0  0  0  0
 16 18  1  0  0  0  0
 16 19  1  0  0  0  0
 14 15  1  0  0  0  0
 14 16  1  0  0  0  0
 14 20  1  0  0  0  0
 11 12  1  0  0  0  0
 11 13  1  0  0  0  0
 11 14  1  0  0  0  0
  9 10  1  0  0  0  0
  9 11  1  0  0  0  0
  9 24  1  0  0  0  0
  7  8  1  0  0  0  0
  7  9  1  0  0  0  0
 28 29  1  0  0  0  0
 28 30  1  0  0  0  0
 28 31  1  0  0  0  0
 26 27  1  0  0  0  0
 26 28  1  0  0  0  0
M  END
$$$$
default_name
  -OEChem-01062215323D

 31 30  0     1  0  0  0  0  0999 V2000
   -3.5895   -3.5013    1.1082 H   0  0  0  0  0  0  0  0  0  0  0  0
   -3.5145   -2.5363    0.6082 C   0  0  0  0  0  0  0  0  0  0  0  0
   -4.2285   -1.8413    1.0452 H   0  0  0  0  0  0  0  0  0  0  0  0
   -3.7155   -2.6583   -0.4538 H   0  0  0  0  0  0  0  0  0  0  0  0
   -2.1155   -1.9963    0.7922 C   0  0  0  0  0  0  0  0  0  0  0  0
   -1.2875   -2.6383    1.4252 O   0  0  0  0  0  0  0  0  0  0  0  0
   -1.8575   -0.8123    0.2402 N   0  0  0  0  0  0  0  0  0  0  0  0
   -2.6005   -0.3333   -0.2478 H   0  0  0  0  0  0  0  0  0  0  0  0
   -0.5675   -0.1203    0.3102 C   0  0  1  0  0  0  0  0  0  0  0  0
   -0.7519    0.9528    0.2486 H   0  0  0  0  0  0  0  0  0  0  0  0
    0.0875   -0.4387    1.6706 C   0  0  0  0  0  0  0  0  0  0  0  0
    0.1698   -1.5225    1.7727 H   0  0  0  0  0  0  0  0  0  0  0  0
    1.1002   -0.0296    1.6614 H   0  0  0  0  0  0  0  0  0  0  0  0
   -0.6409    0.1129    2.9098 C   0  0  0  0  0  0  0  0  0  0  0  0
   -1.6871   -0.1924    2.8882 H   0  0  0  0  0  0  0  0  0  0  0  0
   -0.0077   -0.3713    4.2174 C   0  0  0  0  0  0  0  0  0  0  0  0
    1.0450   -0.0870    4.2468 H   0  0  0  0  0  0  0  0  0  0  0  0
   -0.5231    0.0815    5.0647 H   0  0  0  0  0  0  0  0  0  0  0  0
   -0.0862   -1.4528    4.3048 H   0  0  0  0  0  0  0  0  0  0  0  0
   -0.5937    1.6404    2.8991 C   0  0  0  0  0  0  0  0  0  0  0  0
   -1.0676    2.0155    1.9921 H   0  0  0  0  0  0  0  0  0  0  0  0
   -1.1326    2.0340    3.7609 H   0  0  0  0  0  0  0  0  0  0  0  0
    0.4406    1.9845    2.9335 H   0  0  0  0  0  0  0  0  0  0  0  0
    0.3189   -0.5271   -0.8793 C   0  0  0  0  0  0  0  0  0  0  0  0
    0.7067    0.3220   -1.6787 O   0  0  0  0  0  0  0  0  0  0  0  0
    0.6283   -1.8246   -0.9999 N   0  0  0  0  0  0  0  0  0  0  0  0
    0.2774   -2.4594   -0.3007 H   0  0  0  0  0  0  0  0  0  0  0  0
    1.4447   -2.3714   -2.0812 C   0  0  0  0  0  0  0  0  0  0  0  0
    2.4279   -1.8955   -2.0779 H   0  0  0  0  0  0  0  0  0  0  0  0
    1.5664   -3.4485   -1.9562 H   0  0  0  0  0  0  0  0  0  0  0  0
    0.9664   -2.1714   -3.0413 H   0  0  0  0  0  0  0  0  0  0  0  0
  5  6  2  0  0  0  0
  5  7  1  0  0  0  0
  2  3  1  0  0  0  0
  2  4  1  0  0  0  0
  2  5  1  0  0  0  0
  1  2  1  0  0  0  0
 24 25  2  0  0  0  0
 24 26  1  0  0  0  0
 20 21  1  0  0  0  0
 20 22  1  0  0  0  0
 20 23  1  0  0  0  0
 16 17  1  0  0  0  0
 16 18  1  0  0  0  0
 16 19  1  0  0  0  0
 14 15  1  0  0  0  0
 14 16  1  0  0  0  0
 14 20  1  0  0  0  0
 11 12  1  0  0  0  0
 11 13  1  0  0  0  0
 11 14  1  0  0  0  0
  9 10  1  0  0  0  0
  9 11  1  0  0  0  0
  9 24  1  0  0  0  0
  7  8  1  0  0  0  0
  7  9  1  0  0  0  0
 28 29  1  0  0  0  0
 28 30  1  0  0  0  0
 28 31  1  0  0  0  0
 26 27  1  0  0  0  0
 26 28  1  0  0  0  0
M  END
$$$$
default_name
  -OEChem-01062215323D

 31 30  0     1  0  0  0  0  0999 V2000
   -3.5895   -3.5013    1.1082 H   0  0  0  0  0  0  0  0  0  0  0  0
   -3.5145   -2.5363    0.6082 C   0  0  0  0  0  0  0  0  0  0  0  0
   -4.2285   -1.8413    1.0452 H   0  0  0  0  0  0  0  0  0  0  0  0
   -3.7155   -2.6583   -0.4538 H   0  0  0  0  0  0  0  0  0  0  0  0
   -2.1155   -1.9963    0.7922 C   0  0  0  0  0  0  0  0  0  0  0  0
   -1.2875   -2.6383    1.4252 O   0  0  0  0  0  0  0  0  0  0  0  0
   -1.8575   -0.8123    0.2402 N   0  0  0  0  0  0  0  0  0  0  0  0
   -2.6005   -0.3333   -0.2478 H   0  0  0  0  0  0  0  0  0  0  0  0
   -0.5675   -0.1203    0.3102 C   0  0  1  0  0  0  0  0  0  0  0  0
   -0.7519    0.9528    0.2486 H   0  0  0  0  0  0  0  0  0  0  0  0
    0.0875   -0.4387    1.6706 C   0  0  0  0  0  0  0  0  0  0  0  0
    0.1698   -1.5225    1.7727 H   0  0  0  0  0  0  0  0  0  0  0  0
    1.1002   -0.0296    1.6614 H   0  0  0  0  0  0  0  0  0  0  0  0
   -0.6409    0.1129    2.9098 C   0  0  0  0  0  0  0  0  0  0  0  0
   -1.6871   -0.1924    2.8882 H   0  0  0  0  0  0  0  0  0  0  0  0
   -0.0077   -0.3713    4.2174 C   0  0  0  0  0  0  0  0  0  0  0  0
    1.0450   -0.0870    4.2468 H   0  0  0  0  0  0  0  0  0  0  0  0
   -0.5231    0.0815    5.0647 H   0  0  0  0  0  0  0  0  0  0  0  0
   -0.0862   -1.4528    4.3048 H   0  0  0  0  0  0  0  0  0  0  0  0
   -0.5937    1.6404    2.8991 C   0  0  0  0  0  0  0  0  0  0  0  0
   -1.0676    2.0155    1.9921 H   0  0  0  0  0  0  0  0  0  0  0  0
   -1.1326    2.0340    3.7609 H   0  0  0  0  0  0  0  0  0  0  0  0
    0.4406    1.9845    2.9335 H   0  0  0  0  0  0  0  0  0  0  0  0
    0.3189   -0.5271   -0.8793 C   0  0  0  0  0  0  0  0  0  0  0  0
    0.9302    0.3291   -1.5145 O   0  0  0  0  0  0  0  0  0  0  0  0
    0.3784   -1.8299   -1.1843 N   0  0  0  0  0  0  0  0  0  0  0  0
   -0.1468   -2.4719   -0.6125 H   0  0  0  0  0  0  0  0  0  0  0  0
    1.1600   -2.3733   -2.2927 C   0  0  0  0  0  0  0  0  0  0  0  0
    2.2133   -2.1148   -2.1627 H   0  0  0  0  0  0  0  0  0  0  0  0
    1.0585   -3.4590   -2.3310 H   0  0  0  0  0  0  0  0  0  0  0  0
    0.8119   -1.9449   -3.2339 H   0  0  0  0  0  0  0  0  0  0  0  0
  5  6  2  0  0  0  0
  5  7  1  0  0  0  0
  2  3  1  0  0  0  0
  2  4  1  0  0  0  0
  2  5  1  0  0  0  0
  1  2  1  0  0  0  0
 24 25  2  0  0  0  0
 24 26  1  0  0  0  0
 20 21  1  0  0  0  0
 20 22  1  0  0  0  0
 20 23  1  0  0  0  0
 16 17  1  0  0  0  0
 16 18  1  0  0  0  0
 16 19  1  0  0  0  0
 14 15  1  0  0  0  0
 14 16  1  0  0  0  0
 14 20  1  0  0  0  0
 11 12  1  0  0  0  0
 11 13  1  0  0  0  0
 11 14  1  0  0  0  0
  9 10  1  0  0  0  0
  9 11  1  0  0  0  0
  9 24  1  0  0  0  0
  7  8  1  0  0  0  0
  7  9  1  0  0  0  0
 28 29  1  0  0  0  0
 28 30  1  0  0  0  0
 28 31  1  0  0  0  0
 26 27  1  0  0  0  0
 26 28  1  0  0  0  0
M  END
$$$$
default_name
  -OEChem-01062215323D

 31 30  0     1  0  0  0  0  0999 V2000
   -3.5895   -3.5013    1.1082 H   0  0  0  0  0  0  0  0  0  0  0  0
   -3.5145   -2.5363    0.6082 C   0  0  0  0  0  0  0  0  0  0  0  0
   -4.2285   -1.8413    1.0452 H   0  0  0  0  0  0  0  0  0  0  0  0
   -3.7155   -2.6583   -0.4538 H   0  0  0  0  0  0  0  0  0  0  0  0
   -2.1155   -1.9963    0.7922 C   0  0  0  0  0  0  0  0  0  0  0  0
   -1.2875   -2.6383    1.4252 O   0  0  0  0  0  0  0  0  0  0  0  0
   -1.8575   -0.8123    0.2402 N   0  0  0  0  0  0  0  0  0  0  0  0
   -2.6005   -0.3333   -0.2478 H   0  0  0  0  0  0  0  0  0  0  0  0
   -0.5675   -0.1203    0.3102 C   0  0  1  0  0  0  0  0  0  0  0  0
   -0.7519    0.9528    0.2486 H   0  0  0  0  0  0  0  0  0  0  0  0
    0.0875   -0.4387    1.6706 C   0  0  0  0  0  0  0  0  0  0  0  0
    0.1698   -1.5225    1.7727 H   0  0  0  0  0  0  0  0  0  0  0  0
    1.1002   -0.0296    1.6614 H   0  0  0  0  0  0  0  0  0  0  0  0
   -0.6409    0.1129    2.9098 C   0  0  0  0  0  0  0  0  0  0  0  0
   -1.6871   -0.1924    2.8882 H   0  0  0  0  0  0  0  0  0  0  0  0
   -0.0077   -0.3713    4.2174 C   0  0  0  0  0  0  0  0  0  0  0  0
    1.0450   -0.0870    4.2468 H   0  0  0  0  0  0  0  0  0  0  0  0
   -0.5231    0.0815    5.0647 H   0  0  0  0  0  0  0  0  0  0  0  0
   -0.0862   -1.4528    4.3048 H   0  0  0  0  0  0  0  0  0  0  0  0
   -0.5937    1.6404    2.8991 C   0  0  0  0  0  0  0  0  0  0  0  0
   -1.0676    2.0155    1.9921 H   0  0  0  0  0  0  0  0  0  0  0  0
   -1.1326    2.0340    3.7609 H   0  0  0  0  0  0  0  0  0  0  0  0
    0.4406    1.9845    2.9335 H   0  0  0  0  0  0  0  0  0  0  0  0
    0.3189   -0.5271   -0.8793 C   0  0  0  0  0  0  0  0  0  0  0  0
    1.1363    0.2667   -1.3396 O   0  0  0  0  0  0  0  0  0  0  0  0
    0.1485   -1.7574   -1.3803 N   0  0  0  0  0  0  0  0  0  0  0  0
   -0.5377   -2.3526   -0.9446 H   0  0  0  0  0  0  0  0  0  0  0  0
    0.8991   -2.2866   -2.5167 C   0  0  0  0  0  0  0  0  0  0  0  0
    1.9680   -2.2710   -2.2921 H   0  0  0  0  0  0  0  0  0  0  0  0
    0.5915   -3.3115   -2.7295 H   0  0  0  0  0  0  0  0  0  0  0  0
    0.7212   -1.6664   -3.3967 H   0  0  0  0  0  0  0  0  0  0  0  0
  5  6  2  0  0  0  0
  5  7  1  0  0  0  0
  2  3  1  0  0  0  0
  2  4  1  0  0  0  0
  2  5  1  0  0  0  0
  1  2  1  0  0  0  0
 24 25  2  0  0  0  0
 24 26  1  0  0  0  0
 20 21  1  0  0  0  0
 20 22  1  0  0  0  0
 20 23  1  0  0  0  0
 16 17  1  0  0  0  0
 16 18  1  0  0  0  0
 16 19  1  0  0  0  0
 14 15  1  0  0  0  0
 14 16  1  0  0  0  0
 14 20  1  0  0  0  0
 11 12  1  0  0  0  0
 11 13  1  0  0  0  0
 11 14  1  0  0  0  0
  9 10  1  0  0  0  0
  9 11  1  0  0  0  0
  9 24  1  0  0  0  0
  7  8  1  0  0  0  0
  7  9  1  0  0  0  0
 28 29  1  0  0  0  0
 28 30  1  0  0  0  0
 28 31  1  0  0  0  0
 26 27  1  0  0  0  0
 26 28  1  0  0  0  0
M  END
$$$$
default_name
  -OEChem-01062215323D

 31 30  0     1  0  0  0  0  0999 V2000
   -3.5895   -3.5013    1.1082 H   0  0  0  0  0  0  0  0  0  0  0  0
   -3.5145   -2.5363    0.6082 C   0  0  0  0  0  0  0  0  0  0  0  0
   -4.2285   -1.8413    1.0452 H   0  0  0  0  0  0  0  0  0  0  0  0
   -3.7155   -2.6583   -0.4538 H   0  0  0  0  0  0  0  0  0  0  0  0
   -2.1155   -1.9963    0.7922 C   0  0  0  0  0  0  0  0  0  0  0  0
   -1.2875   -2.6383    1.4252 O   0  0  0  0  0  0  0  0  0  0  0  0
   -1.8575   -0.8123    0.2402 N   0  0  0  0  0  0  0  0  0  0  0  0
   -2.6005   -0.3333   -0.2478 H   0  0  0  0  0  0  0  0  0  0  0  0
   -0.5675   -0.1203    0.3102 C   0  0  1  0  0  0  0  0  0  0  0  0
   -0.7519    0.9528    0.2486 H   0  0  0  0  0  0  0  0  0  0  0  0
    0.0875   -0.4387    1.6706 C   0  0  0  0  0  0  0  0  0  0  0  0
    0.1698   -1.5225    1.7727 H   0  0  0  0  0  0  0  0  0  0  0  0
    1.1002   -0.0296    1.6614 H   0  0  0  0  0  0  0  0  0  0  0  0
   -0.6409    0.1129    2.9098 C   0  0  0  0  0  0  0  0  0  0  0  0
   -1.6871   -0.1924    2.8882 H   0  0  0  0  0  0  0  0  0  0  0  0
   -0.0077   -0.3713    4.2174 C   0  0  0  0  0  0  0  0  0  0  0  0
    1.0450   -0.0870    4.2468 H   0  0  0  0  0  0  0  0  0  0  0  0
   -0.5231    0.0815    5.0647 H   0  0  0  0  0  0  0  0  0  0  0  0
   -0.0862   -1.4528    4.3048 H   0  0  0  0  0  0  0  0  0  0  0  0
   -0.5937    1.6404    2.8991 C   0  0  0  0  0  0  0  0  0  0  0  0
   -1.0676    2.0155    1.9921 H   0  0  0  0  0  0  0  0  0  0  0  0
   -1.1326    2.0340    3.7609 H   0  0  0  0  0  0  0  0  0  0  0  0
    0.4406    1.9845    2.9335 H   0  0  0  0  0  0  0  0  0  0  0  0
    0.3189   -0.5271   -0.8793 C   0  0  0  0  0  0  0  0  0  0  0  0
    1.3110    0.1392   -1.1658 O   0  0  0  0  0  0  0  0  0  0  0  0
   -0.0456   -1.6122   -1.5746 N   0  0  0  0  0  0  0  0  0  0  0  0
   -0.8686   -2.1096   -1.2743 H   0  0  0  0  0  0  0  0  0  0  0  0
    0.6798   -2.1171   -2.7381 C   0  0  0  0  0  0  0  0  0  0  0  0
    1.7086   -2.3535   -2.4572 H   0  0  0  0  0  0  0  0  0  0  0  0
    0.1972   -3.0162   -3.1243 H   0  0  0  0  0  0  0  0  0  0  0  0
    0.7004   -1.3550   -3.5187 H   0  0  0  0  0  0  0  0  0  0  0  0
  5  6  2  0  0  0  0
  5  7  1  0  0  0  0
  2  3  1  0  0  0  0
  2  4  1  0  0  0  0
  2  5  1  0  0  0  0
  1  2  1  0  0  0  0
 24 25  2  0  0  0  0
 24 26  1  0  0  0  0
 20 21  1  0  0  0  0
 20 22  1  0  0  0  0
 20 23  1  0  0  0  0
 16 17  1  0  0  0  0
 16 18  1  0  0  0  0
 16 19  1  0  0  0  0
 14 15  1  0  0  0  0
 14 16  1  0  0  0  0
 14 20  1  0  0  0  0
 11 12  1  0  0  0  0
 11 13  1  0  0  0  0
 11 14  1  0  0  0  0
  9 10  1  0  0  0  0
  9 11  1  0  0  0  0
  9 24  1  0  0  0  0
  7  8  1  0  0  0  0
  7  9  1  0  0  0  0
 28 29  1  0  0  0  0
 28 30  1  0  0  0  0
 28 31  1  0  0  0  0
 26 27  1  0  0  0  0
 26 28  1  0  0  0  0
M  END
$$$$
default_name
  -OEChem-01062215323D

 31 30  0     1  0  0  0  0  0999 V2000
   -3.5895   -3.5013    1.1082 H   0  0  0  0  0  0  0  0  0  0  0  0
   -3.5145   -2.5363    0.6082 C   0  0  0  0  0  0  0  0  0  0  0  0
   -4.2285   -1.8413    1.0452 H   0  0  0  0  0  0  0  0  0  0  0  0
   -3.7155   -2.6583   -0.4538 H   0  0  0  0  0  0  0  0  0  0  0  0
   -2.1155   -1.9963    0.7922 C   0  0  0  0  0  0  0  0  0  0  0  0
   -1.2875   -2.6383    1.4252 O   0  0  0  0  0  0  0  0  0  0  0  0
   -1.8575   -0.8123    0.2402 N   0  0  0  0  0  0  0  0  0  0  0  0
   -2.6005   -0.3333   -0.2478 H   0  0  0  0  0  0  0  0  0  0  0  0
   -0.5675   -0.1203    0.3102 C   0  0  1  0  0  0  0  0  0  0  0  0
   -0.7519    0.9528    0.2486 H   0  0  0  0  0  0  0  0  0  0  0  0
    0.0875   -0.4387    1.6706 C   0  0  0  0  0  0  0  0  0  0  0  0
    0.1698   -1.5225    1.7727 H   0  0  0  0  0  0  0  0  0  0  0  0
    1.1002   -0.0296    1.6614 H   0  0  0  0  0  0  0  0  0  0  0  0
   -0.6409    0.1129    2.9098 C   0  0  0  0  0  0  0  0  0  0  0  0
   -1.6871   -0.1924    2.8882 H   0  0  0  0  0  0  0  0  0  0  0  0
   -0.0077   -0.3713    4.2174 C   0  0  0  0  0  0  0  0  0  0  0  0
    1.0450   -0.0870    4.2468 H   0  0  0  0  0  0  0  0  0  0  0  0
   -0.5231    0.0815    5.0647 H   0  0  0  0  0  0  0  0  0  0  0  0
   -0.0862   -1.4528    4.3048 H   0  0  0  0  0  0  0  0  0  0  0  0
   -0.5937    1.6404    2.8991 C   0  0  0  0  0  0  0  0  0  0  0  0
   -1.0676    2.0155    1.9921 H   0  0  0  0  0  0  0  0  0  0  0  0
   -1.1326    2.0340    3.7609 H   0  0  0  0  0  0  0  0  0  0  0  0
    0.4406    1.9845    2.9335 H   0  0  0  0  0  0  0  0  0  0  0  0
    0.3189   -0.5271   -0.8793 C   0  0  0  0  0  0  0  0  0  0  0  0
    1.4422   -0.0449   -1.0051 O   0  0  0  0  0  0  0  0  0  0  0  0
   -0.1907   -1.4041   -1.7539 N   0  0  0  0  0  0  0  0  0  0  0  0
   -1.1171   -1.7594   -1.5792 H   0  0  0  0  0  0  0  0  0  0  0  0
    0.5170   -1.8766   -2.9416 C   0  0  0  0  0  0  0  0  0  0  0  0
    1.4528   -2.3566   -2.6467 H   0  0  0  0  0  0  0  0  0  0  0  0
   -0.0976   -2.5932   -3.4886 H   0  0  0  0  0  0  0  0  0  0  0  0
    0.7510   -1.0319   -3.5914 H   0  0  0  0  0  0  0  0  0  0  0  0
  5  6  2  0  0  0  0
  5  7  1  0  0  0  0
  2  3  1  0  0  0  0
  2  4  1  0  0  0  0
  2  5  1  0  0  0  0
  1  2  1  0  0  0  0
 24 25  2  0  0  0  0
 24 26  1  0  0  0  0
 20 21  1  0  0  0  0
 20 22  1  0  0  0  0
 20 23  1  0  0  0  0
 16 17  1  0  0  0  0
 16 18  1  0  0  0  0
 16 19  1  0  0  0  0
 14 15  1  0  0  0  0
 14 16  1  0  0  0  0
 14 20  1  0  0  0  0
 11 12  1  0  0  0  0
 11 13  1  0  0  0  0
 11 14  1  0  0  0  0
  9 10  1  0  0  0  0
  9 11  1  0  0  0  0
  9 24  1  0  0  0  0
  7  8  1  0  0  0  0
  7  9  1  0  0  0  0
 28 29  1  0  0  0  0
 28 30  1  0  0  0  0
 28 31  1  0  0  0  0
 26 27  1  0  0  0  0
 26 28  1  0  0  0  0
M  END
$$$$
default_name
  -OEChem-01062215323D

 31 30  0     1  0  0  0  0  0999 V2000
   -3.5895   -3.5013    1.1082 H   0  0  0  0  0  0  0  0  0  0  0  0
   -3.5145   -2.5363    0.6082 C   0  0  0  0  0  0  0  0  0  0  0  0
   -4.2285   -1.8413    1.0452 H   0  0  0  0  0  0  0  0  0  0  0  0
   -3.7155   -2.6583   -0.4538 H   0  0  0  0  0  0  0  0  0  0  0  0
   -2.1155   -1.9963    0.7922 C   0  0  0  0  0  0  0  0  0  0  0  0
   -1.2875   -2.6383    1.4252 O   0  0  0  0  0  0  0  0  0  0  0  0
   -1.8575   -0.8123    0.2402 N   0  0  0  0  0  0  0  0  0  0  0  0
   -2.6005   -0.3333   -0.2478 H   0  0  0  0  0  0  0  0  0  0  0  0
   -0.5675   -0.1203    0.3102 C   0  0  1  0  0  0  0  0  0  0  0  0
   -0.7519    0.9528    0.2486 H   0  0  0  0  0  0  0  0  0  0  0  0
    0.0875   -0.4387    1.6706 C   0  0  0  0  0  0  0  0  0  0  0  0
    0.1698   -1.5225    1.7727 H   0  0  0  0  0  0  0  0  0  0  0  0
    1.1002   -0.0296    1.6614 H   0  0  0  0  0  0  0  0  0  0  0  0
   -0.6409    0.1129    2.9098 C   0  0  0  0  0  0  0  0  0  0  0  0
   -1.6871   -0.1924    2.8882 H   0  0  0  0  0  0  0  0  0  0  0  0
   -0.0077   -0.3713    4.2174 C   0  0  0  0  0  0  0  0  0  0  0  0
    1.0450   -0.0870    4.2468 H   0  0  0  0  0  0  0  0  0  0  0  0
   -0.5231    0.0815    5.0647 H   0  0  0  0  0  0  0  0  0  0  0  0
   -0.0862   -1.4528    4.3048 H   0  0  0  0  0  0  0  0  0  0  0  0
   -0.5937    1.6404    2.8991 C   0  0  0  0  0  0  0  0  0  0  0  0
   -1.0676    2.0155    1.9921 H   0  0  0  0  0  0  0  0  0  0  0  0
   -1.1326    2.0340    3.7609 H   0  0  0  0  0  0  0  0  0  0  0  0
    0.4406    1.9845    2.9335 H   0  0  0  0  0  0  0  0  0  0  0  0
    0.3189   -0.5271   -0.8793 C   0  0  0  0  0  0  0  0  0  0  0  0
    1.5212   -0.2730   -0.8683 O   0  0  0  0  0  0  0  0  0  0  0  0
   -0.2770   -1.1474   -1.9060 N   0  0  0  0  0  0  0  0  0  0  0  0
   -1.2661   -1.3260   -1.8385 H   0  0  0  0  0  0  0  0  0  0  0  0
    0.4219   -1.5813   -3.1135 C   0  0  0  0  0  0  0  0  0  0  0  0
    1.2181   -2.2802   -2.8477 H   0  0  0  0  0  0  0  0  0  0  0  0
   -0.2727   -2.0712   -3.7976 H   0  0  0  0  0  0  0  0  0  0  0  0
    0.8696   -0.7190   -3.6101 H   0  0  0  0  0  0  0  0  0  0  0  0
  5  6  2  0  0  0  0
  5  7  1  0  0  0  0
  2  3  1  0  0  0  0
  2  4  1  0  0  0  0
  2  5  1  0  0  0  0
  1  2  1  0  0  0  0
 24 25  2  0  0  0  0
 24 26  1  0  0  0  0
 20 21  1  0  0  0  0
 20 22  1  0  0  0  0
 20 23  1  0  0  0  0
 16 17  1  0  0  0  0
 16 18  1  0  0  0  0
 16 19  1  0  0  0  0
 14 15  1  0  0  0  0
 14 16  1  0  0  0  0
 14 20  1  0  0  0  0
 11 12  1  0  0  0  0
 11 13  1  0  0  0  0
 11 14  1  0  0  0  0
  9 10  1  0  0  0  0
  9 11  1  0  0  0  0
  9 24  1  0  0  0  0
  7  8  1  0  0  0  0
  7  9  1  0  0  0  0
 28 29  1  0  0  0  0
 28 30  1  0  0  0  0
 28 31  1  0  0  0  0
 26 27  1  0  0  0  0
 26 28  1  0  0  0  0
M  END
$$$$
default_name
  -OEChem-01062215323D

 31 30  0     1  0  0  0  0  0999 V2000
   -3.5895   -3.5013    1.1082 H   0  0  0  0  0  0  0  0  0  0  0  0
   -3.5145   -2.5363    0.6082 C   0  0  0  0  0  0  0  0  0  0  0  0
   -4.2285   -1.8413    1.0452 H   0  0  0  0  0  0  0  0  0  0  0  0
   -3.7155   -2.6583   -0.4538 H   0  0  0  0  0  0  0  0  0  0  0  0
   -2.1155   -1.9963    0.7922 C   0  0  0  0  0  0  0  0  0  0  0  0
   -1.2875   -2.6383    1.4252 O   0  0  0  0  0  0  0  0  0  0  0  0
   -1.8575   -0.8123    0.2402 N   0  0  0  0  0  0  0  0  0  0  0  0
   -2.6005   -0.3333   -0.2478 H   0  0  0  0  0  0  0  0  0  0  0  0
   -0.5675   -0.1203    0.3102 C   0  0  1  0  0  0  0  0  0  0  0  0
   -0.7519    0.9528    0.2486 H   0  0  0  0  0  0  0  0  0  0  0  0
    0.0875   -0.4387    1.6706 C   0  0  0  0  0  0  0  0  0  0  0  0
    0.1698   -1.5225    1.7727 H   0  0  0  0  0  0  0  0  0  0  0  0
    1.1002   -0.0296    1.6614 H   0  0  0  0  0  0  0  0  0  0  0  0
   -0.6409    0.1129    2.9098 C   0  0  0  0  0  0  0  0  0  0  0  0
   -1.6871   -0.1924    2.8882 H   0  0  0  0  0  0  0  0  0  0  0  0
   -0.0077   -0.3713    4.2174 C   0  0  0  0  0  0  0  0  0  0  0  0
    1.0450   -0.0870    4.2468 H   0  0  0  0  0  0  0  0  0  0  0  0
   -0.5231    0.0815    5.0647 H   0  0  0  0  0  0  0  0  0  0  0  0
   -0.0862   -1.4528    4.3048 H   0  0  0  0  0  0  0  0  0  0  0  0
   -0.5937    1.6404    2.8991 C   0  0  0  0  0  0  0  0  0  0  0  0
   -1.0676    2.0155    1.9921 H   0  0  0  0  0  0  0  0  0  0  0  0
   -1.1326    2.0340    3.7609 H   0  0  0  0  0  0  0  0  0  0  0  0
    0.4406    1.9845    2.9335 H   0  0  0  0  0  0  0  0  0  0  0  0
    0.3189   -0.5271   -0.8793 C   0  0  0  0  0  0  0  0  0  0  0  0
    1.5424   -0.5295   -0.7647 O   0  0  0  0  0  0  0  0  0  0  0  0
   -0.2985   -0.8594   -2.0205 N   0  0  0  0  0  0  0  0  0  0  0  0
   -1.3056   -0.8388   -2.0345 H   0  0  0  0  0  0  0  0  0  0  0  0
    0.4008   -1.2514   -3.2420 C   0  0  0  0  0  0  0  0  0  0  0  0
    1.0205   -2.1295   -3.0465 H   0  0  0  0  0  0  0  0  0  0  0  0
   -0.3162   -1.4859   -4.0302 H   0  0  0  0  0  0  0  0  0  0  0  0
    1.0480   -0.4378   -3.5733 H   0  0  0  0  0  0  0  0  0  0  0  0
  5  6  2  0  0  0  0
  5  7  1  0  0  0  0
  2  3  1  0  0  0  0
  2  4  1  0  0  0  0
  2  5  1  0  0  0  0
  1  2  1  0  0  0  0
 24 25  2  0  0  0  0
 24 26  1  0  0  0  0
 20 21  1  0  0  0  0
 20 22  1  0  0  0  0
 20 23  1  0  0  0  0
 16 17  1  0  0  0  0
 16 18  1  0  0  0  0
 16 19  1  0  0  0  0
 14 15  1  0  0  0  0
 14 16  1  0  0  0  0
 14 20  1  0  0  0  0
 11 12  1  0  0  0  0
 11 13  1  0  0  0  0
 11 14  1  0  0  0  0
  9 10  1  0  0  0  0
  9 11  1  0  0  0  0
  9 24  1  0  0  0  0
  7  8  1  0  0  0  0
  7  9  1  0  0  0  0
 28 29  1  0  0  0  0
 28 30  1  0  0  0  0
 28 31  1  0  0  0  0
 26 27  1  0  0  0  0
 26 28  1  0  0  0  0
M  END
$$$$
default_name
  -OEChem-01062215323D

 31 30  0     1  0  0  0  0  0999 V2000
   -3.5895   -3.5013    1.1082 H   0  0  0  0  0  0  0  0  0  0  0  0
   -3.5145   -2.5363    0.6082 C   0  0  0  0  0  0  0  0  0  0  0  0
   -4.2285   -1.8413    1.0452 H   0  0  0  0  0  0  0  0  0  0  0  0
   -3.7155   -2.6583   -0.4538 H   0  0  0  0  0  0  0  0  0  0  0  0
   -2.1155   -1.9963    0.7922 C   0  0  0  0  0  0  0  0  0  0  0  0
   -1.2875   -2.6383    1.4252 O   0  0  0  0  0  0  0  0  0  0  0  0
   -1.8575   -0.8123    0.2402 N   0  0  0  0  0  0  0  0  0  0  0  0
   -2.6005   -0.3333   -0.2478 H   0  0  0  0  0  0  0  0  0  0  0  0
   -0.5675   -0.1203    0.3102 C   0  0  1  0  0  0  0  0  0  0  0  0
   -0.7519    0.9528    0.2486 H   0  0  0  0  0  0  0  0  0  0  0  0
    0.0875   -0.4387    1.6706 C   0  0  0  0  0  0  0  0  0  0  0  0
    0.1698   -1.5225    1.7727 H   0  0  0  0  0  0  0  0  0  0  0  0
    1.1002   -0.0296    1.6614 H   0  0  0  0  0  0  0  0  0  0  0  0
   -0.6409    0.1129    2.9098 C   0  0  0  0  0  0  0  0  0  0  0  0
   -1.6871   -0.1924    2.8882 H   0  0  0  0  0  0  0  0  0  0  0  0
   -0.0077   -0.3713    4.2174 C   0  0  0  0  0  0  0  0  0  0  0  0
    1.0450   -0.0870    4.2468 H   0  0  0  0  0  0  0  0  0  0  0  0
   -0.5231    0.0815    5.0647 H   0  0  0  0  0  0  0  0  0  0  0  0
   -0.0862   -1.4528    4.3048 H   0  0  0  0  0  0  0  0  0  0  0  0
   -0.5937    1.6404    2.8991 C   0  0  0  0  0  0  0  0  0  0  0  0
   -1.0676    2.0155    1.9921 H   0  0  0  0  0  0  0  0  0  0  0  0
   -1.1326    2.0340    3.7609 H   0  0  0  0  0  0  0  0  0  0  0  0
    0.4406    1.9845    2.9335 H   0  0  0  0  0  0  0  0  0  0  0  0
    0.3189   -0.5271   -0.8793 C   0  0  0  0  0  0  0  0  0  0  0  0
    1.5045   -0.7970   -0.7015 O   0  0  0  0  0  0  0  0  0  0  0  0
   -0.2538   -0.5599   -2.0896 N   0  0  0  0  0  0  0  0  0  0  0  0
   -1.2328   -0.3312   -2.1539 H   0  0  0  0  0  0  0  0  0  0  0  0
    0.4553   -0.9094   -3.3183 C   0  0  0  0  0  0  0  0  0  0  0  0
    0.8734   -1.9147   -3.2296 H   0  0  0  0  0  0  0  0  0  0  0  0
   -0.2252   -0.8771   -4.1705 H   0  0  0  0  0  0  0  0  0  0  0  0
    1.2741   -0.2073   -3.4836 H   0  0  0  0  0  0  0  0  0  0  0  0
  5  6  2  0  0  0  0
  5  7  1  0  0  0  0
  2  3  1  0  0  0  0
  2  4  1  0  0  0  0
  2  5  1  0  0  0  0
  1  2  1  0  0  0  0
 24 25  2  0  0  0  0
 24 26  1  0  0  0  0
 20 21  1  0  0  0  0
 20 22  1  0  0  0  0
 20 23  1  0  0  0  0
 16 17  1  0  0  0  0
 16 18  1  0  0  0  0
 16 19  1  0  0  0  0
 14 15  1  0  0  0  0
 14 16  1  0  0  0  0
 14 20  1  0  0  0  0
 11 12  1  0  0  0  0
 11 13  1  0  0  0  0
 11 14  1  0  0  0  0
  9 10  1  0  0  0  0
  9 11  1  0  0  0  0
  9 24  1  0  0  0  0
  7  8  1  0  0  0  0
  7  9  1  0  0  0  0
 28 29  1  0  0  0  0
 28 30  1  0  0  0  0
 28 31  1  0  0  0  0
 26 27  1  0  0  0  0
 26 28  1  0  0  0  0
M  END
$$$$
default_name
  -OEChem-01062215323D

 31 30  0     1  0  0  0  0  0999 V2000
   -3.5895   -3.5013    1.1082 H   0  0  0  0  0  0  0  0  0  0  0  0
   -3.5145   -2.5363    0.6082 C   0  0  0  0  0  0  0  0  0  0  0  0
   -4.2285   -1.8413    1.0452 H   0  0  0  0  0  0  0  0  0  0  0  0
   -3.7155   -2.6583   -0.4538 H   0  0  0  0  0  0  0  0  0  0  0  0
   -2.1155   -1.9963    0.7922 C   0  0  0  0  0  0  0  0  0  0  0  0
   -1.2875   -2.6383    1.4252 O   0  0  0  0  0  0  0  0  0  0  0  0
   -1.8575   -0.8123    0.2402 N   0  0  0  0  0  0  0  0  0  0  0  0
   -2.6005   -0.3333   -0.2478 H   0  0  0  0  0  0  0  0  0  0  0  0
   -0.5675   -0.1203    0.3102 C   0  0  1  0  0  0  0  0  0  0  0  0
   -0.7519    0.9528    0.2486 H   0  0  0  0  0  0  0  0  0  0  0  0
    0.0875   -0.4387    1.6706 C   0  0  0  0  0  0  0  0  0  0  0  0
    0.1698   -1.5225    1.7727 H   0  0  0  0  0  0  0  0  0  0  0  0
    1.1002   -0.0296    1.6614 H   0  0  0  0  0  0  0  0  0  0  0  0
   -0.6409    0.1129    2.9098 C   0  0  0  0  0  0  0  0  0  0  0  0
   -1.6871   -0.1924    2.8882 H   0  0  0  0  0  0  0  0  0  0  0  0
   -0.0077   -0.3713    4.2174 C   0  0  0  0  0  0  0  0  0  0  0  0
    1.0450   -0.0870    4.2468 H   0  0  0  0  0  0  0  0  0  0  0  0
   -0.5231    0.0815    5.0647 H   0  0  0  0  0  0  0  0  0  0  0  0
   -0.0862   -1.4528    4.3048 H   0  0  0  0  0  0  0  0  0  0  0  0
   -0.5937    1.6404    2.8991 C   0  0  0  0  0  0  0  0  0  0  0  0
   -1.0676    2.0155    1.9921 H   0  0  0  0  0  0  0  0  0  0  0  0
   -1.1326    2.0340    3.7609 H   0  0  0  0  0  0  0  0  0  0  0  0
    0.4406    1.9845    2.9335 H   0  0  0  0  0  0  0  0  0  0  0  0
    0.3189   -0.5271   -0.8793 C   0  0  0  0  0  0  0  0  0  0  0  0
    1.4100   -1.0572   -0.6829 O   0  0  0  0  0  0  0  0  0  0  0  0
   -0.1459   -0.2692   -2.1087 N   0  0  0  0  0  0  0  0  0  0  0  0
   -1.0527    0.1625   -2.1885 H   0  0  0  0  0  0  0  0  0  0  0  0
    0.5817   -0.5785   -3.3373 C   0  0  0  0  0  0  0  0  0  0  0  0
    0.7868   -1.6504   -3.3845 H   0  0  0  0  0  0  0  0  0  0  0  0
   -0.0059   -0.2864   -4.2091 H   0  0  0  0  0  0  0  0  0  0  0  0
    1.5325   -0.0433   -3.3472 H   0  0  0  0  0  0  0  0  0  0  0  0
  5  6  2  0  0  0  0
  5  7  1  0  0  0  0
  2  3  1  0  0  0  0
  2  4  1  0  0  0  0
  2  5  1  0  0  0  0
  1  2  1  0  0  0  0
 24 25  2  0  0  0  0
 24 26  1  0  0  0  0
 20 21  1  0  0  0  0
 20 22  1  0  0  0  0
 20 23  1  0  0  0  0
 16 17  1  0  0  0  0
 16 18  1  0  0  0  0
 16 19  1  0  0  0  0
 14 15  1  0  0  0  0
 14 16  1  0  0  0  0
 14 20  1  0  0  0  0
 11 12  1  0  0  0  0
 11 13  1  0  0  0  0
 11 14  1  0  0  0  0
  9 10  1  0  0  0  0
  9 11  1  0  0  0  0
  9 24  1  0  0  0  0
  7  8  1  0  0  0  0
  7  9  1  0  0  0  0
 28 29  1  0  0  0  0
 28 30  1  0  0  0  0
 28 31  1  0  0  0  0
 26 27  1  0  0  0  0
 26 28  1  0  0  0  0
M  END
$$$$
default_name
  -OEChem-01062215323D

 31 30  0     1  0  0  0  0  0999 V2000
   -3.5895   -3.5013    1.1082 H   0  0  0  0  0  0  0  0  0  0  0  0
   -3.5145   -2.5363    0.6082 C   0  0  0  0  0  0  0  0  0  0  0  0
   -4.2285   -1.8413    1.0452 H   0  0  0  0  0  0  0  0  0  0  0  0
   -3.7155   -2.6583   -0.4538 H   0  0  0  0  0  0  0  0  0  0  0  0
   -2.1155   -1.9963    0.7922 C   0  0  0  0  0  0  0  0  0  0  0  0
   -1.2875   -2.6383    1.4252 O   0  0  0  0  0  0  0  0  0  0  0  0
   -1.8575   -0.8123    0.2402 N   0  0  0  0  0  0  0  0  0  0  0  0
   -2.6005   -0.3333   -0.2478 H   0  0  0  0  0  0  0  0  0  0  0  0
   -0.5675   -0.1203    0.3102 C   0  0  1  0  0  0  0  0  0  0  0  0
   -0.7519    0.9528    0.2486 H   0  0  0  0  0  0  0  0  0  0  0  0
    0.0875   -0.4387    1.6706 C   0  0  0  0  0  0  0  0  0  0  0  0
    0.1698   -1.5225    1.7727 H   0  0  0  0  0  0  0  0  0  0  0  0
    1.1002   -0.0296    1.6614 H   0  0  0  0  0  0  0  0  0  0  0  0
   -0.6409    0.1129    2.9098 C   0  0  0  0  0  0  0  0  0  0  0  0
   -1.6871   -0.1924    2.8882 H   0  0  0  0  0  0  0  0  0  0  0  0
   -0.0077   -0.3713    4.2174 C   0  0  0  0  0  0  0  0  0  0  0  0
    1.0450   -0.0870    4.2468 H   0  0  0  0  0  0  0  0  0  0  0  0
   -0.5231    0.0815    5.0647 H   0  0  0  0  0  0  0  0  0  0  0  0
   -0.0862   -1.4528    4.3048 H   0  0  0  0  0  0  0  0  0  0  0  0
   -0.5937    1.6404    2.8991 C   0  0  0  0  0  0  0  0  0  0  0  0
   -1.0676    2.0155    1.9921 H   0  0  0  0  0  0  0  0  0  0  0  0
   -1.1326    2.0340    3.7609 H   0  0  0  0  0  0  0  0  0  0  0  0
    0.4406    1.9845    2.9335 H   0  0  0  0  0  0  0  0  0  0  0  0
    0.3189   -0.5271   -0.8793 C   0  0  0  0  0  0  0  0  0  0  0  0
    1.2654   -1.2923   -0.7103 O   0  0  0  0  0  0  0  0  0  0  0  0
    0.0177   -0.0071   -2.0763 N   0  0  0  0  0  0  0  0  0  0  0  0
   -0.7776    0.6084   -2.1359 H   0  0  0  0  0  0  0  0  0  0  0  0
    0.7712   -0.2814   -3.2977 C   0  0  0  0  0  0  0  0  0  0  0  0
    0.7666   -1.3547   -3.5006 H   0  0  0  0  0  0  0  0  0  0  0  0
    0.3269    0.2461   -4.1432 H   0  0  0  0  0  0  0  0  0  0  0  0
    1.8056    0.0430   -3.1732 H   0  0  0  0  0  0  0  0  0  0  0  0
  5  6  2  0  0  0  0
  5  7  1  0  0  0  0
  2  3  1  0  0  0  0
  2  4  1  0  0  0  0
  2  5  1  0  0  0  0
  1  2  1  0  0  0  0
 24 25  2  0  0  0  0
 24 26  1  0  0  0  0
 20 21  1  0  0  0  0
 20 22  1  0  0  0  0
 20 23  1  0  0  0  0
 16 17  1  0  0  0  0
 16 18  1  0  0  0  0
 16 19  1  0  0  0  0
 14 15  1  0  0  0  0
 14 16  1  0  0  0  0
 14 20  1  0  0  0  0
 11 12  1  0  0  0  0
 11 13  1  0  0  0  0
 11 14  1  0  0  0  0
  9 10  1  0  0  0  0
  9 11  1  0  0  0  0
  9 24  1  0  0  0  0
  7  8  1  0  0  0  0
  7  9  1  0  0  0  0
 28 29  1  0  0  0  0
 28 30  1  0  0  0  0
 28 31  1  0  0  0  0
 26 27  1  0  0  0  0
 26 28  1  0  0  0  0
M  END
$$$$
default_name
  -OEChem-01062215323D

 31 30  0     1  0  0  0  0  0999 V2000
   -3.5895   -3.5013    1.1082 H   0  0  0  0  0  0  0  0  0  0  0  0
   -3.5145   -2.5363    0.6082 C   0  0  0  0  0  0  0  0  0  0  0  0
   -4.2285   -1.8413    1.0452 H   0  0  0  0  0  0  0  0  0  0  0  0
   -3.7155   -2.6583   -0.4538 H   0  0  0  0  0  0  0  0  0  0  0  0
   -2.1155   -1.9963    0.7922 C   0  0  0  0  0  0  0  0  0  0  0  0
   -1.2875   -2.6383    1.4252 O   0  0  0  0  0  0  0  0  0  0  0  0
   -1.8575   -0.8123    0.2402 N   0  0  0  0  0  0  0  0  0  0  0  0
   -2.6005   -0.3333   -0.2478 H   0  0  0  0  0  0  0  0  0  0  0  0
   -0.5675   -0.1203    0.3102 C   0  0  1  0  0  0  0  0  0  0  0  0
   -0.7519    0.9528    0.2486 H   0  0  0  0  0  0  0  0  0  0  0  0
    0.0875   -0.4387    1.6706 C   0  0  0  0  0  0  0  0  0  0  0  0
    0.1698   -1.5225    1.7727 H   0  0  0  0  0  0  0  0  0  0  0  0
    1.1002   -0.0296    1.6614 H   0  0  0  0  0  0  0  0  0  0  0  0
   -0.6409    0.1129    2.9098 C   0  0  0  0  0  0  0  0  0  0  0  0
   -1.6871   -0.1924    2.8882 H   0  0  0  0  0  0  0  0  0  0  0  0
   -0.0077   -0.3713    4.2174 C   0  0  0  0  0  0  0  0  0  0  0  0
    1.0450   -0.0870    4.2468 H   0  0  0  0  0  0  0  0  0  0  0  0
   -0.5231    0.0815    5.0647 H   0  0  0  0  0  0  0  0  0  0  0  0
   -0.0862   -1.4528    4.3048 H   0  0  0  0  0  0  0  0  0  0  0  0
   -0.5937    1.6404    2.8991 C   0  0  0  0  0  0  0  0  0  0  0  0
   -1.0676    2.0155    1.9921 H   0  0  0  0  0  0  0  0  0  0  0  0
   -1.1326    2.0340    3.7609 H   0  0  0  0  0  0  0  0  0  0  0  0
    0.4406    1.9845    2.9335 H   0  0  0  0  0  0  0  0  0  0  0  0
    0.3189   -0.5271   -0.8793 C   0  0  0  0  0  0  0  0  0  0  0  0
    1.0806   -1.4865   -0.7816 O   0  0  0  0  0  0  0  0  0  0  0  0
    0.2261    0.2084   -1.9948 N   0  0  0  0  0  0  0  0  0  0  0  0
   -0.4262    0.9762   -1.9999 H   0  0  0  0  0  0  0  0  0  0  0  0
    1.0111   -0.0382   -3.2021 C   0  0  0  0  0  0  0  0  0  0  0  0
    0.8143   -1.0477   -3.5701 H   0  0  0  0  0  0  0  0  0  0  0  0
    0.7504    0.6840   -3.9774 H   0  0  0  0  0  0  0  0  0  0  0  0
    2.0747    0.0458   -2.9736 H   0  0  0  0  0  0  0  0  0  0  0  0
  5  6  2  0  0  0  0
  5  7  1  0  0  0  0
  2  3  1  0  0  0  0
  2  4  1  0  0  0  0
  2  5  1  0  0  0  0
  1  2  1  0  0  0  0
 24 25  2  0  0  0  0
 24 26  1  0  0  0  0
 20 21  1  0  0  0  0
 20 22  1  0  0  0  0
 20 23  1  0  0  0  0
 16 17  1  0  0  0  0
 16 18  1  0  0  0  0
 16 19  1  0  0  0  0
 14 15  1  0  0  0  0
 14 16  1  0  0  0  0
 14 20  1  0  0  0  0
 11 12  1  0  0  0  0
 11 13  1  0  0  0  0
 11 14  1  0  0  0  0
  9 10  1  0  0  0  0
  9 11  1  0  0  0  0
  9 24  1  0  0  0  0
  7  8  1  0  0  0  0
  7  9  1  0  0  0  0
 28 29  1  0  0  0  0
 28 30  1  0  0  0  0
 28 31  1  0  0  0  0
 26 27  1  0  0  0  0
 26 28  1  0  0  0  0
M  END
$$$$
default_name
  -OEChem-01062215323D

 31 30  0     1  0  0  0  0  0999 V2000
   -3.5895   -3.5013    1.1082 H   0  0  0  0  0  0  0  0  0  0  0  0
   -3.5145   -2.5363    0.6082 C   0  0  0  0  0  0  0  0  0  0  0  0
   -4.2285   -1.8413    1.0452 H   0  0  0  0  0  0  0  0  0  0  0  0
   -3.7155   -2.6583   -0.4538 H   0  0  0  0  0  0  0  0  0  0  0  0
   -2.1155   -1.9963    0.7922 C   0  0  0  0  0  0  0  0  0  0  0  0
   -1.2875   -2.6383    1.4252 O   0  0  0  0  0  0  0  0  0  0  0  0
   -1.8575   -0.8123    0.2402 N   0  0  0  0  0  0  0  0  0  0  0  0
   -2.6005   -0.3333   -0.2478 H   0  0  0  0  0  0  0  0  0  0  0  0
   -0.5675   -0.1203    0.3102 C   0  0  1  0  0  0  0  0  0  0  0  0
   -0.7519    0.9528    0.2486 H   0  0  0  0  0  0  0  0  0  0  0  0
    0.0875   -0.4387    1.6706 C   0  0  0  0  0  0  0  0  0  0  0  0
    0.1698   -1.5225    1.7727 H   0  0  0  0  0  0  0  0  0  0  0  0
    1.1002   -0.0296    1.6614 H   0  0  0  0  0  0  0  0  0  0  0  0
   -0.6409    0.1129    2.9098 C   0  0  0  0  0  0  0  0  0  0  0  0
   -1.6871   -0.1924    2.8882 H   0  0  0  0  0  0  0  0  0  0  0  0
   -0.0077   -0.3713    4.2174 C   0  0  0  0  0  0  0  0  0  0  0  0
    1.0450   -0.0870    4.2468 H   0  0  0  0  0  0  0  0  0  0  0  0
   -0.5231    0.0815    5.0647 H   0  0  0  0  0  0  0  0  0  0  0  0
   -0.0862   -1.4528    4.3048 H   0  0  0  0  0  0  0  0  0  0  0  0
   -0.5937    1.6404    2.8991 C   0  0  0  0  0  0  0  0  0  0  0  0
   -1.0676    2.0155    1.9921 H   0  0  0  0  0  0  0  0  0  0  0  0
   -1.1326    2.0340    3.7609 H   0  0  0  0  0  0  0  0  0  0  0  0
    0.4406    1.9845    2.9335 H   0  0  0  0  0  0  0  0  0  0  0  0
    0.3189   -0.5271   -0.8793 C   0  0  0  0  0  0  0  0  0  0  0  0
    0.8680   -1.6264   -0.8922 O   0  0  0  0  0  0  0  0  0  0  0  0
    0.4648    0.3628   -1.8696 N   0  0  0  0  0  0  0  0  0  0  0  0
   -0.0225    1.2409   -1.7895 H   0  0  0  0  0  0  0  0  0  0  0  0
    1.2849    0.1344   -3.0572 C   0  0  0  0  0  0  0  0  0  0  0  0
    0.9265   -0.7504   -3.5881 H   0  0  0  0  0  0  0  0  0  0  0  0
    1.2358    0.9974   -3.7229 H   0  0  0  0  0  0  0  0  0  0  0  0
    2.3216   -0.0352   -2.7620 H   0  0  0  0  0  0  0  0  0  0  0  0
  5  6  2  0  0  0  0
  5  7  1  0  0  0  0
  2  3  1  0  0  0  0
  2  4  1  0  0  0  0
  2  5  1  0  0  0  0
  1  2  1  0  0  0  0
 24 25  2  0  0  0  0
 24 26  1  0  0  0  0
 20 21  1  0  0  0  0
 20 22  1  0  0  0  0
 20 23  1  0  0  0  0
 16 17  1  0  0  0  0
 16 18  1  0  0  0  0
 16 19  1  0  0  0  0
 14 15  1  0  0  0  0
 14 16  1  0  0  0  0
 14 20  1  0  0  0  0
 11 12  1  0  0  0  0
 11 13  1  0  0  0  0
 11 14  1  0  0  0  0
  9 10  1  0  0  0  0
  9 11  1  0  0  0  0
  9 24  1  0  0  0  0
  7  8  1  0  0  0  0
  7  9  1  0  0  0  0
 28 29  1  0  0  0  0
 28 30  1  0  0  0  0
 28 31  1  0  0  0  0
 26 27  1  0  0  0  0
 26 28  1  0  0  0  0
M  END
$$$$
default_name
  -OEChem-01062215323D

 31 30  0     1  0  0  0  0  0999 V2000
   -3.5895   -3.5013    1.1082 H   0  0  0  0  0  0  0  0  0  0  0  0
   -3.5145   -2.5363    0.6082 C   0  0  0  0  0  0  0  0  0  0  0  0
   -4.2285   -1.8413    1.0452 H   0  0  0  0  0  0  0  0  0  0  0  0
   -3.7155   -2.6583   -0.4538 H   0  0  0  0  0  0  0  0  0  0  0  0
   -2.1155   -1.9963    0.7922 C   0  0  0  0  0  0  0  0  0  0  0  0
   -1.2875   -2.6383    1.4252 O   0  0  0  0  0  0  0  0  0  0  0  0
   -1.8575   -0.8123    0.2402 N   0  0  0  0  0  0  0  0  0  0  0  0
   -2.6005   -0.3333   -0.2478 H   0  0  0  0  0  0  0  0  0  0  0  0
   -0.5675   -0.1203    0.3102 C   0  0  1  0  0  0  0  0  0  0  0  0
   -0.7519    0.9528    0.2486 H   0  0  0  0  0  0  0  0  0  0  0  0
    0.0875   -0.4387    1.6706 C   0  0  0  0  0  0  0  0  0  0  0  0
    0.1698   -1.5225    1.7727 H   0  0  0  0  0  0  0  0  0  0  0  0
    1.1002   -0.0296    1.6614 H   0  0  0  0  0  0  0  0  0  0  0  0
   -0.6409    0.1129    2.9098 C   0  0  0  0  0  0  0  0  0  0  0  0
   -1.6871   -0.1924    2.8882 H   0  0  0  0  0  0  0  0  0  0  0  0
   -0.0077   -0.3713    4.2174 C   0  0  0  0  0  0  0  0  0  0  0  0
    1.0450   -0.0870    4.2468 H   0  0  0  0  0  0  0  0  0  0  0  0
   -0.5231    0.0815    5.0647 H   0  0  0  0  0  0  0  0  0  0  0  0
   -0.0862   -1.4528    4.3048 H   0  0  0  0  0  0  0  0  0  0  0  0
   -0.5937    1.6404    2.8991 C   0  0  0  0  0  0  0  0  0  0  0  0
   -1.0676    2.0155    1.9921 H   0  0  0  0  0  0  0  0  0  0  0  0
   -1.1326    2.0340    3.7609 H   0  0  0  0  0  0  0  0  0  0  0  0
    0.4406    1.9845    2.9335 H   0  0  0  0  0  0  0  0  0  0  0  0
    0.3189   -0.5271   -0.8793 C   0  0  0  0  0  0  0  0  0  0  0  0
    0.6423   -1.7025   -1.0344 O   0  0  0  0  0  0  0  0  0  0  0  0
    0.7178    0.4454   -1.7094 N   0  0  0  0  0  0  0  0  0  0  0  0
    0.4061    1.3844   -1.5193 H   0  0  0  0  0  0  0  0  0  0  0  0
    1.5740    0.2247   -2.8726 C   0  0  0  0  0  0  0  0  0  0  0  0
    1.0957   -0.4830   -3.5535 H   0  0  0  0  0  0  0  0  0  0  0  0
    1.7499    1.1651   -3.3971 H   0  0  0  0  0  0  0  0  0  0  0  0
    2.5293   -0.1943   -2.5528 H   0  0  0  0  0  0  0  0  0  0  0  0
  5  6  2  0  0  0  0
  5  7  1  0  0  0  0
  2  3  1  0  0  0  0
  2  4  1  0  0  0  0
  2  5  1  0  0  0  0
  1  2  1  0  0  0  0
 24 25  2  0  0  0  0
 24 26  1  0  0  0  0
 20 21  1  0  0  0  0
 20 22  1  0  0  0  0
 20 23  1  0  0  0  0
 16 17  1  0  0  0  0
 16 18  1  0  0  0  0
 16 19  1  0  0  0  0
 14 15  1  0  0  0  0
 14 16  1  0  0  0  0
 14 20  1  0  0  0  0
 11 12  1  0  0  0  0
 11 13  1  0  0  0  0
 11 14  1  0  0  0  0
  9 10  1  0  0  0  0
  9 11  1  0  0  0  0
  9 24  1  0  0  0  0
  7  8  1  0  0  0  0
  7  9  1  0  0  0  0
 28 29  1  0  0  0  0
 28 30  1  0  0  0  0
 28 31  1  0  0  0  0
 26 27  1  0  0  0  0
 26 28  1  0  0  0  0
M  END
$$$$
default_name
  -OEChem-01062215323D

 31 30  0     1  0  0  0  0  0999 V2000
   -3.5895   -3.5013    1.1082 H   0  0  0  0  0  0  0  0  0  0  0  0
   -3.5145   -2.5363    0.6082 C   0  0  0  0  0  0  0  0  0  0  0  0
   -4.2285   -1.8413    1.0452 H   0  0  0  0  0  0  0  0  0  0  0  0
   -3.7155   -2.6583   -0.4538 H   0  0  0  0  0  0  0  0  0  0  0  0
   -2.1155   -1.9963    0.7922 C   0  0  0  0  0  0  0  0  0  0  0  0
   -1.2875   -2.6383    1.4252 O   0  0  0  0  0  0  0  0  0  0  0  0
   -1.8575   -0.8123    0.2402 N   0  0  0  0  0  0  0  0  0  0  0  0
   -2.6005   -0.3333   -0.2478 H   0  0  0  0  0  0  0  0  0  0  0  0
   -0.5675   -0.1203    0.3102 C   0  0  1  0  0  0  0  0  0  0  0  0
   -0.7519    0.9528    0.2486 H   0  0  0  0  0  0  0  0  0  0  0  0
    0.0875   -0.4387    1.6706 C   0  0  0  0  0  0  0  0  0  0  0  0
    0.1698   -1.5225    1.7727 H   0  0  0  0  0  0  0  0  0  0  0  0
    1.1002   -0.0296    1.6614 H   0  0  0  0  0  0  0  0  0  0  0  0
   -0.6409    0.1129    2.9098 C   0  0  0  0  0  0  0  0  0  0  0  0
   -1.6871   -0.1924    2.8882 H   0  0  0  0  0  0  0  0  0  0  0  0
   -0.0077   -0.3713    4.2174 C   0  0  0  0  0  0  0  0  0  0  0  0
    1.0450   -0.0870    4.2468 H   0  0  0  0  0  0  0  0  0  0  0  0
   -0.5231    0.0815    5.0647 H   0  0  0  0  0  0  0  0  0  0  0  0
   -0.0862   -1.4528    4.3048 H   0  0  0  0  0  0  0  0  0  0  0  0
   -0.5937    1.6404    2.8991 C   0  0  0  0  0  0  0  0  0  0  0  0
   -1.0676    2.0155    1.9921 H   0  0  0  0  0  0  0  0  0  0  0  0
   -1.1326    2.0340    3.7609 H   0  0  0  0  0  0  0  0  0  0  0  0
    0.4406    1.9845    2.9335 H   0  0  0  0  0  0  0  0  0  0  0  0
    0.3189   -0.5271   -0.8793 C   0  0  0  0  0  0  0  0  0  0  0  0
    0.4187   -1.7096   -1.1985 O   0  0  0  0  0  0  0  0  0  0  0  0
    0.9677    0.4507   -1.5250 N   0  0  0  0  0  0  0  0  0  0  0  0
    0.8303    1.3969   -1.2075 H   0  0  0  0  0  0  0  0  0  0  0  0
    1.8586    0.2266   -2.6611 C   0  0  0  0  0  0  0  0  0  0  0  0
    1.3102   -0.2637   -3.4687 H   0  0  0  0  0  0  0  0  0  0  0  0
    2.2578    1.1756   -3.0223 H   0  0  0  0  0  0  0  0  0  0  0  0
    2.6838   -0.4208   -2.3602 H   0  0  0  0  0  0  0  0  0  0  0  0
  5  6  2  0  0  0  0
  5  7  1  0  0  0  0
  2  3  1  0  0  0  0
  2  4  1  0  0  0  0
  2  5  1  0  0  0  0
  1  2  1  0  0  0  0
 24 25  2  0  0  0  0
 24 26  1  0  0  0  0
 20 21  1  0  0  0  0
 20 22  1  0  0  0  0
 20 23  1  0  0  0  0
 16 17  1  0  0  0  0
 16 18  1  0  0  0  0
 16 19  1  0  0  0  0
 14 15  1  0  0  0  0
 14 16  1  0  0  0  0
 14 20  1  0  0  0  0
 11 12  1  0  0  0  0
 11 13  1  0  0  0  0
 11 14  1  0  0  0  0
  9 10  1  0  0  0  0
  9 11  1  0  0  0  0
  9 24  1  0  0  0  0
  7  8  1  0  0  0  0
  7  9  1  0  0  0  0
 28 29  1  0  0  0  0
 28 30  1  0  0  0  0
 28 31  1  0  0  0  0
 26 27  1  0  0  0  0
 26 28  1  0  0  0  0
M  END
$$$$
default_name
  -OEChem-01062215323D

 31 30  0     1  0  0  0  0  0999 V2000
   -3.5895   -3.5013    1.1082 H   0  0  0  0  0  0  0  0  0  0  0  0
   -3.5145   -2.5363    0.6082 C   0  0  0  0  0  0  0  0  0  0  0  0
   -4.2285   -1.8413    1.0452 H   0  0  0  0  0  0  0  0  0  0  0  0
   -3.7155   -2.6583   -0.4538 H   0  0  0  0  0  0  0  0  0  0  0  0
   -2.1155   -1.9963    0.7922 C   0  0  0  0  0  0  0  0  0  0  0  0
   -1.2875   -2.6383    1.4252 O   0  0  0  0  0  0  0  0  0  0  0  0
   -1.8575   -0.8123    0.2402 N   0  0  0  0  0  0  0  0  0  0  0  0
   -2.6005   -0.3333   -0.2478 H   0  0  0  0  0  0  0  0  0  0  0  0
   -0.5675   -0.1203    0.3102 C   0  0  1  0  0  0  0  0  0  0  0  0
   -0.7519    0.9528    0.2486 H   0  0  0  0  0  0  0  0  0  0  0  0
    0.0875   -0.4387    1.6706 C   0  0  0  0  0  0  0  0  0  0  0  0
    0.1698   -1.5225    1.7727 H   0  0  0  0  0  0  0  0  0  0  0  0
    1.1002   -0.0296    1.6614 H   0  0  0  0  0  0  0  0  0  0  0  0
   -0.6409    0.1129    2.9098 C   0  0  0  0  0  0  0  0  0  0  0  0
   -1.6871   -0.1924    2.8882 H   0  0  0  0  0  0  0  0  0  0  0  0
   -0.0077   -0.3713    4.2174 C   0  0  0  0  0  0  0  0  0  0  0  0
    1.0450   -0.0870    4.2468 H   0  0  0  0  0  0  0  0  0  0  0  0
   -0.5231    0.0815    5.0647 H   0  0  0  0  0  0  0  0  0  0  0  0
   -0.0862   -1.4528    4.3048 H   0  0  0  0  0  0  0  0  0  0  0  0
   -0.5937    1.6404    2.8991 C   0  0  0  0  0  0  0  0  0  0  0  0
   -1.0676    2.0155    1.9921 H   0  0  0  0  0  0  0  0  0  0  0  0
   -1.1326    2.0340    3.7609 H   0  0  0  0  0  0  0  0  0  0  0  0
    0.4406    1.9845    2.9335 H   0  0  0  0  0  0  0  0  0  0  0  0
    0.3189   -0.5271   -0.8793 C   0  0  0  0  0  0  0  0  0  0  0  0
    0.2126   -1.6472   -1.3734 O   0  0  0  0  0  0  0  0  0  0  0  0
    1.1976    0.3782   -1.3289 N   0  0  0  0  0  0  0  0  0  0  0  0
    1.2212    1.2775   -0.8754 H   0  0  0  0  0  0  0  0  0  0  0  0
    2.1195    0.1398   -2.4371 C   0  0  0  0  0  0  0  0  0  0  0  0
    1.5556   -0.1075   -3.3393 H   0  0  0  0  0  0  0  0  0  0  0  0
    2.7248    1.0282   -2.6238 H   0  0  0  0  0  0  0  0  0  0  0  0
    2.7746   -0.6993   -2.1974 H   0  0  0  0  0  0  0  0  0  0  0  0
  5  6  2  0  0  0  0
  5  7  1  0  0  0  0
  2  3  1  0  0  0  0
  2  4  1  0  0  0  0
  2  5  1  0  0  0  0
  1  2  1  0  0  0  0
 24 25  2  0  0  0  0
 24 26  1  0  0  0  0
 20 21  1  0  0  0  0
 20 22  1  0  0  0  0
 20 23  1  0  0  0  0
 16 17  1  0  0  0  0
 16 18  1  0  0  0  0
 16 19  1  0  0  0  0
 14 15  1  0  0  0  0
 14 16  1  0  0  0  0
 14 20  1  0  0  0  0
 11 12  1  0  0  0  0
 11 13  1  0  0  0  0
 11 14  1  0  0  0  0
  9 10  1  0  0  0  0
  9 11  1  0  0  0  0
  9 24  1  0  0  0  0
  7  8  1  0  0  0  0
  7  9  1  0  0  0  0
 28 29  1  0  0  0  0
 28 30  1  0  0  0  0
 28 31  1  0  0  0  0
 26 27  1  0  0  0  0
 26 28  1  0  0  0  0
M  END
$$$$
default_name
  -OEChem-01062215323D

 31 30  0     1  0  0  0  0  0999 V2000
   -3.5895   -3.5013    1.1082 H   0  0  0  0  0  0  0  0  0  0  0  0
   -3.5145   -2.5363    0.6082 C   0  0  0  0  0  0  0  0  0  0  0  0
   -4.2285   -1.8413    1.0452 H   0  0  0  0  0  0  0  0  0  0  0  0
   -3.7155   -2.6583   -0.4538 H   0  0  0  0  0  0  0  0  0  0  0  0
   -2.1155   -1.9963    0.7922 C   0  0  0  0  0  0  0  0  0  0  0  0
   -1.2875   -2.6383    1.4252 O   0  0  0  0  0  0  0  0  0  0  0  0
   -1.8575   -0.8123    0.2402 N   0  0  0  0  0  0  0  0  0  0  0  0
   -2.6005   -0.3333   -0.2478 H   0  0  0  0  0  0  0  0  0  0  0  0
   -0.5675   -0.1203    0.3102 C   0  0  1  0  0  0  0  0  0  0  0  0
   -0.7519    0.9528    0.2486 H   0  0  0  0  0  0  0  0  0  0  0  0
    0.0875   -0.4387    1.6706 C   0  0  0  0  0  0  0  0  0  0  0  0
    0.1698   -1.5225    1.7727 H   0  0  0  0  0  0  0  0  0  0  0  0
    1.1002   -0.0296    1.6614 H   0  0  0  0  0  0  0  0  0  0  0  0
   -0.6409    0.1129    2.9098 C   0  0  0  0  0  0  0  0  0  0  0  0
   -1.6871   -0.1924    2.8882 H   0  0  0  0  0  0  0  0  0  0  0  0
   -0.0077   -0.3713    4.2174 C   0  0  0  0  0  0  0  0  0  0  0  0
    1.0450   -0.0870    4.2468 H   0  0  0  0  0  0  0  0  0  0  0  0
   -0.5231    0.0815    5.0647 H   0  0  0  0  0  0  0  0  0  0  0  0
   -0.0862   -1.4528    4.3048 H   0  0  0  0  0  0  0  0  0  0  0  0
   -0.5937    1.6404    2.8991 C   0  0  0  0  0  0  0  0  0  0  0  0
   -1.0676    2.0155    1.9921 H   0  0  0  0  0  0  0  0  0  0  0  0
   -1.1326    2.0340    3.7609 H   0  0  0  0  0  0  0  0  0  0  0  0
    0.4406    1.9845    2.9335 H   0  0  0  0  0  0  0  0  0  0  0  0
    0.3189   -0.5271   -0.8793 C   0  0  0  0  0  0  0  0  0  0  0  0
    0.0380   -1.5196   -1.5472 O   0  0  0  0  0  0  0  0  0  0  0  0
    1.3917    0.2330   -1.1346 N   0  0  0  0  0  0  0  0  0  0  0  0
    1.5521    1.0345   -0.5457 H   0  0  0  0  0  0  0  0  0  0  0  0
    2.3388   -0.0296   -2.2157 C   0  0  0  0  0  0  0  0  0  0  0  0
    1.8149   -0.0250   -3.1742 H   0  0  0  0  0  0  0  0  0  0  0  0
    3.1192    0.7329   -2.2290 H   0  0  0  0  0  0  0  0  0  0  0  0
    2.7953   -1.0107   -2.0754 H   0  0  0  0  0  0  0  0  0  0  0  0
  5  6  2  0  0  0  0
  5  7  1  0  0  0  0
  2  3  1  0  0  0  0
  2  4  1  0  0  0  0
  2  5  1  0  0  0  0
  1  2  1  0  0  0  0
 24 25  2  0  0  0  0
 24 26  1  0  0  0  0
 20 21  1  0  0  0  0
 20 22  1  0  0  0  0
 20 23  1  0  0  0  0
 16 17  1  0  0  0  0
 16 18  1  0  0  0  0
 16 19  1  0  0  0  0
 14 15  1  0  0  0  0
 14 16  1  0  0  0  0
 14 20  1  0  0  0  0
 11 12  1  0  0  0  0
 11 13  1  0  0  0  0
 11 14  1  0  0  0  0
  9 10  1  0  0  0  0
  9 11  1  0  0  0  0
  9 24  1  0  0  0  0
  7  8  1  0  0  0  0
  7  9  1  0  0  0  0
 28 29  1  0  0  0  0
 28 30  1  0  0  0  0
 28 31  1  0  0  0  0
 26 27  1  0  0  0  0
 26 28  1  0  0  0  0
M  END
$$$$
default_name
  -OEChem-01062215323D

 31 30  0     1  0  0  0  0  0999 V2000
   -3.5895   -3.5013    1.1082 H   0  0  0  0  0  0  0  0  0  0  0  0
   -3.5145   -2.5363    0.6082 C   0  0  0  0  0  0  0  0  0  0  0  0
   -4.2285   -1.8413    1.0452 H   0  0  0  0  0  0  0  0  0  0  0  0
   -3.7155   -2.6583   -0.4538 H   0  0  0  0  0  0  0  0  0  0  0  0
   -2.1155   -1.9963    0.7922 C   0  0  0  0  0  0  0  0  0  0  0  0
   -1.2875   -2.6383    1.4252 O   0  0  0  0  0  0  0  0  0  0  0  0
   -1.8575   -0.8123    0.2402 N   0  0  0  0  0  0  0  0  0  0  0  0
   -2.6005   -0.3333   -0.2478 H   0  0  0  0  0  0  0  0  0  0  0  0
   -0.5675   -0.1203    0.3102 C   0  0  1  0  0  0  0  0  0  0  0  0
   -0.7562    0.9335    0.5182 H   0  0  0  0  0  0  0  0  0  0  0  0
    0.2501   -0.7218    1.4724 C   0  0  0  0  0  0  0  0  0  0  0  0
    0.3425   -1.7979    1.3134 H   0  0  0  0  0  0  0  0  0  0  0  0
    1.2546   -0.2945    1.4348 H   0  0  0  0  0  0  0  0  0  0  0  0
   -0.3185   -0.4854    2.8836 C   0  0  0  0  0  0  0  0  0  0  0  0
   -1.3598   -0.8056    2.9193 H   0  0  0  0  0  0  0  0  0  0  0  0
    0.4707   -1.2370    3.9596 C   0  0  0  0  0  0  0  0  0  0  0  0
    1.5195   -0.9389    3.9259 H   0  0  0  0  0  0  0  0  0  0  0  0
    0.0648   -1.0022    4.9438 H   0  0  0  0  0  0  0  0  0  0  0  0
    0.4016   -2.3118    3.8063 H   0  0  0  0  0  0  0  0  0  0  0  0
   -0.2702    1.0053    3.2167 C   0  0  0  0  0  0  0  0  0  0  0  0
   -0.8519    1.5638    2.4835 H   0  0  0  0  0  0  0  0  0  0  0  0
   -0.6977    1.1785    4.2043 H   0  0  0  0  0  0  0  0  0  0  0  0
    0.7610    1.3598    3.2037 H   0  0  0  0  0  0  0  0  0  0  0  0
    0.1643   -0.2227   -1.0389 C   0  0  0  0  0  0  0  0  0  0  0  0
   -0.3486   -0.8326   -1.9744 O   0  0  0  0  0  0  0  0  0  0  0  0
    1.3644    0.3643   -1.1333 N   0  0  0  0  0  0  0  0  0  0  0  0
    1.7157    0.8509   -0.3241 H   0  0  0  0  0  0  0  0  0  0  0  0
    2.1906    0.3425   -2.3381 C   0  0  0  0  0  0  0  0  0  0  0  0
    1.6432    0.7936   -3.1688 H   0  0  0  0  0  0  0  0  0  0  0  0
    3.1152    0.8978   -2.1733 H   0  0  0  0  0  0  0  0  0  0  0  0
    2.4311   -0.6887   -2.6014 H   0  0  0  0  0  0  0  0  0  0  0  0
  5  6  2  0  0  0  0
  5  7  1  0  0  0  0
  2  3  1  0  0  0  0
  2  4  1  0  0  0  0
  2  5  1  0  0  0  0
  1  2  1  0  0  0  0
 24 25  2  0  0  0  0
 24 26  1  0  0  0  0
 20 21  1  0  0  0  0
 20 22  1  0  0  0  0
 20 23  1  0  0  0  0
 16 17  1  0  0  0  0
 16 18  1  0  0  0  0
 16 19  1  0  0  0  0
 14 15  1  0  0  0  0
 14 16  1  0  0  0  0
 14 20  1  0  0  0  0
 11 12  1  0  0  0  0
 11 13  1  0  0  0  0
 11 14  1  0  0  0  0
  9 10  1  0  0  0  0
  9 11  1  0  0  0  0
  9 24  1  0  0  0  0
  7  8  1  0  0  0  0
  7  9  1  0  0  0  0
 28 29  1  0  0  0  0
 28 30  1  0  0  0  0
 28 31  1  0  0  0  0
 26 27  1  0  0  0  0
 26 28  1  0  0  0  0
M  END
$$$$
default_name
  -OEChem-01062215323D

 31 30  0     1  0  0  0  0  0999 V2000
   -3.5895   -3.5013    1.1082 H   0  0  0  0  0  0  0  0  0  0  0  0
   -3.5145   -2.5363    0.6082 C   0  0  0  0  0  0  0  0  0  0  0  0
   -4.2285   -1.8413    1.0452 H   0  0  0  0  0  0  0  0  0  0  0  0
   -3.7155   -2.6583   -0.4538 H   0  0  0  0  0  0  0  0  0  0  0  0
   -2.1155   -1.9963    0.7922 C   0  0  0  0  0  0  0  0  0  0  0  0
   -1.2875   -2.6383    1.4252 O   0  0  0  0  0  0  0  0  0  0  0  0
   -1.8575   -0.8123    0.2402 N   0  0  0  0  0  0  0  0  0  0  0  0
   -2.6005   -0.3333   -0.2478 H   0  0  0  0  0  0  0  0  0  0  0  0
   -0.5675   -0.1203    0.3102 C   0  0  1  0  0  0  0  0  0  0  0  0
   -0.7562    0.9335    0.5182 H   0  0  0  0  0  0  0  0  0  0  0  0
    0.2501   -0.7218    1.4724 C   0  0  0  0  0  0  0  0  0  0  0  0
    0.3425   -1.7979    1.3134 H   0  0  0  0  0  0  0  0  0  0  0  0
    1.2546   -0.2945    1.4348 H   0  0  0  0  0  0  0  0  0  0  0  0
   -0.3185   -0.4854    2.8836 C   0  0  0  0  0  0  0  0  0  0  0  0
   -1.3598   -0.8056    2.9193 H   0  0  0  0  0  0  0  0  0  0  0  0
    0.4707   -1.2370    3.9596 C   0  0  0  0  0  0  0  0  0  0  0  0
    1.5195   -0.9389    3.9259 H   0  0  0  0  0  0  0  0  0  0  0  0
    0.0648   -1.0022    4.9438 H   0  0  0  0  0  0  0  0  0  0  0  0
    0.4016   -2.3118    3.8063 H   0  0  0  0  0  0  0  0  0  0  0  0
   -0.2702    1.0053    3.2167 C   0  0  0  0  0  0  0  0  0  0  0  0
   -0.8519    1.5638    2.4835 H   0  0  0  0  0  0  0  0  0  0  0  0
   -0.6977    1.1785    4.2043 H   0  0  0  0  0  0  0  0  0  0  0  0
    0.7610    1.3598    3.2037 H   0  0  0  0  0  0  0  0  0  0  0  0
    0.1643   -0.2227   -1.0389 C   0  0  0  0  0  0  0  0  0  0  0  0
   -0.4435   -0.5816   -2.0449 O   0  0  0  0  0  0  0  0  0  0  0  0
    1.4684    0.0820   -1.0555 N   0  0  0  0  0  0  0  0  0  0  0  0
    1.8949    0.3741   -0.1907 H   0  0  0  0  0  0  0  0  0  0  0  0
    2.3058    0.0185   -2.2511 C   0  0  0  0  0  0  0  0  0  0  0  0
    1.9009    0.6799   -3.0204 H   0  0  0  0  0  0  0  0  0  0  0  0
    3.3263    0.3242   -2.0153 H   0  0  0  0  0  0  0  0  0  0  0  0
    2.3152   -1.0007   -2.6406 H   0  0  0  0  0  0  0  0  0  0  0  0
  5  6  2  0  0  0  0
  5  7  1  0  0  0  0
  2  3  1  0  0  0  0
  2  4  1  0  0  0  0
  2  5  1  0  0  0  0
  1  2  1  0  0  0  0
 24 25  2  0  0  0  0
 24 26  1  0  0  0  0
 20 21  1  0  0  0  0
 20 22  1  0  0  0  0
 20 23  1  0  0  0  0
 16 17  1  0  0  0  0
 16 18  1  0  0  0  0
 16 19  1  0  0  0  0
 14 15  1  0  0  0  0
 14 16  1  0  0  0  0
 14 20  1  0  0  0  0
 11 12  1  0  0  0  0
 11 13  1  0  0  0  0
 11 14  1  0  0  0  0
  9 10  1  0  0  0  0
  9 11  1  0  0  0  0
  9 24  1  0  0  0  0
  7  8  1  0  0  0  0
  7  9  1  0  0  0  0
 28 29  1  0  0  0  0
 28 30  1  0  0  0  0
 28 31  1  0  0  0  0
 26 27  1  0  0  0  0
 26 28  1  0  0  0  0
M  END
$$$$
default_name
  -OEChem-01062215323D

 31 30  0     1  0  0  0  0  0999 V2000
   -3.5895   -3.5013    1.1082 H   0  0  0  0  0  0  0  0  0  0  0  0
   -3.5145   -2.5363    0.6082 C   0  0  0  0  0  0  0  0  0  0  0  0
   -4.2285   -1.8413    1.0452 H   0  0  0  0  0  0  0  0  0  0  0  0
   -3.7155   -2.6583   -0.4538 H   0  0  0  0  0  0  0  0  0  0  0  0
   -2.1155   -1.9963    0.7922 C   0  0  0  0  0  0  0  0  0  0  0  0
   -1.2875   -2.6383    1.4252 O   0  0  0  0  0  0  0  0  0  0  0  0
   -1.8575   -0.8123    0.2402 N   0  0  0  0  0  0  0  0  0  0  0  0
   -2.6005   -0.3333   -0.2478 H   0  0  0  0  0  0  0  0  0  0  0  0
   -0.5675   -0.1203    0.3102 C   0  0  1  0  0  0  0  0  0  0  0  0
   -0.7562    0.9335    0.5182 H   0  0  0  0  0  0  0  0  0  0  0  0
    0.2501   -0.7218    1.4724 C   0  0  0  0  0  0  0  0  0  0  0  0
    0.3425   -1.7979    1.3134 H   0  0  0  0  0  0  0  0  0  0  0  0
    1.2546   -0.2945    1.4348 H   0  0  0  0  0  0  0  0  0  0  0  0
   -0.3185   -0.4854    2.8836 C   0  0  0  0  0  0  0  0  0  0  0  0
   -1.3598   -0.8056    2.9193 H   0  0  0  0  0  0  0  0  0  0  0  0
    0.4707   -1.2370    3.9596 C   0  0  0  0  0  0  0  0  0  0  0  0
    1.5195   -0.9389    3.9259 H   0  0  0  0  0  0  0  0  0  0  0  0
    0.0648   -1.0022    4.9438 H   0  0  0  0  0  0  0  0  0  0  0  0
    0.4016   -2.3118    3.8063 H   0  0  0  0  0  0  0  0  0  0  0  0
   -0.2702    1.0053    3.2167 C   0  0  0  0  0  0  0  0  0  0  0  0
   -0.8519    1.5638    2.4835 H   0  0  0  0  0  0  0  0  0  0  0  0
   -0.6977    1.1785    4.2043 H   0  0  0  0  0  0  0  0  0  0  0  0
    0.7610    1.3598    3.2037 H   0  0  0  0  0  0  0  0  0  0  0  0
    0.1643   -0.2227   -1.0389 C   0  0  0  0  0  0  0  0  0  0  0  0
   -0.4769   -0.3089   -2.0837 O   0  0  0  0  0  0  0  0  0  0  0  0
    1.5034   -0.2237   -1.0133 N   0  0  0  0  0  0  0  0  0  0  0  0
    1.9574   -0.1436   -0.1175 H   0  0  0  0  0  0  0  0  0  0  0  0
    2.3419   -0.3312   -2.2049 C   0  0  0  0  0  0  0  0  0  0  0  0
    2.1213    0.4932   -2.8867 H   0  0  0  0  0  0  0  0  0  0  0  0
    3.3972   -0.2973   -1.9297 H   0  0  0  0  0  0  0  0  0  0  0  0
    2.1331   -1.2708   -2.7189 H   0  0  0  0  0  0  0  0  0  0  0  0
  5  6  2  0  0  0  0
  5  7  1  0  0  0  0
  2  3  1  0  0  0  0
  2  4  1  0  0  0  0
  2  5  1  0  0  0  0
  1  2  1  0  0  0  0
 24 25  2  0  0  0  0
 24 26  1  0  0  0  0
 20 21  1  0  0  0  0
 20 22  1  0  0  0  0
 20 23  1  0  0  0  0
 16 17  1  0  0  0  0
 16 18  1  0  0  0  0
 16 19  1  0  0  0  0
 14 15  1  0  0  0  0
 14 16  1  0  0  0  0
 14 20  1  0  0  0  0
 11 12  1  0  0  0  0
 11 13  1  0  0  0  0
 11 14  1  0  0  0  0
  9 10  1  0  0  0  0
  9 11  1  0  0  0  0
  9 24  1  0  0  0  0
  7  8  1  0  0  0  0
  7  9  1  0  0  0  0
 28 29  1  0  0  0  0
 28 30  1  0  0  0  0
 28 31  1  0  0  0  0
 26 27  1  0  0  0  0
 26 28  1  0  0  0  0
M  END
$$$$
default_name
  -OEChem-01062215323D

 31 30  0     1  0  0  0  0  0999 V2000
   -3.5895   -3.5013    1.1082 H   0  0  0  0  0  0  0  0  0  0  0  0
   -3.5145   -2.5363    0.6082 C   0  0  0  0  0  0  0  0  0  0  0  0
   -4.2285   -1.8413    1.0452 H   0  0  0  0  0  0  0  0  0  0  0  0
   -3.7155   -2.6583   -0.4538 H   0  0  0  0  0  0  0  0  0  0  0  0
   -2.1155   -1.9963    0.7922 C   0  0  0  0  0  0  0  0  0  0  0  0
   -1.2875   -2.6383    1.4252 O   0  0  0  0  0  0  0  0  0  0  0  0
   -1.8575   -0.8123    0.2402 N   0  0  0  0  0  0  0  0  0  0  0  0
   -2.6005   -0.3333   -0.2478 H   0  0  0  0  0  0  0  0  0  0  0  0
   -0.5675   -0.1203    0.3102 C   0  0  1  0  0  0  0  0  0  0  0  0
   -0.7562    0.9335    0.5182 H   0  0  0  0  0  0  0  0  0  0  0  0
    0.2501   -0.7218    1.4724 C   0  0  0  0  0  0  0  0  0  0  0  0
    0.3425   -1.7979    1.3134 H   0  0  0  0  0  0  0  0  0  0  0  0
    1.2546   -0.2945    1.4348 H   0  0  0  0  0  0  0  0  0  0  0  0
   -0.3185   -0.4854    2.8836 C   0  0  0  0  0  0  0  0  0  0  0  0
   -1.3598   -0.8056    2.9193 H   0  0  0  0  0  0  0  0  0  0  0  0
    0.4707   -1.2370    3.9596 C   0  0  0  0  0  0  0  0  0  0  0  0
    1.5195   -0.9389    3.9259 H   0  0  0  0  0  0  0  0  0  0  0  0
    0.0648   -1.0022    4.9438 H   0  0  0  0  0  0  0  0  0  0  0  0
    0.4016   -2.3118    3.8063 H   0  0  0  0  0  0  0  0  0  0  0  0
   -0.2702    1.0053    3.2167 C   0  0  0  0  0  0  0  0  0  0  0  0
   -0.8519    1.5638    2.4835 H   0  0  0  0  0  0  0  0  0  0  0  0
   -0.6977    1.1785    4.2043 H   0  0  0  0  0  0  0  0  0  0  0  0
    0.7610    1.3598    3.2037 H   0  0  0  0  0  0  0  0  0  0  0  0
    0.1643   -0.2227   -1.0389 C   0  0  0  0  0  0  0  0  0  0  0  0
   -0.4466   -0.0332   -2.0882 O   0  0  0  0  0  0  0  0  0  0  0  0
    1.4670   -0.5322   -1.0096 N   0  0  0  0  0  0  0  0  0  0  0  0
    1.8991   -0.6669   -0.1095 H   0  0  0  0  0  0  0  0  0  0  0  0
    2.2967   -0.6830   -2.2028 C   0  0  0  0  0  0  0  0  0  0  0  0
    2.2896    0.2464   -2.7767 H   0  0  0  0  0  0  0  0  0  0  0  0
    3.3231   -0.9242   -1.9222 H   0  0  0  0  0  0  0  0  0  0  0  0
    1.8973   -1.4808   -2.8308 H   0  0  0  0  0  0  0  0  0  0  0  0
  5  6  2  0  0  0  0
  5  7  1  0  0  0  0
  2  3  1  0  0  0  0
  2  4  1  0  0  0  0
  2  5  1  0  0  0  0
  1  2  1  0  0  0  0
 24 25  2  0  0  0  0
 24 26  1  0  0  0  0
 20 21  1  0  0  0  0
 20 22  1  0  0  0  0
 20 23  1  0  0  0  0
 16 17  1  0  0  0  0
 16 18  1  0  0  0  0
 16 19  1  0  0  0  0
 14 15  1  0  0  0  0
 14 16  1  0  0  0  0
 14 20  1  0  0  0  0
 11 12  1  0  0  0  0
 11 13  1  0  0  0  0
 11 14  1  0  0  0  0
  9 10  1  0  0  0  0
  9 11  1  0  0  0  0
  9 24  1  0  0  0  0
  7  8  1  0  0  0  0
  7  9  1  0  0  0  0
 28 29  1  0  0  0  0
 28 30  1  0  0  0  0
 28 31  1  0  0  0  0
 26 27  1  0  0  0  0
 26 28  1  0  0  0  0
M  END
$$$$
default_name
  -OEChem-01062215323D

 31 30  0     1  0  0  0  0  0999 V2000
   -3.5895   -3.5013    1.1082 H   0  0  0  0  0  0  0  0  0  0  0  0
   -3.5145   -2.5363    0.6082 C   0  0  0  0  0  0  0  0  0  0  0  0
   -4.2285   -1.8413    1.0452 H   0  0  0  0  0  0  0  0  0  0  0  0
   -3.7155   -2.6583   -0.4538 H   0  0  0  0  0  0  0  0  0  0  0  0
   -2.1155   -1.9963    0.7922 C   0  0  0  0  0  0  0  0  0  0  0  0
   -1.2875   -2.6383    1.4252 O   0  0  0  0  0  0  0  0  0  0  0  0
   -1.8575   -0.8123    0.2402 N   0  0  0  0  0  0  0  0  0  0  0  0
   -2.6005   -0.3333   -0.2478 H   0  0  0  0  0  0  0  0  0  0  0  0
   -0.5675   -0.1203    0.3102 C   0  0  1  0  0  0  0  0  0  0  0  0
   -0.7562    0.9335    0.5182 H   0  0  0  0  0  0  0  0  0  0  0  0
    0.2501   -0.7218    1.4724 C   0  0  0  0  0  0  0  0  0  0  0  0
    0.3425   -1.7979    1.3134 H   0  0  0  0  0  0  0  0  0  0  0  0
    1.2546   -0.2945    1.4348 H   0  0  0  0  0  0  0  0  0  0  0  0
   -0.3185   -0.4854    2.8836 C   0  0  0  0  0  0  0  0  0  0  0  0
   -1.3598   -0.8056    2.9193 H   0  0  0  0  0  0  0  0  0  0  0  0
    0.4707   -1.2370    3.9596 C   0  0  0  0  0  0  0  0  0  0  0  0
    1.5195   -0.9389    3.9259 H   0  0  0  0  0  0  0  0  0  0  0  0
    0.0648   -1.0022    4.9438 H   0  0  0  0  0  0  0  0  0  0  0  0
    0.4016   -2.3118    3.8063 H   0  0  0  0  0  0  0  0  0  0  0  0
   -0.2702    1.0053    3.2167 C   0  0  0  0  0  0  0  0  0  0  0  0
   -0.8519    1.5638    2.4835 H   0  0  0  0  0  0  0  0  0  0  0  0
   -0.6977    1.1785    4.2043 H   0  0  0  0  0  0  0  0  0  0  0  0
    0.7610    1.3598    3.2037 H   0  0  0  0  0  0  0  0  0  0  0  0
    0.1643   -0.2227   -1.0389 C   0  0  0  0  0  0  0  0  0  0  0  0
   -0.3547    0.2268   -2.0581 O   0  0  0  0  0  0  0  0  0  0  0  0
    1.3618   -0.8224   -1.0446 N   0  0  0  0  0  0  0  0  0  0  0  0
    1.7237   -1.1601   -0.1671 H   0  0  0  0  0  0  0  0  0  0  0  0
    2.1731   -1.0128   -2.2448 C   0  0  0  0  0  0  0  0  0  0  0  0
    2.3942   -0.0438   -2.6979 H   0  0  0  0  0  0  0  0  0  0  0  0
    3.1091   -1.5139   -1.9935 H   0  0  0  0  0  0  0  0  0  0  0  0
    1.6237   -1.6164   -2.9689 H   0  0  0  0  0  0  0  0  0  0  0  0
  5  6  2  0  0  0  0
  5  7  1  0  0  0  0
  2  3  1  0  0  0  0
  2  4  1  0  0  0  0
  2  5  1  0  0  0  0
  1  2  1  0  0  0  0
 24 25  2  0  0  0  0
 24 26  1  0  0  0  0
 20 21  1  0  0  0  0
 20 22  1  0  0  0  0
 20 23  1  0  0  0  0
 16 17  1  0  0  0  0
 16 18  1  0  0  0  0
 16 19  1  0  0  0  0
 14 15  1  0  0  0  0
 14 16  1  0  0  0  0
 14 20  1  0  0  0  0
 11 12  1  0  0  0  0
 11 13  1  0  0  0  0
 11 14  1  0  0  0  0
  9 10  1  0  0  0  0
  9 11  1  0  0  0  0
  9 24  1  0  0  0  0
  7  8  1  0  0  0  0
  7  9  1  0  0  0  0
 28 29  1  0  0  0  0
 28 30  1  0  0  0  0
 28 31  1  0  0  0  0
 26 27  1  0  0  0  0
 26 28  1  0  0  0  0
M  END
$$$$
default_name
  -OEChem-01062215323D

 31 30  0     1  0  0  0  0  0999 V2000
   -3.5895   -3.5013    1.1082 H   0  0  0  0  0  0  0  0  0  0  0  0
   -3.5145   -2.5363    0.6082 C   0  0  0  0  0  0  0  0  0  0  0  0
   -4.2285   -1.8413    1.0452 H   0  0  0  0  0  0  0  0  0  0  0  0
   -3.7155   -2.6583   -0.4538 H   0  0  0  0  0  0  0  0  0  0  0  0
   -2.1155   -1.9963    0.7922 C   0  0  0  0  0  0  0  0  0  0  0  0
   -1.2875   -2.6383    1.4252 O   0  0  0  0  0  0  0  0  0  0  0  0
   -1.8575   -0.8123    0.2402 N   0  0  0  0  0  0  0  0  0  0  0  0
   -2.6005   -0.3333   -0.2478 H   0  0  0  0  0  0  0  0  0  0  0  0
   -0.5675   -0.1203    0.3102 C   0  0  1  0  0  0  0  0  0  0  0  0
   -0.7562    0.9335    0.5182 H   0  0  0  0  0  0  0  0  0  0  0  0
    0.2501   -0.7218    1.4724 C   0  0  0  0  0  0  0  0  0  0  0  0
    0.3425   -1.7979    1.3134 H   0  0  0  0  0  0  0  0  0  0  0  0
    1.2546   -0.2945    1.4348 H   0  0  0  0  0  0  0  0  0  0  0  0
   -0.3185   -0.4854    2.8836 C   0  0  0  0  0  0  0  0  0  0  0  0
   -1.3598   -0.8056    2.9193 H   0  0  0  0  0  0  0  0  0  0  0  0
    0.4707   -1.2370    3.9596 C   0  0  0  0  0  0  0  0  0  0  0  0
    1.5195   -0.9389    3.9259 H   0  0  0  0  0  0  0  0  0  0  0  0
    0.0648   -1.0022    4.9438 H   0  0  0  0  0  0  0  0  0  0  0  0
    0.4016   -2.3118    3.8063 H   0  0  0  0  0  0  0  0  0  0  0  0
   -0.2702    1.0053    3.2167 C   0  0  0  0  0  0  0  0  0  0  0  0
   -0.8519    1.5638    2.4835 H   0  0  0  0  0  0  0  0  0  0  0  0
   -0.6977    1.1785    4.2043 H   0  0  0  0  0  0  0  0  0  0  0  0
    0.7610    1.3598    3.2037 H   0  0  0  0  0  0  0  0  0  0  0  0
    0.1643   -0.2227   -1.0389 C   0  0  0  0  0  0  0  0  0  0  0  0
   -0.2074    0.4534   -1.9954 O   0  0  0  0  0  0  0  0  0  0  0  0
    1.1950   -1.0745   -1.1160 N   0  0  0  0  0  0  0  0  0  0  0  0
    1.4434   -1.5896   -0.2866 H   0  0  0  0  0  0  0  0  0  0  0  0
    1.9796   -1.2980   -2.3281 C   0  0  0  0  0  0  0  0  0  0  0  0
    2.4280   -0.3575   -2.6558 H   0  0  0  0  0  0  0  0  0  0  0  0
    2.7698   -2.0261   -2.1387 H   0  0  0  0  0  0  0  0  0  0  0  0
    1.3311   -1.6681   -3.1237 H   0  0  0  0  0  0  0  0  0  0  0  0
  5  6  2  0  0  0  0
  5  7  1  0  0  0  0
  2  3  1  0  0  0  0
  2  4  1  0  0  0  0
  2  5  1  0  0  0  0
  1  2  1  0  0  0  0
 24 25  2  0  0  0  0
 24 26  1  0  0  0  0
 20 21  1  0  0  0  0
 20 22  1  0  0  0  0
 20 23  1  0  0  0  0
 16 17  1  0  0  0  0
 16 18  1  0  0  0  0
 16 19  1  0  0  0  0
 14 15  1  0  0  0  0
 14 16  1  0  0  0  0
 14 20  1  0  0  0  0
 11 12  1  0  0  0  0
 11 13  1  0  0  0  0
 11 14  1  0  0  0  0
  9 10  1  0  0  0  0
  9 11  1  0  0  0  0
  9 24  1  0  0  0  0
  7  8  1  0  0  0  0
  7  9  1  0  0  0  0
 28 29  1  0  0  0  0
 28 30  1  0  0  0  0
 28 31  1  0  0  0  0
 26 27  1  0  0  0  0
 26 28  1  0  0  0  0
M  END
$$$$
default_name
  -OEChem-01062215323D

 31 30  0     1  0  0  0  0  0999 V2000
   -3.5895   -3.5013    1.1082 H   0  0  0  0  0  0  0  0  0  0  0  0
   -3.5145   -2.5363    0.6082 C   0  0  0  0  0  0  0  0  0  0  0  0
   -4.2285   -1.8413    1.0452 H   0  0  0  0  0  0  0  0  0  0  0  0
   -3.7155   -2.6583   -0.4538 H   0  0  0  0  0  0  0  0  0  0  0  0
   -2.1155   -1.9963    0.7922 C   0  0  0  0  0  0  0  0  0  0  0  0
   -1.2875   -2.6383    1.4252 O   0  0  0  0  0  0  0  0  0  0  0  0
   -1.8575   -0.8123    0.2402 N   0  0  0  0  0  0  0  0  0  0  0  0
   -2.6005   -0.3333   -0.2478 H   0  0  0  0  0  0  0  0  0  0  0  0
   -0.5675   -0.1203    0.3102 C   0  0  1  0  0  0  0  0  0  0  0  0
   -0.7562    0.9335    0.5182 H   0  0  0  0  0  0  0  0  0  0  0  0
    0.2501   -0.7218    1.4724 C   0  0  0  0  0  0  0  0  0  0  0  0
    0.3425   -1.7979    1.3134 H   0  0  0  0  0  0  0  0  0  0  0  0
    1.2546   -0.2945    1.4348 H   0  0  0  0  0  0  0  0  0  0  0  0
   -0.3185   -0.4854    2.8836 C   0  0  0  0  0  0  0  0  0  0  0  0
   -1.3598   -0.8056    2.9193 H   0  0  0  0  0  0  0  0  0  0  0  0
    0.4707   -1.2370    3.9596 C   0  0  0  0  0  0  0  0  0  0  0  0
    1.5195   -0.9389    3.9259 H   0  0  0  0  0  0  0  0  0  0  0  0
    0.0648   -1.0022    4.9438 H   0  0  0  0  0  0  0  0  0  0  0  0
    0.4016   -2.3118    3.8063 H   0  0  0  0  0  0  0  0  0  0  0  0
   -0.2702    1.0053    3.2167 C   0  0  0  0  0  0  0  0  0  0  0  0
   -0.8519    1.5638    2.4835 H   0  0  0  0  0  0  0  0  0  0  0  0
   -0.6977    1.1785    4.2043 H   0  0  0  0  0  0  0  0  0  0  0  0
    0.7610    1.3598    3.2037 H   0  0  0  0  0  0  0  0  0  0  0  0
    0.1643   -0.2227   -1.0389 C   0  0  0  0  0  0  0  0  0  0  0  0
   -0.0148    0.6311   -1.9044 O   0  0  0  0  0  0  0  0  0  0  0  0
    0.9778   -1.2714   -1.2188 N   0  0  0  0  0  0  0  0  0  0  0  0
    1.0772   -1.9261   -0.4596 H   0  0  0  0  0  0  0  0  0  0  0  0
    1.7293   -1.5194   -2.4470 C   0  0  0  0  0  0  0  0  0  0  0  0
    2.3887   -0.6733   -2.6531 H   0  0  0  0  0  0  0  0  0  0  0  0
    2.3283   -2.4260   -2.3478 H   0  0  0  0  0  0  0  0  0  0  0  0
    1.0393   -1.6327   -3.2847 H   0  0  0  0  0  0  0  0  0  0  0  0
  5  6  2  0  0  0  0
  5  7  1  0  0  0  0
  2  3  1  0  0  0  0
  2  4  1  0  0  0  0
  2  5  1  0  0  0  0
  1  2  1  0  0  0  0
 24 25  2  0  0  0  0
 24 26  1  0  0  0  0
 20 21  1  0  0  0  0
 20 22  1  0  0  0  0
 20 23  1  0  0  0  0
 16 17  1  0  0  0  0
 16 18  1  0  0  0  0
 16 19  1  0  0  0  0
 14 15  1  0  0  0  0
 14 16  1  0  0  0  0
 14 20  1  0  0  0  0
 11 12  1  0  0  0  0
 11 13  1  0  0  0  0
 11 14  1  0  0  0  0
  9 10  1  0  0  0  0
  9 11  1  0  0  0  0
  9 24  1  0  0  0  0
  7  8  1  0  0  0  0
  7  9  1  0  0  0  0
 28 29  1  0  0  0  0
 28 30  1  0  0  0  0
 28 31  1  0  0  0  0
 26 27  1  0  0  0  0
 26 28  1  0  0  0  0
M  END
$$$$
default_name
  -OEChem-01062215323D

 31 30  0     1  0  0  0  0  0999 V2000
   -3.5895   -3.5013    1.1082 H   0  0  0  0  0  0  0  0  0  0  0  0
   -3.5145   -2.5363    0.6082 C   0  0  0  0  0  0  0  0  0  0  0  0
   -4.2285   -1.8413    1.0452 H   0  0  0  0  0  0  0  0  0  0  0  0
   -3.7155   -2.6583   -0.4538 H   0  0  0  0  0  0  0  0  0  0  0  0
   -2.1155   -1.9963    0.7922 C   0  0  0  0  0  0  0  0  0  0  0  0
   -1.2875   -2.6383    1.4252 O   0  0  0  0  0  0  0  0  0  0  0  0
   -1.8575   -0.8123    0.2402 N   0  0  0  0  0  0  0  0  0  0  0  0
   -2.6005   -0.3333   -0.2478 H   0  0  0  0  0  0  0  0  0  0  0  0
   -0.5675   -0.1203    0.3102 C   0  0  1  0  0  0  0  0  0  0  0  0
   -0.7562    0.9335    0.5182 H   0  0  0  0  0  0  0  0  0  0  0  0
    0.2501   -0.7218    1.4724 C   0  0  0  0  0  0  0  0  0  0  0  0
    0.3425   -1.7979    1.3134 H   0  0  0  0  0  0  0  0  0  0  0  0
    1.2546   -0.2945    1.4348 H   0  0  0  0  0  0  0  0  0  0  0  0
   -0.3185   -0.4854    2.8836 C   0  0  0  0  0  0  0  0  0  0  0  0
   -1.3598   -0.8056    2.9193 H   0  0  0  0  0  0  0  0  0  0  0  0
    0.4707   -1.2370    3.9596 C   0  0  0  0  0  0  0  0  0  0  0  0
    1.5195   -0.9389    3.9259 H   0  0  0  0  0  0  0  0  0  0  0  0
    0.0648   -1.0022    4.9438 H   0  0  0  0  0  0  0  0  0  0  0  0
    0.4016   -2.3118    3.8063 H   0  0  0  0  0  0  0  0  0  0  0  0
   -0.2702    1.0053    3.2167 C   0  0  0  0  0  0  0  0  0  0  0  0
   -0.8519    1.5638    2.4835 H   0  0  0  0  0  0  0  0  0  0  0  0
   -0.6977    1.1785    4.2043 H   0  0  0  0  0  0  0  0  0  0  0  0
    0.7610    1.3598    3.2037 H   0  0  0  0  0  0  0  0  0  0  0  0
    0.1643   -0.2227   -1.0389 C   0  0  0  0  0  0  0  0  0  0  0  0
    0.2101    0.7478   -1.7913 O   0  0  0  0  0  0  0  0  0  0  0  0
    0.7251   -1.3995   -1.3462 N   0  0  0  0  0  0  0  0  0  0  0  0
    0.6501   -2.1467   -0.6746 H   0  0  0  0  0  0  0  0  0  0  0  0
    1.4394   -1.6618   -2.5935 C   0  0  0  0  0  0  0  0  0  0  0  0
    2.2790   -0.9699   -2.6901 H   0  0  0  0  0  0  0  0  0  0  0  0
    1.8146   -2.6863   -2.6067 H   0  0  0  0  0  0  0  0  0  0  0  0
    0.7683   -1.5124   -3.4408 H   0  0  0  0  0  0  0  0  0  0  0  0
  5  6  2  0  0  0  0
  5  7  1  0  0  0  0
  2  3  1  0  0  0  0
  2  4  1  0  0  0  0
  2  5  1  0  0  0  0
  1  2  1  0  0  0  0
 24 25  2  0  0  0  0
 24 26  1  0  0  0  0
 20 21  1  0  0  0  0
 20 22  1  0  0  0  0
 20 23  1  0  0  0  0
 16 17  1  0  0  0  0
 16 18  1  0  0  0  0
 16 19  1  0  0  0  0
 14 15  1  0  0  0  0
 14 16  1  0  0  0  0
 14 20  1  0  0  0  0
 11 12  1  0  0  0  0
 11 13  1  0  0  0  0
 11 14  1  0  0  0  0
  9 10  1  0  0  0  0
  9 11  1  0  0  0  0
  9 24  1  0  0  0  0
  7  8  1  0  0  0  0
  7  9  1  0  0  0  0
 28 29  1  0  0  0  0
 28 30  1  0  0  0  0
 28 31  1  0  0  0  0
 26 27  1  0  0  0  0
 26 28  1  0  0  0  0
M  END
$$$$
default_name
  -OEChem-01062215323D

 31 30  0     1  0  0  0  0  0999 V2000
   -3.5895   -3.5013    1.1082 H   0  0  0  0  0  0  0  0  0  0  0  0
   -3.5145   -2.5363    0.6082 C   0  0  0  0  0  0  0  0  0  0  0  0
   -4.2285   -1.8413    1.0452 H   0  0  0  0  0  0  0  0  0  0  0  0
   -3.7155   -2.6583   -0.4538 H   0  0  0  0  0  0  0  0  0  0  0  0
   -2.1155   -1.9963    0.7922 C   0  0  0  0  0  0  0  0  0  0  0  0
   -1.2875   -2.6383    1.4252 O   0  0  0  0  0  0  0  0  0  0  0  0
   -1.8575   -0.8123    0.2402 N   0  0  0  0  0  0  0  0  0  0  0  0
   -2.6005   -0.3333   -0.2478 H   0  0  0  0  0  0  0  0  0  0  0  0
   -0.5675   -0.1203    0.3102 C   0  0  1  0  0  0  0  0  0  0  0  0
   -0.7562    0.9335    0.5182 H   0  0  0  0  0  0  0  0  0  0  0  0
    0.2501   -0.7218    1.4724 C   0  0  0  0  0  0  0  0  0  0  0  0
    0.3425   -1.7979    1.3134 H   0  0  0  0  0  0  0  0  0  0  0  0
    1.2546   -0.2945    1.4348 H   0  0  0  0  0  0  0  0  0  0  0  0
   -0.3185   -0.4854    2.8836 C   0  0  0  0  0  0  0  0  0  0  0  0
   -1.3598   -0.8056    2.9193 H   0  0  0  0  0  0  0  0  0  0  0  0
    0.4707   -1.2370    3.9596 C   0  0  0  0  0  0  0  0  0  0  0  0
    1.5195   -0.9389    3.9259 H   0  0  0  0  0  0  0  0  0  0  0  0
    0.0648   -1.0022    4.9438 H   0  0  0  0  0  0  0  0  0  0  0  0
    0.4016   -2.3118    3.8063 H   0  0  0  0  0  0  0  0  0  0  0  0
   -0.2702    1.0053    3.2167 C   0  0  0  0  0  0  0  0  0  0  0  0
   -0.8519    1.5638    2.4835 H   0  0  0  0  0  0  0  0  0  0  0  0
   -0.6977    1.1785    4.2043 H   0  0  0  0  0  0  0  0  0  0  0  0
    0.7610    1.3598    3.2037 H   0  0  0  0  0  0  0  0  0  0  0  0
    0.1643   -0.2227   -1.0389 C   0  0  0  0  0  0  0  0  0  0  0  0
    0.4518    0.7956   -1.6638 O   0  0  0  0  0  0  0  0  0  0  0  0
    0.4541   -1.4503   -1.4893 N   0  0  0  0  0  0  0  0  0  0  0  0
    0.1912   -2.2364   -0.9167 H   0  0  0  0  0  0  0  0  0  0  0  0
    1.1295   -1.7155   -2.7575 C   0  0  0  0  0  0  0  0  0  0  0  0
    2.1064   -1.2268   -2.7642 H   0  0  0  0  0  0  0  0  0  0  0  0
    1.2638   -2.7892   -2.8976 H   0  0  0  0  0  0  0  0  0  0  0  0
    0.5366   -1.3155   -3.5814 H   0  0  0  0  0  0  0  0  0  0  0  0
  5  6  2  0  0  0  0
  5  7  1  0  0  0  0
  2  3  1  0  0  0  0
  2  4  1  0  0  0  0
  2  5  1  0  0  0  0
  1  2  1  0  0  0  0
 24 25  2  0  0  0  0
 24 26  1  0  0  0  0
 20 21  1  0  0  0  0
 20 22  1  0  0  0  0
 20 23  1  0  0  0  0
 16 17  1  0  0  0  0
 16 18  1  0  0  0  0
 16 19  1  0  0  0  0
 14 15  1  0  0  0  0
 14 16  1  0  0  0  0
 14 20  1  0  0  0  0
 11 12  1  0  0  0  0
 11 13  1  0  0  0  0
 11 14  1  0  0  0  0
  9 10  1  0  0  0  0
  9 11  1  0  0  0  0
  9 24  1  0  0  0  0
  7  8  1  0  0  0  0
  7  9  1  0  0  0  0
 28 29  1  0  0  0  0
 28 30  1  0  0  0  0
 28 31  1  0  0  0  0
 26 27  1  0  0  0  0
 26 28  1  0  0  0  0
M  END
$$$$
default_name
  -OEChem-01062215323D

 31 30  0     1  0  0  0  0  0999 V2000
   -3.5895   -3.5013    1.1082 H   0  0  0  0  0  0  0  0  0  0  0  0
   -3.5145   -2.5363    0.6082 C   0  0  0  0  0  0  0  0  0  0  0  0
   -4.2285   -1.8413    1.0452 H   0  0  0  0  0  0  0  0  0  0  0  0
   -3.7155   -2.6583   -0.4538 H   0  0  0  0  0  0  0  0  0  0  0  0
   -2.1155   -1.9963    0.7922 C   0  0  0  0  0  0  0  0  0  0  0  0
   -1.2875   -2.6383    1.4252 O   0  0  0  0  0  0  0  0  0  0  0  0
   -1.8575   -0.8123    0.2402 N   0  0  0  0  0  0  0  0  0  0  0  0
   -2.6005   -0.3333   -0.2478 H   0  0  0  0  0  0  0  0  0  0  0  0
   -0.5675   -0.1203    0.3102 C   0  0  1  0  0  0  0  0  0  0  0  0
   -0.7562    0.9335    0.5182 H   0  0  0  0  0  0  0  0  0  0  0  0
    0.2501   -0.7218    1.4724 C   0  0  0  0  0  0  0  0  0  0  0  0
    0.3425   -1.7979    1.3134 H   0  0  0  0  0  0  0  0  0  0  0  0
    1.2546   -0.2945    1.4348 H   0  0  0  0  0  0  0  0  0  0  0  0
   -0.3185   -0.4854    2.8836 C   0  0  0  0  0  0  0  0  0  0  0  0
   -1.3598   -0.8056    2.9193 H   0  0  0  0  0  0  0  0  0  0  0  0
    0.4707   -1.2370    3.9596 C   0  0  0  0  0  0  0  0  0  0  0  0
    1.5195   -0.9389    3.9259 H   0  0  0  0  0  0  0  0  0  0  0  0
    0.0648   -1.0022    4.9438 H   0  0  0  0  0  0  0  0  0  0  0  0
    0.4016   -2.3118    3.8063 H   0  0  0  0  0  0  0  0  0  0  0  0
   -0.2702    1.0053    3.2167 C   0  0  0  0  0  0  0  0  0  0  0  0
   -0.8519    1.5638    2.4835 H   0  0  0  0  0  0  0  0  0  0  0  0
   -0.6977    1.1785    4.2043 H   0  0  0  0  0  0  0  0  0  0  0  0
    0.7610    1.3598    3.2037 H   0  0  0  0  0  0  0  0  0  0  0  0
    0.1643   -0.2227   -1.0389 C   0  0  0  0  0  0  0  0  0  0  0  0
    0.6939    0.7712   -1.5306 O   0  0  0  0  0  0  0  0  0  0  0  0
    0.1833   -1.4202   -1.6385 N   0  0  0  0  0  0  0  0  0  0  0  0
   -0.2683   -2.1890   -1.1695 H   0  0  0  0  0  0  0  0  0  0  0  0
    0.8209   -1.6769   -2.9278 C   0  0  0  0  0  0  0  0  0  0  0  0
    1.8826   -1.4267   -2.8704 H   0  0  0  0  0  0  0  0  0  0  0  0
    0.7135   -2.7277   -3.2008 H   0  0  0  0  0  0  0  0  0  0  0  0
    0.3598   -1.0553   -3.6971 H   0  0  0  0  0  0  0  0  0  0  0  0
  5  6  2  0  0  0  0
  5  7  1  0  0  0  0
  2  3  1  0  0  0  0
  2  4  1  0  0  0  0
  2  5  1  0  0  0  0
  1  2  1  0  0  0  0
 24 25  2  0  0  0  0
 24 26  1  0  0  0  0
 20 21  1  0  0  0  0
 20 22  1  0  0  0  0
 20 23  1  0  0  0  0
 16 17  1  0  0  0  0
 16 18  1  0  0  0  0
 16 19  1  0  0  0  0
 14 15  1  0  0  0  0
 14 16  1  0  0  0  0
 14 20  1  0  0  0  0
 11 12  1  0  0  0  0
 11 13  1  0  0  0  0
 11 14  1  0  0  0  0
  9 10  1  0  0  0  0
  9 11  1  0  0  0  0
  9 24  1  0  0  0  0
  7  8  1  0  0  0  0
  7  9  1  0  0  0  0
 28 29  1  0  0  0  0
 28 30  1  0  0  0  0
 28 31  1  0  0  0  0
 26 27  1  0  0  0  0
 26 28  1  0  0  0  0
M  END
$$$$
default_name
  -OEChem-01062215323D

 31 30  0     1  0  0  0  0  0999 V2000
   -3.5895   -3.5013    1.1082 H   0  0  0  0  0  0  0  0  0  0  0  0
   -3.5145   -2.5363    0.6082 C   0  0  0  0  0  0  0  0  0  0  0  0
   -4.2285   -1.8413    1.0452 H   0  0  0  0  0  0  0  0  0  0  0  0
   -3.7155   -2.6583   -0.4538 H   0  0  0  0  0  0  0  0  0  0  0  0
   -2.1155   -1.9963    0.7922 C   0  0  0  0  0  0  0  0  0  0  0  0
   -1.2875   -2.6383    1.4252 O   0  0  0  0  0  0  0  0  0  0  0  0
   -1.8575   -0.8123    0.2402 N   0  0  0  0  0  0  0  0  0  0  0  0
   -2.6005   -0.3333   -0.2478 H   0  0  0  0  0  0  0  0  0  0  0  0
   -0.5675   -0.1203    0.3102 C   0  0  1  0  0  0  0  0  0  0  0  0
   -0.7562    0.9335    0.5182 H   0  0  0  0  0  0  0  0  0  0  0  0
    0.2501   -0.7218    1.4724 C   0  0  0  0  0  0  0  0  0  0  0  0
    0.3425   -1.7979    1.3134 H   0  0  0  0  0  0  0  0  0  0  0  0
    1.2546   -0.2945    1.4348 H   0  0  0  0  0  0  0  0  0  0  0  0
   -0.3185   -0.4854    2.8836 C   0  0  0  0  0  0  0  0  0  0  0  0
   -1.3598   -0.8056    2.9193 H   0  0  0  0  0  0  0  0  0  0  0  0
    0.4707   -1.2370    3.9596 C   0  0  0  0  0  0  0  0  0  0  0  0
    1.5195   -0.9389    3.9259 H   0  0  0  0  0  0  0  0  0  0  0  0
    0.0648   -1.0022    4.9438 H   0  0  0  0  0  0  0  0  0  0  0  0
    0.4016   -2.3118    3.8063 H   0  0  0  0  0  0  0  0  0  0  0  0
   -0.2702    1.0053    3.2167 C   0  0  0  0  0  0  0  0  0  0  0  0
   -0.8519    1.5638    2.4835 H   0  0  0  0  0  0  0  0  0  0  0  0
   -0.6977    1.1785    4.2043 H   0  0  0  0  0  0  0  0  0  0  0  0
    0.7610    1.3598    3.2037 H   0  0  0  0  0  0  0  0  0  0  0  0
    0.1643   -0.2227   -1.0389 C   0  0  0  0  0  0  0  0  0  0  0  0
    0.9200    0.6762   -1.4008 O   0  0  0  0  0  0  0  0  0  0  0  0
   -0.0689   -1.3113   -1.7835 N   0  0  0  0  0  0  0  0  0  0  0  0
   -0.6971   -2.0078   -1.4158 H   0  0  0  0  0  0  0  0  0  0  0  0
    0.5344   -1.5485   -3.0929 C   0  0  0  0  0  0  0  0  0  0  0  0
    1.6229   -1.5560   -3.0015 H   0  0  0  0  0  0  0  0  0  0  0  0
    0.2010   -2.5061   -3.4956 H   0  0  0  0  0  0  0  0  0  0  0  0
    0.2502   -0.7497   -3.7797 H   0  0  0  0  0  0  0  0  0  0  0  0
  5  6  2  0  0  0  0
  5  7  1  0  0  0  0
  2  3  1  0  0  0  0
  2  4  1  0  0  0  0
  2  5  1  0  0  0  0
  1  2  1  0  0  0  0
 24 25  2  0  0  0  0
 24 26  1  0  0  0  0
 20 21  1  0  0  0  0
 20 22  1  0  0  0  0
 20 23  1  0  0  0  0
 16 17  1  0  0  0  0
 16 18  1  0  0  0  0
 16 19  1  0  0  0  0
 14 15  1  0  0  0  0
 14 16  1  0  0  0  0
 14 20  1  0  0  0  0
 11 12  1  0  0  0  0
 11 13  1  0  0  0  0
 11 14  1  0  0  0  0
  9 10  1  0  0  0  0
  9 11  1  0  0  0  0
  9 24  1  0  0  0  0
  7  8  1  0  0  0  0
  7  9  1  0  0  0  0
 28 29  1  0  0  0  0
 28 30  1  0  0  0  0
 28 31  1  0  0  0  0
 26 27  1  0  0  0  0
 26 28  1  0  0  0  0
M  END
$$$$
default_name
  -OEChem-01062215323D

 31 30  0     1  0  0  0  0  0999 V2000
   -3.5895   -3.5013    1.1082 H   0  0  0  0  0  0  0  0  0  0  0  0
   -3.5145   -2.5363    0.6082 C   0  0  0  0  0  0  0  0  0  0  0  0
   -4.2285   -1.8413    1.0452 H   0  0  0  0  0  0  0  0  0  0  0  0
   -3.7155   -2.6583   -0.4538 H   0  0  0  0  0  0  0  0  0  0  0  0
   -2.1155   -1.9963    0.7922 C   0  0  0  0  0  0  0  0  0  0  0  0
   -1.2875   -2.6383    1.4252 O   0  0  0  0  0  0  0  0  0  0  0  0
   -1.8575   -0.8123    0.2402 N   0  0  0  0  0  0  0  0  0  0  0  0
   -2.6005   -0.3333   -0.2478 H   0  0  0  0  0  0  0  0  0  0  0  0
   -0.5675   -0.1203    0.3102 C   0  0  1  0  0  0  0  0  0  0  0  0
   -0.7562    0.9335    0.5182 H   0  0  0  0  0  0  0  0  0  0  0  0
    0.2501   -0.7218    1.4724 C   0  0  0  0  0  0  0  0  0  0  0  0
    0.3425   -1.7979    1.3134 H   0  0  0  0  0  0  0  0  0  0  0  0
    1.2546   -0.2945    1.4348 H   0  0  0  0  0  0  0  0  0  0  0  0
   -0.3185   -0.4854    2.8836 C   0  0  0  0  0  0  0  0  0  0  0  0
   -1.3598   -0.8056    2.9193 H   0  0  0  0  0  0  0  0  0  0  0  0
    0.4707   -1.2370    3.9596 C   0  0  0  0  0  0  0  0  0  0  0  0
    1.5195   -0.9389    3.9259 H   0  0  0  0  0  0  0  0  0  0  0  0
    0.0648   -1.0022    4.9438 H   0  0  0  0  0  0  0  0  0  0  0  0
    0.4016   -2.3118    3.8063 H   0  0  0  0  0  0  0  0  0  0  0  0
   -0.2702    1.0053    3.2167 C   0  0  0  0  0  0  0  0  0  0  0  0
   -0.8519    1.5638    2.4835 H   0  0  0  0  0  0  0  0  0  0  0  0
   -0.6977    1.1785    4.2043 H   0  0  0  0  0  0  0  0  0  0  0  0
    0.7610    1.3598    3.2037 H   0  0  0  0  0  0  0  0  0  0  0  0
    0.1643   -0.2227   -1.0389 C   0  0  0  0  0  0  0  0  0  0  0  0
    1.1145    0.5172   -1.2832 O   0  0  0  0  0  0  0  0  0  0  0  0
   -0.2853   -1.1309   -1.9146 N   0  0  0  0  0  0  0  0  0  0  0  0
   -1.0658   -1.7052   -1.6388 H   0  0  0  0  0  0  0  0  0  0  0  0
    0.2898   -1.3391   -3.2415 C   0  0  0  0  0  0  0  0  0  0  0  0
    1.3450   -1.6057   -3.1485 H   0  0  0  0  0  0  0  0  0  0  0  0
   -0.2386   -2.1395   -3.7618 H   0  0  0  0  0  0  0  0  0  0  0  0
    0.2151   -0.4194   -3.8239 H   0  0  0  0  0  0  0  0  0  0  0  0
  5  6  2  0  0  0  0
  5  7  1  0  0  0  0
  2  3  1  0  0  0  0
  2  4  1  0  0  0  0
  2  5  1  0  0  0  0
  1  2  1  0  0  0  0
 24 25  2  0  0  0  0
 24 26  1  0  0  0  0
 20 21  1  0  0  0  0
 20 22  1  0  0  0  0
 20 23  1  0  0  0  0
 16 17  1  0  0  0  0
 16 18  1  0  0  0  0
 16 19  1  0  0  0  0
 14 15  1  0  0  0  0
 14 16  1  0  0  0  0
 14 20  1  0  0  0  0
 11 12  1  0  0  0  0
 11 13  1  0  0  0  0
 11 14  1  0  0  0  0
  9 10  1  0  0  0  0
  9 11  1  0  0  0  0
  9 24  1  0  0  0  0
  7  8  1  0  0  0  0
  7  9  1  0  0  0  0
 28 29  1  0  0  0  0
 28 30  1  0  0  0  0
 28 31  1  0  0  0  0
 26 27  1  0  0  0  0
 26 28  1  0  0  0  0
M  END
$$$$
default_name
  -OEChem-01062215323D

 31 30  0     1  0  0  0  0  0999 V2000
   -3.5895   -3.5013    1.1082 H   0  0  0  0  0  0  0  0  0  0  0  0
   -3.5145   -2.5363    0.6082 C   0  0  0  0  0  0  0  0  0  0  0  0
   -4.2285   -1.8413    1.0452 H   0  0  0  0  0  0  0  0  0  0  0  0
   -3.7155   -2.6583   -0.4538 H   0  0  0  0  0  0  0  0  0  0  0  0
   -2.1155   -1.9963    0.7922 C   0  0  0  0  0  0  0  0  0  0  0  0
   -1.2875   -2.6383    1.4252 O   0  0  0  0  0  0  0  0  0  0  0  0
   -1.8575   -0.8123    0.2402 N   0  0  0  0  0  0  0  0  0  0  0  0
   -2.6005   -0.3333   -0.2478 H   0  0  0  0  0  0  0  0  0  0  0  0
   -0.5675   -0.1203    0.3102 C   0  0  1  0  0  0  0  0  0  0  0  0
   -0.7562    0.9335    0.5182 H   0  0  0  0  0  0  0  0  0  0  0  0
    0.2501   -0.7218    1.4724 C   0  0  0  0  0  0  0  0  0  0  0  0
    0.3425   -1.7979    1.3134 H   0  0  0  0  0  0  0  0  0  0  0  0
    1.2546   -0.2945    1.4348 H   0  0  0  0  0  0  0  0  0  0  0  0
   -0.3185   -0.4854    2.8836 C   0  0  0  0  0  0  0  0  0  0  0  0
   -1.3598   -0.8056    2.9193 H   0  0  0  0  0  0  0  0  0  0  0  0
    0.4707   -1.2370    3.9596 C   0  0  0  0  0  0  0  0  0  0  0  0
    1.5195   -0.9389    3.9259 H   0  0  0  0  0  0  0  0  0  0  0  0
    0.0648   -1.0022    4.9438 H   0  0  0  0  0  0  0  0  0  0  0  0
    0.4016   -2.3118    3.8063 H   0  0  0  0  0  0  0  0  0  0  0  0
   -0.2702    1.0053    3.2167 C   0  0  0  0  0  0  0  0  0  0  0  0
   -0.8519    1.5638    2.4835 H   0  0  0  0  0  0  0  0  0  0  0  0
   -0.6977    1.1785    4.2043 H   0  0  0  0  0  0  0  0  0  0  0  0
    0.7610    1.3598    3.2037 H   0  0  0  0  0  0  0  0  0  0  0  0
    0.1643   -0.2227   -1.0389 C   0  0  0  0  0  0  0  0  0  0  0  0
    1.2643    0.3050   -1.1859 O   0  0  0  0  0  0  0  0  0  0  0  0
   -0.4511   -0.8915   -2.0227 N   0  0  0  0  0  0  0  0  0  0  0  0
   -1.3494   -1.3016   -1.8233 H   0  0  0  0  0  0  0  0  0  0  0  0
    0.1035   -1.0630   -3.3635 C   0  0  0  0  0  0  0  0  0  0  0  0
    1.0677   -1.5725   -3.3013 H   0  0  0  0  0  0  0  0  0  0  0  0
   -0.5753   -1.6527   -3.9815 H   0  0  0  0  0  0  0  0  0  0  0  0
    0.2569   -0.0869   -3.8264 H   0  0  0  0  0  0  0  0  0  0  0  0
  5  6  2  0  0  0  0
  5  7  1  0  0  0  0
  2  3  1  0  0  0  0
  2  4  1  0  0  0  0
  2  5  1  0  0  0  0
  1  2  1  0  0  0  0
 24 25  2  0  0  0  0
 24 26  1  0  0  0  0
 20 21  1  0  0  0  0
 20 22  1  0  0  0  0
 20 23  1  0  0  0  0
 16 17  1  0  0  0  0
 16 18  1  0  0  0  0
 16 19  1  0  0  0  0
 14 15  1  0  0  0  0
 14 16  1  0  0  0  0
 14 20  1  0  0  0  0
 11 12  1  0  0  0  0
 11 13  1  0  0  0  0
 11 14  1  0  0  0  0
  9 10  1  0  0  0  0
  9 11  1  0  0  0  0
  9 24  1  0  0  0  0
  7  8  1  0  0  0  0
  7  9  1  0  0  0  0
 28 29  1  0  0  0  0
 28 30  1  0  0  0  0
 28 31  1  0  0  0  0
 26 27  1  0  0  0  0
 26 28  1  0  0  0  0
M  END
$$$$
default_name
  -OEChem-01062215323D

 31 30  0     1  0  0  0  0  0999 V2000
   -3.5895   -3.5013    1.1082 H   0  0  0  0  0  0  0  0  0  0  0  0
   -3.5145   -2.5363    0.6082 C   0  0  0  0  0  0  0  0  0  0  0  0
   -4.2285   -1.8413    1.0452 H   0  0  0  0  0  0  0  0  0  0  0  0
   -3.7155   -2.6583   -0.4538 H   0  0  0  0  0  0  0  0  0  0  0  0
   -2.1155   -1.9963    0.7922 C   0  0  0  0  0  0  0  0  0  0  0  0
   -1.2875   -2.6383    1.4252 O   0  0  0  0  0  0  0  0  0  0  0  0
   -1.8575   -0.8123    0.2402 N   0  0  0  0  0  0  0  0  0  0  0  0
   -2.6005   -0.3333   -0.2478 H   0  0  0  0  0  0  0  0  0  0  0  0
   -0.5675   -0.1203    0.3102 C   0  0  1  0  0  0  0  0  0  0  0  0
   -0.7562    0.9335    0.5182 H   0  0  0  0  0  0  0  0  0  0  0  0
    0.2501   -0.7218    1.4724 C   0  0  0  0  0  0  0  0  0  0  0  0
    0.3425   -1.7979    1.3134 H   0  0  0  0  0  0  0  0  0  0  0  0
    1.2546   -0.2945    1.4348 H   0  0  0  0  0  0  0  0  0  0  0  0
   -0.3185   -0.4854    2.8836 C   0  0  0  0  0  0  0  0  0  0  0  0
   -1.3598   -0.8056    2.9193 H   0  0  0  0  0  0  0  0  0  0  0  0
    0.4707   -1.2370    3.9596 C   0  0  0  0  0  0  0  0  0  0  0  0
    1.5195   -0.9389    3.9259 H   0  0  0  0  0  0  0  0  0  0  0  0
    0.0648   -1.0022    4.9438 H   0  0  0  0  0  0  0  0  0  0  0  0
    0.4016   -2.3118    3.8063 H   0  0  0  0  0  0  0  0  0  0  0  0
   -0.2702    1.0053    3.2167 C   0  0  0  0  0  0  0  0  0  0  0  0
   -0.8519    1.5638    2.4835 H   0  0  0  0  0  0  0  0  0  0  0  0
   -0.6977    1.1785    4.2043 H   0  0  0  0  0  0  0  0  0  0  0  0
    0.7610    1.3598    3.2037 H   0  0  0  0  0  0  0  0  0  0  0  0
    0.1643   -0.2227   -1.0389 C   0  0  0  0  0  0  0  0  0  0  0  0
    1.3592    0.0540   -1.1154 O   0  0  0  0  0  0  0  0  0  0  0  0
   -0.5550   -0.6093   -2.1005 N   0  0  0  0  0  0  0  0  0  0  0  0
   -1.5286   -0.8248   -1.9567 H   0  0  0  0  0  0  0  0  0  0  0  0
   -0.0116   -0.7391   -3.4505 C   0  0  0  0  0  0  0  0  0  0  0  0
    0.8101   -1.4587   -3.4497 H   0  0  0  0  0  0  0  0  0  0  0  0
   -0.7864   -1.0791   -4.1395 H   0  0  0  0  0  0  0  0  0  0  0  0
    0.3728    0.2250   -3.7872 H   0  0  0  0  0  0  0  0  0  0  0  0
  5  6  2  0  0  0  0
  5  7  1  0  0  0  0
  2  3  1  0  0  0  0
  2  4  1  0  0  0  0
  2  5  1  0  0  0  0
  1  2  1  0  0  0  0
 24 25  2  0  0  0  0
 24 26  1  0  0  0  0
 20 21  1  0  0  0  0
 20 22  1  0  0  0  0
 20 23  1  0  0  0  0
 16 17  1  0  0  0  0
 16 18  1  0  0  0  0
 16 19  1  0  0  0  0
 14 15  1  0  0  0  0
 14 16  1  0  0  0  0
 14 20  1  0  0  0  0
 11 12  1  0  0  0  0
 11 13  1  0  0  0  0
 11 14  1  0  0  0  0
  9 10  1  0  0  0  0
  9 11  1  0  0  0  0
  9 24  1  0  0  0  0
  7  8  1  0  0  0  0
  7  9  1  0  0  0  0
 28 29  1  0  0  0  0
 28 30  1  0  0  0  0
 28 31  1  0  0  0  0
 26 27  1  0  0  0  0
 26 28  1  0  0  0  0
M  END
$$$$
default_name
  -OEChem-01062215323D

 31 30  0     1  0  0  0  0  0999 V2000
   -3.5895   -3.5013    1.1082 H   0  0  0  0  0  0  0  0  0  0  0  0
   -3.5145   -2.5363    0.6082 C   0  0  0  0  0  0  0  0  0  0  0  0
   -4.2285   -1.8413    1.0452 H   0  0  0  0  0  0  0  0  0  0  0  0
   -3.7155   -2.6583   -0.4538 H   0  0  0  0  0  0  0  0  0  0  0  0
   -2.1155   -1.9963    0.7922 C   0  0  0  0  0  0  0  0  0  0  0  0
   -1.2875   -2.6383    1.4252 O   0  0  0  0  0  0  0  0  0  0  0  0
   -1.8575   -0.8123    0.2402 N   0  0  0  0  0  0  0  0  0  0  0  0
   -2.6005   -0.3333   -0.2478 H   0  0  0  0  0  0  0  0  0  0  0  0
   -0.5675   -0.1203    0.3102 C   0  0  1  0  0  0  0  0  0  0  0  0
   -0.7562    0.9335    0.5182 H   0  0  0  0  0  0  0  0  0  0  0  0
    0.2501   -0.7218    1.4724 C   0  0  0  0  0  0  0  0  0  0  0  0
    0.3425   -1.7979    1.3134 H   0  0  0  0  0  0  0  0  0  0  0  0
    1.2546   -0.2945    1.4348 H   0  0  0  0  0  0  0  0  0  0  0  0
   -0.3185   -0.4854    2.8836 C   0  0  0  0  0  0  0  0  0  0  0  0
   -1.3598   -0.8056    2.9193 H   0  0  0  0  0  0  0  0  0  0  0  0
    0.4707   -1.2370    3.9596 C   0  0  0  0  0  0  0  0  0  0  0  0
    1.5195   -0.9389    3.9259 H   0  0  0  0  0  0  0  0  0  0  0  0
    0.0648   -1.0022    4.9438 H   0  0  0  0  0  0  0  0  0  0  0  0
    0.4016   -2.3118    3.8063 H   0  0  0  0  0  0  0  0  0  0  0  0
   -0.2702    1.0053    3.2167 C   0  0  0  0  0  0  0  0  0  0  0  0
   -0.8519    1.5638    2.4835 H   0  0  0  0  0  0  0  0  0  0  0  0
   -0.6977    1.1785    4.2043 H   0  0  0  0  0  0  0  0  0  0  0  0
    0.7610    1.3598    3.2037 H   0  0  0  0  0  0  0  0  0  0  0  0
    0.1643   -0.2227   -1.0389 C   0  0  0  0  0  0  0  0  0  0  0  0
    1.3926   -0.2187   -1.0765 O   0  0  0  0  0  0  0  0  0  0  0  0
   -0.5900   -0.3035   -2.1427 N   0  0  0  0  0  0  0  0  0  0  0  0
   -1.5911   -0.3071   -2.0299 H   0  0  0  0  0  0  0  0  0  0  0  0
   -0.0478   -0.3893   -3.4967 C   0  0  0  0  0  0  0  0  0  0  0  0
    0.5897   -1.2720   -3.5835 H   0  0  0  0  0  0  0  0  0  0  0  0
   -0.8573   -0.4576   -4.2251 H   0  0  0  0  0  0  0  0  0  0  0  0
    0.5549    0.4952   -3.7090 H   0  0  0  0  0  0  0  0  0  0  0  0
  5  6  2  0  0  0  0
  5  7  1  0  0  0  0
  2  3  1  0  0  0  0
  2  4  1  0  0  0  0
  2  5  1  0  0  0  0
  1  2  1  0  0  0  0
 24 25  2  0  0  0  0
 24 26  1  0  0  0  0
 20 21  1  0  0  0  0
 20 22  1  0  0  0  0
 20 23  1  0  0  0  0
 16 17  1  0  0  0  0
 16 18  1  0  0  0  0
 16 19  1  0  0  0  0
 14 15  1  0  0  0  0
 14 16  1  0  0  0  0
 14 20  1  0  0  0  0
 11 12  1  0  0  0  0
 11 13  1  0  0  0  0
 11 14  1  0  0  0  0
  9 10  1  0  0  0  0
  9 11  1  0  0  0  0
  9 24  1  0  0  0  0
  7  8  1  0  0  0  0
  7  9  1  0  0  0  0
 28 29  1  0  0  0  0
 28 30  1  0  0  0  0
 28 31  1  0  0  0  0
 26 27  1  0  0  0  0
 26 28  1  0  0  0  0
M  END
$$$$
default_name
  -OEChem-01062215323D

 31 30  0     1  0  0  0  0  0999 V2000
   -3.5895   -3.5013    1.1082 H   0  0  0  0  0  0  0  0  0  0  0  0
   -3.5145   -2.5363    0.6082 C   0  0  0  0  0  0  0  0  0  0  0  0
   -4.2285   -1.8413    1.0452 H   0  0  0  0  0  0  0  0  0  0  0  0
   -3.7155   -2.6583   -0.4538 H   0  0  0  0  0  0  0  0  0  0  0  0
   -2.1155   -1.9963    0.7922 C   0  0  0  0  0  0  0  0  0  0  0  0
   -1.2875   -2.6383    1.4252 O   0  0  0  0  0  0  0  0  0  0  0  0
   -1.8575   -0.8123    0.2402 N   0  0  0  0  0  0  0  0  0  0  0  0
   -2.6005   -0.3333   -0.2478 H   0  0  0  0  0  0  0  0  0  0  0  0
   -0.5675   -0.1203    0.3102 C   0  0  1  0  0  0  0  0  0  0  0  0
   -0.7562    0.9335    0.5182 H   0  0  0  0  0  0  0  0  0  0  0  0
    0.2501   -0.7218    1.4724 C   0  0  0  0  0  0  0  0  0  0  0  0
    0.3425   -1.7979    1.3134 H   0  0  0  0  0  0  0  0  0  0  0  0
    1.2546   -0.2945    1.4348 H   0  0  0  0  0  0  0  0  0  0  0  0
   -0.3185   -0.4854    2.8836 C   0  0  0  0  0  0  0  0  0  0  0  0
   -1.3598   -0.8056    2.9193 H   0  0  0  0  0  0  0  0  0  0  0  0
    0.4707   -1.2370    3.9596 C   0  0  0  0  0  0  0  0  0  0  0  0
    1.5195   -0.9389    3.9259 H   0  0  0  0  0  0  0  0  0  0  0  0
    0.0648   -1.0022    4.9438 H   0  0  0  0  0  0  0  0  0  0  0  0
    0.4016   -2.3118    3.8063 H   0  0  0  0  0  0  0  0  0  0  0  0
   -0.2702    1.0053    3.2167 C   0  0  0  0  0  0  0  0  0  0  0  0
   -0.8519    1.5638    2.4835 H   0  0  0  0  0  0  0  0  0  0  0  0
   -0.6977    1.1785    4.2043 H   0  0  0  0  0  0  0  0  0  0  0  0
    0.7610    1.3598    3.2037 H   0  0  0  0  0  0  0  0  0  0  0  0
    0.1643   -0.2227   -1.0389 C   0  0  0  0  0  0  0  0  0  0  0  0
    1.3623   -0.4944   -1.0720 O   0  0  0  0  0  0  0  0  0  0  0  0
   -0.5537    0.0050   -2.1464 N   0  0  0  0  0  0  0  0  0  0  0  0
   -1.5327    0.2162   -2.0379 H   0  0  0  0  0  0  0  0  0  0  0  0
   -0.0026   -0.0375   -3.4989 C   0  0  0  0  0  0  0  0  0  0  0  0
    0.4214   -1.0252   -3.6935 H   0  0  0  0  0  0  0  0  0  0  0  0
   -0.7832    0.1693   -4.2325 H   0  0  0  0  0  0  0  0  0  0  0  0
    0.7907    0.7052   -3.5970 H   0  0  0  0  0  0  0  0  0  0  0  0
  5  6  2  0  0  0  0
  5  7  1  0  0  0  0
  2  3  1  0  0  0  0
  2  4  1  0  0  0  0
  2  5  1  0  0  0  0
  1  2  1  0  0  0  0
 24 25  2  0  0  0  0
 24 26  1  0  0  0  0
 20 21  1  0  0  0  0
 20 22  1  0  0  0  0
 20 23  1  0  0  0  0
 16 17  1  0  0  0  0
 16 18  1  0  0  0  0
 16 19  1  0  0  0  0
 14 15  1  0  0  0  0
 14 16  1  0  0  0  0
 14 20  1  0  0  0  0
 11 12  1  0  0  0  0
 11 13  1  0  0  0  0
 11 14  1  0  0  0  0
  9 10  1  0  0  0  0
  9 11  1  0  0  0  0
  9 24  1  0  0  0  0
  7  8  1  0  0  0  0
  7  9  1  0  0  0  0
 28 29  1  0  0  0  0
 28 30  1  0  0  0  0
 28 31  1  0  0  0  0
 26 27  1  0  0  0  0
 26 28  1  0  0  0  0
M  END
$$$$
default_name
  -OEChem-01062215323D

 31 30  0     1  0  0  0  0  0999 V2000
   -3.5895   -3.5013    1.1082 H   0  0  0  0  0  0  0  0  0  0  0  0
   -3.5145   -2.5363    0.6082 C   0  0  0  0  0  0  0  0  0  0  0  0
   -4.2285   -1.8413    1.0452 H   0  0  0  0  0  0  0  0  0  0  0  0
   -3.7155   -2.6583   -0.4538 H   0  0  0  0  0  0  0  0  0  0  0  0
   -2.1155   -1.9963    0.7922 C   0  0  0  0  0  0  0  0  0  0  0  0
   -1.2875   -2.6383    1.4252 O   0  0  0  0  0  0  0  0  0  0  0  0
   -1.8575   -0.8123    0.2402 N   0  0  0  0  0  0  0  0  0  0  0  0
   -2.6005   -0.3333   -0.2478 H   0  0  0  0  0  0  0  0  0  0  0  0
   -0.5675   -0.1203    0.3102 C   0  0  1  0  0  0  0  0  0  0  0  0
   -0.7562    0.9335    0.5182 H   0  0  0  0  0  0  0  0  0  0  0  0
    0.2501   -0.7218    1.4724 C   0  0  0  0  0  0  0  0  0  0  0  0
    0.3425   -1.7979    1.3134 H   0  0  0  0  0  0  0  0  0  0  0  0
    1.2546   -0.2945    1.4348 H   0  0  0  0  0  0  0  0  0  0  0  0
   -0.3185   -0.4854    2.8836 C   0  0  0  0  0  0  0  0  0  0  0  0
   -1.3598   -0.8056    2.9193 H   0  0  0  0  0  0  0  0  0  0  0  0
    0.4707   -1.2370    3.9596 C   0  0  0  0  0  0  0  0  0  0  0  0
    1.5195   -0.9389    3.9259 H   0  0  0  0  0  0  0  0  0  0  0  0
    0.0648   -1.0022    4.9438 H   0  0  0  0  0  0  0  0  0  0  0  0
    0.4016   -2.3118    3.8063 H   0  0  0  0  0  0  0  0  0  0  0  0
   -0.2702    1.0053    3.2167 C   0  0  0  0  0  0  0  0  0  0  0  0
   -0.8519    1.5638    2.4835 H   0  0  0  0  0  0  0  0  0  0  0  0
   -0.6977    1.1785    4.2043 H   0  0  0  0  0  0  0  0  0  0  0  0
    0.7610    1.3598    3.2037 H   0  0  0  0  0  0  0  0  0  0  0  0
    0.1643   -0.2227   -1.0389 C   0  0  0  0  0  0  0  0  0  0  0  0
    1.2704   -0.7544   -1.1022 O   0  0  0  0  0  0  0  0  0  0  0  0
   -0.4485    0.2952   -2.1114 N   0  0  0  0  0  0  0  0  0  0  0  0
   -1.3574    0.7094   -1.9803 H   0  0  0  0  0  0  0  0  0  0  0  0
    0.1210    0.2922   -3.4569 C   0  0  0  0  0  0  0  0  0  0  0  0
    0.3168   -0.7351   -3.7722 H   0  0  0  0  0  0  0  0  0  0  0  0
   -0.5692    0.7590   -4.1612 H   0  0  0  0  0  0  0  0  0  0  0  0
    1.0643    0.8407   -3.4589 H   0  0  0  0  0  0  0  0  0  0  0  0
  5  6  2  0  0  0  0
  5  7  1  0  0  0  0
  2  3  1  0  0  0  0
  2  4  1  0  0  0  0
  2  5  1  0  0  0  0
  1  2  1  0  0  0  0
 24 25  2  0  0  0  0
 24 26  1  0  0  0  0
 20 21  1  0  0  0  0
 20 22  1  0  0  0  0
 20 23  1  0  0  0  0
 16 17  1  0  0  0  0
 16 18  1  0  0  0  0
 16 19  1  0  0  0  0
 14 15  1  0  0  0  0
 14 16  1  0  0  0  0
 14 20  1  0  0  0  0
 11 12  1  0  0  0  0
 11 13  1  0  0  0  0
 11 14  1  0  0  0  0
  9 10  1  0  0  0  0
  9 11  1  0  0  0  0
  9 24  1  0  0  0  0
  7  8  1  0  0  0  0
  7  9  1  0  0  0  0
 28 29  1  0  0  0  0
 28 30  1  0  0  0  0
 28 31  1  0  0  0  0
 26 27  1  0  0  0  0
 26 28  1  0  0  0  0
M  END
$$$$
default_name
  -OEChem-01062215323D

 31 30  0     1  0  0  0  0  0999 V2000
   -3.5895   -3.5013    1.1082 H   0  0  0  0  0  0  0  0  0  0  0  0
   -3.5145   -2.5363    0.6082 C   0  0  0  0  0  0  0  0  0  0  0  0
   -4.2285   -1.8413    1.0452 H   0  0  0  0  0  0  0  0  0  0  0  0
   -3.7155   -2.6583   -0.4538 H   0  0  0  0  0  0  0  0  0  0  0  0
   -2.1155   -1.9963    0.7922 C   0  0  0  0  0  0  0  0  0  0  0  0
   -1.2875   -2.6383    1.4252 O   0  0  0  0  0  0  0  0  0  0  0  0
   -1.8575   -0.8123    0.2402 N   0  0  0  0  0  0  0  0  0  0  0  0
   -2.6005   -0.3333   -0.2478 H   0  0  0  0  0  0  0  0  0  0  0  0
   -0.5675   -0.1203    0.3102 C   0  0  1  0  0  0  0  0  0  0  0  0
   -0.7562    0.9335    0.5182 H   0  0  0  0  0  0  0  0  0  0  0  0
    0.2501   -0.7218    1.4724 C   0  0  0  0  0  0  0  0  0  0  0  0
    0.3425   -1.7979    1.3134 H   0  0  0  0  0  0  0  0  0  0  0  0
    1.2546   -0.2945    1.4348 H   0  0  0  0  0  0  0  0  0  0  0  0
   -0.3185   -0.4854    2.8836 C   0  0  0  0  0  0  0  0  0  0  0  0
   -1.3598   -0.8056    2.9193 H   0  0  0  0  0  0  0  0  0  0  0  0
    0.4707   -1.2370    3.9596 C   0  0  0  0  0  0  0  0  0  0  0  0
    1.5195   -0.9389    3.9259 H   0  0  0  0  0  0  0  0  0  0  0  0
    0.0648   -1.0022    4.9438 H   0  0  0  0  0  0  0  0  0  0  0  0
    0.4016   -2.3118    3.8063 H   0  0  0  0  0  0  0  0  0  0  0  0
   -0.2702    1.0053    3.2167 C   0  0  0  0  0  0  0  0  0  0  0  0
   -0.8519    1.5638    2.4835 H   0  0  0  0  0  0  0  0  0  0  0  0
   -0.6977    1.1785    4.2043 H   0  0  0  0  0  0  0  0  0  0  0  0
    0.7610    1.3598    3.2037 H   0  0  0  0  0  0  0  0  0  0  0  0
    0.1643   -0.2227   -1.0389 C   0  0  0  0  0  0  0  0  0  0  0  0
    1.1231   -0.9810   -1.1649 O   0  0  0  0  0  0  0  0  0  0  0  0
   -0.2816    0.5473   -2.0400 N   0  0  0  0  0  0  0  0  0  0  0  0
   -1.0771    1.1389   -1.8608 H   0  0  0  0  0  0  0  0  0  0  0  0
    0.3146    0.5775   -3.3736 C   0  0  0  0  0  0  0  0  0  0  0  0
    0.2830   -0.4214   -3.8144 H   0  0  0  0  0  0  0  0  0  0  0  0
   -0.2299    1.2712   -4.0161 H   0  0  0  0  0  0  0  0  0  0  0  0
    1.3570    0.8925   -3.3041 H   0  0  0  0  0  0  0  0  0  0  0  0
  5  6  2  0  0  0  0
  5  7  1  0  0  0  0
  2  3  1  0  0  0  0
  2  4  1  0  0  0  0
  2  5  1  0  0  0  0
  1  2  1  0  0  0  0
 24 25  2  0  0  0  0
 24 26  1  0  0  0  0
 20 21  1  0  0  0  0
 20 22  1  0  0  0  0
 20 23  1  0  0  0  0
 16 17  1  0  0  0  0
 16 18  1  0  0  0  0
 16 19  1  0  0  0  0
 14 15  1  0  0  0  0
 14 16  1  0  0  0  0
 14 20  1  0  0  0  0
 11 12  1  0  0  0  0
 11 13  1  0  0  0  0
 11 14  1  0  0  0  0
  9 10  1  0  0  0  0
  9 11  1  0  0  0  0
  9 24  1  0  0  0  0
  7  8  1  0  0  0  0
  7  9  1  0  0  0  0
 28 29  1  0  0  0  0
 28 30  1  0  0  0  0
 28 31  1  0  0  0  0
 26 27  1  0  0  0  0
 26 28  1  0  0  0  0
M  END
$$$$
default_name
  -OEChem-01062215323D

 31 30  0     1  0  0  0  0  0999 V2000
   -3.5895   -3.5013    1.1082 H   0  0  0  0  0  0  0  0  0  0  0  0
   -3.5145   -2.5363    0.6082 C   0  0  0  0  0  0  0  0  0  0  0  0
   -4.2285   -1.8413    1.0452 H   0  0  0  0  0  0  0  0  0  0  0  0
   -3.7155   -2.6583   -0.4538 H   0  0  0  0  0  0  0  0  0  0  0  0
   -2.1155   -1.9963    0.7922 C   0  0  0  0  0  0  0  0  0  0  0  0
   -1.2875   -2.6383    1.4252 O   0  0  0  0  0  0  0  0  0  0  0  0
   -1.8575   -0.8123    0.2402 N   0  0  0  0  0  0  0  0  0  0  0  0
   -2.6005   -0.3333   -0.2478 H   0  0  0  0  0  0  0  0  0  0  0  0
   -0.5675   -0.1203    0.3102 C   0  0  1  0  0  0  0  0  0  0  0  0
   -0.7562    0.9335    0.5182 H   0  0  0  0  0  0  0  0  0  0  0  0
    0.2501   -0.7218    1.4724 C   0  0  0  0  0  0  0  0  0  0  0  0
    0.3425   -1.7979    1.3134 H   0  0  0  0  0  0  0  0  0  0  0  0
    1.2546   -0.2945    1.4348 H   0  0  0  0  0  0  0  0  0  0  0  0
   -0.3185   -0.4854    2.8836 C   0  0  0  0  0  0  0  0  0  0  0  0
   -1.3598   -0.8056    2.9193 H   0  0  0  0  0  0  0  0  0  0  0  0
    0.4707   -1.2370    3.9596 C   0  0  0  0  0  0  0  0  0  0  0  0
    1.5195   -0.9389    3.9259 H   0  0  0  0  0  0  0  0  0  0  0  0
    0.0648   -1.0022    4.9438 H   0  0  0  0  0  0  0  0  0  0  0  0
    0.4016   -2.3118    3.8063 H   0  0  0  0  0  0  0  0  0  0  0  0
   -0.2702    1.0053    3.2167 C   0  0  0  0  0  0  0  0  0  0  0  0
   -0.8519    1.5638    2.4835 H   0  0  0  0  0  0  0  0  0  0  0  0
   -0.6977    1.1785    4.2043 H   0  0  0  0  0  0  0  0  0  0  0  0
    0.7610    1.3598    3.2037 H   0  0  0  0  0  0  0  0  0  0  0  0
    0.1643   -0.2227   -1.0389 C   0  0  0  0  0  0  0  0  0  0  0  0
    0.9305   -1.1587   -1.2559 O   0  0  0  0  0  0  0  0  0  0  0  0
   -0.0644    0.7441   -1.9371 N   0  0  0  0  0  0  0  0  0  0  0  0
   -0.7109    1.4754   -1.6878 H   0  0  0  0  0  0  0  0  0  0  0  0
    0.5648    0.7989   -3.2546 C   0  0  0  0  0  0  0  0  0  0  0  0
    0.3223   -0.1055   -3.8171 H   0  0  0  0  0  0  0  0  0  0  0  0
    0.2116    1.6711   -3.8069 H   0  0  0  0  0  0  0  0  0  0  0  0
    1.6487    0.8570   -3.1432 H   0  0  0  0  0  0  0  0  0  0  0  0
  5  6  2  0  0  0  0
  5  7  1  0  0  0  0
  2  3  1  0  0  0  0
  2  4  1  0  0  0  0
  2  5  1  0  0  0  0
  1  2  1  0  0  0  0
 24 25  2  0  0  0  0
 24 26  1  0  0  0  0
 20 21  1  0  0  0  0
 20 22  1  0  0  0  0
 20 23  1  0  0  0  0
 16 17  1  0  0  0  0
 16 18  1  0  0  0  0
 16 19  1  0  0  0  0
 14 15  1  0  0  0  0
 14 16  1  0  0  0  0
 14 20  1  0  0  0  0
 11 12  1  0  0  0  0
 11 13  1  0  0  0  0
 11 14  1  0  0  0  0
  9 10  1  0  0  0  0
  9 11  1  0  0  0  0
  9 24  1  0  0  0  0
  7  8  1  0  0  0  0
  7  9  1  0  0  0  0
 28 29  1  0  0  0  0
 28 30  1  0  0  0  0
 28 31  1  0  0  0  0
 26 27  1  0  0  0  0
 26 28  1  0  0  0  0
M  END
$$$$
default_name
  -OEChem-01062215323D

 31 30  0     1  0  0  0  0  0999 V2000
   -3.5895   -3.5013    1.1082 H   0  0  0  0  0  0  0  0  0  0  0  0
   -3.5145   -2.5363    0.6082 C   0  0  0  0  0  0  0  0  0  0  0  0
   -4.2285   -1.8413    1.0452 H   0  0  0  0  0  0  0  0  0  0  0  0
   -3.7155   -2.6583   -0.4538 H   0  0  0  0  0  0  0  0  0  0  0  0
   -2.1155   -1.9963    0.7922 C   0  0  0  0  0  0  0  0  0  0  0  0
   -1.2875   -2.6383    1.4252 O   0  0  0  0  0  0  0  0  0  0  0  0
   -1.8575   -0.8123    0.2402 N   0  0  0  0  0  0  0  0  0  0  0  0
   -2.6005   -0.3333   -0.2478 H   0  0  0  0  0  0  0  0  0  0  0  0
   -0.5675   -0.1203    0.3102 C   0  0  1  0  0  0  0  0  0  0  0  0
   -0.7562    0.9335    0.5182 H   0  0  0  0  0  0  0  0  0  0  0  0
    0.2501   -0.7218    1.4724 C   0  0  0  0  0  0  0  0  0  0  0  0
    0.3425   -1.7979    1.3134 H   0  0  0  0  0  0  0  0  0  0  0  0
    1.2546   -0.2945    1.4348 H   0  0  0  0  0  0  0  0  0  0  0  0
   -0.3185   -0.4854    2.8836 C   0  0  0  0  0  0  0  0  0  0  0  0
   -1.3598   -0.8056    2.9193 H   0  0  0  0  0  0  0  0  0  0  0  0
    0.4707   -1.2370    3.9596 C   0  0  0  0  0  0  0  0  0  0  0  0
    1.5195   -0.9389    3.9259 H   0  0  0  0  0  0  0  0  0  0  0  0
    0.0648   -1.0022    4.9438 H   0  0  0  0  0  0  0  0  0  0  0  0
    0.4016   -2.3118    3.8063 H   0  0  0  0  0  0  0  0  0  0  0  0
   -0.2702    1.0053    3.2167 C   0  0  0  0  0  0  0  0  0  0  0  0
   -0.8519    1.5638    2.4835 H   0  0  0  0  0  0  0  0  0  0  0  0
   -0.6977    1.1785    4.2043 H   0  0  0  0  0  0  0  0  0  0  0  0
    0.7610    1.3598    3.2037 H   0  0  0  0  0  0  0  0  0  0  0  0
    0.1643   -0.2227   -1.0389 C   0  0  0  0  0  0  0  0  0  0  0  0
    0.7056   -1.2754   -1.3689 O   0  0  0  0  0  0  0  0  0  0  0  0
    0.1883    0.8723   -1.8098 N   0  0  0  0  0  0  0  0  0  0  0  0
   -0.2838    1.6960   -1.4728 H   0  0  0  0  0  0  0  0  0  0  0  0
    0.8548    0.9413   -3.1082 C   0  0  0  0  0  0  0  0  0  0  0  0
    0.4319    0.1910   -3.7801 H   0  0  0  0  0  0  0  0  0  0  0  0
    0.7253    1.9313   -3.5481 H   0  0  0  0  0  0  0  0  0  0  0  0
    1.9197    0.7367   -2.9870 H   0  0  0  0  0  0  0  0  0  0  0  0
  5  6  2  0  0  0  0
  5  7  1  0  0  0  0
  2  3  1  0  0  0  0
  2  4  1  0  0  0  0
  2  5  1  0  0  0  0
  1  2  1  0  0  0  0
 24 25  2  0  0  0  0
 24 26  1  0  0  0  0
 20 21  1  0  0  0  0
 20 22  1  0  0  0  0
 20 23  1  0  0  0  0
 16 17  1  0  0  0  0
 16 18  1  0  0  0  0
 16 19  1  0  0  0  0
 14 15  1  0  0  0  0
 14 16  1  0  0  0  0
 14 20  1  0  0  0  0
 11 12  1  0  0  0  0
 11 13  1  0  0  0  0
 11 14  1  0  0  0  0
  9 10  1  0  0  0  0
  9 11  1  0  0  0  0
  9 24  1  0  0  0  0
  7  8  1  0  0  0  0
  7  9  1  0  0  0  0
 28 29  1  0  0  0  0
 28 30  1  0  0  0  0
 28 31  1  0  0  0  0
 26 27  1  0  0  0  0
 26 28  1  0  0  0  0
M  END
$$$$
default_name
  -OEChem-01062215323D

 31 30  0     1  0  0  0  0  0999 V2000
   -3.5895   -3.5013    1.1082 H   0  0  0  0  0  0  0  0  0  0  0  0
   -3.5145   -2.5363    0.6082 C   0  0  0  0  0  0  0  0  0  0  0  0
   -4.2285   -1.8413    1.0452 H   0  0  0  0  0  0  0  0  0  0  0  0
   -3.7155   -2.6583   -0.4538 H   0  0  0  0  0  0  0  0  0  0  0  0
   -2.1155   -1.9963    0.7922 C   0  0  0  0  0  0  0  0  0  0  0  0
   -1.2875   -2.6383    1.4252 O   0  0  0  0  0  0  0  0  0  0  0  0
   -1.8575   -0.8123    0.2402 N   0  0  0  0  0  0  0  0  0  0  0  0
   -2.6005   -0.3333   -0.2478 H   0  0  0  0  0  0  0  0  0  0  0  0
   -0.5675   -0.1203    0.3102 C   0  0  1  0  0  0  0  0  0  0  0  0
   -0.7562    0.9335    0.5182 H   0  0  0  0  0  0  0  0  0  0  0  0
    0.2501   -0.7218    1.4724 C   0  0  0  0  0  0  0  0  0  0  0  0
    0.3425   -1.7979    1.3134 H   0  0  0  0  0  0  0  0  0  0  0  0
    1.2546   -0.2945    1.4348 H   0  0  0  0  0  0  0  0  0  0  0  0
   -0.3185   -0.4854    2.8836 C   0  0  0  0  0  0  0  0  0  0  0  0
   -1.3598   -0.8056    2.9193 H   0  0  0  0  0  0  0  0  0  0  0  0
    0.4707   -1.2370    3.9596 C   0  0  0  0  0  0  0  0  0  0  0  0
    1.5195   -0.9389    3.9259 H   0  0  0  0  0  0  0  0  0  0  0  0
    0.0648   -1.0022    4.9438 H   0  0  0  0  0  0  0  0  0  0  0  0
    0.4016   -2.3118    3.8063 H   0  0  0  0  0  0  0  0  0  0  0  0
   -0.2702    1.0053    3.2167 C   0  0  0  0  0  0  0  0  0  0  0  0
   -0.8519    1.5638    2.4835 H   0  0  0  0  0  0  0  0  0  0  0  0
   -0.6977    1.1785    4.2043 H   0  0  0  0  0  0  0  0  0  0  0  0
    0.7610    1.3598    3.2037 H   0  0  0  0  0  0  0  0  0  0  0  0
    0.1643   -0.2227   -1.0389 C   0  0  0  0  0  0  0  0  0  0  0  0
    0.4639   -1.3232   -1.4964 O   0  0  0  0  0  0  0  0  0  0  0  0
    0.4593    0.9230   -1.6667 N   0  0  0  0  0  0  0  0  0  0  0  0
    0.1752    1.7857   -1.2307 H   0  0  0  0  0  0  0  0  0  0  0  0
    1.1646    0.9950   -2.9442 C   0  0  0  0  0  0  0  0  0  0  0  0
    0.6046    0.4480   -3.7060 H   0  0  0  0  0  0  0  0  0  0  0  0
    1.2761    2.0343   -3.2571 H   0  0  0  0  0  0  0  0  0  0  0  0
    2.1514    0.5398   -2.8464 H   0  0  0  0  0  0  0  0  0  0  0  0
  5  6  2  0  0  0  0
  5  7  1  0  0  0  0
  2  3  1  0  0  0  0
  2  4  1  0  0  0  0
  2  5  1  0  0  0  0
  1  2  1  0  0  0  0
 24 25  2  0  0  0  0
 24 26  1  0  0  0  0
 20 21  1  0  0  0  0
 20 22  1  0  0  0  0
 20 23  1  0  0  0  0
 16 17  1  0  0  0  0
 16 18  1  0  0  0  0
 16 19  1  0  0  0  0
 14 15  1  0  0  0  0
 14 16  1  0  0  0  0
 14 20  1  0  0  0  0
 11 12  1  0  0  0  0
 11 13  1  0  0  0  0
 11 14  1  0  0  0  0
  9 10  1  0  0  0  0
  9 11  1  0  0  0  0
  9 24  1  0  0  0  0
  7  8  1  0  0  0  0
  7  9  1  0  0  0  0
 28 29  1  0  0  0  0
 28 30  1  0  0  0  0
 28 31  1  0  0  0  0
 26 27  1  0  0  0  0
 26 28  1  0  0  0  0
M  END
$$$$
default_name
  -OEChem-01062215323D

 31 30  0     1  0  0  0  0  0999 V2000
   -3.5895   -3.5013    1.1082 H   0  0  0  0  0  0  0  0  0  0  0  0
   -3.5145   -2.5363    0.6082 C   0  0  0  0  0  0  0  0  0  0  0  0
   -4.2285   -1.8413    1.0452 H   0  0  0  0  0  0  0  0  0  0  0  0
   -3.7155   -2.6583   -0.4538 H   0  0  0  0  0  0  0  0  0  0  0  0
   -2.1155   -1.9963    0.7922 C   0  0  0  0  0  0  0  0  0  0  0  0
   -1.2875   -2.6383    1.4252 O   0  0  0  0  0  0  0  0  0  0  0  0
   -1.8575   -0.8123    0.2402 N   0  0  0  0  0  0  0  0  0  0  0  0
   -2.6005   -0.3333   -0.2478 H   0  0  0  0  0  0  0  0  0  0  0  0
   -0.5675   -0.1203    0.3102 C   0  0  1  0  0  0  0  0  0  0  0  0
   -0.7562    0.9335    0.5182 H   0  0  0  0  0  0  0  0  0  0  0  0
    0.2501   -0.7218    1.4724 C   0  0  0  0  0  0  0  0  0  0  0  0
    0.3425   -1.7979    1.3134 H   0  0  0  0  0  0  0  0  0  0  0  0
    1.2546   -0.2945    1.4348 H   0  0  0  0  0  0  0  0  0  0  0  0
   -0.3185   -0.4854    2.8836 C   0  0  0  0  0  0  0  0  0  0  0  0
   -1.3598   -0.8056    2.9193 H   0  0  0  0  0  0  0  0  0  0  0  0
    0.4707   -1.2370    3.9596 C   0  0  0  0  0  0  0  0  0  0  0  0
    1.5195   -0.9389    3.9259 H   0  0  0  0  0  0  0  0  0  0  0  0
    0.0648   -1.0022    4.9438 H   0  0  0  0  0  0  0  0  0  0  0  0
    0.4016   -2.3118    3.8063 H   0  0  0  0  0  0  0  0  0  0  0  0
   -0.2702    1.0053    3.2167 C   0  0  0  0  0  0  0  0  0  0  0  0
   -0.8519    1.5638    2.4835 H   0  0  0  0  0  0  0  0  0  0  0  0
   -0.6977    1.1785    4.2043 H   0  0  0  0  0  0  0  0  0  0  0  0
    0.7610    1.3598    3.2037 H   0  0  0  0  0  0  0  0  0  0  0  0
    0.1643   -0.2227   -1.0389 C   0  0  0  0  0  0  0  0  0  0  0  0
    0.2218   -1.2988   -1.6296 O   0  0  0  0  0  0  0  0  0  0  0  0
    0.7301    0.8929   -1.5175 N   0  0  0  0  0  0  0  0  0  0  0  0
    0.6346    1.7383   -0.9779 H   0  0  0  0  0  0  0  0  0  0  0  0
    1.4733    0.9563   -2.7738 C   0  0  0  0  0  0  0  0  0  0  0  0
    0.8284    0.6479   -3.5997 H   0  0  0  0  0  0  0  0  0  0  0  0
    1.8264    1.9728   -2.9540 H   0  0  0  0  0  0  0  0  0  0  0  0
    2.3282    0.2797   -2.7308 H   0  0  0  0  0  0  0  0  0  0  0  0
  5  6  2  0  0  0  0
  5  7  1  0  0  0  0
  2  3  1  0  0  0  0
  2  4  1  0  0  0  0
  2  5  1  0  0  0  0
  1  2  1  0  0  0  0
 24 25  2  0  0  0  0
 24 26  1  0  0  0  0
 20 21  1  0  0  0  0
 20 22  1  0  0  0  0
 20 23  1  0  0  0  0
 16 17  1  0  0  0  0
 16 18  1  0  0  0  0
 16 19  1  0  0  0  0
 14 15  1  0  0  0  0
 14 16  1  0  0  0  0
 14 20  1  0  0  0  0
 11 12  1  0  0  0  0
 11 13  1  0  0  0  0
 11 14  1  0  0  0  0
  9 10  1  0  0  0  0
  9 11  1  0  0  0  0
  9 24  1  0  0  0  0
  7  8  1  0  0  0  0
  7  9  1  0  0  0  0
 28 29  1  0  0  0  0
 28 30  1  0  0  0  0
 28 31  1  0  0  0  0
 26 27  1  0  0  0  0
 26 28  1  0  0  0  0
M  END
$$$$
default_name
  -OEChem-01062215323D

 31 30  0     1  0  0  0  0  0999 V2000
   -3.5895   -3.5013    1.1082 H   0  0  0  0  0  0  0  0  0  0  0  0
   -3.5145   -2.5363    0.6082 C   0  0  0  0  0  0  0  0  0  0  0  0
   -4.2285   -1.8413    1.0452 H   0  0  0  0  0  0  0  0  0  0  0  0
   -3.7155   -2.6583   -0.4538 H   0  0  0  0  0  0  0  0  0  0  0  0
   -2.1155   -1.9963    0.7922 C   0  0  0  0  0  0  0  0  0  0  0  0
   -1.2875   -2.6383    1.4252 O   0  0  0  0  0  0  0  0  0  0  0  0
   -1.8575   -0.8123    0.2402 N   0  0  0  0  0  0  0  0  0  0  0  0
   -2.6005   -0.3333   -0.2478 H   0  0  0  0  0  0  0  0  0  0  0  0
   -0.5675   -0.1203    0.3102 C   0  0  1  0  0  0  0  0  0  0  0  0
   -0.7562    0.9335    0.5182 H   0  0  0  0  0  0  0  0  0  0  0  0
    0.2501   -0.7218    1.4724 C   0  0  0  0  0  0  0  0  0  0  0  0
    0.3425   -1.7979    1.3134 H   0  0  0  0  0  0  0  0  0  0  0  0
    1.2546   -0.2945    1.4348 H   0  0  0  0  0  0  0  0  0  0  0  0
   -0.3185   -0.4854    2.8836 C   0  0  0  0  0  0  0  0  0  0  0  0
   -1.3598   -0.8056    2.9193 H   0  0  0  0  0  0  0  0  0  0  0  0
    0.4707   -1.2370    3.9596 C   0  0  0  0  0  0  0  0  0  0  0  0
    1.5195   -0.9389    3.9259 H   0  0  0  0  0  0  0  0  0  0  0  0
    0.0648   -1.0022    4.9438 H   0  0  0  0  0  0  0  0  0  0  0  0
    0.4016   -2.3118    3.8063 H   0  0  0  0  0  0  0  0  0  0  0  0
   -0.2702    1.0053    3.2167 C   0  0  0  0  0  0  0  0  0  0  0  0
   -0.8519    1.5638    2.4835 H   0  0  0  0  0  0  0  0  0  0  0  0
   -0.6977    1.1785    4.2043 H   0  0  0  0  0  0  0  0  0  0  0  0
    0.7610    1.3598    3.2037 H   0  0  0  0  0  0  0  0  0  0  0  0
    0.1643   -0.2227   -1.0389 C   0  0  0  0  0  0  0  0  0  0  0  0
   -0.0043   -1.2038   -1.7594 O   0  0  0  0  0  0  0  0  0  0  0  0
    0.9823    0.7840   -1.3724 N   0  0  0  0  0  0  0  0  0  0  0  0
    1.0634    1.5571   -0.7316 H   0  0  0  0  0  0  0  0  0  0  0  0
    1.7597    0.8279   -2.6087 C   0  0  0  0  0  0  0  0  0  0  0  0
    1.0881    0.7771   -3.4687 H   0  0  0  0  0  0  0  0  0  0  0  0
    2.3389    1.7512   -2.6592 H   0  0  0  0  0  0  0  0  0  0  0  0
    2.4378   -0.0260   -2.6481 H   0  0  0  0  0  0  0  0  0  0  0  0
  5  6  2  0  0  0  0
  5  7  1  0  0  0  0
  2  3  1  0  0  0  0
  2  4  1  0  0  0  0
  2  5  1  0  0  0  0
  1  2  1  0  0  0  0
 24 25  2  0  0  0  0
 24 26  1  0  0  0  0
 20 21  1  0  0  0  0
 20 22  1  0  0  0  0
 20 23  1  0  0  0  0
 16 17  1  0  0  0  0
 16 18  1  0  0  0  0
 16 19  1  0  0  0  0
 14 15  1  0  0  0  0
 14 16  1  0  0  0  0
 14 20  1  0  0  0  0
 11 12  1  0  0  0  0
 11 13  1  0  0  0  0
 11 14  1  0  0  0  0
  9 10  1  0  0  0  0
  9 11  1  0  0  0  0
  9 24  1  0  0  0  0
  7  8  1  0  0  0  0
  7  9  1  0  0  0  0
 28 29  1  0  0  0  0
 28 30  1  0  0  0  0
 28 31  1  0  0  0  0
 26 27  1  0  0  0  0
 26 28  1  0  0  0  0
M  END
$$$$
default_name
  -OEChem-01062215323D

 31 30  0     1  0  0  0  0  0999 V2000
   -3.5895   -3.5013    1.1082 H   0  0  0  0  0  0  0  0  0  0  0  0
   -3.5145   -2.5363    0.6082 C   0  0  0  0  0  0  0  0  0  0  0  0
   -4.2285   -1.8413    1.0452 H   0  0  0  0  0  0  0  0  0  0  0  0
   -3.7155   -2.6583   -0.4538 H   0  0  0  0  0  0  0  0  0  0  0  0
   -2.1155   -1.9963    0.7922 C   0  0  0  0  0  0  0  0  0  0  0  0
   -1.2875   -2.6383    1.4252 O   0  0  0  0  0  0  0  0  0  0  0  0
   -1.8575   -0.8123    0.2402 N   0  0  0  0  0  0  0  0  0  0  0  0
   -2.6005   -0.3333   -0.2478 H   0  0  0  0  0  0  0  0  0  0  0  0
   -0.5675   -0.1203    0.3102 C   0  0  1  0  0  0  0  0  0  0  0  0
   -0.7562    0.9335    0.5182 H   0  0  0  0  0  0  0  0  0  0  0  0
    0.2501   -0.7218    1.4724 C   0  0  0  0  0  0  0  0  0  0  0  0
    0.3425   -1.7979    1.3134 H   0  0  0  0  0  0  0  0  0  0  0  0
    1.2546   -0.2945    1.4348 H   0  0  0  0  0  0  0  0  0  0  0  0
   -0.3185   -0.4854    2.8836 C   0  0  0  0  0  0  0  0  0  0  0  0
   -1.3598   -0.8056    2.9193 H   0  0  0  0  0  0  0  0  0  0  0  0
    0.4707   -1.2370    3.9596 C   0  0  0  0  0  0  0  0  0  0  0  0
    1.5195   -0.9389    3.9259 H   0  0  0  0  0  0  0  0  0  0  0  0
    0.0648   -1.0022    4.9438 H   0  0  0  0  0  0  0  0  0  0  0  0
    0.4016   -2.3118    3.8063 H   0  0  0  0  0  0  0  0  0  0  0  0
   -0.2702    1.0053    3.2167 C   0  0  0  0  0  0  0  0  0  0  0  0
   -0.8519    1.5638    2.4835 H   0  0  0  0  0  0  0  0  0  0  0  0
   -0.6977    1.1785    4.2043 H   0  0  0  0  0  0  0  0  0  0  0  0
    0.7610    1.3598    3.2037 H   0  0  0  0  0  0  0  0  0  0  0  0
    0.1643   -0.2227   -1.0389 C   0  0  0  0  0  0  0  0  0  0  0  0
   -0.1988   -1.0448   -1.8770 O   0  0  0  0  0  0  0  0  0  0  0  0
    1.1986    0.6037   -1.2414 N   0  0  0  0  0  0  0  0  0  0  0  0
    1.4321    1.2545   -0.5086 H   0  0  0  0  0  0  0  0  0  0  0  0
    2.0044    0.6186   -2.4601 C   0  0  0  0  0  0  0  0  0  0  0  0
    1.3660    0.8268   -3.3217 H   0  0  0  0  0  0  0  0  0  0  0  0
    2.7785    1.3846   -2.3929 H   0  0  0  0  0  0  0  0  0  0  0  0
    2.4729   -0.3563   -2.6040 H   0  0  0  0  0  0  0  0  0  0  0  0
  5  6  2  0  0  0  0
  5  7  1  0  0  0  0
  2  3  1  0  0  0  0
  2  4  1  0  0  0  0
  2  5  1  0  0  0  0
  1  2  1  0  0  0  0
 24 25  2  0  0  0  0
 24 26  1  0  0  0  0
 20 21  1  0  0  0  0
 20 22  1  0  0  0  0
 20 23  1  0  0  0  0
 16 17  1  0  0  0  0
 16 18  1  0  0  0  0
 16 19  1  0  0  0  0
 14 15  1  0  0  0  0
 14 16  1  0  0  0  0
 14 20  1  0  0  0  0
 11 12  1  0  0  0  0
 11 13  1  0  0  0  0
 11 14  1  0  0  0  0
  9 10  1  0  0  0  0
  9 11  1  0  0  0  0
  9 24  1  0  0  0  0
  7  8  1  0  0  0  0
  7  9  1  0  0  0  0
 28 29  1  0  0  0  0
 28 30  1  0  0  0  0
 28 31  1  0  0  0  0
 26 27  1  0  0  0  0
 26 28  1  0  0  0  0
M  END
$$$$
default_name
  -OEChem-01062215323D

 31 30  0     1  0  0  0  0  0999 V2000
   -3.5895   -3.5013    1.1082 H   0  0  0  0  0  0  0  0  0  0  0  0
   -3.5145   -2.5363    0.6082 C   0  0  0  0  0  0  0  0  0  0  0  0
   -4.2285   -1.8413    1.0452 H   0  0  0  0  0  0  0  0  0  0  0  0
   -3.7155   -2.6583   -0.4538 H   0  0  0  0  0  0  0  0  0  0  0  0
   -2.1155   -1.9963    0.7922 C   0  0  0  0  0  0  0  0  0  0  0  0
   -1.2875   -2.6383    1.4252 O   0  0  0  0  0  0  0  0  0  0  0  0
   -1.8575   -0.8123    0.2402 N   0  0  0  0  0  0  0  0  0  0  0  0
   -2.6005   -0.3333   -0.2478 H   0  0  0  0  0  0  0  0  0  0  0  0
   -0.5675   -0.1203    0.3102 C   0  0  1  0  0  0  0  0  0  0  0  0
   -0.7271    0.8533    0.7748 H   0  0  0  0  0  0  0  0  0  0  0  0
    0.3865   -0.9481    1.1967 C   0  0  0  0  0  0  0  0  0  0  0  0
    0.4565   -1.9571    0.7859 H   0  0  0  0  0  0  0  0  0  0  0  0
    1.3794   -0.4969    1.1366 H   0  0  0  0  0  0  0  0  0  0  0  0
   -0.0029   -1.0535    2.6826 C   0  0  0  0  0  0  0  0  0  0  0  0
   -1.0324   -1.4009    2.7697 H   0  0  0  0  0  0  0  0  0  0  0  0
    0.9119   -2.0085    3.4549 C   0  0  0  0  0  0  0  0  0  0  0  0
    1.9490   -1.6828    3.3638 H   0  0  0  0  0  0  0  0  0  0  0  0
    0.6313   -2.0141    4.5084 H   0  0  0  0  0  0  0  0  0  0  0  0
    0.8225   -3.0218    3.0695 H   0  0  0  0  0  0  0  0  0  0  0  0
    0.0889    0.3234    3.3393 C   0  0  0  0  0  0  0  0  0  0  0  0
   -0.5780    1.0182    2.8290 H   0  0  0  0  0  0  0  0  0  0  0  0
   -0.2129    0.2565    4.3845 H   0  0  0  0  0  0  0  0  0  0  0  0
    1.1112    0.6989    3.2832 H   0  0  0  0  0  0  0  0  0  0  0  0
   -0.0083    0.1057   -1.1049 C   0  0  0  0  0  0  0  0  0  0  0  0
   -0.6341   -0.2892   -2.0860 O   0  0  0  0  0  0  0  0  0  0  0  0
    1.1720    0.7304   -1.2068 N   0  0  0  0  0  0  0  0  0  0  0  0
    1.6215    1.0298   -0.3563 H   0  0  0  0  0  0  0  0  0  0  0  0
    1.8429    1.0047   -2.4754 C   0  0  0  0  0  0  0  0  0  0  0  0
    1.1978    1.6180   -3.1086 H   0  0  0  0  0  0  0  0  0  0  0  0
    2.7818    1.5324   -2.3009 H   0  0  0  0  0  0  0  0  0  0  0  0
    2.0471    0.0669   -2.9945 H   0  0  0  0  0  0  0  0  0  0  0  0
  5  6  2  0  0  0  0
  5  7  1  0  0  0  0
  2  3  1  0  0  0  0
  2  4  1  0  0  0  0
  2  5  1  0  0  0  0
  1  2  1  0  0  0  0
 24 25  2  0  0  0  0
 24 26  1  0  0  0  0
 20 21  1  0  0  0  0
 20 22  1  0  0  0  0
 20 23  1  0  0  0  0
 16 17  1  0  0  0  0
 16 18  1  0  0  0  0
 16 19  1  0  0  0  0
 14 15  1  0  0  0  0
 14 16  1  0  0  0  0
 14 20  1  0  0  0  0
 11 12  1  0  0  0  0
 11 13  1  0  0  0  0
 11 14  1  0  0  0  0
  9 10  1  0  0  0  0
  9 11  1  0  0  0  0
  9 24  1  0  0  0  0
  7  8  1  0  0  0  0
  7  9  1  0  0  0  0
 28 29  1  0  0  0  0
 28 30  1  0  0  0  0
 28 31  1  0  0  0  0
 26 27  1  0  0  0  0
 26 28  1  0  0  0  0
M  END
$$$$
default_name
  -OEChem-01062215323D

 31 30  0     1  0  0  0  0  0999 V2000
   -3.5895   -3.5013    1.1082 H   0  0  0  0  0  0  0  0  0  0  0  0
   -3.5145   -2.5363    0.6082 C   0  0  0  0  0  0  0  0  0  0  0  0
   -4.2285   -1.8413    1.0452 H   0  0  0  0  0  0  0  0  0  0  0  0
   -3.7155   -2.6583   -0.4538 H   0  0  0  0  0  0  0  0  0  0  0  0
   -2.1155   -1.9963    0.7922 C   0  0  0  0  0  0  0  0  0  0  0  0
   -1.2875   -2.6383    1.4252 O   0  0  0  0  0  0  0  0  0  0  0  0
   -1.8575   -0.8123    0.2402 N   0  0  0  0  0  0  0  0  0  0  0  0
   -2.6005   -0.3333   -0.2478 H   0  0  0  0  0  0  0  0  0  0  0  0
   -0.5675   -0.1203    0.3102 C   0  0  1  0  0  0  0  0  0  0  0  0
   -0.7271    0.8533    0.7748 H   0  0  0  0  0  0  0  0  0  0  0  0
    0.3865   -0.9481    1.1967 C   0  0  0  0  0  0  0  0  0  0  0  0
    0.4565   -1.9571    0.7859 H   0  0  0  0  0  0  0  0  0  0  0  0
    1.3794   -0.4969    1.1366 H   0  0  0  0  0  0  0  0  0  0  0  0
   -0.0029   -1.0535    2.6826 C   0  0  0  0  0  0  0  0  0  0  0  0
   -1.0324   -1.4009    2.7697 H   0  0  0  0  0  0  0  0  0  0  0  0
    0.9119   -2.0085    3.4549 C   0  0  0  0  0  0  0  0  0  0  0  0
    1.9490   -1.6828    3.3638 H   0  0  0  0  0  0  0  0  0  0  0  0
    0.6313   -2.0141    4.5084 H   0  0  0  0  0  0  0  0  0  0  0  0
    0.8225   -3.0218    3.0695 H   0  0  0  0  0  0  0  0  0  0  0  0
    0.0889    0.3234    3.3393 C   0  0  0  0  0  0  0  0  0  0  0  0
   -0.5780    1.0182    2.8290 H   0  0  0  0  0  0  0  0  0  0  0  0
   -0.2129    0.2565    4.3845 H   0  0  0  0  0  0  0  0  0  0  0  0
    1.1112    0.6989    3.2832 H   0  0  0  0  0  0  0  0  0  0  0  0
   -0.0083    0.1057   -1.1049 C   0  0  0  0  0  0  0  0  0  0  0  0
   -0.7364   -0.0314   -2.0852 O   0  0  0  0  0  0  0  0  0  0  0  0
    1.2843    0.4408   -1.2087 N   0  0  0  0  0  0  0  0  0  0  0  0
    1.8150    0.5400   -0.3581 H   0  0  0  0  0  0  0  0  0  0  0  0
    1.9673    0.6726   -2.4793 C   0  0  0  0  0  0  0  0  0  0  0  0
    1.4716    1.4803   -3.0224 H   0  0  0  0  0  0  0  0  0  0  0  0
    3.0097    0.9437   -2.3049 H   0  0  0  0  0  0  0  0  0  0  0  0
    1.9267   -0.2309   -3.0897 H   0  0  0  0  0  0  0  0  0  0  0  0
  5  6  2  0  0  0  0
  5  7  1  0  0  0  0
  2  3  1  0  0  0  0
  2  4  1  0  0  0  0
  2  5  1  0  0  0  0
  1  2  1  0  0  0  0
 24 25  2  0  0  0  0
 24 26  1  0  0  0  0
 20 21  1  0  0  0  0
 20 22  1  0  0  0  0
 20 23  1  0  0  0  0
 16 17  1  0  0  0  0
 16 18  1  0  0  0  0
 16 19  1  0  0  0  0
 14 15  1  0  0  0  0
 14 16  1  0  0  0  0
 14 20  1  0  0  0  0
 11 12  1  0  0  0  0
 11 13  1  0  0  0  0
 11 14  1  0  0  0  0
  9 10  1  0  0  0  0
  9 11  1  0  0  0  0
  9 24  1  0  0  0  0
  7  8  1  0  0  0  0
  7  9  1  0  0  0  0
 28 29  1  0  0  0  0
 28 30  1  0  0  0  0
 28 31  1  0  0  0  0
 26 27  1  0  0  0  0
 26 28  1  0  0  0  0
M  END
$$$$
default_name
  -OEChem-01062215323D

 31 30  0     1  0  0  0  0  0999 V2000
   -3.5895   -3.5013    1.1082 H   0  0  0  0  0  0  0  0  0  0  0  0
   -3.5145   -2.5363    0.6082 C   0  0  0  0  0  0  0  0  0  0  0  0
   -4.2285   -1.8413    1.0452 H   0  0  0  0  0  0  0  0  0  0  0  0
   -3.7155   -2.6583   -0.4538 H   0  0  0  0  0  0  0  0  0  0  0  0
   -2.1155   -1.9963    0.7922 C   0  0  0  0  0  0  0  0  0  0  0  0
   -1.2875   -2.6383    1.4252 O   0  0  0  0  0  0  0  0  0  0  0  0
   -1.8575   -0.8123    0.2402 N   0  0  0  0  0  0  0  0  0  0  0  0
   -2.6005   -0.3333   -0.2478 H   0  0  0  0  0  0  0  0  0  0  0  0
   -0.5675   -0.1203    0.3102 C   0  0  1  0  0  0  0  0  0  0  0  0
   -0.7271    0.8533    0.7748 H   0  0  0  0  0  0  0  0  0  0  0  0
    0.3865   -0.9481    1.1967 C   0  0  0  0  0  0  0  0  0  0  0  0
    0.4565   -1.9571    0.7859 H   0  0  0  0  0  0  0  0  0  0  0  0
    1.3794   -0.4969    1.1366 H   0  0  0  0  0  0  0  0  0  0  0  0
   -0.0029   -1.0535    2.6826 C   0  0  0  0  0  0  0  0  0  0  0  0
   -1.0324   -1.4009    2.7697 H   0  0  0  0  0  0  0  0  0  0  0  0
    0.9119   -2.0085    3.4549 C   0  0  0  0  0  0  0  0  0  0  0  0
    1.9490   -1.6828    3.3638 H   0  0  0  0  0  0  0  0  0  0  0  0
    0.6313   -2.0141    4.5084 H   0  0  0  0  0  0  0  0  0  0  0  0
    0.8225   -3.0218    3.0695 H   0  0  0  0  0  0  0  0  0  0  0  0
    0.0889    0.3234    3.3393 C   0  0  0  0  0  0  0  0  0  0  0  0
   -0.5780    1.0182    2.8290 H   0  0  0  0  0  0  0  0  0  0  0  0
   -0.2129    0.2565    4.3845 H   0  0  0  0  0  0  0  0  0  0  0  0
    1.1112    0.6989    3.2832 H   0  0  0  0  0  0  0  0  0  0  0  0
   -0.0083    0.1057   -1.1049 C   0  0  0  0  0  0  0  0  0  0  0  0
   -0.7739    0.2420   -2.0564 O   0  0  0  0  0  0  0  0  0  0  0  0
    1.3237    0.1344   -1.2420 N   0  0  0  0  0  0  0  0  0  0  0  0
    1.8851    0.0211   -0.4133 H   0  0  0  0  0  0  0  0  0  0  0  0
    2.0083    0.3226   -2.5190 C   0  0  0  0  0  0  0  0  0  0  0  0
    1.7065    1.2741   -2.9625 H   0  0  0  0  0  0  0  0  0  0  0  0
    3.0895    0.3211   -2.3728 H   0  0  0  0  0  0  0  0  0  0  0  0
    1.7358   -0.4810   -3.2050 H   0  0  0  0  0  0  0  0  0  0  0  0
  5  6  2  0  0  0  0
  5  7  1  0  0  0  0
  2  3  1  0  0  0  0
  2  4  1  0  0  0  0
  2  5  1  0  0  0  0
  1  2  1  0  0  0  0
 24 25  2  0  0  0  0
 24 26  1  0  0  0  0
 20 21  1  0  0  0  0
 20 22  1  0  0  0  0
 20 23  1  0  0  0  0
 16 17  1  0  0  0  0
 16 18  1  0  0  0  0
 16 19  1  0  0  0  0
 14 15  1  0  0  0  0
 14 16  1  0  0  0  0
 14 20  1  0  0  0  0
 11 12  1  0  0  0  0
 11 13  1  0  0  0  0
 11 14  1  0  0  0  0
  9 10  1  0  0  0  0
  9 11  1  0  0  0  0
  9 24  1  0  0  0  0
  7  8  1  0  0  0  0
  7  9  1  0  0  0  0
 28 29  1  0  0  0  0
 28 30  1  0  0  0  0
 28 31  1  0  0  0  0
 26 27  1  0  0  0  0
 26 28  1  0  0  0  0
M  END
$$$$
default_name
  -OEChem-01062215323D

 31 30  0     1  0  0  0  0  0999 V2000
   -3.5895   -3.5013    1.1082 H   0  0  0  0  0  0  0  0  0  0  0  0
   -3.5145   -2.5363    0.6082 C   0  0  0  0  0  0  0  0  0  0  0  0
   -4.2285   -1.8413    1.0452 H   0  0  0  0  0  0  0  0  0  0  0  0
   -3.7155   -2.6583   -0.4538 H   0  0  0  0  0  0  0  0  0  0  0  0
   -2.1155   -1.9963    0.7922 C   0  0  0  0  0  0  0  0  0  0  0  0
   -1.2875   -2.6383    1.4252 O   0  0  0  0  0  0  0  0  0  0  0  0
   -1.8575   -0.8123    0.2402 N   0  0  0  0  0  0  0  0  0  0  0  0
   -2.6005   -0.3333   -0.2478 H   0  0  0  0  0  0  0  0  0  0  0  0
   -0.5675   -0.1203    0.3102 C   0  0  1  0  0  0  0  0  0  0  0  0
   -0.7271    0.8533    0.7748 H   0  0  0  0  0  0  0  0  0  0  0  0
    0.3865   -0.9481    1.1967 C   0  0  0  0  0  0  0  0  0  0  0  0
    0.4565   -1.9571    0.7859 H   0  0  0  0  0  0  0  0  0  0  0  0
    1.3794   -0.4969    1.1366 H   0  0  0  0  0  0  0  0  0  0  0  0
   -0.0029   -1.0535    2.6826 C   0  0  0  0  0  0  0  0  0  0  0  0
   -1.0324   -1.4009    2.7697 H   0  0  0  0  0  0  0  0  0  0  0  0
    0.9119   -2.0085    3.4549 C   0  0  0  0  0  0  0  0  0  0  0  0
    1.9490   -1.6828    3.3638 H   0  0  0  0  0  0  0  0  0  0  0  0
    0.6313   -2.0141    4.5084 H   0  0  0  0  0  0  0  0  0  0  0  0
    0.8225   -3.0218    3.0695 H   0  0  0  0  0  0  0  0  0  0  0  0
    0.0889    0.3234    3.3393 C   0  0  0  0  0  0  0  0  0  0  0  0
   -0.5780    1.0182    2.8290 H   0  0  0  0  0  0  0  0  0  0  0  0
   -0.2129    0.2565    4.3845 H   0  0  0  0  0  0  0  0  0  0  0  0
    1.1112    0.6989    3.2832 H   0  0  0  0  0  0  0  0  0  0  0  0
   -0.0083    0.1057   -1.1049 C   0  0  0  0  0  0  0  0  0  0  0  0
   -0.7439    0.5123   -2.0014 O   0  0  0  0  0  0  0  0  0  0  0  0
    1.2875   -0.1677   -1.3046 N   0  0  0  0  0  0  0  0  0  0  0  0
    1.8273   -0.4918   -0.5180 H   0  0  0  0  0  0  0  0  0  0  0  0
    1.9630   -0.0216   -2.5919 C   0  0  0  0  0  0  0  0  0  0  0  0
    1.8866    1.0133   -2.9330 H   0  0  0  0  0  0  0  0  0  0  0  0
    3.0158   -0.2929   -2.5000 H   0  0  0  0  0  0  0  0  0  0  0  0
    1.4875   -0.6663   -3.3327 H   0  0  0  0  0  0  0  0  0  0  0  0
  5  6  2  0  0  0  0
  5  7  1  0  0  0  0
  2  3  1  0  0  0  0
  2  4  1  0  0  0  0
  2  5  1  0  0  0  0
  1  2  1  0  0  0  0
 24 25  2  0  0  0  0
 24 26  1  0  0  0  0
 20 21  1  0  0  0  0
 20 22  1  0  0  0  0
 20 23  1  0  0  0  0
 16 17  1  0  0  0  0
 16 18  1  0  0  0  0
 16 19  1  0  0  0  0
 14 15  1  0  0  0  0
 14 16  1  0  0  0  0
 14 20  1  0  0  0  0
 11 12  1  0  0  0  0
 11 13  1  0  0  0  0
 11 14  1  0  0  0  0
  9 10  1  0  0  0  0
  9 11  1  0  0  0  0
  9 24  1  0  0  0  0
  7  8  1  0  0  0  0
  7  9  1  0  0  0  0
 28 29  1  0  0  0  0
 28 30  1  0  0  0  0
 28 31  1  0  0  0  0
 26 27  1  0  0  0  0
 26 28  1  0  0  0  0
M  END
$$$$
default_name
  -OEChem-01062215323D

 31 30  0     1  0  0  0  0  0999 V2000
   -3.5895   -3.5013    1.1082 H   0  0  0  0  0  0  0  0  0  0  0  0
   -3.5145   -2.5363    0.6082 C   0  0  0  0  0  0  0  0  0  0  0  0
   -4.2285   -1.8413    1.0452 H   0  0  0  0  0  0  0  0  0  0  0  0
   -3.7155   -2.6583   -0.4538 H   0  0  0  0  0  0  0  0  0  0  0  0
   -2.1155   -1.9963    0.7922 C   0  0  0  0  0  0  0  0  0  0  0  0
   -1.2875   -2.6383    1.4252 O   0  0  0  0  0  0  0  0  0  0  0  0
   -1.8575   -0.8123    0.2402 N   0  0  0  0  0  0  0  0  0  0  0  0
   -2.6005   -0.3333   -0.2478 H   0  0  0  0  0  0  0  0  0  0  0  0
   -0.5675   -0.1203    0.3102 C   0  0  1  0  0  0  0  0  0  0  0  0
   -0.7271    0.8533    0.7748 H   0  0  0  0  0  0  0  0  0  0  0  0
    0.3865   -0.9481    1.1967 C   0  0  0  0  0  0  0  0  0  0  0  0
    0.4565   -1.9571    0.7859 H   0  0  0  0  0  0  0  0  0  0  0  0
    1.3794   -0.4969    1.1366 H   0  0  0  0  0  0  0  0  0  0  0  0
   -0.0029   -1.0535    2.6826 C   0  0  0  0  0  0  0  0  0  0  0  0
   -1.0324   -1.4009    2.7697 H   0  0  0  0  0  0  0  0  0  0  0  0
    0.9119   -2.0085    3.4549 C   0  0  0  0  0  0  0  0  0  0  0  0
    1.9490   -1.6828    3.3638 H   0  0  0  0  0  0  0  0  0  0  0  0
    0.6313   -2.0141    4.5084 H   0  0  0  0  0  0  0  0  0  0  0  0
    0.8225   -3.0218    3.0695 H   0  0  0  0  0  0  0  0  0  0  0  0
    0.0889    0.3234    3.3393 C   0  0  0  0  0  0  0  0  0  0  0  0
   -0.5780    1.0182    2.8290 H   0  0  0  0  0  0  0  0  0  0  0  0
   -0.2129    0.2565    4.3845 H   0  0  0  0  0  0  0  0  0  0  0  0
    1.1112    0.6989    3.2832 H   0  0  0  0  0  0  0  0  0  0  0  0
   -0.0083    0.1057   -1.1049 C   0  0  0  0  0  0  0  0  0  0  0  0
   -0.6485    0.7610   -1.9239 O   0  0  0  0  0  0  0  0  0  0  0  0
    1.1783   -0.4451   -1.3920 N   0  0  0  0  0  0  0  0  0  0  0  0
    1.6453   -0.9634   -0.6653 H   0  0  0  0  0  0  0  0  0  0  0  0
    1.8346   -0.3363   -2.6929 C   0  0  0  0  0  0  0  0  0  0  0  0
    1.9997    0.7157   -2.9359 H   0  0  0  0  0  0  0  0  0  0  0  0
    2.7936   -0.8564   -2.6778 H   0  0  0  0  0  0  0  0  0  0  0  0
    1.1988   -0.7741   -3.4641 H   0  0  0  0  0  0  0  0  0  0  0  0
  5  6  2  0  0  0  0
  5  7  1  0  0  0  0
  2  3  1  0  0  0  0
  2  4  1  0  0  0  0
  2  5  1  0  0  0  0
  1  2  1  0  0  0  0
 24 25  2  0  0  0  0
 24 26  1  0  0  0  0
 20 21  1  0  0  0  0
 20 22  1  0  0  0  0
 20 23  1  0  0  0  0
 16 17  1  0  0  0  0
 16 18  1  0  0  0  0
 16 19  1  0  0  0  0
 14 15  1  0  0  0  0
 14 16  1  0  0  0  0
 14 20  1  0  0  0  0
 11 12  1  0  0  0  0
 11 13  1  0  0  0  0
 11 14  1  0  0  0  0
  9 10  1  0  0  0  0
  9 11  1  0  0  0  0
  9 24  1  0  0  0  0
  7  8  1  0  0  0  0
  7  9  1  0  0  0  0
 28 29  1  0  0  0  0
 28 30  1  0  0  0  0
 28 31  1  0  0  0  0
 26 27  1  0  0  0  0
 26 28  1  0  0  0  0
M  END
$$$$
default_name
  -OEChem-01062215323D

 31 30  0     1  0  0  0  0  0999 V2000
   -3.5895   -3.5013    1.1082 H   0  0  0  0  0  0  0  0  0  0  0  0
   -3.5145   -2.5363    0.6082 C   0  0  0  0  0  0  0  0  0  0  0  0
   -4.2285   -1.8413    1.0452 H   0  0  0  0  0  0  0  0  0  0  0  0
   -3.7155   -2.6583   -0.4538 H   0  0  0  0  0  0  0  0  0  0  0  0
   -2.1155   -1.9963    0.7922 C   0  0  0  0  0  0  0  0  0  0  0  0
   -1.2875   -2.6383    1.4252 O   0  0  0  0  0  0  0  0  0  0  0  0
   -1.8575   -0.8123    0.2402 N   0  0  0  0  0  0  0  0  0  0  0  0
   -2.6005   -0.3333   -0.2478 H   0  0  0  0  0  0  0  0  0  0  0  0
   -0.5675   -0.1203    0.3102 C   0  0  1  0  0  0  0  0  0  0  0  0
   -0.7271    0.8533    0.7748 H   0  0  0  0  0  0  0  0  0  0  0  0
    0.3865   -0.9481    1.1967 C   0  0  0  0  0  0  0  0  0  0  0  0
    0.4565   -1.9571    0.7859 H   0  0  0  0  0  0  0  0  0  0  0  0
    1.3794   -0.4969    1.1366 H   0  0  0  0  0  0  0  0  0  0  0  0
   -0.0029   -1.0535    2.6826 C   0  0  0  0  0  0  0  0  0  0  0  0
   -1.0324   -1.4009    2.7697 H   0  0  0  0  0  0  0  0  0  0  0  0
    0.9119   -2.0085    3.4549 C   0  0  0  0  0  0  0  0  0  0  0  0
    1.9490   -1.6828    3.3638 H   0  0  0  0  0  0  0  0  0  0  0  0
    0.6313   -2.0141    4.5084 H   0  0  0  0  0  0  0  0  0  0  0  0
    0.8225   -3.0218    3.0695 H   0  0  0  0  0  0  0  0  0  0  0  0
    0.0889    0.3234    3.3393 C   0  0  0  0  0  0  0  0  0  0  0  0
   -0.5780    1.0182    2.8290 H   0  0  0  0  0  0  0  0  0  0  0  0
   -0.2129    0.2565    4.3845 H   0  0  0  0  0  0  0  0  0  0  0  0
    1.1112    0.6989    3.2832 H   0  0  0  0  0  0  0  0  0  0  0  0
   -0.0083    0.1057   -1.1049 C   0  0  0  0  0  0  0  0  0  0  0  0
   -0.4942    0.9712   -1.8294 O   0  0  0  0  0  0  0  0  0  0  0  0
    1.0034   -0.6787   -1.4985 N   0  0  0  0  0  0  0  0  0  0  0  0
    1.3516   -1.3619   -0.8450 H   0  0  0  0  0  0  0  0  0  0  0  0
    1.6317   -0.6003   -2.8152 C   0  0  0  0  0  0  0  0  0  0  0  0
    2.0379    0.4017   -2.9709 H   0  0  0  0  0  0  0  0  0  0  0  0
    2.4380   -1.3311   -2.8941 H   0  0  0  0  0  0  0  0  0  0  0  0
    0.8891   -0.7972   -3.5901 H   0  0  0  0  0  0  0  0  0  0  0  0
  5  6  2  0  0  0  0
  5  7  1  0  0  0  0
  2  3  1  0  0  0  0
  2  4  1  0  0  0  0
  2  5  1  0  0  0  0
  1  2  1  0  0  0  0
 24 25  2  0  0  0  0
 24 26  1  0  0  0  0
 20 21  1  0  0  0  0
 20 22  1  0  0  0  0
 20 23  1  0  0  0  0
 16 17  1  0  0  0  0
 16 18  1  0  0  0  0
 16 19  1  0  0  0  0
 14 15  1  0  0  0  0
 14 16  1  0  0  0  0
 14 20  1  0  0  0  0
 11 12  1  0  0  0  0
 11 13  1  0  0  0  0
 11 14  1  0  0  0  0
  9 10  1  0  0  0  0
  9 11  1  0  0  0  0
  9 24  1  0  0  0  0
  7  8  1  0  0  0  0
  7  9  1  0  0  0  0
 28 29  1  0  0  0  0
 28 30  1  0  0  0  0
 28 31  1  0  0  0  0
 26 27  1  0  0  0  0
 26 28  1  0  0  0  0
M  END
$$$$
default_name
  -OEChem-01062215323D

 31 30  0     1  0  0  0  0  0999 V2000
   -3.5895   -3.5013    1.1082 H   0  0  0  0  0  0  0  0  0  0  0  0
   -3.5145   -2.5363    0.6082 C   0  0  0  0  0  0  0  0  0  0  0  0
   -4.2285   -1.8413    1.0452 H   0  0  0  0  0  0  0  0  0  0  0  0
   -3.7155   -2.6583   -0.4538 H   0  0  0  0  0  0  0  0  0  0  0  0
   -2.1155   -1.9963    0.7922 C   0  0  0  0  0  0  0  0  0  0  0  0
   -1.2875   -2.6383    1.4252 O   0  0  0  0  0  0  0  0  0  0  0  0
   -1.8575   -0.8123    0.2402 N   0  0  0  0  0  0  0  0  0  0  0  0
   -2.6005   -0.3333   -0.2478 H   0  0  0  0  0  0  0  0  0  0  0  0
   -0.5675   -0.1203    0.3102 C   0  0  1  0  0  0  0  0  0  0  0  0
   -0.7271    0.8533    0.7748 H   0  0  0  0  0  0  0  0  0  0  0  0
    0.3865   -0.9481    1.1967 C   0  0  0  0  0  0  0  0  0  0  0  0
    0.4565   -1.9571    0.7859 H   0  0  0  0  0  0  0  0  0  0  0  0
    1.3794   -0.4969    1.1366 H   0  0  0  0  0  0  0  0  0  0  0  0
   -0.0029   -1.0535    2.6826 C   0  0  0  0  0  0  0  0  0  0  0  0
   -1.0324   -1.4009    2.7697 H   0  0  0  0  0  0  0  0  0  0  0  0
    0.9119   -2.0085    3.4549 C   0  0  0  0  0  0  0  0  0  0  0  0
    1.9490   -1.6828    3.3638 H   0  0  0  0  0  0  0  0  0  0  0  0
    0.6313   -2.0141    4.5084 H   0  0  0  0  0  0  0  0  0  0  0  0
    0.8225   -3.0218    3.0695 H   0  0  0  0  0  0  0  0  0  0  0  0
    0.0889    0.3234    3.3393 C   0  0  0  0  0  0  0  0  0  0  0  0
   -0.5780    1.0182    2.8290 H   0  0  0  0  0  0  0  0  0  0  0  0
   -0.2129    0.2565    4.3845 H   0  0  0  0  0  0  0  0  0  0  0  0
    1.1112    0.6989    3.2832 H   0  0  0  0  0  0  0  0  0  0  0  0
   -0.0083    0.1057   -1.1049 C   0  0  0  0  0  0  0  0  0  0  0  0
   -0.2915    1.1287   -1.7241 O   0  0  0  0  0  0  0  0  0  0  0  0
    0.7748   -0.8528   -1.6166 N   0  0  0  0  0  0  0  0  0  0  0  0
    0.9662   -1.6599   -1.0449 H   0  0  0  0  0  0  0  0  0  0  0  0
    1.3683   -0.7955   -2.9505 C   0  0  0  0  0  0  0  0  0  0  0  0
    1.9987    0.0925   -3.0358 H   0  0  0  0  0  0  0  0  0  0  0  0
    1.9733   -1.6847   -3.1342 H   0  0  0  0  0  0  0  0  0  0  0  0
    0.5798   -0.7338   -3.7022 H   0  0  0  0  0  0  0  0  0  0  0  0
  5  6  2  0  0  0  0
  5  7  1  0  0  0  0
  2  3  1  0  0  0  0
  2  4  1  0  0  0  0
  2  5  1  0  0  0  0
  1  2  1  0  0  0  0
 24 25  2  0  0  0  0
 24 26  1  0  0  0  0
 20 21  1  0  0  0  0
 20 22  1  0  0  0  0
 20 23  1  0  0  0  0
 16 17  1  0  0  0  0
 16 18  1  0  0  0  0
 16 19  1  0  0  0  0
 14 15  1  0  0  0  0
 14 16  1  0  0  0  0
 14 20  1  0  0  0  0
 11 12  1  0  0  0  0
 11 13  1  0  0  0  0
 11 14  1  0  0  0  0
  9 10  1  0  0  0  0
  9 11  1  0  0  0  0
  9 24  1  0  0  0  0
  7  8  1  0  0  0  0
  7  9  1  0  0  0  0
 28 29  1  0  0  0  0
 28 30  1  0  0  0  0
 28 31  1  0  0  0  0
 26 27  1  0  0  0  0
 26 28  1  0  0  0  0
M  END
$$$$
default_name
  -OEChem-01062215323D

 31 30  0     1  0  0  0  0  0999 V2000
   -3.5895   -3.5013    1.1082 H   0  0  0  0  0  0  0  0  0  0  0  0
   -3.5145   -2.5363    0.6082 C   0  0  0  0  0  0  0  0  0  0  0  0
   -4.2285   -1.8413    1.0452 H   0  0  0  0  0  0  0  0  0  0  0  0
   -3.7155   -2.6583   -0.4538 H   0  0  0  0  0  0  0  0  0  0  0  0
   -2.1155   -1.9963    0.7922 C   0  0  0  0  0  0  0  0  0  0  0  0
   -1.2875   -2.6383    1.4252 O   0  0  0  0  0  0  0  0  0  0  0  0
   -1.8575   -0.8123    0.2402 N   0  0  0  0  0  0  0  0  0  0  0  0
   -2.6005   -0.3333   -0.2478 H   0  0  0  0  0  0  0  0  0  0  0  0
   -0.5675   -0.1203    0.3102 C   0  0  1  0  0  0  0  0  0  0  0  0
   -0.7271    0.8533    0.7748 H   0  0  0  0  0  0  0  0  0  0  0  0
    0.3865   -0.9481    1.1967 C   0  0  0  0  0  0  0  0  0  0  0  0
    0.4565   -1.9571    0.7859 H   0  0  0  0  0  0  0  0  0  0  0  0
    1.3794   -0.4969    1.1366 H   0  0  0  0  0  0  0  0  0  0  0  0
   -0.0029   -1.0535    2.6826 C   0  0  0  0  0  0  0  0  0  0  0  0
   -1.0324   -1.4009    2.7697 H   0  0  0  0  0  0  0  0  0  0  0  0
    0.9119   -2.0085    3.4549 C   0  0  0  0  0  0  0  0  0  0  0  0
    1.9490   -1.6828    3.3638 H   0  0  0  0  0  0  0  0  0  0  0  0
    0.6313   -2.0141    4.5084 H   0  0  0  0  0  0  0  0  0  0  0  0
    0.8225   -3.0218    3.0695 H   0  0  0  0  0  0  0  0  0  0  0  0
    0.0889    0.3234    3.3393 C   0  0  0  0  0  0  0  0  0  0  0  0
   -0.5780    1.0182    2.8290 H   0  0  0  0  0  0  0  0  0  0  0  0
   -0.2129    0.2565    4.3845 H   0  0  0  0  0  0  0  0  0  0  0  0
    1.1112    0.6989    3.2832 H   0  0  0  0  0  0  0  0  0  0  0  0
   -0.0083    0.1057   -1.1049 C   0  0  0  0  0  0  0  0  0  0  0  0
   -0.0542    1.2226   -1.6153 O   0  0  0  0  0  0  0  0  0  0  0  0
    0.5081   -0.9553   -1.7384 N   0  0  0  0  0  0  0  0  0  0  0  0
    0.5154   -1.8372   -1.2513 H   0  0  0  0  0  0  0  0  0  0  0  0
    1.0622   -0.9085   -3.0895 C   0  0  0  0  0  0  0  0  0  0  0  0
    1.8847   -0.1907   -3.1261 H   0  0  0  0  0  0  0  0  0  0  0  0
    1.4311   -1.8929   -3.3818 H   0  0  0  0  0  0  0  0  0  0  0  0
    0.2918   -0.5885   -3.7928 H   0  0  0  0  0  0  0  0  0  0  0  0
  5  6  2  0  0  0  0
  5  7  1  0  0  0  0
  2  3  1  0  0  0  0
  2  4  1  0  0  0  0
  2  5  1  0  0  0  0
  1  2  1  0  0  0  0
 24 25  2  0  0  0  0
 24 26  1  0  0  0  0
 20 21  1  0  0  0  0
 20 22  1  0  0  0  0
 20 23  1  0  0  0  0
 16 17  1  0  0  0  0
 16 18  1  0  0  0  0
 16 19  1  0  0  0  0
 14 15  1  0  0  0  0
 14 16  1  0  0  0  0
 14 20  1  0  0  0  0
 11 12  1  0  0  0  0
 11 13  1  0  0  0  0
 11 14  1  0  0  0  0
  9 10  1  0  0  0  0
  9 11  1  0  0  0  0
  9 24  1  0  0  0  0
  7  8  1  0  0  0  0
  7  9  1  0  0  0  0
 28 29  1  0  0  0  0
 28 30  1  0  0  0  0
 28 31  1  0  0  0  0
 26 27  1  0  0  0  0
 26 28  1  0  0  0  0
M  END
$$$$
default_name
  -OEChem-01062215323D

 31 30  0     1  0  0  0  0  0999 V2000
   -3.5895   -3.5013    1.1082 H   0  0  0  0  0  0  0  0  0  0  0  0
   -3.5145   -2.5363    0.6082 C   0  0  0  0  0  0  0  0  0  0  0  0
   -4.2285   -1.8413    1.0452 H   0  0  0  0  0  0  0  0  0  0  0  0
   -3.7155   -2.6583   -0.4538 H   0  0  0  0  0  0  0  0  0  0  0  0
   -2.1155   -1.9963    0.7922 C   0  0  0  0  0  0  0  0  0  0  0  0
   -1.2875   -2.6383    1.4252 O   0  0  0  0  0  0  0  0  0  0  0  0
   -1.8575   -0.8123    0.2402 N   0  0  0  0  0  0  0  0  0  0  0  0
   -2.6005   -0.3333   -0.2478 H   0  0  0  0  0  0  0  0  0  0  0  0
   -0.5675   -0.1203    0.3102 C   0  0  1  0  0  0  0  0  0  0  0  0
   -0.7271    0.8533    0.7748 H   0  0  0  0  0  0  0  0  0  0  0  0
    0.3865   -0.9481    1.1967 C   0  0  0  0  0  0  0  0  0  0  0  0
    0.4565   -1.9571    0.7859 H   0  0  0  0  0  0  0  0  0  0  0  0
    1.3794   -0.4969    1.1366 H   0  0  0  0  0  0  0  0  0  0  0  0
   -0.0029   -1.0535    2.6826 C   0  0  0  0  0  0  0  0  0  0  0  0
   -1.0324   -1.4009    2.7697 H   0  0  0  0  0  0  0  0  0  0  0  0
    0.9119   -2.0085    3.4549 C   0  0  0  0  0  0  0  0  0  0  0  0
    1.9490   -1.6828    3.3638 H   0  0  0  0  0  0  0  0  0  0  0  0
    0.6313   -2.0141    4.5084 H   0  0  0  0  0  0  0  0  0  0  0  0
    0.8225   -3.0218    3.0695 H   0  0  0  0  0  0  0  0  0  0  0  0
    0.0889    0.3234    3.3393 C   0  0  0  0  0  0  0  0  0  0  0  0
   -0.5780    1.0182    2.8290 H   0  0  0  0  0  0  0  0  0  0  0  0
   -0.2129    0.2565    4.3845 H   0  0  0  0  0  0  0  0  0  0  0  0
    1.1112    0.6989    3.2832 H   0  0  0  0  0  0  0  0  0  0  0  0
   -0.0083    0.1057   -1.1049 C   0  0  0  0  0  0  0  0  0  0  0  0
    0.2016    1.2466   -1.5105 O   0  0  0  0  0  0  0  0  0  0  0  0
    0.2214   -0.9794   -1.8555 N   0  0  0  0  0  0  0  0  0  0  0  0
    0.0298   -1.8817   -1.4503 H   0  0  0  0  0  0  0  0  0  0  0  0
    0.7343   -0.9318   -3.2228 C   0  0  0  0  0  0  0  0  0  0  0  0
    1.7038   -0.4286   -3.2356 H   0  0  0  0  0  0  0  0  0  0  0  0
    0.8484   -1.9416   -3.6198 H   0  0  0  0  0  0  0  0  0  0  0  0
    0.0448   -0.3709   -3.8557 H   0  0  0  0  0  0  0  0  0  0  0  0
  5  6  2  0  0  0  0
  5  7  1  0  0  0  0
  2  3  1  0  0  0  0
  2  4  1  0  0  0  0
  2  5  1  0  0  0  0
  1  2  1  0  0  0  0
 24 25  2  0  0  0  0
 24 26  1  0  0  0  0
 20 21  1  0  0  0  0
 20 22  1  0  0  0  0
 20 23  1  0  0  0  0
 16 17  1  0  0  0  0
 16 18  1  0  0  0  0
 16 19  1  0  0  0  0
 14 15  1  0  0  0  0
 14 16  1  0  0  0  0
 14 20  1  0  0  0  0
 11 12  1  0  0  0  0
 11 13  1  0  0  0  0
 11 14  1  0  0  0  0
  9 10  1  0  0  0  0
  9 11  1  0  0  0  0
  9 24  1  0  0  0  0
  7  8  1  0  0  0  0
  7  9  1  0  0  0  0
 28 29  1  0  0  0  0
 28 30  1  0  0  0  0
 28 31  1  0  0  0  0
 26 27  1  0  0  0  0
 26 28  1  0  0  0  0
M  END
$$$$
default_name
  -OEChem-01062215323D

 31 30  0     1  0  0  0  0  0999 V2000
   -3.5895   -3.5013    1.1082 H   0  0  0  0  0  0  0  0  0  0  0  0
   -3.5145   -2.5363    0.6082 C   0  0  0  0  0  0  0  0  0  0  0  0
   -4.2285   -1.8413    1.0452 H   0  0  0  0  0  0  0  0  0  0  0  0
   -3.7155   -2.6583   -0.4538 H   0  0  0  0  0  0  0  0  0  0  0  0
   -2.1155   -1.9963    0.7922 C   0  0  0  0  0  0  0  0  0  0  0  0
   -1.2875   -2.6383    1.4252 O   0  0  0  0  0  0  0  0  0  0  0  0
   -1.8575   -0.8123    0.2402 N   0  0  0  0  0  0  0  0  0  0  0  0
   -2.6005   -0.3333   -0.2478 H   0  0  0  0  0  0  0  0  0  0  0  0
   -0.5675   -0.1203    0.3102 C   0  0  1  0  0  0  0  0  0  0  0  0
   -0.7271    0.8533    0.7748 H   0  0  0  0  0  0  0  0  0  0  0  0
    0.3865   -0.9481    1.1967 C   0  0  0  0  0  0  0  0  0  0  0  0
    0.4565   -1.9571    0.7859 H   0  0  0  0  0  0  0  0  0  0  0  0
    1.3794   -0.4969    1.1366 H   0  0  0  0  0  0  0  0  0  0  0  0
   -0.0029   -1.0535    2.6826 C   0  0  0  0  0  0  0  0  0  0  0  0
   -1.0324   -1.4009    2.7697 H   0  0  0  0  0  0  0  0  0  0  0  0
    0.9119   -2.0085    3.4549 C   0  0  0  0  0  0  0  0  0  0  0  0
    1.9490   -1.6828    3.3638 H   0  0  0  0  0  0  0  0  0  0  0  0
    0.6313   -2.0141    4.5084 H   0  0  0  0  0  0  0  0  0  0  0  0
    0.8225   -3.0218    3.0695 H   0  0  0  0  0  0  0  0  0  0  0  0
    0.0889    0.3234    3.3393 C   0  0  0  0  0  0  0  0  0  0  0  0
   -0.5780    1.0182    2.8290 H   0  0  0  0  0  0  0  0  0  0  0  0
   -0.2129    0.2565    4.3845 H   0  0  0  0  0  0  0  0  0  0  0  0
    1.1112    0.6989    3.2832 H   0  0  0  0  0  0  0  0  0  0  0  0
   -0.0083    0.1057   -1.1049 C   0  0  0  0  0  0  0  0  0  0  0  0
    0.4583    1.1990   -1.4166 O   0  0  0  0  0  0  0  0  0  0  0  0
   -0.0658   -0.9234   -1.9600 N   0  0  0  0  0  0  0  0  0  0  0  0
   -0.4573   -1.7904   -1.6282 H   0  0  0  0  0  0  0  0  0  0  0  0
    0.4071   -0.8636   -3.3412 C   0  0  0  0  0  0  0  0  0  0  0  0
    1.4682   -0.6050   -3.3568 H   0  0  0  0  0  0  0  0  0  0  0  0
    0.2649   -1.8276   -3.8322 H   0  0  0  0  0  0  0  0  0  0  0  0
   -0.1444   -0.0961   -3.8865 H   0  0  0  0  0  0  0  0  0  0  0  0
  5  6  2  0  0  0  0
  5  7  1  0  0  0  0
  2  3  1  0  0  0  0
  2  4  1  0  0  0  0
  2  5  1  0  0  0  0
  1  2  1  0  0  0  0
 24 25  2  0  0  0  0
 24 26  1  0  0  0  0
 20 21  1  0  0  0  0
 20 22  1  0  0  0  0
 20 23  1  0  0  0  0
 16 17  1  0  0  0  0
 16 18  1  0  0  0  0
 16 19  1  0  0  0  0
 14 15  1  0  0  0  0
 14 16  1  0  0  0  0
 14 20  1  0  0  0  0
 11 12  1  0  0  0  0
 11 13  1  0  0  0  0
 11 14  1  0  0  0  0
  9 10  1  0  0  0  0
  9 11  1  0  0  0  0
  9 24  1  0  0  0  0
  7  8  1  0  0  0  0
  7  9  1  0  0  0  0
 28 29  1  0  0  0  0
 28 30  1  0  0  0  0
 28 31  1  0  0  0  0
 26 27  1  0  0  0  0
 26 28  1  0  0  0  0
M  END
$$$$
default_name
  -OEChem-01062215323D

 31 30  0     1  0  0  0  0  0999 V2000
   -3.5895   -3.5013    1.1082 H   0  0  0  0  0  0  0  0  0  0  0  0
   -3.5145   -2.5363    0.6082 C   0  0  0  0  0  0  0  0  0  0  0  0
   -4.2285   -1.8413    1.0452 H   0  0  0  0  0  0  0  0  0  0  0  0
   -3.7155   -2.6583   -0.4538 H   0  0  0  0  0  0  0  0  0  0  0  0
   -2.1155   -1.9963    0.7922 C   0  0  0  0  0  0  0  0  0  0  0  0
   -1.2875   -2.6383    1.4252 O   0  0  0  0  0  0  0  0  0  0  0  0
   -1.8575   -0.8123    0.2402 N   0  0  0  0  0  0  0  0  0  0  0  0
   -2.6005   -0.3333   -0.2478 H   0  0  0  0  0  0  0  0  0  0  0  0
   -0.5675   -0.1203    0.3102 C   0  0  1  0  0  0  0  0  0  0  0  0
   -0.7271    0.8533    0.7748 H   0  0  0  0  0  0  0  0  0  0  0  0
    0.3865   -0.9481    1.1967 C   0  0  0  0  0  0  0  0  0  0  0  0
    0.4565   -1.9571    0.7859 H   0  0  0  0  0  0  0  0  0  0  0  0
    1.3794   -0.4969    1.1366 H   0  0  0  0  0  0  0  0  0  0  0  0
   -0.0029   -1.0535    2.6826 C   0  0  0  0  0  0  0  0  0  0  0  0
   -1.0324   -1.4009    2.7697 H   0  0  0  0  0  0  0  0  0  0  0  0
    0.9119   -2.0085    3.4549 C   0  0  0  0  0  0  0  0  0  0  0  0
    1.9490   -1.6828    3.3638 H   0  0  0  0  0  0  0  0  0  0  0  0
    0.6313   -2.0141    4.5084 H   0  0  0  0  0  0  0  0  0  0  0  0
    0.8225   -3.0218    3.0695 H   0  0  0  0  0  0  0  0  0  0  0  0
    0.0889    0.3234    3.3393 C   0  0  0  0  0  0  0  0  0  0  0  0
   -0.5780    1.0182    2.8290 H   0  0  0  0  0  0  0  0  0  0  0  0
   -0.2129    0.2565    4.3845 H   0  0  0  0  0  0  0  0  0  0  0  0
    1.1112    0.6989    3.2832 H   0  0  0  0  0  0  0  0  0  0  0  0
   -0.0083    0.1057   -1.1049 C   0  0  0  0  0  0  0  0  0  0  0  0
    0.6985    1.0831   -1.3402 O   0  0  0  0  0  0  0  0  0  0  0  0
   -0.3338   -0.7911   -2.0448 N   0  0  0  0  0  0  0  0  0  0  0  0
   -0.9129   -1.5694   -1.7729 H   0  0  0  0  0  0  0  0  0  0  0  0
    0.1026   -0.7088   -3.4368 C   0  0  0  0  0  0  0  0  0  0  0  0
    1.1941   -0.7080   -3.4816 H   0  0  0  0  0  0  0  0  0  0  0  0
   -0.2797   -1.5585   -4.0044 H   0  0  0  0  0  0  0  0  0  0  0  0
   -0.2629    0.2173   -3.8833 H   0  0  0  0  0  0  0  0  0  0  0  0
  5  6  2  0  0  0  0
  5  7  1  0  0  0  0
  2  3  1  0  0  0  0
  2  4  1  0  0  0  0
  2  5  1  0  0  0  0
  1  2  1  0  0  0  0
 24 25  2  0  0  0  0
 24 26  1  0  0  0  0
 20 21  1  0  0  0  0
 20 22  1  0  0  0  0
 20 23  1  0  0  0  0
 16 17  1  0  0  0  0
 16 18  1  0  0  0  0
 16 19  1  0  0  0  0
 14 15  1  0  0  0  0
 14 16  1  0  0  0  0
 14 20  1  0  0  0  0
 11 12  1  0  0  0  0
 11 13  1  0  0  0  0
 11 14  1  0  0  0  0
  9 10  1  0  0  0  0
  9 11  1  0  0  0  0
  9 24  1  0  0  0  0
  7  8  1  0  0  0  0
  7  9  1  0  0  0  0
 28 29  1  0  0  0  0
 28 30  1  0  0  0  0
 28 31  1  0  0  0  0
 26 27  1  0  0  0  0
 26 28  1  0  0  0  0
M  END
$$$$
default_name
  -OEChem-01062215323D

 31 30  0     1  0  0  0  0  0999 V2000
   -3.5895   -3.5013    1.1082 H   0  0  0  0  0  0  0  0  0  0  0  0
   -3.5145   -2.5363    0.6082 C   0  0  0  0  0  0  0  0  0  0  0  0
   -4.2285   -1.8413    1.0452 H   0  0  0  0  0  0  0  0  0  0  0  0
   -3.7155   -2.6583   -0.4538 H   0  0  0  0  0  0  0  0  0  0  0  0
   -2.1155   -1.9963    0.7922 C   0  0  0  0  0  0  0  0  0  0  0  0
   -1.2875   -2.6383    1.4252 O   0  0  0  0  0  0  0  0  0  0  0  0
   -1.8575   -0.8123    0.2402 N   0  0  0  0  0  0  0  0  0  0  0  0
   -2.6005   -0.3333   -0.2478 H   0  0  0  0  0  0  0  0  0  0  0  0
   -0.5675   -0.1203    0.3102 C   0  0  1  0  0  0  0  0  0  0  0  0
   -0.7271    0.8533    0.7748 H   0  0  0  0  0  0  0  0  0  0  0  0
    0.3865   -0.9481    1.1967 C   0  0  0  0  0  0  0  0  0  0  0  0
    0.4565   -1.9571    0.7859 H   0  0  0  0  0  0  0  0  0  0  0  0
    1.3794   -0.4969    1.1366 H   0  0  0  0  0  0  0  0  0  0  0  0
   -0.0029   -1.0535    2.6826 C   0  0  0  0  0  0  0  0  0  0  0  0
   -1.0324   -1.4009    2.7697 H   0  0  0  0  0  0  0  0  0  0  0  0
    0.9119   -2.0085    3.4549 C   0  0  0  0  0  0  0  0  0  0  0  0
    1.9490   -1.6828    3.3638 H   0  0  0  0  0  0  0  0  0  0  0  0
    0.6313   -2.0141    4.5084 H   0  0  0  0  0  0  0  0  0  0  0  0
    0.8225   -3.0218    3.0695 H   0  0  0  0  0  0  0  0  0  0  0  0
    0.0889    0.3234    3.3393 C   0  0  0  0  0  0  0  0  0  0  0  0
   -0.5780    1.0182    2.8290 H   0  0  0  0  0  0  0  0  0  0  0  0
   -0.2129    0.2565    4.3845 H   0  0  0  0  0  0  0  0  0  0  0  0
    1.1112    0.6989    3.2832 H   0  0  0  0  0  0  0  0  0  0  0  0
   -0.0083    0.1057   -1.1049 C   0  0  0  0  0  0  0  0  0  0  0  0
    0.9058    0.9067   -1.2865 O   0  0  0  0  0  0  0  0  0  0  0  0
   -0.5643   -0.5916   -2.1040 N   0  0  0  0  0  0  0  0  0  0  0  0
   -1.3058   -1.2339   -1.8746 H   0  0  0  0  0  0  0  0  0  0  0  0
   -0.1582   -0.4777   -3.5029 C   0  0  0  0  0  0  0  0  0  0  0  0
    0.9000   -0.7304   -3.6014 H   0  0  0  0  0  0  0  0  0  0  0  0
   -0.7482   -1.1528   -4.1247 H   0  0  0  0  0  0  0  0  0  0  0  0
   -0.3026    0.5479   -3.8462 H   0  0  0  0  0  0  0  0  0  0  0  0
  5  6  2  0  0  0  0
  5  7  1  0  0  0  0
  2  3  1  0  0  0  0
  2  4  1  0  0  0  0
  2  5  1  0  0  0  0
  1  2  1  0  0  0  0
 24 25  2  0  0  0  0
 24 26  1  0  0  0  0
 20 21  1  0  0  0  0
 20 22  1  0  0  0  0
 20 23  1  0  0  0  0
 16 17  1  0  0  0  0
 16 18  1  0  0  0  0
 16 19  1  0  0  0  0
 14 15  1  0  0  0  0
 14 16  1  0  0  0  0
 14 20  1  0  0  0  0
 11 12  1  0  0  0  0
 11 13  1  0  0  0  0
 11 14  1  0  0  0  0
  9 10  1  0  0  0  0
  9 11  1  0  0  0  0
  9 24  1  0  0  0  0
  7  8  1  0  0  0  0
  7  9  1  0  0  0  0
 28 29  1  0  0  0  0
 28 30  1  0  0  0  0
 28 31  1  0  0  0  0
 26 27  1  0  0  0  0
 26 28  1  0  0  0  0
M  END
$$$$
default_name
  -OEChem-01062215323D

 31 30  0     1  0  0  0  0  0999 V2000
   -3.5895   -3.5013    1.1082 H   0  0  0  0  0  0  0  0  0  0  0  0
   -3.5145   -2.5363    0.6082 C   0  0  0  0  0  0  0  0  0  0  0  0
   -4.2285   -1.8413    1.0452 H   0  0  0  0  0  0  0  0  0  0  0  0
   -3.7155   -2.6583   -0.4538 H   0  0  0  0  0  0  0  0  0  0  0  0
   -2.1155   -1.9963    0.7922 C   0  0  0  0  0  0  0  0  0  0  0  0
   -1.2875   -2.6383    1.4252 O   0  0  0  0  0  0  0  0  0  0  0  0
   -1.8575   -0.8123    0.2402 N   0  0  0  0  0  0  0  0  0  0  0  0
   -2.6005   -0.3333   -0.2478 H   0  0  0  0  0  0  0  0  0  0  0  0
   -0.5675   -0.1203    0.3102 C   0  0  1  0  0  0  0  0  0  0  0  0
   -0.7271    0.8533    0.7748 H   0  0  0  0  0  0  0  0  0  0  0  0
    0.3865   -0.9481    1.1967 C   0  0  0  0  0  0  0  0  0  0  0  0
    0.4565   -1.9571    0.7859 H   0  0  0  0  0  0  0  0  0  0  0  0
    1.3794   -0.4969    1.1366 H   0  0  0  0  0  0  0  0  0  0  0  0
   -0.0029   -1.0535    2.6826 C   0  0  0  0  0  0  0  0  0  0  0  0
   -1.0324   -1.4009    2.7697 H   0  0  0  0  0  0  0  0  0  0  0  0
    0.9119   -2.0085    3.4549 C   0  0  0  0  0  0  0  0  0  0  0  0
    1.9490   -1.6828    3.3638 H   0  0  0  0  0  0  0  0  0  0  0  0
    0.6313   -2.0141    4.5084 H   0  0  0  0  0  0  0  0  0  0  0  0
    0.8225   -3.0218    3.0695 H   0  0  0  0  0  0  0  0  0  0  0  0
    0.0889    0.3234    3.3393 C   0  0  0  0  0  0  0  0  0  0  0  0
   -0.5780    1.0182    2.8290 H   0  0  0  0  0  0  0  0  0  0  0  0
   -0.2129    0.2565    4.3845 H   0  0  0  0  0  0  0  0  0  0  0  0
    1.1112    0.6989    3.2832 H   0  0  0  0  0  0  0  0  0  0  0  0
   -0.0083    0.1057   -1.1049 C   0  0  0  0  0  0  0  0  0  0  0  0
    1.0661    0.6820   -1.2590 O   0  0  0  0  0  0  0  0  0  0  0  0
   -0.7418   -0.3383   -2.1337 N   0  0  0  0  0  0  0  0  0  0  0  0
   -1.6093   -0.8067   -1.9263 H   0  0  0  0  0  0  0  0  0  0  0  0
   -0.3576   -0.1862   -3.5351 C   0  0  0  0  0  0  0  0  0  0  0  0
    0.6060   -0.6707   -3.7080 H   0  0  0  0  0  0  0  0  0  0  0  0
   -1.1087   -0.6380   -4.1849 H   0  0  0  0  0  0  0  0  0  0  0  0
   -0.2608    0.8733   -3.7777 H   0  0  0  0  0  0  0  0  0  0  0  0
  5  6  2  0  0  0  0
  5  7  1  0  0  0  0
  2  3  1  0  0  0  0
  2  4  1  0  0  0  0
  2  5  1  0  0  0  0
  1  2  1  0  0  0  0
 24 25  2  0  0  0  0
 24 26  1  0  0  0  0
 20 21  1  0  0  0  0
 20 22  1  0  0  0  0
 20 23  1  0  0  0  0
 16 17  1  0  0  0  0
 16 18  1  0  0  0  0
 16 19  1  0  0  0  0
 14 15  1  0  0  0  0
 14 16  1  0  0  0  0
 14 20  1  0  0  0  0
 11 12  1  0  0  0  0
 11 13  1  0  0  0  0
 11 14  1  0  0  0  0
  9 10  1  0  0  0  0
  9 11  1  0  0  0  0
  9 24  1  0  0  0  0
  7  8  1  0  0  0  0
  7  9  1  0  0  0  0
 28 29  1  0  0  0  0
 28 30  1  0  0  0  0
 28 31  1  0  0  0  0
 26 27  1  0  0  0  0
 26 28  1  0  0  0  0
M  END
$$$$
default_name
  -OEChem-01062215323D

 31 30  0     1  0  0  0  0  0999 V2000
   -3.5895   -3.5013    1.1082 H   0  0  0  0  0  0  0  0  0  0  0  0
   -3.5145   -2.5363    0.6082 C   0  0  0  0  0  0  0  0  0  0  0  0
   -4.2285   -1.8413    1.0452 H   0  0  0  0  0  0  0  0  0  0  0  0
   -3.7155   -2.6583   -0.4538 H   0  0  0  0  0  0  0  0  0  0  0  0
   -2.1155   -1.9963    0.7922 C   0  0  0  0  0  0  0  0  0  0  0  0
   -1.2875   -2.6383    1.4252 O   0  0  0  0  0  0  0  0  0  0  0  0
   -1.8575   -0.8123    0.2402 N   0  0  0  0  0  0  0  0  0  0  0  0
   -2.6005   -0.3333   -0.2478 H   0  0  0  0  0  0  0  0  0  0  0  0
   -0.5675   -0.1203    0.3102 C   0  0  1  0  0  0  0  0  0  0  0  0
   -0.7271    0.8533    0.7748 H   0  0  0  0  0  0  0  0  0  0  0  0
    0.3865   -0.9481    1.1967 C   0  0  0  0  0  0  0  0  0  0  0  0
    0.4565   -1.9571    0.7859 H   0  0  0  0  0  0  0  0  0  0  0  0
    1.3794   -0.4969    1.1366 H   0  0  0  0  0  0  0  0  0  0  0  0
   -0.0029   -1.0535    2.6826 C   0  0  0  0  0  0  0  0  0  0  0  0
   -1.0324   -1.4009    2.7697 H   0  0  0  0  0  0  0  0  0  0  0  0
    0.9119   -2.0085    3.4549 C   0  0  0  0  0  0  0  0  0  0  0  0
    1.9490   -1.6828    3.3638 H   0  0  0  0  0  0  0  0  0  0  0  0
    0.6313   -2.0141    4.5084 H   0  0  0  0  0  0  0  0  0  0  0  0
    0.8225   -3.0218    3.0695 H   0  0  0  0  0  0  0  0  0  0  0  0
    0.0889    0.3234    3.3393 C   0  0  0  0  0  0  0  0  0  0  0  0
   -0.5780    1.0182    2.8290 H   0  0  0  0  0  0  0  0  0  0  0  0
   -0.2129    0.2565    4.3845 H   0  0  0  0  0  0  0  0  0  0  0  0
    1.1112    0.6989    3.2832 H   0  0  0  0  0  0  0  0  0  0  0  0
   -0.0083    0.1057   -1.1049 C   0  0  0  0  0  0  0  0  0  0  0  0
    1.1685    0.4241   -1.2598 O   0  0  0  0  0  0  0  0  0  0  0  0
   -0.8541   -0.0487   -2.1318 N   0  0  0  0  0  0  0  0  0  0  0  0
   -1.8028   -0.3169   -1.9245 H   0  0  0  0  0  0  0  0  0  0  0  0
   -0.4820    0.1459   -3.5313 C   0  0  0  0  0  0  0  0  0  0  0  0
    0.3323   -0.5331   -3.7942 H   0  0  0  0  0  0  0  0  0  0  0  0
   -1.3366   -0.0492   -4.1809 H   0  0  0  0  0  0  0  0  0  0  0  0
   -0.1404    1.1711   -3.6826 H   0  0  0  0  0  0  0  0  0  0  0  0
  5  6  2  0  0  0  0
  5  7  1  0  0  0  0
  2  3  1  0  0  0  0
  2  4  1  0  0  0  0
  2  5  1  0  0  0  0
  1  2  1  0  0  0  0
 24 25  2  0  0  0  0
 24 26  1  0  0  0  0
 20 21  1  0  0  0  0
 20 22  1  0  0  0  0
 20 23  1  0  0  0  0
 16 17  1  0  0  0  0
 16 18  1  0  0  0  0
 16 19  1  0  0  0  0
 14 15  1  0  0  0  0
 14 16  1  0  0  0  0
 14 20  1  0  0  0  0
 11 12  1  0  0  0  0
 11 13  1  0  0  0  0
 11 14  1  0  0  0  0
  9 10  1  0  0  0  0
  9 11  1  0  0  0  0
  9 24  1  0  0  0  0
  7  8  1  0  0  0  0
  7  9  1  0  0  0  0
 28 29  1  0  0  0  0
 28 30  1  0  0  0  0
 28 31  1  0  0  0  0
 26 27  1  0  0  0  0
 26 28  1  0  0  0  0
M  END
$$$$
default_name
  -OEChem-01062215323D

 31 30  0     1  0  0  0  0  0999 V2000
   -3.5895   -3.5013    1.1082 H   0  0  0  0  0  0  0  0  0  0  0  0
   -3.5145   -2.5363    0.6082 C   0  0  0  0  0  0  0  0  0  0  0  0
   -4.2285   -1.8413    1.0452 H   0  0  0  0  0  0  0  0  0  0  0  0
   -3.7155   -2.6583   -0.4538 H   0  0  0  0  0  0  0  0  0  0  0  0
   -2.1155   -1.9963    0.7922 C   0  0  0  0  0  0  0  0  0  0  0  0
   -1.2875   -2.6383    1.4252 O   0  0  0  0  0  0  0  0  0  0  0  0
   -1.8575   -0.8123    0.2402 N   0  0  0  0  0  0  0  0  0  0  0  0
   -2.6005   -0.3333   -0.2478 H   0  0  0  0  0  0  0  0  0  0  0  0
   -0.5675   -0.1203    0.3102 C   0  0  1  0  0  0  0  0  0  0  0  0
   -0.7271    0.8533    0.7748 H   0  0  0  0  0  0  0  0  0  0  0  0
    0.3865   -0.9481    1.1967 C   0  0  0  0  0  0  0  0  0  0  0  0
    0.4565   -1.9571    0.7859 H   0  0  0  0  0  0  0  0  0  0  0  0
    1.3794   -0.4969    1.1366 H   0  0  0  0  0  0  0  0  0  0  0  0
   -0.0029   -1.0535    2.6826 C   0  0  0  0  0  0  0  0  0  0  0  0
   -1.0324   -1.4009    2.7697 H   0  0  0  0  0  0  0  0  0  0  0  0
    0.9119   -2.0085    3.4549 C   0  0  0  0  0  0  0  0  0  0  0  0
    1.9490   -1.6828    3.3638 H   0  0  0  0  0  0  0  0  0  0  0  0
    0.6313   -2.0141    4.5084 H   0  0  0  0  0  0  0  0  0  0  0  0
    0.8225   -3.0218    3.0695 H   0  0  0  0  0  0  0  0  0  0  0  0
    0.0889    0.3234    3.3393 C   0  0  0  0  0  0  0  0  0  0  0  0
   -0.5780    1.0182    2.8290 H   0  0  0  0  0  0  0  0  0  0  0  0
   -0.2129    0.2565    4.3845 H   0  0  0  0  0  0  0  0  0  0  0  0
    1.1112    0.6989    3.2832 H   0  0  0  0  0  0  0  0  0  0  0  0
   -0.0083    0.1057   -1.1049 C   0  0  0  0  0  0  0  0  0  0  0  0
    1.2059    0.1508   -1.2886 O   0  0  0  0  0  0  0  0  0  0  0  0
   -0.8935    0.2576   -2.0985 N   0  0  0  0  0  0  0  0  0  0  0  0
   -1.8729    0.2020   -1.8694 H   0  0  0  0  0  0  0  0  0  0  0  0
   -0.5230    0.4960   -3.4915 C   0  0  0  0  0  0  0  0  0  0  0  0
    0.0973   -0.3268   -3.8541 H   0  0  0  0  0  0  0  0  0  0  0  0
   -1.4164    0.5734   -4.1130 H   0  0  0  0  0  0  0  0  0  0  0  0
    0.0504    1.4212   -3.5672 H   0  0  0  0  0  0  0  0  0  0  0  0
  5  6  2  0  0  0  0
  5  7  1  0  0  0  0
  2  3  1  0  0  0  0
  2  4  1  0  0  0  0
  2  5  1  0  0  0  0
  1  2  1  0  0  0  0
 24 25  2  0  0  0  0
 24 26  1  0  0  0  0
 20 21  1  0  0  0  0
 20 22  1  0  0  0  0
 20 23  1  0  0  0  0
 16 17  1  0  0  0  0
 16 18  1  0  0  0  0
 16 19  1  0  0  0  0
 14 15  1  0  0  0  0
 14 16  1  0  0  0  0
 14 20  1  0  0  0  0
 11 12  1  0  0  0  0
 11 13  1  0  0  0  0
 11 14  1  0  0  0  0
  9 10  1  0  0  0  0
  9 11  1  0  0  0  0
  9 24  1  0  0  0  0
  7  8  1  0  0  0  0
  7  9  1  0  0  0  0
 28 29  1  0  0  0  0
 28 30  1  0  0  0  0
 28 31  1  0  0  0  0
 26 27  1  0  0  0  0
 26 28  1  0  0  0  0
M  END
$$$$
default_name
  -OEChem-01062215323D

 31 30  0     1  0  0  0  0  0999 V2000
   -3.5895   -3.5013    1.1082 H   0  0  0  0  0  0  0  0  0  0  0  0
   -3.5145   -2.5363    0.6082 C   0  0  0  0  0  0  0  0  0  0  0  0
   -4.2285   -1.8413    1.0452 H   0  0  0  0  0  0  0  0  0  0  0  0
   -3.7155   -2.6583   -0.4538 H   0  0  0  0  0  0  0  0  0  0  0  0
   -2.1155   -1.9963    0.7922 C   0  0  0  0  0  0  0  0  0  0  0  0
   -1.2875   -2.6383    1.4252 O   0  0  0  0  0  0  0  0  0  0  0  0
   -1.8575   -0.8123    0.2402 N   0  0  0  0  0  0  0  0  0  0  0  0
   -2.6005   -0.3333   -0.2478 H   0  0  0  0  0  0  0  0  0  0  0  0
   -0.5675   -0.1203    0.3102 C   0  0  1  0  0  0  0  0  0  0  0  0
   -0.7271    0.8533    0.7748 H   0  0  0  0  0  0  0  0  0  0  0  0
    0.3865   -0.9481    1.1967 C   0  0  0  0  0  0  0  0  0  0  0  0
    0.4565   -1.9571    0.7859 H   0  0  0  0  0  0  0  0  0  0  0  0
    1.3794   -0.4969    1.1366 H   0  0  0  0  0  0  0  0  0  0  0  0
   -0.0029   -1.0535    2.6826 C   0  0  0  0  0  0  0  0  0  0  0  0
   -1.0324   -1.4009    2.7697 H   0  0  0  0  0  0  0  0  0  0  0  0
    0.9119   -2.0085    3.4549 C   0  0  0  0  0  0  0  0  0  0  0  0
    1.9490   -1.6828    3.3638 H   0  0  0  0  0  0  0  0  0  0  0  0
    0.6313   -2.0141    4.5084 H   0  0  0  0  0  0  0  0  0  0  0  0
    0.8225   -3.0218    3.0695 H   0  0  0  0  0  0  0  0  0  0  0  0
    0.0889    0.3234    3.3393 C   0  0  0  0  0  0  0  0  0  0  0  0
   -0.5780    1.0182    2.8290 H   0  0  0  0  0  0  0  0  0  0  0  0
   -0.2129    0.2565    4.3845 H   0  0  0  0  0  0  0  0  0  0  0  0
    1.1112    0.6989    3.2832 H   0  0  0  0  0  0  0  0  0  0  0  0
   -0.0083    0.1057   -1.1049 C   0  0  0  0  0  0  0  0  0  0  0  0
    1.1759   -0.1195   -1.3436 O   0  0  0  0  0  0  0  0  0  0  0  0
   -0.8573    0.5598   -2.0359 N   0  0  0  0  0  0  0  0  0  0  0  0
   -1.8151    0.7148   -1.7646 H   0  0  0  0  0  0  0  0  0  0  0  0
   -0.4777    0.8401   -3.4187 C   0  0  0  0  0  0  0  0  0  0  0  0
   -0.0828   -0.0660   -3.8836 H   0  0  0  0  0  0  0  0  0  0  0  0
   -1.3427    1.1873   -3.9858 H   0  0  0  0  0  0  0  0  0  0  0  0
    0.2987    1.6065   -3.4395 H   0  0  0  0  0  0  0  0  0  0  0  0
  5  6  2  0  0  0  0
  5  7  1  0  0  0  0
  2  3  1  0  0  0  0
  2  4  1  0  0  0  0
  2  5  1  0  0  0  0
  1  2  1  0  0  0  0
 24 25  2  0  0  0  0
 24 26  1  0  0  0  0
 20 21  1  0  0  0  0
 20 22  1  0  0  0  0
 20 23  1  0  0  0  0
 16 17  1  0  0  0  0
 16 18  1  0  0  0  0
 16 19  1  0  0  0  0
 14 15  1  0  0  0  0
 14 16  1  0  0  0  0
 14 20  1  0  0  0  0
 11 12  1  0  0  0  0
 11 13  1  0  0  0  0
 11 14  1  0  0  0  0
  9 10  1  0  0  0  0
  9 11  1  0  0  0  0
  9 24  1  0  0  0  0
  7  8  1  0  0  0  0
  7  9  1  0  0  0  0
 28 29  1  0  0  0  0
 28 30  1  0  0  0  0
 28 31  1  0  0  0  0
 26 27  1  0  0  0  0
 26 28  1  0  0  0  0
M  END
$$$$
default_name
  -OEChem-01062215323D

 31 30  0     1  0  0  0  0  0999 V2000
   -3.5895   -3.5013    1.1082 H   0  0  0  0  0  0  0  0  0  0  0  0
   -3.5145   -2.5363    0.6082 C   0  0  0  0  0  0  0  0  0  0  0  0
   -4.2285   -1.8413    1.0452 H   0  0  0  0  0  0  0  0  0  0  0  0
   -3.7155   -2.6583   -0.4538 H   0  0  0  0  0  0  0  0  0  0  0  0
   -2.1155   -1.9963    0.7922 C   0  0  0  0  0  0  0  0  0  0  0  0
   -1.2875   -2.6383    1.4252 O   0  0  0  0  0  0  0  0  0  0  0  0
   -1.8575   -0.8123    0.2402 N   0  0  0  0  0  0  0  0  0  0  0  0
   -2.6005   -0.3333   -0.2478 H   0  0  0  0  0  0  0  0  0  0  0  0
   -0.5675   -0.1203    0.3102 C   0  0  1  0  0  0  0  0  0  0  0  0
   -0.7271    0.8533    0.7748 H   0  0  0  0  0  0  0  0  0  0  0  0
    0.3865   -0.9481    1.1967 C   0  0  0  0  0  0  0  0  0  0  0  0
    0.4565   -1.9571    0.7859 H   0  0  0  0  0  0  0  0  0  0  0  0
    1.3794   -0.4969    1.1366 H   0  0  0  0  0  0  0  0  0  0  0  0
   -0.0029   -1.0535    2.6826 C   0  0  0  0  0  0  0  0  0  0  0  0
   -1.0324   -1.4009    2.7697 H   0  0  0  0  0  0  0  0  0  0  0  0
    0.9119   -2.0085    3.4549 C   0  0  0  0  0  0  0  0  0  0  0  0
    1.9490   -1.6828    3.3638 H   0  0  0  0  0  0  0  0  0  0  0  0
    0.6313   -2.0141    4.5084 H   0  0  0  0  0  0  0  0  0  0  0  0
    0.8225   -3.0218    3.0695 H   0  0  0  0  0  0  0  0  0  0  0  0
    0.0889    0.3234    3.3393 C   0  0  0  0  0  0  0  0  0  0  0  0
   -0.5780    1.0182    2.8290 H   0  0  0  0  0  0  0  0  0  0  0  0
   -0.2129    0.2565    4.3845 H   0  0  0  0  0  0  0  0  0  0  0  0
    1.1112    0.6989    3.2832 H   0  0  0  0  0  0  0  0  0  0  0  0
   -0.0083    0.1057   -1.1049 C   0  0  0  0  0  0  0  0  0  0  0  0
    1.0805   -0.3682   -1.4211 O   0  0  0  0  0  0  0  0  0  0  0  0
   -0.7481    0.8371   -1.9484 N   0  0  0  0  0  0  0  0  0  0  0  0
   -1.6331    1.1865   -1.6173 H   0  0  0  0  0  0  0  0  0  0  0  0
   -0.3493    1.1549   -3.3177 C   0  0  0  0  0  0  0  0  0  0  0  0
   -0.1958    0.2315   -3.8808 H   0  0  0  0  0  0  0  0  0  0  0  0
   -1.1205    1.7509   -3.8080 H   0  0  0  0  0  0  0  0  0  0  0  0
    0.5875    1.7143   -3.3082 H   0  0  0  0  0  0  0  0  0  0  0  0
  5  6  2  0  0  0  0
  5  7  1  0  0  0  0
  2  3  1  0  0  0  0
  2  4  1  0  0  0  0
  2  5  1  0  0  0  0
  1  2  1  0  0  0  0
 24 25  2  0  0  0  0
 24 26  1  0  0  0  0
 20 21  1  0  0  0  0
 20 22  1  0  0  0  0
 20 23  1  0  0  0  0
 16 17  1  0  0  0  0
 16 18  1  0  0  0  0
 16 19  1  0  0  0  0
 14 15  1  0  0  0  0
 14 16  1  0  0  0  0
 14 20  1  0  0  0  0
 11 12  1  0  0  0  0
 11 13  1  0  0  0  0
 11 14  1  0  0  0  0
  9 10  1  0  0  0  0
  9 11  1  0  0  0  0
  9 24  1  0  0  0  0
  7  8  1  0  0  0  0
  7  9  1  0  0  0  0
 28 29  1  0  0  0  0
 28 30  1  0  0  0  0
 28 31  1  0  0  0  0
 26 27  1  0  0  0  0
 26 28  1  0  0  0  0
M  END
$$$$
default_name
  -OEChem-01062215323D

 31 30  0     1  0  0  0  0  0999 V2000
   -3.5895   -3.5013    1.1082 H   0  0  0  0  0  0  0  0  0  0  0  0
   -3.5145   -2.5363    0.6082 C   0  0  0  0  0  0  0  0  0  0  0  0
   -4.2285   -1.8413    1.0452 H   0  0  0  0  0  0  0  0  0  0  0  0
   -3.7155   -2.6583   -0.4538 H   0  0  0  0  0  0  0  0  0  0  0  0
   -2.1155   -1.9963    0.7922 C   0  0  0  0  0  0  0  0  0  0  0  0
   -1.2875   -2.6383    1.4252 O   0  0  0  0  0  0  0  0  0  0  0  0
   -1.8575   -0.8123    0.2402 N   0  0  0  0  0  0  0  0  0  0  0  0
   -2.6005   -0.3333   -0.2478 H   0  0  0  0  0  0  0  0  0  0  0  0
   -0.5675   -0.1203    0.3102 C   0  0  1  0  0  0  0  0  0  0  0  0
   -0.7271    0.8533    0.7748 H   0  0  0  0  0  0  0  0  0  0  0  0
    0.3865   -0.9481    1.1967 C   0  0  0  0  0  0  0  0  0  0  0  0
    0.4565   -1.9571    0.7859 H   0  0  0  0  0  0  0  0  0  0  0  0
    1.3794   -0.4969    1.1366 H   0  0  0  0  0  0  0  0  0  0  0  0
   -0.0029   -1.0535    2.6826 C   0  0  0  0  0  0  0  0  0  0  0  0
   -1.0324   -1.4009    2.7697 H   0  0  0  0  0  0  0  0  0  0  0  0
    0.9119   -2.0085    3.4549 C   0  0  0  0  0  0  0  0  0  0  0  0
    1.9490   -1.6828    3.3638 H   0  0  0  0  0  0  0  0  0  0  0  0
    0.6313   -2.0141    4.5084 H   0  0  0  0  0  0  0  0  0  0  0  0
    0.8225   -3.0218    3.0695 H   0  0  0  0  0  0  0  0  0  0  0  0
    0.0889    0.3234    3.3393 C   0  0  0  0  0  0  0  0  0  0  0  0
   -0.5780    1.0182    2.8290 H   0  0  0  0  0  0  0  0  0  0  0  0
   -0.2129    0.2565    4.3845 H   0  0  0  0  0  0  0  0  0  0  0  0
    1.1112    0.6989    3.2832 H   0  0  0  0  0  0  0  0  0  0  0  0
   -0.0083    0.1057   -1.1049 C   0  0  0  0  0  0  0  0  0  0  0  0
    0.9262   -0.5785   -1.5156 O   0  0  0  0  0  0  0  0  0  0  0  0
   -0.5732    1.0708   -1.8420 N   0  0  0  0  0  0  0  0  0  0  0  0
   -1.3394    1.5850   -1.4376 H   0  0  0  0  0  0  0  0  0  0  0  0
   -0.1464    1.4188   -3.1953 C   0  0  0  0  0  0  0  0  0  0  0  0
   -0.2340    0.5456   -3.8457 H   0  0  0  0  0  0  0  0  0  0  0  0
   -0.7649    2.2256   -3.5917 H   0  0  0  0  0  0  0  0  0  0  0  0
    0.8971    1.7373   -3.1821 H   0  0  0  0  0  0  0  0  0  0  0  0
  5  6  2  0  0  0  0
  5  7  1  0  0  0  0
  2  3  1  0  0  0  0
  2  4  1  0  0  0  0
  2  5  1  0  0  0  0
  1  2  1  0  0  0  0
 24 25  2  0  0  0  0
 24 26  1  0  0  0  0
 20 21  1  0  0  0  0
 20 22  1  0  0  0  0
 20 23  1  0  0  0  0
 16 17  1  0  0  0  0
 16 18  1  0  0  0  0
 16 19  1  0  0  0  0
 14 15  1  0  0  0  0
 14 16  1  0  0  0  0
 14 20  1  0  0  0  0
 11 12  1  0  0  0  0
 11 13  1  0  0  0  0
 11 14  1  0  0  0  0
  9 10  1  0  0  0  0
  9 11  1  0  0  0  0
  9 24  1  0  0  0  0
  7  8  1  0  0  0  0
  7  9  1  0  0  0  0
 28 29  1  0  0  0  0
 28 30  1  0  0  0  0
 28 31  1  0  0  0  0
 26 27  1  0  0  0  0
 26 28  1  0  0  0  0
M  END
$$$$
default_name
  -OEChem-01062215323D

 31 30  0     1  0  0  0  0  0999 V2000
   -3.5895   -3.5013    1.1082 H   0  0  0  0  0  0  0  0  0  0  0  0
   -3.5145   -2.5363    0.6082 C   0  0  0  0  0  0  0  0  0  0  0  0
   -4.2285   -1.8413    1.0452 H   0  0  0  0  0  0  0  0  0  0  0  0
   -3.7155   -2.6583   -0.4538 H   0  0  0  0  0  0  0  0  0  0  0  0
   -2.1155   -1.9963    0.7922 C   0  0  0  0  0  0  0  0  0  0  0  0
   -1.2875   -2.6383    1.4252 O   0  0  0  0  0  0  0  0  0  0  0  0
   -1.8575   -0.8123    0.2402 N   0  0  0  0  0  0  0  0  0  0  0  0
   -2.6005   -0.3333   -0.2478 H   0  0  0  0  0  0  0  0  0  0  0  0
   -0.5675   -0.1203    0.3102 C   0  0  1  0  0  0  0  0  0  0  0  0
   -0.7271    0.8533    0.7748 H   0  0  0  0  0  0  0  0  0  0  0  0
    0.3865   -0.9481    1.1967 C   0  0  0  0  0  0  0  0  0  0  0  0
    0.4565   -1.9571    0.7859 H   0  0  0  0  0  0  0  0  0  0  0  0
    1.3794   -0.4969    1.1366 H   0  0  0  0  0  0  0  0  0  0  0  0
   -0.0029   -1.0535    2.6826 C   0  0  0  0  0  0  0  0  0  0  0  0
   -1.0324   -1.4009    2.7697 H   0  0  0  0  0  0  0  0  0  0  0  0
    0.9119   -2.0085    3.4549 C   0  0  0  0  0  0  0  0  0  0  0  0
    1.9490   -1.6828    3.3638 H   0  0  0  0  0  0  0  0  0  0  0  0
    0.6313   -2.0141    4.5084 H   0  0  0  0  0  0  0  0  0  0  0  0
    0.8225   -3.0218    3.0695 H   0  0  0  0  0  0  0  0  0  0  0  0
    0.0889    0.3234    3.3393 C   0  0  0  0  0  0  0  0  0  0  0  0
   -0.5780    1.0182    2.8290 H   0  0  0  0  0  0  0  0  0  0  0  0
   -0.2129    0.2565    4.3845 H   0  0  0  0  0  0  0  0  0  0  0  0
    1.1112    0.6989    3.2832 H   0  0  0  0  0  0  0  0  0  0  0  0
   -0.0083    0.1057   -1.1049 C   0  0  0  0  0  0  0  0  0  0  0  0
    0.7235   -0.7359   -1.6209 O   0  0  0  0  0  0  0  0  0  0  0  0
   -0.3446    1.2448   -1.7239 N   0  0  0  0  0  0  0  0  0  0  0  0
   -0.9540    1.8830   -1.2378 H   0  0  0  0  0  0  0  0  0  0  0  0
    0.1170    1.6140   -3.0601 C   0  0  0  0  0  0  0  0  0  0  0  0
   -0.1948    0.8548   -3.7808 H   0  0  0  0  0  0  0  0  0  0  0  0
   -0.3002    2.5791   -3.3516 H   0  0  0  0  0  0  0  0  0  0  0  0
    1.2065    1.6740   -3.0700 H   0  0  0  0  0  0  0  0  0  0  0  0
  5  6  2  0  0  0  0
  5  7  1  0  0  0  0
  2  3  1  0  0  0  0
  2  4  1  0  0  0  0
  2  5  1  0  0  0  0
  1  2  1  0  0  0  0
 24 25  2  0  0  0  0
 24 26  1  0  0  0  0
 20 21  1  0  0  0  0
 20 22  1  0  0  0  0
 20 23  1  0  0  0  0
 16 17  1  0  0  0  0
 16 18  1  0  0  0  0
 16 19  1  0  0  0  0
 14 15  1  0  0  0  0
 14 16  1  0  0  0  0
 14 20  1  0  0  0  0
 11 12  1  0  0  0  0
 11 13  1  0  0  0  0
 11 14  1  0  0  0  0
  9 10  1  0  0  0  0
  9 11  1  0  0  0  0
  9 24  1  0  0  0  0
  7  8  1  0  0  0  0
  7  9  1  0  0  0  0
 28 29  1  0  0  0  0
 28 30  1  0  0  0  0
 28 31  1  0  0  0  0
 26 27  1  0  0  0  0
 26 28  1  0  0  0  0
M  END
$$$$
default_name
  -OEChem-01062215323D

 31 30  0     1  0  0  0  0  0999 V2000
   -3.5895   -3.5013    1.1082 H   0  0  0  0  0  0  0  0  0  0  0  0
   -3.5145   -2.5363    0.6082 C   0  0  0  0  0  0  0  0  0  0  0  0
   -4.2285   -1.8413    1.0452 H   0  0  0  0  0  0  0  0  0  0  0  0
   -3.7155   -2.6583   -0.4538 H   0  0  0  0  0  0  0  0  0  0  0  0
   -2.1155   -1.9963    0.7922 C   0  0  0  0  0  0  0  0  0  0  0  0
   -1.2875   -2.6383    1.4252 O   0  0  0  0  0  0  0  0  0  0  0  0
   -1.8575   -0.8123    0.2402 N   0  0  0  0  0  0  0  0  0  0  0  0
   -2.6005   -0.3333   -0.2478 H   0  0  0  0  0  0  0  0  0  0  0  0
   -0.5675   -0.1203    0.3102 C   0  0  1  0  0  0  0  0  0  0  0  0
   -0.7271    0.8533    0.7748 H   0  0  0  0  0  0  0  0  0  0  0  0
    0.3865   -0.9481    1.1967 C   0  0  0  0  0  0  0  0  0  0  0  0
    0.4565   -1.9571    0.7859 H   0  0  0  0  0  0  0  0  0  0  0  0
    1.3794   -0.4969    1.1366 H   0  0  0  0  0  0  0  0  0  0  0  0
   -0.0029   -1.0535    2.6826 C   0  0  0  0  0  0  0  0  0  0  0  0
   -1.0324   -1.4009    2.7697 H   0  0  0  0  0  0  0  0  0  0  0  0
    0.9119   -2.0085    3.4549 C   0  0  0  0  0  0  0  0  0  0  0  0
    1.9490   -1.6828    3.3638 H   0  0  0  0  0  0  0  0  0  0  0  0
    0.6313   -2.0141    4.5084 H   0  0  0  0  0  0  0  0  0  0  0  0
    0.8225   -3.0218    3.0695 H   0  0  0  0  0  0  0  0  0  0  0  0
    0.0889    0.3234    3.3393 C   0  0  0  0  0  0  0  0  0  0  0  0
   -0.5780    1.0182    2.8290 H   0  0  0  0  0  0  0  0  0  0  0  0
   -0.2129    0.2565    4.3845 H   0  0  0  0  0  0  0  0  0  0  0  0
    1.1112    0.6989    3.2832 H   0  0  0  0  0  0  0  0  0  0  0  0
   -0.0083    0.1057   -1.1049 C   0  0  0  0  0  0  0  0  0  0  0  0
    0.4862   -0.8298   -1.7297 O   0  0  0  0  0  0  0  0  0  0  0  0
   -0.0778    1.3474   -1.6021 N   0  0  0  0  0  0  0  0  0  0  0  0
   -0.5032    2.0603   -1.0313 H   0  0  0  0  0  0  0  0  0  0  0  0
    0.4231    1.7271   -2.9211 C   0  0  0  0  0  0  0  0  0  0  0  0
   -0.0809    1.1379   -3.6906 H   0  0  0  0  0  0  0  0  0  0  0  0
    0.2420    2.7873   -3.1041 H   0  0  0  0  0  0  0  0  0  0  0  0
    1.4945    1.5286   -2.9794 H   0  0  0  0  0  0  0  0  0  0  0  0
  5  6  2  0  0  0  0
  5  7  1  0  0  0  0
  2  3  1  0  0  0  0
  2  4  1  0  0  0  0
  2  5  1  0  0  0  0
  1  2  1  0  0  0  0
 24 25  2  0  0  0  0
 24 26  1  0  0  0  0
 20 21  1  0  0  0  0
 20 22  1  0  0  0  0
 20 23  1  0  0  0  0
 16 17  1  0  0  0  0
 16 18  1  0  0  0  0
 16 19  1  0  0  0  0
 14 15  1  0  0  0  0
 14 16  1  0  0  0  0
 14 20  1  0  0  0  0
 11 12  1  0  0  0  0
 11 13  1  0  0  0  0
 11 14  1  0  0  0  0
  9 10  1  0  0  0  0
  9 11  1  0  0  0  0
  9 24  1  0  0  0  0
  7  8  1  0  0  0  0
  7  9  1  0  0  0  0
 28 29  1  0  0  0  0
 28 30  1  0  0  0  0
 28 31  1  0  0  0  0
 26 27  1  0  0  0  0
 26 28  1  0  0  0  0
M  END
$$$$
default_name
  -OEChem-01062215323D

 31 30  0     1  0  0  0  0  0999 V2000
   -3.5895   -3.5013    1.1082 H   0  0  0  0  0  0  0  0  0  0  0  0
   -3.5145   -2.5363    0.6082 C   0  0  0  0  0  0  0  0  0  0  0  0
   -4.2285   -1.8413    1.0452 H   0  0  0  0  0  0  0  0  0  0  0  0
   -3.7155   -2.6583   -0.4538 H   0  0  0  0  0  0  0  0  0  0  0  0
   -2.1155   -1.9963    0.7922 C   0  0  0  0  0  0  0  0  0  0  0  0
   -1.2875   -2.6383    1.4252 O   0  0  0  0  0  0  0  0  0  0  0  0
   -1.8575   -0.8123    0.2402 N   0  0  0  0  0  0  0  0  0  0  0  0
   -2.6005   -0.3333   -0.2478 H   0  0  0  0  0  0  0  0  0  0  0  0
   -0.5675   -0.1203    0.3102 C   0  0  1  0  0  0  0  0  0  0  0  0
   -0.7271    0.8533    0.7748 H   0  0  0  0  0  0  0  0  0  0  0  0
    0.3865   -0.9481    1.1967 C   0  0  0  0  0  0  0  0  0  0  0  0
    0.4565   -1.9571    0.7859 H   0  0  0  0  0  0  0  0  0  0  0  0
    1.3794   -0.4969    1.1366 H   0  0  0  0  0  0  0  0  0  0  0  0
   -0.0029   -1.0535    2.6826 C   0  0  0  0  0  0  0  0  0  0  0  0
   -1.0324   -1.4009    2.7697 H   0  0  0  0  0  0  0  0  0  0  0  0
    0.9119   -2.0085    3.4549 C   0  0  0  0  0  0  0  0  0  0  0  0
    1.9490   -1.6828    3.3638 H   0  0  0  0  0  0  0  0  0  0  0  0
    0.6313   -2.0141    4.5084 H   0  0  0  0  0  0  0  0  0  0  0  0
    0.8225   -3.0218    3.0695 H   0  0  0  0  0  0  0  0  0  0  0  0
    0.0889    0.3234    3.3393 C   0  0  0  0  0  0  0  0  0  0  0  0
   -0.5780    1.0182    2.8290 H   0  0  0  0  0  0  0  0  0  0  0  0
   -0.2129    0.2565    4.3845 H   0  0  0  0  0  0  0  0  0  0  0  0
    1.1112    0.6989    3.2832 H   0  0  0  0  0  0  0  0  0  0  0  0
   -0.0083    0.1057   -1.1049 C   0  0  0  0  0  0  0  0  0  0  0  0
    0.2304   -0.8538   -1.8345 O   0  0  0  0  0  0  0  0  0  0  0  0
    0.2089    1.3715   -1.4850 N   0  0  0  0  0  0  0  0  0  0  0  0
   -0.0176    2.1048   -0.8323 H   0  0  0  0  0  0  0  0  0  0  0  0
    0.7510    1.7503   -2.7878 C   0  0  0  0  0  0  0  0  0  0  0  0
    0.1000    1.3759   -3.5811 H   0  0  0  0  0  0  0  0  0  0  0  0
    0.8247    2.8361   -2.8660 H   0  0  0  0  0  0  0  0  0  0  0  0
    1.7415    1.3111   -2.9166 H   0  0  0  0  0  0  0  0  0  0  0  0
  5  6  2  0  0  0  0
  5  7  1  0  0  0  0
  2  3  1  0  0  0  0
  2  4  1  0  0  0  0
  2  5  1  0  0  0  0
  1  2  1  0  0  0  0
 24 25  2  0  0  0  0
 24 26  1  0  0  0  0
 20 21  1  0  0  0  0
 20 22  1  0  0  0  0
 20 23  1  0  0  0  0
 16 17  1  0  0  0  0
 16 18  1  0  0  0  0
 16 19  1  0  0  0  0
 14 15  1  0  0  0  0
 14 16  1  0  0  0  0
 14 20  1  0  0  0  0
 11 12  1  0  0  0  0
 11 13  1  0  0  0  0
 11 14  1  0  0  0  0
  9 10  1  0  0  0  0
  9 11  1  0  0  0  0
  9 24  1  0  0  0  0
  7  8  1  0  0  0  0
  7  9  1  0  0  0  0
 28 29  1  0  0  0  0
 28 30  1  0  0  0  0
 28 31  1  0  0  0  0
 26 27  1  0  0  0  0
 26 28  1  0  0  0  0
M  END
$$$$
default_name
  -OEChem-01062215323D

 31 30  0     1  0  0  0  0  0999 V2000
   -3.5895   -3.5013    1.1082 H   0  0  0  0  0  0  0  0  0  0  0  0
   -3.5145   -2.5363    0.6082 C   0  0  0  0  0  0  0  0  0  0  0  0
   -4.2285   -1.8413    1.0452 H   0  0  0  0  0  0  0  0  0  0  0  0
   -3.7155   -2.6583   -0.4538 H   0  0  0  0  0  0  0  0  0  0  0  0
   -2.1155   -1.9963    0.7922 C   0  0  0  0  0  0  0  0  0  0  0  0
   -1.2875   -2.6383    1.4252 O   0  0  0  0  0  0  0  0  0  0  0  0
   -1.8575   -0.8123    0.2402 N   0  0  0  0  0  0  0  0  0  0  0  0
   -2.6005   -0.3333   -0.2478 H   0  0  0  0  0  0  0  0  0  0  0  0
   -0.5675   -0.1203    0.3102 C   0  0  1  0  0  0  0  0  0  0  0  0
   -0.7271    0.8533    0.7748 H   0  0  0  0  0  0  0  0  0  0  0  0
    0.3865   -0.9481    1.1967 C   0  0  0  0  0  0  0  0  0  0  0  0
    0.4565   -1.9571    0.7859 H   0  0  0  0  0  0  0  0  0  0  0  0
    1.3794   -0.4969    1.1366 H   0  0  0  0  0  0  0  0  0  0  0  0
   -0.0029   -1.0535    2.6826 C   0  0  0  0  0  0  0  0  0  0  0  0
   -1.0324   -1.4009    2.7697 H   0  0  0  0  0  0  0  0  0  0  0  0
    0.9119   -2.0085    3.4549 C   0  0  0  0  0  0  0  0  0  0  0  0
    1.9490   -1.6828    3.3638 H   0  0  0  0  0  0  0  0  0  0  0  0
    0.6313   -2.0141    4.5084 H   0  0  0  0  0  0  0  0  0  0  0  0
    0.8225   -3.0218    3.0695 H   0  0  0  0  0  0  0  0  0  0  0  0
    0.0889    0.3234    3.3393 C   0  0  0  0  0  0  0  0  0  0  0  0
   -0.5780    1.0182    2.8290 H   0  0  0  0  0  0  0  0  0  0  0  0
   -0.2129    0.2565    4.3845 H   0  0  0  0  0  0  0  0  0  0  0  0
    1.1112    0.6989    3.2832 H   0  0  0  0  0  0  0  0  0  0  0  0
   -0.0083    0.1057   -1.1049 C   0  0  0  0  0  0  0  0  0  0  0  0
   -0.0263   -0.8062   -1.9284 O   0  0  0  0  0  0  0  0  0  0  0  0
    0.4960    1.3155   -1.3805 N   0  0  0  0  0  0  0  0  0  0  0  0
    0.4695    2.0134   -0.6544 H   0  0  0  0  0  0  0  0  0  0  0  0
    1.0782    1.6822   -2.6694 C   0  0  0  0  0  0  0  0  0  0  0  0
    0.3356    1.5523   -3.4598 H   0  0  0  0  0  0  0  0  0  0  0  0
    1.4082    2.7220   -2.6537 H   0  0  0  0  0  0  0  0  0  0  0  0
    1.9307    1.0363   -2.8857 H   0  0  0  0  0  0  0  0  0  0  0  0
  5  6  2  0  0  0  0
  5  7  1  0  0  0  0
  2  3  1  0  0  0  0
  2  4  1  0  0  0  0
  2  5  1  0  0  0  0
  1  2  1  0  0  0  0
 24 25  2  0  0  0  0
 24 26  1  0  0  0  0
 20 21  1  0  0  0  0
 20 22  1  0  0  0  0
 20 23  1  0  0  0  0
 16 17  1  0  0  0  0
 16 18  1  0  0  0  0
 16 19  1  0  0  0  0
 14 15  1  0  0  0  0
 14 16  1  0  0  0  0
 14 20  1  0  0  0  0
 11 12  1  0  0  0  0
 11 13  1  0  0  0  0
 11 14  1  0  0  0  0
  9 10  1  0  0  0  0
  9 11  1  0  0  0  0
  9 24  1  0  0  0  0
  7  8  1  0  0  0  0
  7  9  1  0  0  0  0
 28 29  1  0  0  0  0
 28 30  1  0  0  0  0
 28 31  1  0  0  0  0
 26 27  1  0  0  0  0
 26 28  1  0  0  0  0
M  END
$$$$
default_name
  -OEChem-01062215323D

 31 30  0     1  0  0  0  0  0999 V2000
   -3.5895   -3.5013    1.1082 H   0  0  0  0  0  0  0  0  0  0  0  0
   -3.5145   -2.5363    0.6082 C   0  0  0  0  0  0  0  0  0  0  0  0
   -4.2285   -1.8413    1.0452 H   0  0  0  0  0  0  0  0  0  0  0  0
   -3.7155   -2.6583   -0.4538 H   0  0  0  0  0  0  0  0  0  0  0  0
   -2.1155   -1.9963    0.7922 C   0  0  0  0  0  0  0  0  0  0  0  0
   -1.2875   -2.6383    1.4252 O   0  0  0  0  0  0  0  0  0  0  0  0
   -1.8575   -0.8123    0.2402 N   0  0  0  0  0  0  0  0  0  0  0  0
   -2.6005   -0.3333   -0.2478 H   0  0  0  0  0  0  0  0  0  0  0  0
   -0.5675   -0.1203    0.3102 C   0  0  1  0  0  0  0  0  0  0  0  0
   -0.7271    0.8533    0.7748 H   0  0  0  0  0  0  0  0  0  0  0  0
    0.3865   -0.9481    1.1967 C   0  0  0  0  0  0  0  0  0  0  0  0
    0.4565   -1.9571    0.7859 H   0  0  0  0  0  0  0  0  0  0  0  0
    1.3794   -0.4969    1.1366 H   0  0  0  0  0  0  0  0  0  0  0  0
   -0.0029   -1.0535    2.6826 C   0  0  0  0  0  0  0  0  0  0  0  0
   -1.0324   -1.4009    2.7697 H   0  0  0  0  0  0  0  0  0  0  0  0
    0.9119   -2.0085    3.4549 C   0  0  0  0  0  0  0  0  0  0  0  0
    1.9490   -1.6828    3.3638 H   0  0  0  0  0  0  0  0  0  0  0  0
    0.6313   -2.0141    4.5084 H   0  0  0  0  0  0  0  0  0  0  0  0
    0.8225   -3.0218    3.0695 H   0  0  0  0  0  0  0  0  0  0  0  0
    0.0889    0.3234    3.3393 C   0  0  0  0  0  0  0  0  0  0  0  0
   -0.5780    1.0182    2.8290 H   0  0  0  0  0  0  0  0  0  0  0  0
   -0.2129    0.2565    4.3845 H   0  0  0  0  0  0  0  0  0  0  0  0
    1.1112    0.6989    3.2832 H   0  0  0  0  0  0  0  0  0  0  0  0
   -0.0083    0.1057   -1.1049 C   0  0  0  0  0  0  0  0  0  0  0  0
   -0.2665   -0.6903   -2.0048 O   0  0  0  0  0  0  0  0  0  0  0  0
    0.7640    1.1832   -1.2957 N   0  0  0  0  0  0  0  0  0  0  0  0
    0.9251    1.7925   -0.5097 H   0  0  0  0  0  0  0  0  0  0  0  0
    1.3827    1.5273   -2.5738 C   0  0  0  0  0  0  0  0  0  0  0  0
    0.6098    1.6552   -3.3350 H   0  0  0  0  0  0  0  0  0  0  0  0
    1.9528    2.4530   -2.4815 H   0  0  0  0  0  0  0  0  0  0  0  0
    2.0492    0.7229   -2.8889 H   0  0  0  0  0  0  0  0  0  0  0  0
  5  6  2  0  0  0  0
  5  7  1  0  0  0  0
  2  3  1  0  0  0  0
  2  4  1  0  0  0  0
  2  5  1  0  0  0  0
  1  2  1  0  0  0  0
 24 25  2  0  0  0  0
 24 26  1  0  0  0  0
 20 21  1  0  0  0  0
 20 22  1  0  0  0  0
 20 23  1  0  0  0  0
 16 17  1  0  0  0  0
 16 18  1  0  0  0  0
 16 19  1  0  0  0  0
 14 15  1  0  0  0  0
 14 16  1  0  0  0  0
 14 20  1  0  0  0  0
 11 12  1  0  0  0  0
 11 13  1  0  0  0  0
 11 14  1  0  0  0  0
  9 10  1  0  0  0  0
  9 11  1  0  0  0  0
  9 24  1  0  0  0  0
  7  8  1  0  0  0  0
  7  9  1  0  0  0  0
 28 29  1  0  0  0  0
 28 30  1  0  0  0  0
 28 31  1  0  0  0  0
 26 27  1  0  0  0  0
 26 28  1  0  0  0  0
M  END
$$$$
default_name
  -OEChem-01062215323D

 31 30  0     1  0  0  0  0  0999 V2000
   -3.5895   -3.5013    1.1082 H   0  0  0  0  0  0  0  0  0  0  0  0
   -3.5145   -2.5363    0.6082 C   0  0  0  0  0  0  0  0  0  0  0  0
   -4.2285   -1.8413    1.0452 H   0  0  0  0  0  0  0  0  0  0  0  0
   -3.7155   -2.6583   -0.4538 H   0  0  0  0  0  0  0  0  0  0  0  0
   -2.1155   -1.9963    0.7922 C   0  0  0  0  0  0  0  0  0  0  0  0
   -1.2875   -2.6383    1.4252 O   0  0  0  0  0  0  0  0  0  0  0  0
   -1.8575   -0.8123    0.2402 N   0  0  0  0  0  0  0  0  0  0  0  0
   -2.6005   -0.3333   -0.2478 H   0  0  0  0  0  0  0  0  0  0  0  0
   -0.5675   -0.1203    0.3102 C   0  0  1  0  0  0  0  0  0  0  0  0
   -0.7271    0.8533    0.7748 H   0  0  0  0  0  0  0  0  0  0  0  0
    0.3865   -0.9481    1.1967 C   0  0  0  0  0  0  0  0  0  0  0  0
    0.4565   -1.9571    0.7859 H   0  0  0  0  0  0  0  0  0  0  0  0
    1.3794   -0.4969    1.1366 H   0  0  0  0  0  0  0  0  0  0  0  0
   -0.0029   -1.0535    2.6826 C   0  0  0  0  0  0  0  0  0  0  0  0
   -1.0324   -1.4009    2.7697 H   0  0  0  0  0  0  0  0  0  0  0  0
    0.9119   -2.0085    3.4549 C   0  0  0  0  0  0  0  0  0  0  0  0
    1.9490   -1.6828    3.3638 H   0  0  0  0  0  0  0  0  0  0  0  0
    0.6313   -2.0141    4.5084 H   0  0  0  0  0  0  0  0  0  0  0  0
    0.8225   -3.0218    3.0695 H   0  0  0  0  0  0  0  0  0  0  0  0
    0.0889    0.3234    3.3393 C   0  0  0  0  0  0  0  0  0  0  0  0
   -0.5780    1.0182    2.8290 H   0  0  0  0  0  0  0  0  0  0  0  0
   -0.2129    0.2565    4.3845 H   0  0  0  0  0  0  0  0  0  0  0  0
    1.1112    0.6989    3.2832 H   0  0  0  0  0  0  0  0  0  0  0  0
   -0.0083    0.1057   -1.1049 C   0  0  0  0  0  0  0  0  0  0  0  0
   -0.4738   -0.5140   -2.0585 O   0  0  0  0  0  0  0  0  0  0  0  0
    0.9946    0.9836   -1.2364 N   0  0  0  0  0  0  0  0  0  0  0  0
    1.3180    1.4570   -0.4080 H   0  0  0  0  0  0  0  0  0  0  0  0
    1.6435    1.2962   -2.5077 C   0  0  0  0  0  0  0  0  0  0  0  0
    0.9038    1.6776   -3.2152 H   0  0  0  0  0  0  0  0  0  0  0  0
    2.4213    2.0472   -2.3612 H   0  0  0  0  0  0  0  0  0  0  0  0
    2.0889    0.3923   -2.9260 H   0  0  0  0  0  0  0  0  0  0  0  0
  5  6  2  0  0  0  0
  5  7  1  0  0  0  0
  2  3  1  0  0  0  0
  2  4  1  0  0  0  0
  2  5  1  0  0  0  0
  1  2  1  0  0  0  0
 24 25  2  0  0  0  0
 24 26  1  0  0  0  0
 20 21  1  0  0  0  0
 20 22  1  0  0  0  0
 20 23  1  0  0  0  0
 16 17  1  0  0  0  0
 16 18  1  0  0  0  0
 16 19  1  0  0  0  0
 14 15  1  0  0  0  0
 14 16  1  0  0  0  0
 14 20  1  0  0  0  0
 11 12  1  0  0  0  0
 11 13  1  0  0  0  0
 11 14  1  0  0  0  0
  9 10  1  0  0  0  0
  9 11  1  0  0  0  0
  9 24  1  0  0  0  0
  7  8  1  0  0  0  0
  7  9  1  0  0  0  0
 28 29  1  0  0  0  0
 28 30  1  0  0  0  0
 28 31  1  0  0  0  0
 26 27  1  0  0  0  0
 26 28  1  0  0  0  0
M  END
$$$$
default_name
  -OEChem-01062215323D

 31 30  0     1  0  0  0  0  0999 V2000
   -3.5895   -3.5013    1.1082 H   0  0  0  0  0  0  0  0  0  0  0  0
   -3.5145   -2.5363    0.6082 C   0  0  0  0  0  0  0  0  0  0  0  0
   -4.2285   -1.8413    1.0452 H   0  0  0  0  0  0  0  0  0  0  0  0
   -3.7155   -2.6583   -0.4538 H   0  0  0  0  0  0  0  0  0  0  0  0
   -2.1155   -1.9963    0.7922 C   0  0  0  0  0  0  0  0  0  0  0  0
   -1.2875   -2.6383    1.4252 O   0  0  0  0  0  0  0  0  0  0  0  0
   -1.8575   -0.8123    0.2402 N   0  0  0  0  0  0  0  0  0  0  0  0
   -2.6005   -0.3333   -0.2478 H   0  0  0  0  0  0  0  0  0  0  0  0
   -0.5675   -0.1203    0.3102 C   0  0  1  0  0  0  0  0  0  0  0  0
   -0.6667    0.7178    1.0008 H   0  0  0  0  0  0  0  0  0  0  0  0
    0.4873   -1.1021    0.8621 C   0  0  0  0  0  0  0  0  0  0  0  0
    0.5042   -1.9894    0.2262 H   0  0  0  0  0  0  0  0  0  0  0  0
    1.4660   -0.6229    0.7873 H   0  0  0  0  0  0  0  0  0  0  0  0
    0.2844   -1.5524    2.3205 C   0  0  0  0  0  0  0  0  0  0  0  0
   -0.7270   -1.9377    2.4495 H   0  0  0  0  0  0  0  0  0  0  0  0
    1.2860   -2.6332    2.7377 C   0  0  0  0  0  0  0  0  0  0  0  0
    2.3044   -2.2680    2.5989 H   0  0  0  0  0  0  0  0  0  0  0  0
    1.1377   -2.8854    3.7880 H   0  0  0  0  0  0  0  0  0  0  0  0
    1.1478   -3.5346    2.1445 H   0  0  0  0  0  0  0  0  0  0  0  0
    0.4592   -0.3587    3.2585 C   0  0  0  0  0  0  0  0  0  0  0  0
   -0.2645    0.4159    3.0049 H   0  0  0  0  0  0  0  0  0  0  0  0
    0.2888   -0.6691    4.2893 H   0  0  0  0  0  0  0  0  0  0  0  0
    1.4674    0.0467    3.1667 H   0  0  0  0  0  0  0  0  0  0  0  0
   -0.1871    0.4358   -1.0726 C   0  0  0  0  0  0  0  0  0  0  0  0
   -0.9301    0.2575   -2.0351 O   0  0  0  0  0  0  0  0  0  0  0  0
    0.9727    1.0984   -1.1708 N   0  0  0  0  0  0  0  0  0  0  0  0
    1.5244    1.2087   -0.3351 H   0  0  0  0  0  0  0  0  0  0  0  0
    1.4820    1.6713   -2.4147 C   0  0  0  0  0  0  0  0  0  0  0  0
    0.7647    2.3950   -2.8083 H   0  0  0  0  0  0  0  0  0  0  0  0
    2.4362    2.1703   -2.2389 H   0  0  0  0  0  0  0  0  0  0  0  0
    1.6188    0.8816   -3.1552 H   0  0  0  0  0  0  0  0  0  0  0  0
  5  6  2  0  0  0  0
  5  7  1  0  0  0  0
  2  3  1  0  0  0  0
  2  4  1  0  0  0  0
  2  5  1  0  0  0  0
  1  2  1  0  0  0  0
 24 25  2  0  0  0  0
 24 26  1  0  0  0  0
 20 21  1  0  0  0  0
 20 22  1  0  0  0  0
 20 23  1  0  0  0  0
 16 17  1  0  0  0  0
 16 18  1  0  0  0  0
 16 19  1  0  0  0  0
 14 15  1  0  0  0  0
 14 16  1  0  0  0  0
 14 20  1  0  0  0  0
 11 12  1  0  0  0  0
 11 13  1  0  0  0  0
 11 14  1  0  0  0  0
  9 10  1  0  0  0  0
  9 11  1  0  0  0  0
  9 24  1  0  0  0  0
  7  8  1  0  0  0  0
  7  9  1  0  0  0  0
 28 29  1  0  0  0  0
 28 30  1  0  0  0  0
 28 31  1  0  0  0  0
 26 27  1  0  0  0  0
 26 28  1  0  0  0  0
M  END
$$$$
default_name
  -OEChem-01062215323D

 31 30  0     1  0  0  0  0  0999 V2000
   -3.5895   -3.5013    1.1082 H   0  0  0  0  0  0  0  0  0  0  0  0
   -3.5145   -2.5363    0.6082 C   0  0  0  0  0  0  0  0  0  0  0  0
   -4.2285   -1.8413    1.0452 H   0  0  0  0  0  0  0  0  0  0  0  0
   -3.7155   -2.6583   -0.4538 H   0  0  0  0  0  0  0  0  0  0  0  0
   -2.1155   -1.9963    0.7922 C   0  0  0  0  0  0  0  0  0  0  0  0
   -1.2875   -2.6383    1.4252 O   0  0  0  0  0  0  0  0  0  0  0  0
   -1.8575   -0.8123    0.2402 N   0  0  0  0  0  0  0  0  0  0  0  0
   -2.6005   -0.3333   -0.2478 H   0  0  0  0  0  0  0  0  0  0  0  0
   -0.5675   -0.1203    0.3102 C   0  0  1  0  0  0  0  0  0  0  0  0
   -0.6667    0.7178    1.0008 H   0  0  0  0  0  0  0  0  0  0  0  0
    0.4873   -1.1021    0.8621 C   0  0  0  0  0  0  0  0  0  0  0  0
    0.5042   -1.9894    0.2262 H   0  0  0  0  0  0  0  0  0  0  0  0
    1.4660   -0.6229    0.7873 H   0  0  0  0  0  0  0  0  0  0  0  0
    0.2844   -1.5524    2.3205 C   0  0  0  0  0  0  0  0  0  0  0  0
   -0.7270   -1.9377    2.4495 H   0  0  0  0  0  0  0  0  0  0  0  0
    1.2860   -2.6332    2.7377 C   0  0  0  0  0  0  0  0  0  0  0  0
    2.3044   -2.2680    2.5989 H   0  0  0  0  0  0  0  0  0  0  0  0
    1.1377   -2.8854    3.7880 H   0  0  0  0  0  0  0  0  0  0  0  0
    1.1478   -3.5346    2.1445 H   0  0  0  0  0  0  0  0  0  0  0  0
    0.4592   -0.3587    3.2585 C   0  0  0  0  0  0  0  0  0  0  0  0
   -0.2645    0.4159    3.0049 H   0  0  0  0  0  0  0  0  0  0  0  0
    0.2888   -0.6691    4.2893 H   0  0  0  0  0  0  0  0  0  0  0  0
    1.4674    0.0467    3.1667 H   0  0  0  0  0  0  0  0  0  0  0  0
   -0.1871    0.4358   -1.0726 C   0  0  0  0  0  0  0  0  0  0  0  0
   -1.0312    0.5057   -1.9631 O   0  0  0  0  0  0  0  0  0  0  0  0
    1.0833    0.8199   -1.2524 N   0  0  0  0  0  0  0  0  0  0  0  0
    1.7153    0.7375   -0.4722 H   0  0  0  0  0  0  0  0  0  0  0  0
    1.6044    1.3522   -2.5094 C   0  0  0  0  0  0  0  0  0  0  0  0
    1.0468    2.2487   -2.7895 H   0  0  0  0  0  0  0  0  0  0  0  0
    2.6608    1.6041   -2.4048 H   0  0  0  0  0  0  0  0  0  0  0  0
    1.4870    0.6101   -3.3006 H   0  0  0  0  0  0  0  0  0  0  0  0
  5  6  2  0  0  0  0
  5  7  1  0  0  0  0
  2  3  1  0  0  0  0
  2  4  1  0  0  0  0
  2  5  1  0  0  0  0
  1  2  1  0  0  0  0
 24 25  2  0  0  0  0
 24 26  1  0  0  0  0
 20 21  1  0  0  0  0
 20 22  1  0  0  0  0
 20 23  1  0  0  0  0
 16 17  1  0  0  0  0
 16 18  1  0  0  0  0
 16 19  1  0  0  0  0
 14 15  1  0  0  0  0
 14 16  1  0  0  0  0
 14 20  1  0  0  0  0
 11 12  1  0  0  0  0
 11 13  1  0  0  0  0
 11 14  1  0  0  0  0
  9 10  1  0  0  0  0
  9 11  1  0  0  0  0
  9 24  1  0  0  0  0
  7  8  1  0  0  0  0
  7  9  1  0  0  0  0
 28 29  1  0  0  0  0
 28 30  1  0  0  0  0
 28 31  1  0  0  0  0
 26 27  1  0  0  0  0
 26 28  1  0  0  0  0
M  END
$$$$
default_name
  -OEChem-01062215323D

 31 30  0     1  0  0  0  0  0999 V2000
   -3.5895   -3.5013    1.1082 H   0  0  0  0  0  0  0  0  0  0  0  0
   -3.5145   -2.5363    0.6082 C   0  0  0  0  0  0  0  0  0  0  0  0
   -4.2285   -1.8413    1.0452 H   0  0  0  0  0  0  0  0  0  0  0  0
   -3.7155   -2.6583   -0.4538 H   0  0  0  0  0  0  0  0  0  0  0  0
   -2.1155   -1.9963    0.7922 C   0  0  0  0  0  0  0  0  0  0  0  0
   -1.2875   -2.6383    1.4252 O   0  0  0  0  0  0  0  0  0  0  0  0
   -1.8575   -0.8123    0.2402 N   0  0  0  0  0  0  0  0  0  0  0  0
   -2.6005   -0.3333   -0.2478 H   0  0  0  0  0  0  0  0  0  0  0  0
   -0.5675   -0.1203    0.3102 C   0  0  1  0  0  0  0  0  0  0  0  0
   -0.6667    0.7178    1.0008 H   0  0  0  0  0  0  0  0  0  0  0  0
    0.4873   -1.1021    0.8621 C   0  0  0  0  0  0  0  0  0  0  0  0
    0.5042   -1.9894    0.2262 H   0  0  0  0  0  0  0  0  0  0  0  0
    1.4660   -0.6229    0.7873 H   0  0  0  0  0  0  0  0  0  0  0  0
    0.2844   -1.5524    2.3205 C   0  0  0  0  0  0  0  0  0  0  0  0
   -0.7270   -1.9377    2.4495 H   0  0  0  0  0  0  0  0  0  0  0  0
    1.2860   -2.6332    2.7377 C   0  0  0  0  0  0  0  0  0  0  0  0
    2.3044   -2.2680    2.5989 H   0  0  0  0  0  0  0  0  0  0  0  0
    1.1377   -2.8854    3.7880 H   0  0  0  0  0  0  0  0  0  0  0  0
    1.1478   -3.5346    2.1445 H   0  0  0  0  0  0  0  0  0  0  0  0
    0.4592   -0.3587    3.2585 C   0  0  0  0  0  0  0  0  0  0  0  0
   -0.2645    0.4159    3.0049 H   0  0  0  0  0  0  0  0  0  0  0  0
    0.2888   -0.6691    4.2893 H   0  0  0  0  0  0  0  0  0  0  0  0
    1.4674    0.0467    3.1667 H   0  0  0  0  0  0  0  0  0  0  0  0
   -0.1871    0.4358   -1.0726 C   0  0  0  0  0  0  0  0  0  0  0  0
   -1.0643    0.7642   -1.8682 O   0  0  0  0  0  0  0  0  0  0  0  0
    1.1177    0.5303   -1.3594 N   0  0  0  0  0  0  0  0  0  0  0  0
    1.7771    0.2466   -0.6526 H   0  0  0  0  0  0  0  0  0  0  0  0
    1.6395    1.0215   -2.6327 C   0  0  0  0  0  0  0  0  0  0  0  0
    1.2869    2.0405   -2.8072 H   0  0  0  0  0  0  0  0  0  0  0  0
    2.7305    1.0155   -2.6224 H   0  0  0  0  0  0  0  0  0  0  0  0
    1.2829    0.3877   -3.4462 H   0  0  0  0  0  0  0  0  0  0  0  0
  5  6  2  0  0  0  0
  5  7  1  0  0  0  0
  2  3  1  0  0  0  0
  2  4  1  0  0  0  0
  2  5  1  0  0  0  0
  1  2  1  0  0  0  0
 24 25  2  0  0  0  0
 24 26  1  0  0  0  0
 20 21  1  0  0  0  0
 20 22  1  0  0  0  0
 20 23  1  0  0  0  0
 16 17  1  0  0  0  0
 16 18  1  0  0  0  0
 16 19  1  0  0  0  0
 14 15  1  0  0  0  0
 14 16  1  0  0  0  0
 14 20  1  0  0  0  0
 11 12  1  0  0  0  0
 11 13  1  0  0  0  0
 11 14  1  0  0  0  0
  9 10  1  0  0  0  0
  9 11  1  0  0  0  0
  9 24  1  0  0  0  0
  7  8  1  0  0  0  0
  7  9  1  0  0  0  0
 28 29  1  0  0  0  0
 28 30  1  0  0  0  0
 28 31  1  0  0  0  0
 26 27  1  0  0  0  0
 26 28  1  0  0  0  0
M  END
$$$$
default_name
  -OEChem-01062215323D

 31 30  0     1  0  0  0  0  0999 V2000
   -3.5895   -3.5013    1.1082 H   0  0  0  0  0  0  0  0  0  0  0  0
   -3.5145   -2.5363    0.6082 C   0  0  0  0  0  0  0  0  0  0  0  0
   -4.2285   -1.8413    1.0452 H   0  0  0  0  0  0  0  0  0  0  0  0
   -3.7155   -2.6583   -0.4538 H   0  0  0  0  0  0  0  0  0  0  0  0
   -2.1155   -1.9963    0.7922 C   0  0  0  0  0  0  0  0  0  0  0  0
   -1.2875   -2.6383    1.4252 O   0  0  0  0  0  0  0  0  0  0  0  0
   -1.8575   -0.8123    0.2402 N   0  0  0  0  0  0  0  0  0  0  0  0
   -2.6005   -0.3333   -0.2478 H   0  0  0  0  0  0  0  0  0  0  0  0
   -0.5675   -0.1203    0.3102 C   0  0  1  0  0  0  0  0  0  0  0  0
   -0.6667    0.7178    1.0008 H   0  0  0  0  0  0  0  0  0  0  0  0
    0.4873   -1.1021    0.8621 C   0  0  0  0  0  0  0  0  0  0  0  0
    0.5042   -1.9894    0.2262 H   0  0  0  0  0  0  0  0  0  0  0  0
    1.4660   -0.6229    0.7873 H   0  0  0  0  0  0  0  0  0  0  0  0
    0.2844   -1.5524    2.3205 C   0  0  0  0  0  0  0  0  0  0  0  0
   -0.7270   -1.9377    2.4495 H   0  0  0  0  0  0  0  0  0  0  0  0
    1.2860   -2.6332    2.7377 C   0  0  0  0  0  0  0  0  0  0  0  0
    2.3044   -2.2680    2.5989 H   0  0  0  0  0  0  0  0  0  0  0  0
    1.1377   -2.8854    3.7880 H   0  0  0  0  0  0  0  0  0  0  0  0
    1.1478   -3.5346    2.1445 H   0  0  0  0  0  0  0  0  0  0  0  0
    0.4592   -0.3587    3.2585 C   0  0  0  0  0  0  0  0  0  0  0  0
   -0.2645    0.4159    3.0049 H   0  0  0  0  0  0  0  0  0  0  0  0
    0.2888   -0.6691    4.2893 H   0  0  0  0  0  0  0  0  0  0  0  0
    1.4674    0.0467    3.1667 H   0  0  0  0  0  0  0  0  0  0  0  0
   -0.1871    0.4358   -1.0726 C   0  0  0  0  0  0  0  0  0  0  0  0
   -1.0272    1.0157   -1.7569 O   0  0  0  0  0  0  0  0  0  0  0  0
    1.0735    0.2494   -1.4846 N   0  0  0  0  0  0  0  0  0  0  0  0
    1.7058   -0.2304   -0.8640 H   0  0  0  0  0  0  0  0  0  0  0  0
    1.5849    0.7018   -2.7763 C   0  0  0  0  0  0  0  0  0  0  0  0
    1.4689    1.7847   -2.8600 H   0  0  0  0  0  0  0  0  0  0  0  0
    2.6405    0.4447   -2.8767 H   0  0  0  0  0  0  0  0  0  0  0  0
    1.0204    0.2298   -3.5819 H   0  0  0  0  0  0  0  0  0  0  0  0
  5  6  2  0  0  0  0
  5  7  1  0  0  0  0
  2  3  1  0  0  0  0
  2  4  1  0  0  0  0
  2  5  1  0  0  0  0
  1  2  1  0  0  0  0
 24 25  2  0  0  0  0
 24 26  1  0  0  0  0
 20 21  1  0  0  0  0
 20 22  1  0  0  0  0
 20 23  1  0  0  0  0
 16 17  1  0  0  0  0
 16 18  1  0  0  0  0
 16 19  1  0  0  0  0
 14 15  1  0  0  0  0
 14 16  1  0  0  0  0
 14 20  1  0  0  0  0
 11 12  1  0  0  0  0
 11 13  1  0  0  0  0
 11 14  1  0  0  0  0
  9 10  1  0  0  0  0
  9 11  1  0  0  0  0
  9 24  1  0  0  0  0
  7  8  1  0  0  0  0
  7  9  1  0  0  0  0
 28 29  1  0  0  0  0
 28 30  1  0  0  0  0
 28 31  1  0  0  0  0
 26 27  1  0  0  0  0
 26 28  1  0  0  0  0
M  END
$$$$
default_name
  -OEChem-01062215323D

 31 30  0     1  0  0  0  0  0999 V2000
   -3.5895   -3.5013    1.1082 H   0  0  0  0  0  0  0  0  0  0  0  0
   -3.5145   -2.5363    0.6082 C   0  0  0  0  0  0  0  0  0  0  0  0
   -4.2285   -1.8413    1.0452 H   0  0  0  0  0  0  0  0  0  0  0  0
   -3.7155   -2.6583   -0.4538 H   0  0  0  0  0  0  0  0  0  0  0  0
   -2.1155   -1.9963    0.7922 C   0  0  0  0  0  0  0  0  0  0  0  0
   -1.2875   -2.6383    1.4252 O   0  0  0  0  0  0  0  0  0  0  0  0
   -1.8575   -0.8123    0.2402 N   0  0  0  0  0  0  0  0  0  0  0  0
   -2.6005   -0.3333   -0.2478 H   0  0  0  0  0  0  0  0  0  0  0  0
   -0.5675   -0.1203    0.3102 C   0  0  1  0  0  0  0  0  0  0  0  0
   -0.6667    0.7178    1.0008 H   0  0  0  0  0  0  0  0  0  0  0  0
    0.4873   -1.1021    0.8621 C   0  0  0  0  0  0  0  0  0  0  0  0
    0.5042   -1.9894    0.2262 H   0  0  0  0  0  0  0  0  0  0  0  0
    1.4660   -0.6229    0.7873 H   0  0  0  0  0  0  0  0  0  0  0  0
    0.2844   -1.5524    2.3205 C   0  0  0  0  0  0  0  0  0  0  0  0
   -0.7270   -1.9377    2.4495 H   0  0  0  0  0  0  0  0  0  0  0  0
    1.2860   -2.6332    2.7377 C   0  0  0  0  0  0  0  0  0  0  0  0
    2.3044   -2.2680    2.5989 H   0  0  0  0  0  0  0  0  0  0  0  0
    1.1377   -2.8854    3.7880 H   0  0  0  0  0  0  0  0  0  0  0  0
    1.1478   -3.5346    2.1445 H   0  0  0  0  0  0  0  0  0  0  0  0
    0.4592   -0.3587    3.2585 C   0  0  0  0  0  0  0  0  0  0  0  0
   -0.2645    0.4159    3.0049 H   0  0  0  0  0  0  0  0  0  0  0  0
    0.2888   -0.6691    4.2893 H   0  0  0  0  0  0  0  0  0  0  0  0
    1.4674    0.0467    3.1667 H   0  0  0  0  0  0  0  0  0  0  0  0
   -0.1871    0.4358   -1.0726 C   0  0  0  0  0  0  0  0  0  0  0  0
   -0.9225    1.2428   -1.6367 O   0  0  0  0  0  0  0  0  0  0  0  0
    0.9538   -0.0037   -1.6193 N   0  0  0  0  0  0  0  0  0  0  0  0
    1.5062   -0.6610   -1.0921 H   0  0  0  0  0  0  0  0  0  0  0  0
    1.4444    0.4149   -2.9303 C   0  0  0  0  0  0  0  0  0  0  0  0
    1.5801    1.4987   -2.9445 H   0  0  0  0  0  0  0  0  0  0  0  0
    2.3970   -0.0694   -3.1504 H   0  0  0  0  0  0  0  0  0  0  0  0
    0.7174    0.1470   -3.6985 H   0  0  0  0  0  0  0  0  0  0  0  0
  5  6  2  0  0  0  0
  5  7  1  0  0  0  0
  2  3  1  0  0  0  0
  2  4  1  0  0  0  0
  2  5  1  0  0  0  0
  1  2  1  0  0  0  0
 24 25  2  0  0  0  0
 24 26  1  0  0  0  0
 20 21  1  0  0  0  0
 20 22  1  0  0  0  0
 20 23  1  0  0  0  0
 16 17  1  0  0  0  0
 16 18  1  0  0  0  0
 16 19  1  0  0  0  0
 14 15  1  0  0  0  0
 14 16  1  0  0  0  0
 14 20  1  0  0  0  0
 11 12  1  0  0  0  0
 11 13  1  0  0  0  0
 11 14  1  0  0  0  0
  9 10  1  0  0  0  0
  9 11  1  0  0  0  0
  9 24  1  0  0  0  0
  7  8  1  0  0  0  0
  7  9  1  0  0  0  0
 28 29  1  0  0  0  0
 28 30  1  0  0  0  0
 28 31  1  0  0  0  0
 26 27  1  0  0  0  0
 26 28  1  0  0  0  0
M  END
$$$$
default_name
  -OEChem-01062215323D

 31 30  0     1  0  0  0  0  0999 V2000
   -3.5895   -3.5013    1.1082 H   0  0  0  0  0  0  0  0  0  0  0  0
   -3.5145   -2.5363    0.6082 C   0  0  0  0  0  0  0  0  0  0  0  0
   -4.2285   -1.8413    1.0452 H   0  0  0  0  0  0  0  0  0  0  0  0
   -3.7155   -2.6583   -0.4538 H   0  0  0  0  0  0  0  0  0  0  0  0
   -2.1155   -1.9963    0.7922 C   0  0  0  0  0  0  0  0  0  0  0  0
   -1.2875   -2.6383    1.4252 O   0  0  0  0  0  0  0  0  0  0  0  0
   -1.8575   -0.8123    0.2402 N   0  0  0  0  0  0  0  0  0  0  0  0
   -2.6005   -0.3333   -0.2478 H   0  0  0  0  0  0  0  0  0  0  0  0
   -0.5675   -0.1203    0.3102 C   0  0  1  0  0  0  0  0  0  0  0  0
   -0.6667    0.7178    1.0008 H   0  0  0  0  0  0  0  0  0  0  0  0
    0.4873   -1.1021    0.8621 C   0  0  0  0  0  0  0  0  0  0  0  0
    0.5042   -1.9894    0.2262 H   0  0  0  0  0  0  0  0  0  0  0  0
    1.4660   -0.6229    0.7873 H   0  0  0  0  0  0  0  0  0  0  0  0
    0.2844   -1.5524    2.3205 C   0  0  0  0  0  0  0  0  0  0  0  0
   -0.7270   -1.9377    2.4495 H   0  0  0  0  0  0  0  0  0  0  0  0
    1.2860   -2.6332    2.7377 C   0  0  0  0  0  0  0  0  0  0  0  0
    2.3044   -2.2680    2.5989 H   0  0  0  0  0  0  0  0  0  0  0  0
    1.1377   -2.8854    3.7880 H   0  0  0  0  0  0  0  0  0  0  0  0
    1.1478   -3.5346    2.1445 H   0  0  0  0  0  0  0  0  0  0  0  0
    0.4592   -0.3587    3.2585 C   0  0  0  0  0  0  0  0  0  0  0  0
   -0.2645    0.4159    3.0049 H   0  0  0  0  0  0  0  0  0  0  0  0
    0.2888   -0.6691    4.2893 H   0  0  0  0  0  0  0  0  0  0  0  0
    1.4674    0.0467    3.1667 H   0  0  0  0  0  0  0  0  0  0  0  0
   -0.1871    0.4358   -1.0726 C   0  0  0  0  0  0  0  0  0  0  0  0
   -0.7573    1.4301   -1.5160 O   0  0  0  0  0  0  0  0  0  0  0  0
    0.7667   -0.2116   -1.7543 N   0  0  0  0  0  0  0  0  0  0  0  0
    1.1918   -1.0158   -1.3213 H   0  0  0  0  0  0  0  0  0  0  0  0
    1.2275    0.1803   -3.0843 C   0  0  0  0  0  0  0  0  0  0  0  0
    1.6131    1.2019   -3.0547 H   0  0  0  0  0  0  0  0  0  0  0  0
    2.0165   -0.4918   -3.4250 H   0  0  0  0  0  0  0  0  0  0  0  0
    0.3945    0.1449   -3.7882 H   0  0  0  0  0  0  0  0  0  0  0  0
  5  6  2  0  0  0  0
  5  7  1  0  0  0  0
  2  3  1  0  0  0  0
  2  4  1  0  0  0  0
  2  5  1  0  0  0  0
  1  2  1  0  0  0  0
 24 25  2  0  0  0  0
 24 26  1  0  0  0  0
 20 21  1  0  0  0  0
 20 22  1  0  0  0  0
 20 23  1  0  0  0  0
 16 17  1  0  0  0  0
 16 18  1  0  0  0  0
 16 19  1  0  0  0  0
 14 15  1  0  0  0  0
 14 16  1  0  0  0  0
 14 20  1  0  0  0  0
 11 12  1  0  0  0  0
 11 13  1  0  0  0  0
 11 14  1  0  0  0  0
  9 10  1  0  0  0  0
  9 11  1  0  0  0  0
  9 24  1  0  0  0  0
  7  8  1  0  0  0  0
  7  9  1  0  0  0  0
 28 29  1  0  0  0  0
 28 30  1  0  0  0  0
 28 31  1  0  0  0  0
 26 27  1  0  0  0  0
 26 28  1  0  0  0  0
M  END
$$$$
default_name
  -OEChem-01062215323D

 31 30  0     1  0  0  0  0  0999 V2000
   -3.5895   -3.5013    1.1082 H   0  0  0  0  0  0  0  0  0  0  0  0
   -3.5145   -2.5363    0.6082 C   0  0  0  0  0  0  0  0  0  0  0  0
   -4.2285   -1.8413    1.0452 H   0  0  0  0  0  0  0  0  0  0  0  0
   -3.7155   -2.6583   -0.4538 H   0  0  0  0  0  0  0  0  0  0  0  0
   -2.1155   -1.9963    0.7922 C   0  0  0  0  0  0  0  0  0  0  0  0
   -1.2875   -2.6383    1.4252 O   0  0  0  0  0  0  0  0  0  0  0  0
   -1.8575   -0.8123    0.2402 N   0  0  0  0  0  0  0  0  0  0  0  0
   -2.6005   -0.3333   -0.2478 H   0  0  0  0  0  0  0  0  0  0  0  0
   -0.5675   -0.1203    0.3102 C   0  0  1  0  0  0  0  0  0  0  0  0
   -0.6667    0.7178    1.0008 H   0  0  0  0  0  0  0  0  0  0  0  0
    0.4873   -1.1021    0.8621 C   0  0  0  0  0  0  0  0  0  0  0  0
    0.5042   -1.9894    0.2262 H   0  0  0  0  0  0  0  0  0  0  0  0
    1.4660   -0.6229    0.7873 H   0  0  0  0  0  0  0  0  0  0  0  0
    0.2844   -1.5524    2.3205 C   0  0  0  0  0  0  0  0  0  0  0  0
   -0.7270   -1.9377    2.4495 H   0  0  0  0  0  0  0  0  0  0  0  0
    1.2860   -2.6332    2.7377 C   0  0  0  0  0  0  0  0  0  0  0  0
    2.3044   -2.2680    2.5989 H   0  0  0  0  0  0  0  0  0  0  0  0
    1.1377   -2.8854    3.7880 H   0  0  0  0  0  0  0  0  0  0  0  0
    1.1478   -3.5346    2.1445 H   0  0  0  0  0  0  0  0  0  0  0  0
    0.4592   -0.3587    3.2585 C   0  0  0  0  0  0  0  0  0  0  0  0
   -0.2645    0.4159    3.0049 H   0  0  0  0  0  0  0  0  0  0  0  0
    0.2888   -0.6691    4.2893 H   0  0  0  0  0  0  0  0  0  0  0  0
    1.4674    0.0467    3.1667 H   0  0  0  0  0  0  0  0  0  0  0  0
   -0.1871    0.4358   -1.0726 C   0  0  0  0  0  0  0  0  0  0  0  0
   -0.5429    1.5648   -1.4028 O   0  0  0  0  0  0  0  0  0  0  0  0
    0.5250   -0.3603   -1.8806 N   0  0  0  0  0  0  0  0  0  0  0  0
    0.7841   -1.2708   -1.5360 H   0  0  0  0  0  0  0  0  0  0  0  0
    0.9490    0.0141   -3.2278 C   0  0  0  0  0  0  0  0  0  0  0  0
    1.5656    0.9146   -3.1833 H   0  0  0  0  0  0  0  0  0  0  0  0
    1.5251   -0.7938   -3.6816 H   0  0  0  0  0  0  0  0  0  0  0  0
    0.0738    0.2238   -3.8446 H   0  0  0  0  0  0  0  0  0  0  0  0
  5  6  2  0  0  0  0
  5  7  1  0  0  0  0
  2  3  1  0  0  0  0
  2  4  1  0  0  0  0
  2  5  1  0  0  0  0
  1  2  1  0  0  0  0
 24 25  2  0  0  0  0
 24 26  1  0  0  0  0
 20 21  1  0  0  0  0
 20 22  1  0  0  0  0
 20 23  1  0  0  0  0
 16 17  1  0  0  0  0
 16 18  1  0  0  0  0
 16 19  1  0  0  0  0
 14 15  1  0  0  0  0
 14 16  1  0  0  0  0
 14 20  1  0  0  0  0
 11 12  1  0  0  0  0
 11 13  1  0  0  0  0
 11 14  1  0  0  0  0
  9 10  1  0  0  0  0
  9 11  1  0  0  0  0
  9 24  1  0  0  0  0
  7  8  1  0  0  0  0
  7  9  1  0  0  0  0
 28 29  1  0  0  0  0
 28 30  1  0  0  0  0
 28 31  1  0  0  0  0
 26 27  1  0  0  0  0
 26 28  1  0  0  0  0
M  END
$$$$
default_name
  -OEChem-01062215323D

 31 30  0     1  0  0  0  0  0999 V2000
   -3.5895   -3.5013    1.1082 H   0  0  0  0  0  0  0  0  0  0  0  0
   -3.5145   -2.5363    0.6082 C   0  0  0  0  0  0  0  0  0  0  0  0
   -4.2285   -1.8413    1.0452 H   0  0  0  0  0  0  0  0  0  0  0  0
   -3.7155   -2.6583   -0.4538 H   0  0  0  0  0  0  0  0  0  0  0  0
   -2.1155   -1.9963    0.7922 C   0  0  0  0  0  0  0  0  0  0  0  0
   -1.2875   -2.6383    1.4252 O   0  0  0  0  0  0  0  0  0  0  0  0
   -1.8575   -0.8123    0.2402 N   0  0  0  0  0  0  0  0  0  0  0  0
   -2.6005   -0.3333   -0.2478 H   0  0  0  0  0  0  0  0  0  0  0  0
   -0.5675   -0.1203    0.3102 C   0  0  1  0  0  0  0  0  0  0  0  0
   -0.6667    0.7178    1.0008 H   0  0  0  0  0  0  0  0  0  0  0  0
    0.4873   -1.1021    0.8621 C   0  0  0  0  0  0  0  0  0  0  0  0
    0.5042   -1.9894    0.2262 H   0  0  0  0  0  0  0  0  0  0  0  0
    1.4660   -0.6229    0.7873 H   0  0  0  0  0  0  0  0  0  0  0  0
    0.2844   -1.5524    2.3205 C   0  0  0  0  0  0  0  0  0  0  0  0
   -0.7270   -1.9377    2.4495 H   0  0  0  0  0  0  0  0  0  0  0  0
    1.2860   -2.6332    2.7377 C   0  0  0  0  0  0  0  0  0  0  0  0
    2.3044   -2.2680    2.5989 H   0  0  0  0  0  0  0  0  0  0  0  0
    1.1377   -2.8854    3.7880 H   0  0  0  0  0  0  0  0  0  0  0  0
    1.1478   -3.5346    2.1445 H   0  0  0  0  0  0  0  0  0  0  0  0
    0.4592   -0.3587    3.2585 C   0  0  0  0  0  0  0  0  0  0  0  0
   -0.2645    0.4159    3.0049 H   0  0  0  0  0  0  0  0  0  0  0  0
    0.2888   -0.6691    4.2893 H   0  0  0  0  0  0  0  0  0  0  0  0
    1.4674    0.0467    3.1667 H   0  0  0  0  0  0  0  0  0  0  0  0
   -0.1871    0.4358   -1.0726 C   0  0  0  0  0  0  0  0  0  0  0  0
   -0.2938    1.6378   -1.3049 O   0  0  0  0  0  0  0  0  0  0  0  0
    0.2450   -0.4396   -1.9895 N   0  0  0  0  0  0  0  0  0  0  0  0
    0.3109   -1.4085   -1.7215 H   0  0  0  0  0  0  0  0  0  0  0  0
    0.6279   -0.0725   -3.3509 C   0  0  0  0  0  0  0  0  0  0  0  0
    1.4409    0.6564   -3.3215 H   0  0  0  0  0  0  0  0  0  0  0  0
    0.9561   -0.9547   -3.9028 H   0  0  0  0  0  0  0  0  0  0  0  0
   -0.2229    0.3783   -3.8641 H   0  0  0  0  0  0  0  0  0  0  0  0
  5  6  2  0  0  0  0
  5  7  1  0  0  0  0
  2  3  1  0  0  0  0
  2  4  1  0  0  0  0
  2  5  1  0  0  0  0
  1  2  1  0  0  0  0
 24 25  2  0  0  0  0
 24 26  1  0  0  0  0
 20 21  1  0  0  0  0
 20 22  1  0  0  0  0
 20 23  1  0  0  0  0
 16 17  1  0  0  0  0
 16 18  1  0  0  0  0
 16 19  1  0  0  0  0
 14 15  1  0  0  0  0
 14 16  1  0  0  0  0
 14 20  1  0  0  0  0
 11 12  1  0  0  0  0
 11 13  1  0  0  0  0
 11 14  1  0  0  0  0
  9 10  1  0  0  0  0
  9 11  1  0  0  0  0
  9 24  1  0  0  0  0
  7  8  1  0  0  0  0
  7  9  1  0  0  0  0
 28 29  1  0  0  0  0
 28 30  1  0  0  0  0
 28 31  1  0  0  0  0
 26 27  1  0  0  0  0
 26 28  1  0  0  0  0
M  END
$$$$
default_name
  -OEChem-01062215323D

 31 30  0     1  0  0  0  0  0999 V2000
   -3.5895   -3.5013    1.1082 H   0  0  0  0  0  0  0  0  0  0  0  0
   -3.5145   -2.5363    0.6082 C   0  0  0  0  0  0  0  0  0  0  0  0
   -4.2285   -1.8413    1.0452 H   0  0  0  0  0  0  0  0  0  0  0  0
   -3.7155   -2.6583   -0.4538 H   0  0  0  0  0  0  0  0  0  0  0  0
   -2.1155   -1.9963    0.7922 C   0  0  0  0  0  0  0  0  0  0  0  0
   -1.2875   -2.6383    1.4252 O   0  0  0  0  0  0  0  0  0  0  0  0
   -1.8575   -0.8123    0.2402 N   0  0  0  0  0  0  0  0  0  0  0  0
   -2.6005   -0.3333   -0.2478 H   0  0  0  0  0  0  0  0  0  0  0  0
   -0.5675   -0.1203    0.3102 C   0  0  1  0  0  0  0  0  0  0  0  0
   -0.6667    0.7178    1.0008 H   0  0  0  0  0  0  0  0  0  0  0  0
    0.4873   -1.1021    0.8621 C   0  0  0  0  0  0  0  0  0  0  0  0
    0.5042   -1.9894    0.2262 H   0  0  0  0  0  0  0  0  0  0  0  0
    1.4660   -0.6229    0.7873 H   0  0  0  0  0  0  0  0  0  0  0  0
    0.2844   -1.5524    2.3205 C   0  0  0  0  0  0  0  0  0  0  0  0
   -0.7270   -1.9377    2.4495 H   0  0  0  0  0  0  0  0  0  0  0  0
    1.2860   -2.6332    2.7377 C   0  0  0  0  0  0  0  0  0  0  0  0
    2.3044   -2.2680    2.5989 H   0  0  0  0  0  0  0  0  0  0  0  0
    1.1377   -2.8854    3.7880 H   0  0  0  0  0  0  0  0  0  0  0  0
    1.1478   -3.5346    2.1445 H   0  0  0  0  0  0  0  0  0  0  0  0
    0.4592   -0.3587    3.2585 C   0  0  0  0  0  0  0  0  0  0  0  0
   -0.2645    0.4159    3.0049 H   0  0  0  0  0  0  0  0  0  0  0  0
    0.2888   -0.6691    4.2893 H   0  0  0  0  0  0  0  0  0  0  0  0
    1.4674    0.0467    3.1667 H   0  0  0  0  0  0  0  0  0  0  0  0
   -0.1871    0.4358   -1.0726 C   0  0  0  0  0  0  0  0  0  0  0  0
   -0.0270    1.6442   -1.2290 O   0  0  0  0  0  0  0  0  0  0  0  0
   -0.0540   -0.4440   -2.0736 N   0  0  0  0  0  0  0  0  0  0  0  0
   -0.1956   -1.4195   -1.8652 H   0  0  0  0  0  0  0  0  0  0  0  0
    0.2861   -0.0736   -3.4454 C   0  0  0  0  0  0  0  0  0  0  0  0
    1.2474    0.4449   -3.4598 H   0  0  0  0  0  0  0  0  0  0  0  0
    0.3483   -0.9636   -4.0735 H   0  0  0  0  0  0  0  0  0  0  0  0
   -0.4754    0.5978   -3.8453 H   0  0  0  0  0  0  0  0  0  0  0  0
  5  6  2  0  0  0  0
  5  7  1  0  0  0  0
  2  3  1  0  0  0  0
  2  4  1  0  0  0  0
  2  5  1  0  0  0  0
  1  2  1  0  0  0  0
 24 25  2  0  0  0  0
 24 26  1  0  0  0  0
 20 21  1  0  0  0  0
 20 22  1  0  0  0  0
 20 23  1  0  0  0  0
 16 17  1  0  0  0  0
 16 18  1  0  0  0  0
 16 19  1  0  0  0  0
 14 15  1  0  0  0  0
 14 16  1  0  0  0  0
 14 20  1  0  0  0  0
 11 12  1  0  0  0  0
 11 13  1  0  0  0  0
 11 14  1  0  0  0  0
  9 10  1  0  0  0  0
  9 11  1  0  0  0  0
  9 24  1  0  0  0  0
  7  8  1  0  0  0  0
  7  9  1  0  0  0  0
 28 29  1  0  0  0  0
 28 30  1  0  0  0  0
 28 31  1  0  0  0  0
 26 27  1  0  0  0  0
 26 28  1  0  0  0  0
M  END
$$$$
default_name
  -OEChem-01062215323D

 31 30  0     1  0  0  0  0  0999 V2000
   -3.5895   -3.5013    1.1082 H   0  0  0  0  0  0  0  0  0  0  0  0
   -3.5145   -2.5363    0.6082 C   0  0  0  0  0  0  0  0  0  0  0  0
   -4.2285   -1.8413    1.0452 H   0  0  0  0  0  0  0  0  0  0  0  0
   -3.7155   -2.6583   -0.4538 H   0  0  0  0  0  0  0  0  0  0  0  0
   -2.1155   -1.9963    0.7922 C   0  0  0  0  0  0  0  0  0  0  0  0
   -1.2875   -2.6383    1.4252 O   0  0  0  0  0  0  0  0  0  0  0  0
   -1.8575   -0.8123    0.2402 N   0  0  0  0  0  0  0  0  0  0  0  0
   -2.6005   -0.3333   -0.2478 H   0  0  0  0  0  0  0  0  0  0  0  0
   -0.5675   -0.1203    0.3102 C   0  0  1  0  0  0  0  0  0  0  0  0
   -0.6667    0.7178    1.0008 H   0  0  0  0  0  0  0  0  0  0  0  0
    0.4873   -1.1021    0.8621 C   0  0  0  0  0  0  0  0  0  0  0  0
    0.5042   -1.9894    0.2262 H   0  0  0  0  0  0  0  0  0  0  0  0
    1.4660   -0.6229    0.7873 H   0  0  0  0  0  0  0  0  0  0  0  0
    0.2844   -1.5524    2.3205 C   0  0  0  0  0  0  0  0  0  0  0  0
   -0.7270   -1.9377    2.4495 H   0  0  0  0  0  0  0  0  0  0  0  0
    1.2860   -2.6332    2.7377 C   0  0  0  0  0  0  0  0  0  0  0  0
    2.3044   -2.2680    2.5989 H   0  0  0  0  0  0  0  0  0  0  0  0
    1.1377   -2.8854    3.7880 H   0  0  0  0  0  0  0  0  0  0  0  0
    1.1478   -3.5346    2.1445 H   0  0  0  0  0  0  0  0  0  0  0  0
    0.4592   -0.3587    3.2585 C   0  0  0  0  0  0  0  0  0  0  0  0
   -0.2645    0.4159    3.0049 H   0  0  0  0  0  0  0  0  0  0  0  0
    0.2888   -0.6691    4.2893 H   0  0  0  0  0  0  0  0  0  0  0  0
    1.4674    0.0467    3.1667 H   0  0  0  0  0  0  0  0  0  0  0  0
   -0.1871    0.4358   -1.0726 C   0  0  0  0  0  0  0  0  0  0  0  0
    0.2393    1.5833   -1.1802 O   0  0  0  0  0  0  0  0  0  0  0  0
   -0.3518   -0.3734   -2.1270 N   0  0  0  0  0  0  0  0  0  0  0  0
   -0.7008   -1.3031   -1.9574 H   0  0  0  0  0  0  0  0  0  0  0  0
   -0.0532    0.0109   -3.5047 C   0  0  0  0  0  0  0  0  0  0  0  0
    0.9983    0.2944   -3.5888 H   0  0  0  0  0  0  0  0  0  0  0  0
   -0.2568   -0.8198   -4.1821 H   0  0  0  0  0  0  0  0  0  0  0  0
   -0.6665    0.8673   -3.7894 H   0  0  0  0  0  0  0  0  0  0  0  0
  5  6  2  0  0  0  0
  5  7  1  0  0  0  0
  2  3  1  0  0  0  0
  2  4  1  0  0  0  0
  2  5  1  0  0  0  0
  1  2  1  0  0  0  0
 24 25  2  0  0  0  0
 24 26  1  0  0  0  0
 20 21  1  0  0  0  0
 20 22  1  0  0  0  0
 20 23  1  0  0  0  0
 16 17  1  0  0  0  0
 16 18  1  0  0  0  0
 16 19  1  0  0  0  0
 14 15  1  0  0  0  0
 14 16  1  0  0  0  0
 14 20  1  0  0  0  0
 11 12  1  0  0  0  0
 11 13  1  0  0  0  0
 11 14  1  0  0  0  0
  9 10  1  0  0  0  0
  9 11  1  0  0  0  0
  9 24  1  0  0  0  0
  7  8  1  0  0  0  0
  7  9  1  0  0  0  0
 28 29  1  0  0  0  0
 28 30  1  0  0  0  0
 28 31  1  0  0  0  0
 26 27  1  0  0  0  0
 26 28  1  0  0  0  0
M  END
$$$$
default_name
  -OEChem-01062215323D

 31 30  0     1  0  0  0  0  0999 V2000
   -3.5895   -3.5013    1.1082 H   0  0  0  0  0  0  0  0  0  0  0  0
   -3.5145   -2.5363    0.6082 C   0  0  0  0  0  0  0  0  0  0  0  0
   -4.2285   -1.8413    1.0452 H   0  0  0  0  0  0  0  0  0  0  0  0
   -3.7155   -2.6583   -0.4538 H   0  0  0  0  0  0  0  0  0  0  0  0
   -2.1155   -1.9963    0.7922 C   0  0  0  0  0  0  0  0  0  0  0  0
   -1.2875   -2.6383    1.4252 O   0  0  0  0  0  0  0  0  0  0  0  0
   -1.8575   -0.8123    0.2402 N   0  0  0  0  0  0  0  0  0  0  0  0
   -2.6005   -0.3333   -0.2478 H   0  0  0  0  0  0  0  0  0  0  0  0
   -0.5675   -0.1203    0.3102 C   0  0  1  0  0  0  0  0  0  0  0  0
   -0.6667    0.7178    1.0008 H   0  0  0  0  0  0  0  0  0  0  0  0
    0.4873   -1.1021    0.8621 C   0  0  0  0  0  0  0  0  0  0  0  0
    0.5042   -1.9894    0.2262 H   0  0  0  0  0  0  0  0  0  0  0  0
    1.4660   -0.6229    0.7873 H   0  0  0  0  0  0  0  0  0  0  0  0
    0.2844   -1.5524    2.3205 C   0  0  0  0  0  0  0  0  0  0  0  0
   -0.7270   -1.9377    2.4495 H   0  0  0  0  0  0  0  0  0  0  0  0
    1.2860   -2.6332    2.7377 C   0  0  0  0  0  0  0  0  0  0  0  0
    2.3044   -2.2680    2.5989 H   0  0  0  0  0  0  0  0  0  0  0  0
    1.1377   -2.8854    3.7880 H   0  0  0  0  0  0  0  0  0  0  0  0
    1.1478   -3.5346    2.1445 H   0  0  0  0  0  0  0  0  0  0  0  0
    0.4592   -0.3587    3.2585 C   0  0  0  0  0  0  0  0  0  0  0  0
   -0.2645    0.4159    3.0049 H   0  0  0  0  0  0  0  0  0  0  0  0
    0.2888   -0.6691    4.2893 H   0  0  0  0  0  0  0  0  0  0  0  0
    1.4674    0.0467    3.1667 H   0  0  0  0  0  0  0  0  0  0  0  0
   -0.1871    0.4358   -1.0726 C   0  0  0  0  0  0  0  0  0  0  0  0
    0.4868    1.4595   -1.1619 O   0  0  0  0  0  0  0  0  0  0  0  0
   -0.6279   -0.2325   -2.1463 N   0  0  0  0  0  0  0  0  0  0  0  0
   -1.1704   -1.0672   -1.9916 H   0  0  0  0  0  0  0  0  0  0  0  0
   -0.3668    0.1753   -3.5248 C   0  0  0  0  0  0  0  0  0  0  0  0
    0.7107    0.2152   -3.6998 H   0  0  0  0  0  0  0  0  0  0  0  0
   -0.8179   -0.5332   -4.2212 H   0  0  0  0  0  0  0  0  0  0  0  0
   -0.7831    1.1685   -3.7004 H   0  0  0  0  0  0  0  0  0  0  0  0
  5  6  2  0  0  0  0
  5  7  1  0  0  0  0
  2  3  1  0  0  0  0
  2  4  1  0  0  0  0
  2  5  1  0  0  0  0
  1  2  1  0  0  0  0
 24 25  2  0  0  0  0
 24 26  1  0  0  0  0
 20 21  1  0  0  0  0
 20 22  1  0  0  0  0
 20 23  1  0  0  0  0
 16 17  1  0  0  0  0
 16 18  1  0  0  0  0
 16 19  1  0  0  0  0
 14 15  1  0  0  0  0
 14 16  1  0  0  0  0
 14 20  1  0  0  0  0
 11 12  1  0  0  0  0
 11 13  1  0  0  0  0
 11 14  1  0  0  0  0
  9 10  1  0  0  0  0
  9 11  1  0  0  0  0
  9 24  1  0  0  0  0
  7  8  1  0  0  0  0
  7  9  1  0  0  0  0
 28 29  1  0  0  0  0
 28 30  1  0  0  0  0
 28 31  1  0  0  0  0
 26 27  1  0  0  0  0
 26 28  1  0  0  0  0
M  END
$$$$
default_name
  -OEChem-01062215323D

 31 30  0     1  0  0  0  0  0999 V2000
   -3.5895   -3.5013    1.1082 H   0  0  0  0  0  0  0  0  0  0  0  0
   -3.5145   -2.5363    0.6082 C   0  0  0  0  0  0  0  0  0  0  0  0
   -4.2285   -1.8413    1.0452 H   0  0  0  0  0  0  0  0  0  0  0  0
   -3.7155   -2.6583   -0.4538 H   0  0  0  0  0  0  0  0  0  0  0  0
   -2.1155   -1.9963    0.7922 C   0  0  0  0  0  0  0  0  0  0  0  0
   -1.2875   -2.6383    1.4252 O   0  0  0  0  0  0  0  0  0  0  0  0
   -1.8575   -0.8123    0.2402 N   0  0  0  0  0  0  0  0  0  0  0  0
   -2.6005   -0.3333   -0.2478 H   0  0  0  0  0  0  0  0  0  0  0  0
   -0.5675   -0.1203    0.3102 C   0  0  1  0  0  0  0  0  0  0  0  0
   -0.6667    0.7178    1.0008 H   0  0  0  0  0  0  0  0  0  0  0  0
    0.4873   -1.1021    0.8621 C   0  0  0  0  0  0  0  0  0  0  0  0
    0.5042   -1.9894    0.2262 H   0  0  0  0  0  0  0  0  0  0  0  0
    1.4660   -0.6229    0.7873 H   0  0  0  0  0  0  0  0  0  0  0  0
    0.2844   -1.5524    2.3205 C   0  0  0  0  0  0  0  0  0  0  0  0
   -0.7270   -1.9377    2.4495 H   0  0  0  0  0  0  0  0  0  0  0  0
    1.2860   -2.6332    2.7377 C   0  0  0  0  0  0  0  0  0  0  0  0
    2.3044   -2.2680    2.5989 H   0  0  0  0  0  0  0  0  0  0  0  0
    1.1377   -2.8854    3.7880 H   0  0  0  0  0  0  0  0  0  0  0  0
    1.1478   -3.5346    2.1445 H   0  0  0  0  0  0  0  0  0  0  0  0
    0.4592   -0.3587    3.2585 C   0  0  0  0  0  0  0  0  0  0  0  0
   -0.2645    0.4159    3.0049 H   0  0  0  0  0  0  0  0  0  0  0  0
    0.2888   -0.6691    4.2893 H   0  0  0  0  0  0  0  0  0  0  0  0
    1.4674    0.0467    3.1667 H   0  0  0  0  0  0  0  0  0  0  0  0
   -0.1871    0.4358   -1.0726 C   0  0  0  0  0  0  0  0  0  0  0  0
    0.6989    1.2811   -1.1754 O   0  0  0  0  0  0  0  0  0  0  0  0
   -0.8637   -0.0309   -2.1301 N   0  0  0  0  0  0  0  0  0  0  0  0
   -1.5723   -0.7280   -1.9657 H   0  0  0  0  0  0  0  0  0  0  0  0
   -0.6334    0.4084   -3.5044 C   0  0  0  0  0  0  0  0  0  0  0  0
    0.4040    0.2128   -3.7851 H   0  0  0  0  0  0  0  0  0  0  0  0
   -1.2970   -0.1233   -4.1881 H   0  0  0  0  0  0  0  0  0  0  0  0
   -0.8173    1.4809   -3.5841 H   0  0  0  0  0  0  0  0  0  0  0  0
  5  6  2  0  0  0  0
  5  7  1  0  0  0  0
  2  3  1  0  0  0  0
  2  4  1  0  0  0  0
  2  5  1  0  0  0  0
  1  2  1  0  0  0  0
 24 25  2  0  0  0  0
 24 26  1  0  0  0  0
 20 21  1  0  0  0  0
 20 22  1  0  0  0  0
 20 23  1  0  0  0  0
 16 17  1  0  0  0  0
 16 18  1  0  0  0  0
 16 19  1  0  0  0  0
 14 15  1  0  0  0  0
 14 16  1  0  0  0  0
 14 20  1  0  0  0  0
 11 12  1  0  0  0  0
 11 13  1  0  0  0  0
 11 14  1  0  0  0  0
  9 10  1  0  0  0  0
  9 11  1  0  0  0  0
  9 24  1  0  0  0  0
  7  8  1  0  0  0  0
  7  9  1  0  0  0  0
 28 29  1  0  0  0  0
 28 30  1  0  0  0  0
 28 31  1  0  0  0  0
 26 27  1  0  0  0  0
 26 28  1  0  0  0  0
M  END
$$$$
default_name
  -OEChem-01062215323D

 31 30  0     1  0  0  0  0  0999 V2000
   -3.5895   -3.5013    1.1082 H   0  0  0  0  0  0  0  0  0  0  0  0
   -3.5145   -2.5363    0.6082 C   0  0  0  0  0  0  0  0  0  0  0  0
   -4.2285   -1.8413    1.0452 H   0  0  0  0  0  0  0  0  0  0  0  0
   -3.7155   -2.6583   -0.4538 H   0  0  0  0  0  0  0  0  0  0  0  0
   -2.1155   -1.9963    0.7922 C   0  0  0  0  0  0  0  0  0  0  0  0
   -1.2875   -2.6383    1.4252 O   0  0  0  0  0  0  0  0  0  0  0  0
   -1.8575   -0.8123    0.2402 N   0  0  0  0  0  0  0  0  0  0  0  0
   -2.6005   -0.3333   -0.2478 H   0  0  0  0  0  0  0  0  0  0  0  0
   -0.5675   -0.1203    0.3102 C   0  0  1  0  0  0  0  0  0  0  0  0
   -0.6667    0.7178    1.0008 H   0  0  0  0  0  0  0  0  0  0  0  0
    0.4873   -1.1021    0.8621 C   0  0  0  0  0  0  0  0  0  0  0  0
    0.5042   -1.9894    0.2262 H   0  0  0  0  0  0  0  0  0  0  0  0
    1.4660   -0.6229    0.7873 H   0  0  0  0  0  0  0  0  0  0  0  0
    0.2844   -1.5524    2.3205 C   0  0  0  0  0  0  0  0  0  0  0  0
   -0.7270   -1.9377    2.4495 H   0  0  0  0  0  0  0  0  0  0  0  0
    1.2860   -2.6332    2.7377 C   0  0  0  0  0  0  0  0  0  0  0  0
    2.3044   -2.2680    2.5989 H   0  0  0  0  0  0  0  0  0  0  0  0
    1.1377   -2.8854    3.7880 H   0  0  0  0  0  0  0  0  0  0  0  0
    1.1478   -3.5346    2.1445 H   0  0  0  0  0  0  0  0  0  0  0  0
    0.4592   -0.3587    3.2585 C   0  0  0  0  0  0  0  0  0  0  0  0
   -0.2645    0.4159    3.0049 H   0  0  0  0  0  0  0  0  0  0  0  0
    0.2888   -0.6691    4.2893 H   0  0  0  0  0  0  0  0  0  0  0  0
    1.4674    0.0467    3.1667 H   0  0  0  0  0  0  0  0  0  0  0  0
   -0.1871    0.4358   -1.0726 C   0  0  0  0  0  0  0  0  0  0  0  0
    0.8610    1.0603   -1.2196 O   0  0  0  0  0  0  0  0  0  0  0  0
   -1.0430    0.2177   -2.0794 N   0  0  0  0  0  0  0  0  0  0  0  0
   -1.8791   -0.3084   -1.8814 H   0  0  0  0  0  0  0  0  0  0  0  0
   -0.8347    0.6942   -3.4448 C   0  0  0  0  0  0  0  0  0  0  0  0
    0.0992    0.2873   -3.8389 H   0  0  0  0  0  0  0  0  0  0  0  0
   -1.6612    0.3820   -4.0850 H   0  0  0  0  0  0  0  0  0  0  0  0
   -0.7668    1.7832   -3.4487 H   0  0  0  0  0  0  0  0  0  0  0  0
  5  6  2  0  0  0  0
  5  7  1  0  0  0  0
  2  3  1  0  0  0  0
  2  4  1  0  0  0  0
  2  5  1  0  0  0  0
  1  2  1  0  0  0  0
 24 25  2  0  0  0  0
 24 26  1  0  0  0  0
 20 21  1  0  0  0  0
 20 22  1  0  0  0  0
 20 23  1  0  0  0  0
 16 17  1  0  0  0  0
 16 18  1  0  0  0  0
 16 19  1  0  0  0  0
 14 15  1  0  0  0  0
 14 16  1  0  0  0  0
 14 20  1  0  0  0  0
 11 12  1  0  0  0  0
 11 13  1  0  0  0  0
 11 14  1  0  0  0  0
  9 10  1  0  0  0  0
  9 11  1  0  0  0  0
  9 24  1  0  0  0  0
  7  8  1  0  0  0  0
  7  9  1  0  0  0  0
 28 29  1  0  0  0  0
 28 30  1  0  0  0  0
 28 31  1  0  0  0  0
 26 27  1  0  0  0  0
 26 28  1  0  0  0  0
M  END
$$$$
default_name
  -OEChem-01062215323D

 31 30  0     1  0  0  0  0  0999 V2000
   -3.5895   -3.5013    1.1082 H   0  0  0  0  0  0  0  0  0  0  0  0
   -3.5145   -2.5363    0.6082 C   0  0  0  0  0  0  0  0  0  0  0  0
   -4.2285   -1.8413    1.0452 H   0  0  0  0  0  0  0  0  0  0  0  0
   -3.7155   -2.6583   -0.4538 H   0  0  0  0  0  0  0  0  0  0  0  0
   -2.1155   -1.9963    0.7922 C   0  0  0  0  0  0  0  0  0  0  0  0
   -1.2875   -2.6383    1.4252 O   0  0  0  0  0  0  0  0  0  0  0  0
   -1.8575   -0.8123    0.2402 N   0  0  0  0  0  0  0  0  0  0  0  0
   -2.6005   -0.3333   -0.2478 H   0  0  0  0  0  0  0  0  0  0  0  0
   -0.5675   -0.1203    0.3102 C   0  0  1  0  0  0  0  0  0  0  0  0
   -0.6667    0.7178    1.0008 H   0  0  0  0  0  0  0  0  0  0  0  0
    0.4873   -1.1021    0.8621 C   0  0  0  0  0  0  0  0  0  0  0  0
    0.5042   -1.9894    0.2262 H   0  0  0  0  0  0  0  0  0  0  0  0
    1.4660   -0.6229    0.7873 H   0  0  0  0  0  0  0  0  0  0  0  0
    0.2844   -1.5524    2.3205 C   0  0  0  0  0  0  0  0  0  0  0  0
   -0.7270   -1.9377    2.4495 H   0  0  0  0  0  0  0  0  0  0  0  0
    1.2860   -2.6332    2.7377 C   0  0  0  0  0  0  0  0  0  0  0  0
    2.3044   -2.2680    2.5989 H   0  0  0  0  0  0  0  0  0  0  0  0
    1.1377   -2.8854    3.7880 H   0  0  0  0  0  0  0  0  0  0  0  0
    1.1478   -3.5346    2.1445 H   0  0  0  0  0  0  0  0  0  0  0  0
    0.4592   -0.3587    3.2585 C   0  0  0  0  0  0  0  0  0  0  0  0
   -0.2645    0.4159    3.0049 H   0  0  0  0  0  0  0  0  0  0  0  0
    0.2888   -0.6691    4.2893 H   0  0  0  0  0  0  0  0  0  0  0  0
    1.4674    0.0467    3.1667 H   0  0  0  0  0  0  0  0  0  0  0  0
   -0.1871    0.4358   -1.0726 C   0  0  0  0  0  0  0  0  0  0  0  0
    0.9620    0.8122   -1.2916 O   0  0  0  0  0  0  0  0  0  0  0  0
   -1.1537    0.4962   -1.9978 N   0  0  0  0  0  0  0  0  0  0  0  0
   -2.0699    0.1629   -1.7443 H   0  0  0  0  0  0  0  0  0  0  0  0
   -0.9571    1.0133   -3.3501 C   0  0  0  0  0  0  0  0  0  0  0  0
   -0.1829    0.4336   -3.8577 H   0  0  0  0  0  0  0  0  0  0  0  0
   -1.8858    0.9482   -3.9191 H   0  0  0  0  0  0  0  0  0  0  0  0
   -0.6350    2.0548   -3.3032 H   0  0  0  0  0  0  0  0  0  0  0  0
  5  6  2  0  0  0  0
  5  7  1  0  0  0  0
  2  3  1  0  0  0  0
  2  4  1  0  0  0  0
  2  5  1  0  0  0  0
  1  2  1  0  0  0  0
 24 25  2  0  0  0  0
 24 26  1  0  0  0  0
 20 21  1  0  0  0  0
 20 22  1  0  0  0  0
 20 23  1  0  0  0  0
 16 17  1  0  0  0  0
 16 18  1  0  0  0  0
 16 19  1  0  0  0  0
 14 15  1  0  0  0  0
 14 16  1  0  0  0  0
 14 20  1  0  0  0  0
 11 12  1  0  0  0  0
 11 13  1  0  0  0  0
 11 14  1  0  0  0  0
  9 10  1  0  0  0  0
  9 11  1  0  0  0  0
  9 24  1  0  0  0  0
  7  8  1  0  0  0  0
  7  9  1  0  0  0  0
 28 29  1  0  0  0  0
 28 30  1  0  0  0  0
 28 31  1  0  0  0  0
 26 27  1  0  0  0  0
 26 28  1  0  0  0  0
M  END
$$$$
default_name
  -OEChem-01062215323D

 31 30  0     1  0  0  0  0  0999 V2000
   -3.5895   -3.5013    1.1082 H   0  0  0  0  0  0  0  0  0  0  0  0
   -3.5145   -2.5363    0.6082 C   0  0  0  0  0  0  0  0  0  0  0  0
   -4.2285   -1.8413    1.0452 H   0  0  0  0  0  0  0  0  0  0  0  0
   -3.7155   -2.6583   -0.4538 H   0  0  0  0  0  0  0  0  0  0  0  0
   -2.1155   -1.9963    0.7922 C   0  0  0  0  0  0  0  0  0  0  0  0
   -1.2875   -2.6383    1.4252 O   0  0  0  0  0  0  0  0  0  0  0  0
   -1.8575   -0.8123    0.2402 N   0  0  0  0  0  0  0  0  0  0  0  0
   -2.6005   -0.3333   -0.2478 H   0  0  0  0  0  0  0  0  0  0  0  0
   -0.5675   -0.1203    0.3102 C   0  0  1  0  0  0  0  0  0  0  0  0
   -0.6667    0.7178    1.0008 H   0  0  0  0  0  0  0  0  0  0  0  0
    0.4873   -1.1021    0.8621 C   0  0  0  0  0  0  0  0  0  0  0  0
    0.5042   -1.9894    0.2262 H   0  0  0  0  0  0  0  0  0  0  0  0
    1.4660   -0.6229    0.7873 H   0  0  0  0  0  0  0  0  0  0  0  0
    0.2844   -1.5524    2.3205 C   0  0  0  0  0  0  0  0  0  0  0  0
   -0.7270   -1.9377    2.4495 H   0  0  0  0  0  0  0  0  0  0  0  0
    1.2860   -2.6332    2.7377 C   0  0  0  0  0  0  0  0  0  0  0  0
    2.3044   -2.2680    2.5989 H   0  0  0  0  0  0  0  0  0  0  0  0
    1.1377   -2.8854    3.7880 H   0  0  0  0  0  0  0  0  0  0  0  0
    1.1478   -3.5346    2.1445 H   0  0  0  0  0  0  0  0  0  0  0  0
    0.4592   -0.3587    3.2585 C   0  0  0  0  0  0  0  0  0  0  0  0
   -0.2645    0.4159    3.0049 H   0  0  0  0  0  0  0  0  0  0  0  0
    0.2888   -0.6691    4.2893 H   0  0  0  0  0  0  0  0  0  0  0  0
    1.4674    0.0467    3.1667 H   0  0  0  0  0  0  0  0  0  0  0  0
   -0.1871    0.4358   -1.0726 C   0  0  0  0  0  0  0  0  0  0  0  0
    0.9951    0.5536   -1.3865 O   0  0  0  0  0  0  0  0  0  0  0  0
   -1.1881    0.7858   -1.8908 N   0  0  0  0  0  0  0  0  0  0  0  0
   -2.1318    0.6537   -1.5639 H   0  0  0  0  0  0  0  0  0  0  0  0
   -0.9922    1.3440   -3.2268 C   0  0  0  0  0  0  0  0  0  0  0  0
   -0.4230    0.6418   -3.8400 H   0  0  0  0  0  0  0  0  0  0  0  0
   -1.9555    1.5367   -3.7016 H   0  0  0  0  0  0  0  0  0  0  0  0
   -0.4309    2.2771   -3.1576 H   0  0  0  0  0  0  0  0  0  0  0  0
  5  6  2  0  0  0  0
  5  7  1  0  0  0  0
  2  3  1  0  0  0  0
  2  4  1  0  0  0  0
  2  5  1  0  0  0  0
  1  2  1  0  0  0  0
 24 25  2  0  0  0  0
 24 26  1  0  0  0  0
 20 21  1  0  0  0  0
 20 22  1  0  0  0  0
 20 23  1  0  0  0  0
 16 17  1  0  0  0  0
 16 18  1  0  0  0  0
 16 19  1  0  0  0  0
 14 15  1  0  0  0  0
 14 16  1  0  0  0  0
 14 20  1  0  0  0  0
 11 12  1  0  0  0  0
 11 13  1  0  0  0  0
 11 14  1  0  0  0  0
  9 10  1  0  0  0  0
  9 11  1  0  0  0  0
  9 24  1  0  0  0  0
  7  8  1  0  0  0  0
  7  9  1  0  0  0  0
 28 29  1  0  0  0  0
 28 30  1  0  0  0  0
 28 31  1  0  0  0  0
 26 27  1  0  0  0  0
 26 28  1  0  0  0  0
M  END
$$$$
default_name
  -OEChem-01062215323D

 31 30  0     1  0  0  0  0  0999 V2000
   -3.5895   -3.5013    1.1082 H   0  0  0  0  0  0  0  0  0  0  0  0
   -3.5145   -2.5363    0.6082 C   0  0  0  0  0  0  0  0  0  0  0  0
   -4.2285   -1.8413    1.0452 H   0  0  0  0  0  0  0  0  0  0  0  0
   -3.7155   -2.6583   -0.4538 H   0  0  0  0  0  0  0  0  0  0  0  0
   -2.1155   -1.9963    0.7922 C   0  0  0  0  0  0  0  0  0  0  0  0
   -1.2875   -2.6383    1.4252 O   0  0  0  0  0  0  0  0  0  0  0  0
   -1.8575   -0.8123    0.2402 N   0  0  0  0  0  0  0  0  0  0  0  0
   -2.6005   -0.3333   -0.2478 H   0  0  0  0  0  0  0  0  0  0  0  0
   -0.5675   -0.1203    0.3102 C   0  0  1  0  0  0  0  0  0  0  0  0
   -0.6667    0.7178    1.0008 H   0  0  0  0  0  0  0  0  0  0  0  0
    0.4873   -1.1021    0.8621 C   0  0  0  0  0  0  0  0  0  0  0  0
    0.5042   -1.9894    0.2262 H   0  0  0  0  0  0  0  0  0  0  0  0
    1.4660   -0.6229    0.7873 H   0  0  0  0  0  0  0  0  0  0  0  0
    0.2844   -1.5524    2.3205 C   0  0  0  0  0  0  0  0  0  0  0  0
   -0.7270   -1.9377    2.4495 H   0  0  0  0  0  0  0  0  0  0  0  0
    1.2860   -2.6332    2.7377 C   0  0  0  0  0  0  0  0  0  0  0  0
    2.3044   -2.2680    2.5989 H   0  0  0  0  0  0  0  0  0  0  0  0
    1.1377   -2.8854    3.7880 H   0  0  0  0  0  0  0  0  0  0  0  0
    1.1478   -3.5346    2.1445 H   0  0  0  0  0  0  0  0  0  0  0  0
    0.4592   -0.3587    3.2585 C   0  0  0  0  0  0  0  0  0  0  0  0
   -0.2645    0.4159    3.0049 H   0  0  0  0  0  0  0  0  0  0  0  0
    0.2888   -0.6691    4.2893 H   0  0  0  0  0  0  0  0  0  0  0  0
    1.4674    0.0467    3.1667 H   0  0  0  0  0  0  0  0  0  0  0  0
   -0.1871    0.4358   -1.0726 C   0  0  0  0  0  0  0  0  0  0  0  0
    0.9581    0.3022   -1.4978 O   0  0  0  0  0  0  0  0  0  0  0  0
   -1.1439    1.0667   -1.7657 N   0  0  0  0  0  0  0  0  0  0  0  0
   -2.0605    1.1307   -1.3525 H   0  0  0  0  0  0  0  0  0  0  0  0
   -0.9377    1.6637   -3.0832 C   0  0  0  0  0  0  0  0  0  0  0  0
   -0.6050    0.8976   -3.7872 H   0  0  0  0  0  0  0  0  0  0  0  0
   -1.8655    2.1075   -3.4472 H   0  0  0  0  0  0  0  0  0  0  0  0
   -0.1684    2.4351   -3.0219 H   0  0  0  0  0  0  0  0  0  0  0  0
  5  6  2  0  0  0  0
  5  7  1  0  0  0  0
  2  3  1  0  0  0  0
  2  4  1  0  0  0  0
  2  5  1  0  0  0  0
  1  2  1  0  0  0  0
 24 25  2  0  0  0  0
 24 26  1  0  0  0  0
 20 21  1  0  0  0  0
 20 22  1  0  0  0  0
 20 23  1  0  0  0  0
 16 17  1  0  0  0  0
 16 18  1  0  0  0  0
 16 19  1  0  0  0  0
 14 15  1  0  0  0  0
 14 16  1  0  0  0  0
 14 20  1  0  0  0  0
 11 12  1  0  0  0  0
 11 13  1  0  0  0  0
 11 14  1  0  0  0  0
  9 10  1  0  0  0  0
  9 11  1  0  0  0  0
  9 24  1  0  0  0  0
  7  8  1  0  0  0  0
  7  9  1  0  0  0  0
 28 29  1  0  0  0  0
 28 30  1  0  0  0  0
 28 31  1  0  0  0  0
 26 27  1  0  0  0  0
 26 28  1  0  0  0  0
M  END
$$$$
default_name
  -OEChem-01062215323D

 31 30  0     1  0  0  0  0  0999 V2000
   -3.5895   -3.5013    1.1082 H   0  0  0  0  0  0  0  0  0  0  0  0
   -3.5145   -2.5363    0.6082 C   0  0  0  0  0  0  0  0  0  0  0  0
   -4.2285   -1.8413    1.0452 H   0  0  0  0  0  0  0  0  0  0  0  0
   -3.7155   -2.6583   -0.4538 H   0  0  0  0  0  0  0  0  0  0  0  0
   -2.1155   -1.9963    0.7922 C   0  0  0  0  0  0  0  0  0  0  0  0
   -1.2875   -2.6383    1.4252 O   0  0  0  0  0  0  0  0  0  0  0  0
   -1.8575   -0.8123    0.2402 N   0  0  0  0  0  0  0  0  0  0  0  0
   -2.6005   -0.3333   -0.2478 H   0  0  0  0  0  0  0  0  0  0  0  0
   -0.5675   -0.1203    0.3102 C   0  0  1  0  0  0  0  0  0  0  0  0
   -0.6667    0.7178    1.0008 H   0  0  0  0  0  0  0  0  0  0  0  0
    0.4873   -1.1021    0.8621 C   0  0  0  0  0  0  0  0  0  0  0  0
    0.5042   -1.9894    0.2262 H   0  0  0  0  0  0  0  0  0  0  0  0
    1.4660   -0.6229    0.7873 H   0  0  0  0  0  0  0  0  0  0  0  0
    0.2844   -1.5524    2.3205 C   0  0  0  0  0  0  0  0  0  0  0  0
   -0.7270   -1.9377    2.4495 H   0  0  0  0  0  0  0  0  0  0  0  0
    1.2860   -2.6332    2.7377 C   0  0  0  0  0  0  0  0  0  0  0  0
    2.3044   -2.2680    2.5989 H   0  0  0  0  0  0  0  0  0  0  0  0
    1.1377   -2.8854    3.7880 H   0  0  0  0  0  0  0  0  0  0  0  0
    1.1478   -3.5346    2.1445 H   0  0  0  0  0  0  0  0  0  0  0  0
    0.4592   -0.3587    3.2585 C   0  0  0  0  0  0  0  0  0  0  0  0
   -0.2645    0.4159    3.0049 H   0  0  0  0  0  0  0  0  0  0  0  0
    0.2888   -0.6691    4.2893 H   0  0  0  0  0  0  0  0  0  0  0  0
    1.4674    0.0467    3.1667 H   0  0  0  0  0  0  0  0  0  0  0  0
   -0.1871    0.4358   -1.0726 C   0  0  0  0  0  0  0  0  0  0  0  0
    0.8534    0.0751   -1.6179 O   0  0  0  0  0  0  0  0  0  0  0  0
   -1.0242    1.3198   -1.6310 N   0  0  0  0  0  0  0  0  0  0  0  0
   -1.8608    1.5613   -1.1244 H   0  0  0  0  0  0  0  0  0  0  0  0
   -0.7972    1.9506   -2.9292 C   0  0  0  0  0  0  0  0  0  0  0  0
   -0.7162    1.1836   -3.7027 H   0  0  0  0  0  0  0  0  0  0  0  0
   -1.6220    2.6217   -3.1735 H   0  0  0  0  0  0  0  0  0  0  0  0
    0.1346    2.5179   -2.9053 H   0  0  0  0  0  0  0  0  0  0  0  0
  5  6  2  0  0  0  0
  5  7  1  0  0  0  0
  2  3  1  0  0  0  0
  2  4  1  0  0  0  0
  2  5  1  0  0  0  0
  1  2  1  0  0  0  0
 24 25  2  0  0  0  0
 24 26  1  0  0  0  0
 20 21  1  0  0  0  0
 20 22  1  0  0  0  0
 20 23  1  0  0  0  0
 16 17  1  0  0  0  0
 16 18  1  0  0  0  0
 16 19  1  0  0  0  0
 14 15  1  0  0  0  0
 14 16  1  0  0  0  0
 14 20  1  0  0  0  0
 11 12  1  0  0  0  0
 11 13  1  0  0  0  0
 11 14  1  0  0  0  0
  9 10  1  0  0  0  0
  9 11  1  0  0  0  0
  9 24  1  0  0  0  0
  7  8  1  0  0  0  0
  7  9  1  0  0  0  0
 28 29  1  0  0  0  0
 28 30  1  0  0  0  0
 28 31  1  0  0  0  0
 26 27  1  0  0  0  0
 26 28  1  0  0  0  0
M  END
$$$$
default_name
  -OEChem-01062215323D

 31 30  0     1  0  0  0  0  0999 V2000
   -3.5895   -3.5013    1.1082 H   0  0  0  0  0  0  0  0  0  0  0  0
   -3.5145   -2.5363    0.6082 C   0  0  0  0  0  0  0  0  0  0  0  0
   -4.2285   -1.8413    1.0452 H   0  0  0  0  0  0  0  0  0  0  0  0
   -3.7155   -2.6583   -0.4538 H   0  0  0  0  0  0  0  0  0  0  0  0
   -2.1155   -1.9963    0.7922 C   0  0  0  0  0  0  0  0  0  0  0  0
   -1.2875   -2.6383    1.4252 O   0  0  0  0  0  0  0  0  0  0  0  0
   -1.8575   -0.8123    0.2402 N   0  0  0  0  0  0  0  0  0  0  0  0
   -2.6005   -0.3333   -0.2478 H   0  0  0  0  0  0  0  0  0  0  0  0
   -0.5675   -0.1203    0.3102 C   0  0  1  0  0  0  0  0  0  0  0  0
   -0.6667    0.7178    1.0008 H   0  0  0  0  0  0  0  0  0  0  0  0
    0.4873   -1.1021    0.8621 C   0  0  0  0  0  0  0  0  0  0  0  0
    0.5042   -1.9894    0.2262 H   0  0  0  0  0  0  0  0  0  0  0  0
    1.4660   -0.6229    0.7873 H   0  0  0  0  0  0  0  0  0  0  0  0
    0.2844   -1.5524    2.3205 C   0  0  0  0  0  0  0  0  0  0  0  0
   -0.7270   -1.9377    2.4495 H   0  0  0  0  0  0  0  0  0  0  0  0
    1.2860   -2.6332    2.7377 C   0  0  0  0  0  0  0  0  0  0  0  0
    2.3044   -2.2680    2.5989 H   0  0  0  0  0  0  0  0  0  0  0  0
    1.1377   -2.8854    3.7880 H   0  0  0  0  0  0  0  0  0  0  0  0
    1.1478   -3.5346    2.1445 H   0  0  0  0  0  0  0  0  0  0  0  0
    0.4592   -0.3587    3.2585 C   0  0  0  0  0  0  0  0  0  0  0  0
   -0.2645    0.4159    3.0049 H   0  0  0  0  0  0  0  0  0  0  0  0
    0.2888   -0.6691    4.2893 H   0  0  0  0  0  0  0  0  0  0  0  0
    1.4674    0.0467    3.1667 H   0  0  0  0  0  0  0  0  0  0  0  0
   -0.1871    0.4358   -1.0726 C   0  0  0  0  0  0  0  0  0  0  0  0
    0.6882   -0.1122   -1.7387 O   0  0  0  0  0  0  0  0  0  0  0  0
   -0.8371    1.5277   -1.4959 N   0  0  0  0  0  0  0  0  0  0  0  0
   -1.5465    1.9162   -0.8952 H   0  0  0  0  0  0  0  0  0  0  0  0
   -0.5803    2.1852   -2.7752 C   0  0  0  0  0  0  0  0  0  0  0  0
   -0.7492    1.4804   -3.5925 H   0  0  0  0  0  0  0  0  0  0  0  0
   -1.2416    3.0441   -2.8990 H   0  0  0  0  0  0  0  0  0  0  0  0
    0.4575    2.5199   -2.8157 H   0  0  0  0  0  0  0  0  0  0  0  0
  5  6  2  0  0  0  0
  5  7  1  0  0  0  0
  2  3  1  0  0  0  0
  2  4  1  0  0  0  0
  2  5  1  0  0  0  0
  1  2  1  0  0  0  0
 24 25  2  0  0  0  0
 24 26  1  0  0  0  0
 20 21  1  0  0  0  0
 20 22  1  0  0  0  0
 20 23  1  0  0  0  0
 16 17  1  0  0  0  0
 16 18  1  0  0  0  0
 16 19  1  0  0  0  0
 14 15  1  0  0  0  0
 14 16  1  0  0  0  0
 14 20  1  0  0  0  0
 11 12  1  0  0  0  0
 11 13  1  0  0  0  0
 11 14  1  0  0  0  0
  9 10  1  0  0  0  0
  9 11  1  0  0  0  0
  9 24  1  0  0  0  0
  7  8  1  0  0  0  0
  7  9  1  0  0  0  0
 28 29  1  0  0  0  0
 28 30  1  0  0  0  0
 28 31  1  0  0  0  0
 26 27  1  0  0  0  0
 26 28  1  0  0  0  0
M  END
$$$$
default_name
  -OEChem-01062215323D

 31 30  0     1  0  0  0  0  0999 V2000
   -3.5895   -3.5013    1.1082 H   0  0  0  0  0  0  0  0  0  0  0  0
   -3.5145   -2.5363    0.6082 C   0  0  0  0  0  0  0  0  0  0  0  0
   -4.2285   -1.8413    1.0452 H   0  0  0  0  0  0  0  0  0  0  0  0
   -3.7155   -2.6583   -0.4538 H   0  0  0  0  0  0  0  0  0  0  0  0
   -2.1155   -1.9963    0.7922 C   0  0  0  0  0  0  0  0  0  0  0  0
   -1.2875   -2.6383    1.4252 O   0  0  0  0  0  0  0  0  0  0  0  0
   -1.8575   -0.8123    0.2402 N   0  0  0  0  0  0  0  0  0  0  0  0
   -2.6005   -0.3333   -0.2478 H   0  0  0  0  0  0  0  0  0  0  0  0
   -0.5675   -0.1203    0.3102 C   0  0  1  0  0  0  0  0  0  0  0  0
   -0.6667    0.7178    1.0008 H   0  0  0  0  0  0  0  0  0  0  0  0
    0.4873   -1.1021    0.8621 C   0  0  0  0  0  0  0  0  0  0  0  0
    0.5042   -1.9894    0.2262 H   0  0  0  0  0  0  0  0  0  0  0  0
    1.4660   -0.6229    0.7873 H   0  0  0  0  0  0  0  0  0  0  0  0
    0.2844   -1.5524    2.3205 C   0  0  0  0  0  0  0  0  0  0  0  0
   -0.7270   -1.9377    2.4495 H   0  0  0  0  0  0  0  0  0  0  0  0
    1.2860   -2.6332    2.7377 C   0  0  0  0  0  0  0  0  0  0  0  0
    2.3044   -2.2680    2.5989 H   0  0  0  0  0  0  0  0  0  0  0  0
    1.1377   -2.8854    3.7880 H   0  0  0  0  0  0  0  0  0  0  0  0
    1.1478   -3.5346    2.1445 H   0  0  0  0  0  0  0  0  0  0  0  0
    0.4592   -0.3587    3.2585 C   0  0  0  0  0  0  0  0  0  0  0  0
   -0.2645    0.4159    3.0049 H   0  0  0  0  0  0  0  0  0  0  0  0
    0.2888   -0.6691    4.2893 H   0  0  0  0  0  0  0  0  0  0  0  0
    1.4674    0.0467    3.1667 H   0  0  0  0  0  0  0  0  0  0  0  0
   -0.1871    0.4358   -1.0726 C   0  0  0  0  0  0  0  0  0  0  0  0
    0.4737   -0.2469   -1.8519 O   0  0  0  0  0  0  0  0  0  0  0  0
   -0.5953    1.6764   -1.3696 N   0  0  0  0  0  0  0  0  0  0  0  0
   -1.1388    2.1711   -0.6805 H   0  0  0  0  0  0  0  0  0  0  0  0
   -0.3018    2.3514   -2.6317 C   0  0  0  0  0  0  0  0  0  0  0  0
   -0.7017    1.7677   -3.4639 H   0  0  0  0  0  0  0  0  0  0  0  0
   -0.7501    3.3461   -2.6423 H   0  0  0  0  0  0  0  0  0  0  0  0
    0.7782    2.4410   -2.7592 H   0  0  0  0  0  0  0  0  0  0  0  0
  5  6  2  0  0  0  0
  5  7  1  0  0  0  0
  2  3  1  0  0  0  0
  2  4  1  0  0  0  0
  2  5  1  0  0  0  0
  1  2  1  0  0  0  0
 24 25  2  0  0  0  0
 24 26  1  0  0  0  0
 20 21  1  0  0  0  0
 20 22  1  0  0  0  0
 20 23  1  0  0  0  0
 16 17  1  0  0  0  0
 16 18  1  0  0  0  0
 16 19  1  0  0  0  0
 14 15  1  0  0  0  0
 14 16  1  0  0  0  0
 14 20  1  0  0  0  0
 11 12  1  0  0  0  0
 11 13  1  0  0  0  0
 11 14  1  0  0  0  0
  9 10  1  0  0  0  0
  9 11  1  0  0  0  0
  9 24  1  0  0  0  0
  7  8  1  0  0  0  0
  7  9  1  0  0  0  0
 28 29  1  0  0  0  0
 28 30  1  0  0  0  0
 28 31  1  0  0  0  0
 26 27  1  0  0  0  0
 26 28  1  0  0  0  0
M  END
$$$$
default_name
  -OEChem-01062215323D

 31 30  0     1  0  0  0  0  0999 V2000
   -3.5895   -3.5013    1.1082 H   0  0  0  0  0  0  0  0  0  0  0  0
   -3.5145   -2.5363    0.6082 C   0  0  0  0  0  0  0  0  0  0  0  0
   -4.2285   -1.8413    1.0452 H   0  0  0  0  0  0  0  0  0  0  0  0
   -3.7155   -2.6583   -0.4538 H   0  0  0  0  0  0  0  0  0  0  0  0
   -2.1155   -1.9963    0.7922 C   0  0  0  0  0  0  0  0  0  0  0  0
   -1.2875   -2.6383    1.4252 O   0  0  0  0  0  0  0  0  0  0  0  0
   -1.8575   -0.8123    0.2402 N   0  0  0  0  0  0  0  0  0  0  0  0
   -2.6005   -0.3333   -0.2478 H   0  0  0  0  0  0  0  0  0  0  0  0
   -0.5675   -0.1203    0.3102 C   0  0  1  0  0  0  0  0  0  0  0  0
   -0.6667    0.7178    1.0008 H   0  0  0  0  0  0  0  0  0  0  0  0
    0.4873   -1.1021    0.8621 C   0  0  0  0  0  0  0  0  0  0  0  0
    0.5042   -1.9894    0.2262 H   0  0  0  0  0  0  0  0  0  0  0  0
    1.4660   -0.6229    0.7873 H   0  0  0  0  0  0  0  0  0  0  0  0
    0.2844   -1.5524    2.3205 C   0  0  0  0  0  0  0  0  0  0  0  0
   -0.7270   -1.9377    2.4495 H   0  0  0  0  0  0  0  0  0  0  0  0
    1.2860   -2.6332    2.7377 C   0  0  0  0  0  0  0  0  0  0  0  0
    2.3044   -2.2680    2.5989 H   0  0  0  0  0  0  0  0  0  0  0  0
    1.1377   -2.8854    3.7880 H   0  0  0  0  0  0  0  0  0  0  0  0
    1.1478   -3.5346    2.1445 H   0  0  0  0  0  0  0  0  0  0  0  0
    0.4592   -0.3587    3.2585 C   0  0  0  0  0  0  0  0  0  0  0  0
   -0.2645    0.4159    3.0049 H   0  0  0  0  0  0  0  0  0  0  0  0
    0.2888   -0.6691    4.2893 H   0  0  0  0  0  0  0  0  0  0  0  0
    1.4674    0.0467    3.1667 H   0  0  0  0  0  0  0  0  0  0  0  0
   -0.1871    0.4358   -1.0726 C   0  0  0  0  0  0  0  0  0  0  0  0
    0.2246   -0.3200   -1.9498 O   0  0  0  0  0  0  0  0  0  0  0  0
   -0.3154    1.7557   -1.2607 N   0  0  0  0  0  0  0  0  0  0  0  0
   -0.6656    2.3088   -0.4950 H   0  0  0  0  0  0  0  0  0  0  0  0
    0.0193    2.4381   -2.5086 C   0  0  0  0  0  0  0  0  0  0  0  0
   -0.5770    2.0259   -3.3257 H   0  0  0  0  0  0  0  0  0  0  0  0
   -0.1811    3.5070   -2.4211 H   0  0  0  0  0  0  0  0  0  0  0  0
    1.0749    2.2866   -2.7397 H   0  0  0  0  0  0  0  0  0  0  0  0
  5  6  2  0  0  0  0
  5  7  1  0  0  0  0
  2  3  1  0  0  0  0
  2  4  1  0  0  0  0
  2  5  1  0  0  0  0
  1  2  1  0  0  0  0
 24 25  2  0  0  0  0
 24 26  1  0  0  0  0
 20 21  1  0  0  0  0
 20 22  1  0  0  0  0
 20 23  1  0  0  0  0
 16 17  1  0  0  0  0
 16 18  1  0  0  0  0
 16 19  1  0  0  0  0
 14 15  1  0  0  0  0
 14 16  1  0  0  0  0
 14 20  1  0  0  0  0
 11 12  1  0  0  0  0
 11 13  1  0  0  0  0
 11 14  1  0  0  0  0
  9 10  1  0  0  0  0
  9 11  1  0  0  0  0
  9 24  1  0  0  0  0
  7  8  1  0  0  0  0
  7  9  1  0  0  0  0
 28 29  1  0  0  0  0
 28 30  1  0  0  0  0
 28 31  1  0  0  0  0
 26 27  1  0  0  0  0
 26 28  1  0  0  0  0
M  END
$$$$
default_name
  -OEChem-01062215323D

 31 30  0     1  0  0  0  0  0999 V2000
   -3.5895   -3.5013    1.1082 H   0  0  0  0  0  0  0  0  0  0  0  0
   -3.5145   -2.5363    0.6082 C   0  0  0  0  0  0  0  0  0  0  0  0
   -4.2285   -1.8413    1.0452 H   0  0  0  0  0  0  0  0  0  0  0  0
   -3.7155   -2.6583   -0.4538 H   0  0  0  0  0  0  0  0  0  0  0  0
   -2.1155   -1.9963    0.7922 C   0  0  0  0  0  0  0  0  0  0  0  0
   -1.2875   -2.6383    1.4252 O   0  0  0  0  0  0  0  0  0  0  0  0
   -1.8575   -0.8123    0.2402 N   0  0  0  0  0  0  0  0  0  0  0  0
   -2.6005   -0.3333   -0.2478 H   0  0  0  0  0  0  0  0  0  0  0  0
   -0.5675   -0.1203    0.3102 C   0  0  1  0  0  0  0  0  0  0  0  0
   -0.6667    0.7178    1.0008 H   0  0  0  0  0  0  0  0  0  0  0  0
    0.4873   -1.1021    0.8621 C   0  0  0  0  0  0  0  0  0  0  0  0
    0.5042   -1.9894    0.2262 H   0  0  0  0  0  0  0  0  0  0  0  0
    1.4660   -0.6229    0.7873 H   0  0  0  0  0  0  0  0  0  0  0  0
    0.2844   -1.5524    2.3205 C   0  0  0  0  0  0  0  0  0  0  0  0
   -0.7270   -1.9377    2.4495 H   0  0  0  0  0  0  0  0  0  0  0  0
    1.2860   -2.6332    2.7377 C   0  0  0  0  0  0  0  0  0  0  0  0
    2.3044   -2.2680    2.5989 H   0  0  0  0  0  0  0  0  0  0  0  0
    1.1377   -2.8854    3.7880 H   0  0  0  0  0  0  0  0  0  0  0  0
    1.1478   -3.5346    2.1445 H   0  0  0  0  0  0  0  0  0  0  0  0
    0.4592   -0.3587    3.2585 C   0  0  0  0  0  0  0  0  0  0  0  0
   -0.2645    0.4159    3.0049 H   0  0  0  0  0  0  0  0  0  0  0  0
    0.2888   -0.6691    4.2893 H   0  0  0  0  0  0  0  0  0  0  0  0
    1.4674    0.0467    3.1667 H   0  0  0  0  0  0  0  0  0  0  0  0
   -0.1871    0.4358   -1.0726 C   0  0  0  0  0  0  0  0  0  0  0  0
   -0.0422   -0.3263   -2.0257 O   0  0  0  0  0  0  0  0  0  0  0  0
   -0.0164    1.7602   -1.1767 N   0  0  0  0  0  0  0  0  0  0  0  0
   -0.1591    2.3199   -0.3513 H   0  0  0  0  0  0  0  0  0  0  0  0
    0.3612    2.4391   -2.4141 C   0  0  0  0  0  0  0  0  0  0  0  0
   -0.3835    2.2374   -3.1874 H   0  0  0  0  0  0  0  0  0  0  0  0
    0.4267    3.5159   -2.2504 H   0  0  0  0  0  0  0  0  0  0  0  0
    1.3274    2.0671   -2.7585 H   0  0  0  0  0  0  0  0  0  0  0  0
  5  6  2  0  0  0  0
  5  7  1  0  0  0  0
  2  3  1  0  0  0  0
  2  4  1  0  0  0  0
  2  5  1  0  0  0  0
  1  2  1  0  0  0  0
 24 25  2  0  0  0  0
 24 26  1  0  0  0  0
 20 21  1  0  0  0  0
 20 22  1  0  0  0  0
 20 23  1  0  0  0  0
 16 17  1  0  0  0  0
 16 18  1  0  0  0  0
 16 19  1  0  0  0  0
 14 15  1  0  0  0  0
 14 16  1  0  0  0  0
 14 20  1  0  0  0  0
 11 12  1  0  0  0  0
 11 13  1  0  0  0  0
 11 14  1  0  0  0  0
  9 10  1  0  0  0  0
  9 11  1  0  0  0  0
  9 24  1  0  0  0  0
  7  8  1  0  0  0  0
  7  9  1  0  0  0  0
 28 29  1  0  0  0  0
 28 30  1  0  0  0  0
 28 31  1  0  0  0  0
 26 27  1  0  0  0  0
 26 28  1  0  0  0  0
M  END
$$$$
default_name
  -OEChem-01062215323D

 31 30  0     1  0  0  0  0  0999 V2000
   -3.5895   -3.5013    1.1082 H   0  0  0  0  0  0  0  0  0  0  0  0
   -3.5145   -2.5363    0.6082 C   0  0  0  0  0  0  0  0  0  0  0  0
   -4.2285   -1.8413    1.0452 H   0  0  0  0  0  0  0  0  0  0  0  0
   -3.7155   -2.6583   -0.4538 H   0  0  0  0  0  0  0  0  0  0  0  0
   -2.1155   -1.9963    0.7922 C   0  0  0  0  0  0  0  0  0  0  0  0
   -1.2875   -2.6383    1.4252 O   0  0  0  0  0  0  0  0  0  0  0  0
   -1.8575   -0.8123    0.2402 N   0  0  0  0  0  0  0  0  0  0  0  0
   -2.6005   -0.3333   -0.2478 H   0  0  0  0  0  0  0  0  0  0  0  0
   -0.5675   -0.1203    0.3102 C   0  0  1  0  0  0  0  0  0  0  0  0
   -0.6667    0.7178    1.0008 H   0  0  0  0  0  0  0  0  0  0  0  0
    0.4873   -1.1021    0.8621 C   0  0  0  0  0  0  0  0  0  0  0  0
    0.5042   -1.9894    0.2262 H   0  0  0  0  0  0  0  0  0  0  0  0
    1.4660   -0.6229    0.7873 H   0  0  0  0  0  0  0  0  0  0  0  0
    0.2844   -1.5524    2.3205 C   0  0  0  0  0  0  0  0  0  0  0  0
   -0.7270   -1.9377    2.4495 H   0  0  0  0  0  0  0  0  0  0  0  0
    1.2860   -2.6332    2.7377 C   0  0  0  0  0  0  0  0  0  0  0  0
    2.3044   -2.2680    2.5989 H   0  0  0  0  0  0  0  0  0  0  0  0
    1.1377   -2.8854    3.7880 H   0  0  0  0  0  0  0  0  0  0  0  0
    1.1478   -3.5346    2.1445 H   0  0  0  0  0  0  0  0  0  0  0  0
    0.4592   -0.3587    3.2585 C   0  0  0  0  0  0  0  0  0  0  0  0
   -0.2645    0.4159    3.0049 H   0  0  0  0  0  0  0  0  0  0  0  0
    0.2888   -0.6691    4.2893 H   0  0  0  0  0  0  0  0  0  0  0  0
    1.4674    0.0467    3.1667 H   0  0  0  0  0  0  0  0  0  0  0  0
   -0.1871    0.4358   -1.0726 C   0  0  0  0  0  0  0  0  0  0  0  0
   -0.3084   -0.2655   -2.0744 O   0  0  0  0  0  0  0  0  0  0  0  0
    0.2814    1.6895   -1.1232 N   0  0  0  0  0  0  0  0  0  0  0  0
    0.3461    2.2035   -0.2591 H   0  0  0  0  0  0  0  0  0  0  0  0
    0.7005    2.3546   -2.3548 C   0  0  0  0  0  0  0  0  0  0  0  0
   -0.1344    2.3879   -3.0584 H   0  0  0  0  0  0  0  0  0  0  0  0
    1.0318    3.3721   -2.1418 H   0  0  0  0  0  0  0  0  0  0  0  0
    1.5185    1.7976   -2.8144 H   0  0  0  0  0  0  0  0  0  0  0  0
  5  6  2  0  0  0  0
  5  7  1  0  0  0  0
  2  3  1  0  0  0  0
  2  4  1  0  0  0  0
  2  5  1  0  0  0  0
  1  2  1  0  0  0  0
 24 25  2  0  0  0  0
 24 26  1  0  0  0  0
 20 21  1  0  0  0  0
 20 22  1  0  0  0  0
 20 23  1  0  0  0  0
 16 17  1  0  0  0  0
 16 18  1  0  0  0  0
 16 19  1  0  0  0  0
 14 15  1  0  0  0  0
 14 16  1  0  0  0  0
 14 20  1  0  0  0  0
 11 12  1  0  0  0  0
 11 13  1  0  0  0  0
 11 14  1  0  0  0  0
  9 10  1  0  0  0  0
  9 11  1  0  0  0  0
  9 24  1  0  0  0  0
  7  8  1  0  0  0  0
  7  9  1  0  0  0  0
 28 29  1  0  0  0  0
 28 30  1  0  0  0  0
 28 31  1  0  0  0  0
 26 27  1  0  0  0  0
 26 28  1  0  0  0  0
M  END
$$$$
default_name
  -OEChem-01062215323D

 31 30  0     1  0  0  0  0  0999 V2000
   -3.5895   -3.5013    1.1082 H   0  0  0  0  0  0  0  0  0  0  0  0
   -3.5145   -2.5363    0.6082 C   0  0  0  0  0  0  0  0  0  0  0  0
   -4.2285   -1.8413    1.0452 H   0  0  0  0  0  0  0  0  0  0  0  0
   -3.7155   -2.6583   -0.4538 H   0  0  0  0  0  0  0  0  0  0  0  0
   -2.1155   -1.9963    0.7922 C   0  0  0  0  0  0  0  0  0  0  0  0
   -1.2875   -2.6383    1.4252 O   0  0  0  0  0  0  0  0  0  0  0  0
   -1.8575   -0.8123    0.2402 N   0  0  0  0  0  0  0  0  0  0  0  0
   -2.6005   -0.3333   -0.2478 H   0  0  0  0  0  0  0  0  0  0  0  0
   -0.5675   -0.1203    0.3102 C   0  0  1  0  0  0  0  0  0  0  0  0
   -0.6667    0.7178    1.0008 H   0  0  0  0  0  0  0  0  0  0  0  0
    0.4873   -1.1021    0.8621 C   0  0  0  0  0  0  0  0  0  0  0  0
    0.5042   -1.9894    0.2262 H   0  0  0  0  0  0  0  0  0  0  0  0
    1.4660   -0.6229    0.7873 H   0  0  0  0  0  0  0  0  0  0  0  0
    0.2844   -1.5524    2.3205 C   0  0  0  0  0  0  0  0  0  0  0  0
   -0.7270   -1.9377    2.4495 H   0  0  0  0  0  0  0  0  0  0  0  0
    1.2860   -2.6332    2.7377 C   0  0  0  0  0  0  0  0  0  0  0  0
    2.3044   -2.2680    2.5989 H   0  0  0  0  0  0  0  0  0  0  0  0
    1.1377   -2.8854    3.7880 H   0  0  0  0  0  0  0  0  0  0  0  0
    1.1478   -3.5346    2.1445 H   0  0  0  0  0  0  0  0  0  0  0  0
    0.4592   -0.3587    3.2585 C   0  0  0  0  0  0  0  0  0  0  0  0
   -0.2645    0.4159    3.0049 H   0  0  0  0  0  0  0  0  0  0  0  0
    0.2888   -0.6691    4.2893 H   0  0  0  0  0  0  0  0  0  0  0  0
    1.4674    0.0467    3.1667 H   0  0  0  0  0  0  0  0  0  0  0  0
   -0.1871    0.4358   -1.0726 C   0  0  0  0  0  0  0  0  0  0  0  0
   -0.5560   -0.1416   -2.0927 O   0  0  0  0  0  0  0  0  0  0  0  0
    0.5576    1.5486   -1.1039 N   0  0  0  0  0  0  0  0  0  0  0  0
    0.8157    1.9676   -0.2249 H   0  0  0  0  0  0  0  0  0  0  0  0
    1.0141    2.1902   -2.3347 C   0  0  0  0  0  0  0  0  0  0  0  0
    0.1532    2.4671   -2.9474 H   0  0  0  0  0  0  0  0  0  0  0  0
    1.5929    3.0855   -2.1027 H   0  0  0  0  0  0  0  0  0  0  0  0
    1.6351    1.4963   -2.9035 H   0  0  0  0  0  0  0  0  0  0  0  0
  5  6  2  0  0  0  0
  5  7  1  0  0  0  0
  2  3  1  0  0  0  0
  2  4  1  0  0  0  0
  2  5  1  0  0  0  0
  1  2  1  0  0  0  0
 24 25  2  0  0  0  0
 24 26  1  0  0  0  0
 20 21  1  0  0  0  0
 20 22  1  0  0  0  0
 20 23  1  0  0  0  0
 16 17  1  0  0  0  0
 16 18  1  0  0  0  0
 16 19  1  0  0  0  0
 14 15  1  0  0  0  0
 14 16  1  0  0  0  0
 14 20  1  0  0  0  0
 11 12  1  0  0  0  0
 11 13  1  0  0  0  0
 11 14  1  0  0  0  0
  9 10  1  0  0  0  0
  9 11  1  0  0  0  0
  9 24  1  0  0  0  0
  7  8  1  0  0  0  0
  7  9  1  0  0  0  0
 28 29  1  0  0  0  0
 28 30  1  0  0  0  0
 28 31  1  0  0  0  0
 26 27  1  0  0  0  0
 26 28  1  0  0  0  0
M  END
$$$$
default_name
  -OEChem-01062215323D

 31 30  0     1  0  0  0  0  0999 V2000
   -3.5895   -3.5013    1.1082 H   0  0  0  0  0  0  0  0  0  0  0  0
   -3.5145   -2.5363    0.6082 C   0  0  0  0  0  0  0  0  0  0  0  0
   -4.2285   -1.8413    1.0452 H   0  0  0  0  0  0  0  0  0  0  0  0
   -3.7155   -2.6583   -0.4538 H   0  0  0  0  0  0  0  0  0  0  0  0
   -2.1155   -1.9963    0.7922 C   0  0  0  0  0  0  0  0  0  0  0  0
   -1.2875   -2.6383    1.4252 O   0  0  0  0  0  0  0  0  0  0  0  0
   -1.8575   -0.8123    0.2402 N   0  0  0  0  0  0  0  0  0  0  0  0
   -2.6005   -0.3333   -0.2478 H   0  0  0  0  0  0  0  0  0  0  0  0
   -0.5675   -0.1203    0.3102 C   0  0  1  0  0  0  0  0  0  0  0  0
   -0.6667    0.7178    1.0008 H   0  0  0  0  0  0  0  0  0  0  0  0
    0.4873   -1.1021    0.8621 C   0  0  0  0  0  0  0  0  0  0  0  0
    0.5042   -1.9894    0.2262 H   0  0  0  0  0  0  0  0  0  0  0  0
    1.4660   -0.6229    0.7873 H   0  0  0  0  0  0  0  0  0  0  0  0
    0.2844   -1.5524    2.3205 C   0  0  0  0  0  0  0  0  0  0  0  0
   -0.7270   -1.9377    2.4495 H   0  0  0  0  0  0  0  0  0  0  0  0
    1.2860   -2.6332    2.7377 C   0  0  0  0  0  0  0  0  0  0  0  0
    2.3044   -2.2680    2.5989 H   0  0  0  0  0  0  0  0  0  0  0  0
    1.1377   -2.8854    3.7880 H   0  0  0  0  0  0  0  0  0  0  0  0
    1.1478   -3.5346    2.1445 H   0  0  0  0  0  0  0  0  0  0  0  0
    0.4592   -0.3587    3.2585 C   0  0  0  0  0  0  0  0  0  0  0  0
   -0.2645    0.4159    3.0049 H   0  0  0  0  0  0  0  0  0  0  0  0
    0.2888   -0.6691    4.2893 H   0  0  0  0  0  0  0  0  0  0  0  0
    1.4674    0.0467    3.1667 H   0  0  0  0  0  0  0  0  0  0  0  0
   -0.1871    0.4358   -1.0726 C   0  0  0  0  0  0  0  0  0  0  0  0
   -0.7681    0.0367   -2.0793 O   0  0  0  0  0  0  0  0  0  0  0  0
    0.7933    1.3470   -1.1202 N   0  0  0  0  0  0  0  0  0  0  0  0
    1.2176    1.6283   -0.2508 H   0  0  0  0  0  0  0  0  0  0  0  0
    1.2806    1.9571   -2.3551 C   0  0  0  0  0  0  0  0  0  0  0  0
    0.4599    2.4695   -2.8621 H   0  0  0  0  0  0  0  0  0  0  0  0
    2.0720    2.6756   -2.1358 H   0  0  0  0  0  0  0  0  0  0  0  0
    1.6693    1.1839   -3.0197 H   0  0  0  0  0  0  0  0  0  0  0  0
  5  6  2  0  0  0  0
  5  7  1  0  0  0  0
  2  3  1  0  0  0  0
  2  4  1  0  0  0  0
  2  5  1  0  0  0  0
  1  2  1  0  0  0  0
 24 25  2  0  0  0  0
 24 26  1  0  0  0  0
 20 21  1  0  0  0  0
 20 22  1  0  0  0  0
 20 23  1  0  0  0  0
 16 17  1  0  0  0  0
 16 18  1  0  0  0  0
 16 19  1  0  0  0  0
 14 15  1  0  0  0  0
 14 16  1  0  0  0  0
 14 20  1  0  0  0  0
 11 12  1  0  0  0  0
 11 13  1  0  0  0  0
 11 14  1  0  0  0  0
  9 10  1  0  0  0  0
  9 11  1  0  0  0  0
  9 24  1  0  0  0  0
  7  8  1  0  0  0  0
  7  9  1  0  0  0  0
 28 29  1  0  0  0  0
 28 30  1  0  0  0  0
 28 31  1  0  0  0  0
 26 27  1  0  0  0  0
 26 28  1  0  0  0  0
M  END
$$$$
default_name
  -OEChem-01062215323D

 31 30  0     1  0  0  0  0  0999 V2000
   -3.5895   -3.5013    1.1082 H   0  0  0  0  0  0  0  0  0  0  0  0
   -3.5145   -2.5363    0.6082 C   0  0  0  0  0  0  0  0  0  0  0  0
   -4.2285   -1.8413    1.0452 H   0  0  0  0  0  0  0  0  0  0  0  0
   -3.7155   -2.6583   -0.4538 H   0  0  0  0  0  0  0  0  0  0  0  0
   -2.1155   -1.9963    0.7922 C   0  0  0  0  0  0  0  0  0  0  0  0
   -1.2875   -2.6383    1.4252 O   0  0  0  0  0  0  0  0  0  0  0  0
   -1.8575   -0.8123    0.2402 N   0  0  0  0  0  0  0  0  0  0  0  0
   -2.6005   -0.3333   -0.2478 H   0  0  0  0  0  0  0  0  0  0  0  0
   -0.5675   -0.1203    0.3102 C   0  0  1  0  0  0  0  0  0  0  0  0
   -0.5790    0.5362    1.1809 H   0  0  0  0  0  0  0  0  0  0  0  0
    0.5457   -1.1735    0.4915 C   0  0  0  0  0  0  0  0  0  0  0  0
    0.4822   -1.8924   -0.3276 H   0  0  0  0  0  0  0  0  0  0  0  0
    1.5084   -0.6640    0.4106 H   0  0  0  0  0  0  0  0  0  0  0  0
    0.5239   -1.9484    1.8219 C   0  0  0  0  0  0  0  0  0  0  0  0
   -0.4646   -2.3795    1.9806 H   0  0  0  0  0  0  0  0  0  0  0  0
    1.5674   -3.0687    1.8569 C   0  0  0  0  0  0  0  0  0  0  0  0
    2.5615   -2.6546    1.6833 H   0  0  0  0  0  0  0  0  0  0  0  0
    1.5496   -3.5566    2.8317 H   0  0  0  0  0  0  0  0  0  0  0  0
    1.3553   -3.8152    1.0946 H   0  0  0  0  0  0  0  0  0  0  0  0
    0.8154   -0.9945    2.9797 C   0  0  0  0  0  0  0  0  0  0  0  0
    0.0674   -0.2020    2.9992 H   0  0  0  0  0  0  0  0  0  0  0  0
    0.7732   -1.5354    3.9252 H   0  0  0  0  0  0  0  0  0  0  0  0
    1.8053   -0.5523    2.8620 H   0  0  0  0  0  0  0  0  0  0  0  0
   -0.3600    0.7452   -0.9444 C   0  0  0  0  0  0  0  0  0  0  0  0
   -1.2166    0.7704   -1.8252 O   0  0  0  0  0  0  0  0  0  0  0  0
    0.7799    1.4433   -1.0279 N   0  0  0  0  0  0  0  0  0  0  0  0
    1.4310    1.3755   -0.2621 H   0  0  0  0  0  0  0  0  0  0  0  0
    1.1326    2.2969   -2.1600 C   0  0  0  0  0  0  0  0  0  0  0  0
    0.3734    3.0718   -2.2882 H   0  0  0  0  0  0  0  0  0  0  0  0
    2.1021    2.7681   -1.9914 H   0  0  0  0  0  0  0  0  0  0  0  0
    1.1754    1.6999   -3.0724 H   0  0  0  0  0  0  0  0  0  0  0  0
  5  6  2  0  0  0  0
  5  7  1  0  0  0  0
  2  3  1  0  0  0  0
  2  4  1  0  0  0  0
  2  5  1  0  0  0  0
  1  2  1  0  0  0  0
 24 25  2  0  0  0  0
 24 26  1  0  0  0  0
 20 21  1  0  0  0  0
 20 22  1  0  0  0  0
 20 23  1  0  0  0  0
 16 17  1  0  0  0  0
 16 18  1  0  0  0  0
 16 19  1  0  0  0  0
 14 15  1  0  0  0  0
 14 16  1  0  0  0  0
 14 20  1  0  0  0  0
 11 12  1  0  0  0  0
 11 13  1  0  0  0  0
 11 14  1  0  0  0  0
  9 10  1  0  0  0  0
  9 11  1  0  0  0  0
  9 24  1  0  0  0  0
  7  8  1  0  0  0  0
  7  9  1  0  0  0  0
 28 29  1  0  0  0  0
 28 30  1  0  0  0  0
 28 31  1  0  0  0  0
 26 27  1  0  0  0  0
 26 28  1  0  0  0  0
M  END
$$$$
default_name
  -OEChem-01062215323D

 31 30  0     1  0  0  0  0  0999 V2000
   -3.5895   -3.5013    1.1082 H   0  0  0  0  0  0  0  0  0  0  0  0
   -3.5145   -2.5363    0.6082 C   0  0  0  0  0  0  0  0  0  0  0  0
   -4.2285   -1.8413    1.0452 H   0  0  0  0  0  0  0  0  0  0  0  0
   -3.7155   -2.6583   -0.4538 H   0  0  0  0  0  0  0  0  0  0  0  0
   -2.1155   -1.9963    0.7922 C   0  0  0  0  0  0  0  0  0  0  0  0
   -1.2875   -2.6383    1.4252 O   0  0  0  0  0  0  0  0  0  0  0  0
   -1.8575   -0.8123    0.2402 N   0  0  0  0  0  0  0  0  0  0  0  0
   -2.6005   -0.3333   -0.2478 H   0  0  0  0  0  0  0  0  0  0  0  0
   -0.5675   -0.1203    0.3102 C   0  0  1  0  0  0  0  0  0  0  0  0
   -0.5790    0.5362    1.1809 H   0  0  0  0  0  0  0  0  0  0  0  0
    0.5457   -1.1735    0.4915 C   0  0  0  0  0  0  0  0  0  0  0  0
    0.4822   -1.8924   -0.3276 H   0  0  0  0  0  0  0  0  0  0  0  0
    1.5084   -0.6640    0.4106 H   0  0  0  0  0  0  0  0  0  0  0  0
    0.5239   -1.9484    1.8219 C   0  0  0  0  0  0  0  0  0  0  0  0
   -0.4646   -2.3795    1.9806 H   0  0  0  0  0  0  0  0  0  0  0  0
    1.5674   -3.0687    1.8569 C   0  0  0  0  0  0  0  0  0  0  0  0
    2.5615   -2.6546    1.6833 H   0  0  0  0  0  0  0  0  0  0  0  0
    1.5496   -3.5566    2.8317 H   0  0  0  0  0  0  0  0  0  0  0  0
    1.3553   -3.8152    1.0946 H   0  0  0  0  0  0  0  0  0  0  0  0
    0.8154   -0.9945    2.9797 C   0  0  0  0  0  0  0  0  0  0  0  0
    0.0674   -0.2020    2.9992 H   0  0  0  0  0  0  0  0  0  0  0  0
    0.7732   -1.5354    3.9252 H   0  0  0  0  0  0  0  0  0  0  0  0
    1.8053   -0.5523    2.8620 H   0  0  0  0  0  0  0  0  0  0  0  0
   -0.3600    0.7452   -0.9444 C   0  0  0  0  0  0  0  0  0  0  0  0
   -1.3075    0.9929   -1.6867 O   0  0  0  0  0  0  0  0  0  0  0  0
    0.8791    1.1935   -1.1838 N   0  0  0  0  0  0  0  0  0  0  0  0
    1.6026    0.9529   -0.5252 H   0  0  0  0  0  0  0  0  0  0  0  0
    1.2418    2.0110   -2.3392 C   0  0  0  0  0  0  0  0  0  0  0  0
    0.6554    2.9326   -2.3376 H   0  0  0  0  0  0  0  0  0  0  0  0
    2.3035    2.2605   -2.3083 H   0  0  0  0  0  0  0  0  0  0  0  0
    1.0261    1.4650   -3.2590 H   0  0  0  0  0  0  0  0  0  0  0  0
  5  6  2  0  0  0  0
  5  7  1  0  0  0  0
  2  3  1  0  0  0  0
  2  4  1  0  0  0  0
  2  5  1  0  0  0  0
  1  2  1  0  0  0  0
 24 25  2  0  0  0  0
 24 26  1  0  0  0  0
 20 21  1  0  0  0  0
 20 22  1  0  0  0  0
 20 23  1  0  0  0  0
 16 17  1  0  0  0  0
 16 18  1  0  0  0  0
 16 19  1  0  0  0  0
 14 15  1  0  0  0  0
 14 16  1  0  0  0  0
 14 20  1  0  0  0  0
 11 12  1  0  0  0  0
 11 13  1  0  0  0  0
 11 14  1  0  0  0  0
  9 10  1  0  0  0  0
  9 11  1  0  0  0  0
  9 24  1  0  0  0  0
  7  8  1  0  0  0  0
  7  9  1  0  0  0  0
 28 29  1  0  0  0  0
 28 30  1  0  0  0  0
 28 31  1  0  0  0  0
 26 27  1  0  0  0  0
 26 28  1  0  0  0  0
M  END
$$$$
default_name
  -OEChem-01062215323D

 31 30  0     1  0  0  0  0  0999 V2000
   -3.5895   -3.5013    1.1082 H   0  0  0  0  0  0  0  0  0  0  0  0
   -3.5145   -2.5363    0.6082 C   0  0  0  0  0  0  0  0  0  0  0  0
   -4.2285   -1.8413    1.0452 H   0  0  0  0  0  0  0  0  0  0  0  0
   -3.7155   -2.6583   -0.4538 H   0  0  0  0  0  0  0  0  0  0  0  0
   -2.1155   -1.9963    0.7922 C   0  0  0  0  0  0  0  0  0  0  0  0
   -1.2875   -2.6383    1.4252 O   0  0  0  0  0  0  0  0  0  0  0  0
   -1.8575   -0.8123    0.2402 N   0  0  0  0  0  0  0  0  0  0  0  0
   -2.6005   -0.3333   -0.2478 H   0  0  0  0  0  0  0  0  0  0  0  0
   -0.5675   -0.1203    0.3102 C   0  0  1  0  0  0  0  0  0  0  0  0
   -0.5790    0.5362    1.1809 H   0  0  0  0  0  0  0  0  0  0  0  0
    0.5457   -1.1735    0.4915 C   0  0  0  0  0  0  0  0  0  0  0  0
    0.4822   -1.8924   -0.3276 H   0  0  0  0  0  0  0  0  0  0  0  0
    1.5084   -0.6640    0.4106 H   0  0  0  0  0  0  0  0  0  0  0  0
    0.5239   -1.9484    1.8219 C   0  0  0  0  0  0  0  0  0  0  0  0
   -0.4646   -2.3795    1.9806 H   0  0  0  0  0  0  0  0  0  0  0  0
    1.5674   -3.0687    1.8569 C   0  0  0  0  0  0  0  0  0  0  0  0
    2.5615   -2.6546    1.6833 H   0  0  0  0  0  0  0  0  0  0  0  0
    1.5496   -3.5566    2.8317 H   0  0  0  0  0  0  0  0  0  0  0  0
    1.3553   -3.8152    1.0946 H   0  0  0  0  0  0  0  0  0  0  0  0
    0.8154   -0.9945    2.9797 C   0  0  0  0  0  0  0  0  0  0  0  0
    0.0674   -0.2020    2.9992 H   0  0  0  0  0  0  0  0  0  0  0  0
    0.7732   -1.5354    3.9252 H   0  0  0  0  0  0  0  0  0  0  0  0
    1.8053   -0.5523    2.8620 H   0  0  0  0  0  0  0  0  0  0  0  0
   -0.3600    0.7452   -0.9444 C   0  0  0  0  0  0  0  0  0  0  0  0
   -1.3282    1.2222   -1.5319 O   0  0  0  0  0  0  0  0  0  0  0  0
    0.8995    0.9368   -1.3575 N   0  0  0  0  0  0  0  0  0  0  0  0
    1.6408    0.5177   -0.8191 H   0  0  0  0  0  0  0  0  0  0  0  0
    1.2608    1.7180   -2.5382 C   0  0  0  0  0  0  0  0  0  0  0  0
    0.8912    2.7403   -2.4312 H   0  0  0  0  0  0  0  0  0  0  0  0
    2.3447    1.7388   -2.6614 H   0  0  0  0  0  0  0  0  0  0  0  0
    0.8052    1.2762   -3.4258 H   0  0  0  0  0  0  0  0  0  0  0  0
  5  6  2  0  0  0  0
  5  7  1  0  0  0  0
  2  3  1  0  0  0  0
  2  4  1  0  0  0  0
  2  5  1  0  0  0  0
  1  2  1  0  0  0  0
 24 25  2  0  0  0  0
 24 26  1  0  0  0  0
 20 21  1  0  0  0  0
 20 22  1  0  0  0  0
 20 23  1  0  0  0  0
 16 17  1  0  0  0  0
 16 18  1  0  0  0  0
 16 19  1  0  0  0  0
 14 15  1  0  0  0  0
 14 16  1  0  0  0  0
 14 20  1  0  0  0  0
 11 12  1  0  0  0  0
 11 13  1  0  0  0  0
 11 14  1  0  0  0  0
  9 10  1  0  0  0  0
  9 11  1  0  0  0  0
  9 24  1  0  0  0  0
  7  8  1  0  0  0  0
  7  9  1  0  0  0  0
 28 29  1  0  0  0  0
 28 30  1  0  0  0  0
 28 31  1  0  0  0  0
 26 27  1  0  0  0  0
 26 28  1  0  0  0  0
M  END
$$$$
default_name
  -OEChem-01062215323D

 31 30  0     1  0  0  0  0  0999 V2000
   -3.5895   -3.5013    1.1082 H   0  0  0  0  0  0  0  0  0  0  0  0
   -3.5145   -2.5363    0.6082 C   0  0  0  0  0  0  0  0  0  0  0  0
   -4.2285   -1.8413    1.0452 H   0  0  0  0  0  0  0  0  0  0  0  0
   -3.7155   -2.6583   -0.4538 H   0  0  0  0  0  0  0  0  0  0  0  0
   -2.1155   -1.9963    0.7922 C   0  0  0  0  0  0  0  0  0  0  0  0
   -1.2875   -2.6383    1.4252 O   0  0  0  0  0  0  0  0  0  0  0  0
   -1.8575   -0.8123    0.2402 N   0  0  0  0  0  0  0  0  0  0  0  0
   -2.6005   -0.3333   -0.2478 H   0  0  0  0  0  0  0  0  0  0  0  0
   -0.5675   -0.1203    0.3102 C   0  0  1  0  0  0  0  0  0  0  0  0
   -0.5790    0.5362    1.1809 H   0  0  0  0  0  0  0  0  0  0  0  0
    0.5457   -1.1735    0.4915 C   0  0  0  0  0  0  0  0  0  0  0  0
    0.4822   -1.8924   -0.3276 H   0  0  0  0  0  0  0  0  0  0  0  0
    1.5084   -0.6640    0.4106 H   0  0  0  0  0  0  0  0  0  0  0  0
    0.5239   -1.9484    1.8219 C   0  0  0  0  0  0  0  0  0  0  0  0
   -0.4646   -2.3795    1.9806 H   0  0  0  0  0  0  0  0  0  0  0  0
    1.5674   -3.0687    1.8569 C   0  0  0  0  0  0  0  0  0  0  0  0
    2.5615   -2.6546    1.6833 H   0  0  0  0  0  0  0  0  0  0  0  0
    1.5496   -3.5566    2.8317 H   0  0  0  0  0  0  0  0  0  0  0  0
    1.3553   -3.8152    1.0946 H   0  0  0  0  0  0  0  0  0  0  0  0
    0.8154   -0.9945    2.9797 C   0  0  0  0  0  0  0  0  0  0  0  0
    0.0674   -0.2020    2.9992 H   0  0  0  0  0  0  0  0  0  0  0  0
    0.7732   -1.5354    3.9252 H   0  0  0  0  0  0  0  0  0  0  0  0
    1.8053   -0.5523    2.8620 H   0  0  0  0  0  0  0  0  0  0  0  0
   -0.3600    0.7452   -0.9444 C   0  0  0  0  0  0  0  0  0  0  0  0
   -1.2772    1.4427   -1.3714 O   0  0  0  0  0  0  0  0  0  0  0  0
    0.8397    0.6906   -1.5372 N   0  0  0  0  0  0  0  0  0  0  0  0
    1.5430    0.0994   -1.1238 H   0  0  0  0  0  0  0  0  0  0  0  0
    1.1883    1.4379   -2.7434 C   0  0  0  0  0  0  0  0  0  0  0  0
    1.0647    2.5081   -2.5627 H   0  0  0  0  0  0  0  0  0  0  0  0
    2.2229    1.2384   -3.0266 H   0  0  0  0  0  0  0  0  0  0  0  0
    0.5276    1.1463   -3.5613 H   0  0  0  0  0  0  0  0  0  0  0  0
  5  6  2  0  0  0  0
  5  7  1  0  0  0  0
  2  3  1  0  0  0  0
  2  4  1  0  0  0  0
  2  5  1  0  0  0  0
  1  2  1  0  0  0  0
 24 25  2  0  0  0  0
 24 26  1  0  0  0  0
 20 21  1  0  0  0  0
 20 22  1  0  0  0  0
 20 23  1  0  0  0  0
 16 17  1  0  0  0  0
 16 18  1  0  0  0  0
 16 19  1  0  0  0  0
 14 15  1  0  0  0  0
 14 16  1  0  0  0  0
 14 20  1  0  0  0  0
 11 12  1  0  0  0  0
 11 13  1  0  0  0  0
 11 14  1  0  0  0  0
  9 10  1  0  0  0  0
  9 11  1  0  0  0  0
  9 24  1  0  0  0  0
  7  8  1  0  0  0  0
  7  9  1  0  0  0  0
 28 29  1  0  0  0  0
 28 30  1  0  0  0  0
 28 31  1  0  0  0  0
 26 27  1  0  0  0  0
 26 28  1  0  0  0  0
M  END
$$$$
default_name
  -OEChem-01062215323D

 31 30  0     1  0  0  0  0  0999 V2000
   -3.5895   -3.5013    1.1082 H   0  0  0  0  0  0  0  0  0  0  0  0
   -3.5145   -2.5363    0.6082 C   0  0  0  0  0  0  0  0  0  0  0  0
   -4.2285   -1.8413    1.0452 H   0  0  0  0  0  0  0  0  0  0  0  0
   -3.7155   -2.6583   -0.4538 H   0  0  0  0  0  0  0  0  0  0  0  0
   -2.1155   -1.9963    0.7922 C   0  0  0  0  0  0  0  0  0  0  0  0
   -1.2875   -2.6383    1.4252 O   0  0  0  0  0  0  0  0  0  0  0  0
   -1.8575   -0.8123    0.2402 N   0  0  0  0  0  0  0  0  0  0  0  0
   -2.6005   -0.3333   -0.2478 H   0  0  0  0  0  0  0  0  0  0  0  0
   -0.5675   -0.1203    0.3102 C   0  0  1  0  0  0  0  0  0  0  0  0
   -0.5790    0.5362    1.1809 H   0  0  0  0  0  0  0  0  0  0  0  0
    0.5457   -1.1735    0.4915 C   0  0  0  0  0  0  0  0  0  0  0  0
    0.4822   -1.8924   -0.3276 H   0  0  0  0  0  0  0  0  0  0  0  0
    1.5084   -0.6640    0.4106 H   0  0  0  0  0  0  0  0  0  0  0  0
    0.5239   -1.9484    1.8219 C   0  0  0  0  0  0  0  0  0  0  0  0
   -0.4646   -2.3795    1.9806 H   0  0  0  0  0  0  0  0  0  0  0  0
    1.5674   -3.0687    1.8569 C   0  0  0  0  0  0  0  0  0  0  0  0
    2.5615   -2.6546    1.6833 H   0  0  0  0  0  0  0  0  0  0  0  0
    1.5496   -3.5566    2.8317 H   0  0  0  0  0  0  0  0  0  0  0  0
    1.3553   -3.8152    1.0946 H   0  0  0  0  0  0  0  0  0  0  0  0
    0.8154   -0.9945    2.9797 C   0  0  0  0  0  0  0  0  0  0  0  0
    0.0674   -0.2020    2.9992 H   0  0  0  0  0  0  0  0  0  0  0  0
    0.7732   -1.5354    3.9252 H   0  0  0  0  0  0  0  0  0  0  0  0
    1.8053   -0.5523    2.8620 H   0  0  0  0  0  0  0  0  0  0  0  0
   -0.3600    0.7452   -0.9444 C   0  0  0  0  0  0  0  0  0  0  0  0
   -1.1581    1.6393   -1.2161 O   0  0  0  0  0  0  0  0  0  0  0  0
    0.7038    0.4717   -1.7107 N   0  0  0  0  0  0  0  0  0  0  0  0
    1.3159   -0.2733   -1.4185 H   0  0  0  0  0  0  0  0  0  0  0  0
    1.0293    1.1899   -2.9408 C   0  0  0  0  0  0  0  0  0  0  0  0
    1.1641    2.2517   -2.7231 H   0  0  0  0  0  0  0  0  0  0  0  0
    1.9465    0.7936   -3.3792 H   0  0  0  0  0  0  0  0  0  0  0  0
    0.2124    1.0841   -3.6563 H   0  0  0  0  0  0  0  0  0  0  0  0
  5  6  2  0  0  0  0
  5  7  1  0  0  0  0
  2  3  1  0  0  0  0
  2  4  1  0  0  0  0
  2  5  1  0  0  0  0
  1  2  1  0  0  0  0
 24 25  2  0  0  0  0
 24 26  1  0  0  0  0
 20 21  1  0  0  0  0
 20 22  1  0  0  0  0
 20 23  1  0  0  0  0
 16 17  1  0  0  0  0
 16 18  1  0  0  0  0
 16 19  1  0  0  0  0
 14 15  1  0  0  0  0
 14 16  1  0  0  0  0
 14 20  1  0  0  0  0
 11 12  1  0  0  0  0
 11 13  1  0  0  0  0
 11 14  1  0  0  0  0
  9 10  1  0  0  0  0
  9 11  1  0  0  0  0
  9 24  1  0  0  0  0
  7  8  1  0  0  0  0
  7  9  1  0  0  0  0
 28 29  1  0  0  0  0
 28 30  1  0  0  0  0
 28 31  1  0  0  0  0
 26 27  1  0  0  0  0
 26 28  1  0  0  0  0
M  END
$$$$
default_name
  -OEChem-01062215323D

 31 30  0     1  0  0  0  0  0999 V2000
   -3.5895   -3.5013    1.1082 H   0  0  0  0  0  0  0  0  0  0  0  0
   -3.5145   -2.5363    0.6082 C   0  0  0  0  0  0  0  0  0  0  0  0
   -4.2285   -1.8413    1.0452 H   0  0  0  0  0  0  0  0  0  0  0  0
   -3.7155   -2.6583   -0.4538 H   0  0  0  0  0  0  0  0  0  0  0  0
   -2.1155   -1.9963    0.7922 C   0  0  0  0  0  0  0  0  0  0  0  0
   -1.2875   -2.6383    1.4252 O   0  0  0  0  0  0  0  0  0  0  0  0
   -1.8575   -0.8123    0.2402 N   0  0  0  0  0  0  0  0  0  0  0  0
   -2.6005   -0.3333   -0.2478 H   0  0  0  0  0  0  0  0  0  0  0  0
   -0.5675   -0.1203    0.3102 C   0  0  1  0  0  0  0  0  0  0  0  0
   -0.5790    0.5362    1.1809 H   0  0  0  0  0  0  0  0  0  0  0  0
    0.5457   -1.1735    0.4915 C   0  0  0  0  0  0  0  0  0  0  0  0
    0.4822   -1.8924   -0.3276 H   0  0  0  0  0  0  0  0  0  0  0  0
    1.5084   -0.6640    0.4106 H   0  0  0  0  0  0  0  0  0  0  0  0
    0.5239   -1.9484    1.8219 C   0  0  0  0  0  0  0  0  0  0  0  0
   -0.4646   -2.3795    1.9806 H   0  0  0  0  0  0  0  0  0  0  0  0
    1.5674   -3.0687    1.8569 C   0  0  0  0  0  0  0  0  0  0  0  0
    2.5615   -2.6546    1.6833 H   0  0  0  0  0  0  0  0  0  0  0  0
    1.5496   -3.5566    2.8317 H   0  0  0  0  0  0  0  0  0  0  0  0
    1.3553   -3.8152    1.0946 H   0  0  0  0  0  0  0  0  0  0  0  0
    0.8154   -0.9945    2.9797 C   0  0  0  0  0  0  0  0  0  0  0  0
    0.0674   -0.2020    2.9992 H   0  0  0  0  0  0  0  0  0  0  0  0
    0.7732   -1.5354    3.9252 H   0  0  0  0  0  0  0  0  0  0  0  0
    1.8053   -0.5523    2.8620 H   0  0  0  0  0  0  0  0  0  0  0  0
   -0.3600    0.7452   -0.9444 C   0  0  0  0  0  0  0  0  0  0  0  0
   -0.9789    1.7986   -1.0766 O   0  0  0  0  0  0  0  0  0  0  0  0
    0.5011    0.2949   -1.8662 N   0  0  0  0  0  0  0  0  0  0  0  0
    0.9750   -0.5750   -1.6830 H   0  0  0  0  0  0  0  0  0  0  0  0
    0.7946    0.9907   -3.1170 C   0  0  0  0  0  0  0  0  0  0  0  0
    1.1827    1.9887   -2.9015 H   0  0  0  0  0  0  0  0  0  0  0  0
    1.5342    0.4346   -3.6950 H   0  0  0  0  0  0  0  0  0  0  0  0
   -0.1191    1.0939   -3.7044 H   0  0  0  0  0  0  0  0  0  0  0  0
  5  6  2  0  0  0  0
  5  7  1  0  0  0  0
  2  3  1  0  0  0  0
  2  4  1  0  0  0  0
  2  5  1  0  0  0  0
  1  2  1  0  0  0  0
 24 25  2  0  0  0  0
 24 26  1  0  0  0  0
 20 21  1  0  0  0  0
 20 22  1  0  0  0  0
 20 23  1  0  0  0  0
 16 17  1  0  0  0  0
 16 18  1  0  0  0  0
 16 19  1  0  0  0  0
 14 15  1  0  0  0  0
 14 16  1  0  0  0  0
 14 20  1  0  0  0  0
 11 12  1  0  0  0  0
 11 13  1  0  0  0  0
 11 14  1  0  0  0  0
  9 10  1  0  0  0  0
  9 11  1  0  0  0  0
  9 24  1  0  0  0  0
  7  8  1  0  0  0  0
  7  9  1  0  0  0  0
 28 29  1  0  0  0  0
 28 30  1  0  0  0  0
 28 31  1  0  0  0  0
 26 27  1  0  0  0  0
 26 28  1  0  0  0  0
M  END
$$$$
default_name
  -OEChem-01062215323D

 31 30  0     1  0  0  0  0  0999 V2000
   -3.5895   -3.5013    1.1082 H   0  0  0  0  0  0  0  0  0  0  0  0
   -3.5145   -2.5363    0.6082 C   0  0  0  0  0  0  0  0  0  0  0  0
   -4.2285   -1.8413    1.0452 H   0  0  0  0  0  0  0  0  0  0  0  0
   -3.7155   -2.6583   -0.4538 H   0  0  0  0  0  0  0  0  0  0  0  0
   -2.1155   -1.9963    0.7922 C   0  0  0  0  0  0  0  0  0  0  0  0
   -1.2875   -2.6383    1.4252 O   0  0  0  0  0  0  0  0  0  0  0  0
   -1.8575   -0.8123    0.2402 N   0  0  0  0  0  0  0  0  0  0  0  0
   -2.6005   -0.3333   -0.2478 H   0  0  0  0  0  0  0  0  0  0  0  0
   -0.5675   -0.1203    0.3102 C   0  0  1  0  0  0  0  0  0  0  0  0
   -0.5790    0.5362    1.1809 H   0  0  0  0  0  0  0  0  0  0  0  0
    0.5457   -1.1735    0.4915 C   0  0  0  0  0  0  0  0  0  0  0  0
    0.4822   -1.8924   -0.3276 H   0  0  0  0  0  0  0  0  0  0  0  0
    1.5084   -0.6640    0.4106 H   0  0  0  0  0  0  0  0  0  0  0  0
    0.5239   -1.9484    1.8219 C   0  0  0  0  0  0  0  0  0  0  0  0
   -0.4646   -2.3795    1.9806 H   0  0  0  0  0  0  0  0  0  0  0  0
    1.5674   -3.0687    1.8569 C   0  0  0  0  0  0  0  0  0  0  0  0
    2.5615   -2.6546    1.6833 H   0  0  0  0  0  0  0  0  0  0  0  0
    1.5496   -3.5566    2.8317 H   0  0  0  0  0  0  0  0  0  0  0  0
    1.3553   -3.8152    1.0946 H   0  0  0  0  0  0  0  0  0  0  0  0
    0.8154   -0.9945    2.9797 C   0  0  0  0  0  0  0  0  0  0  0  0
    0.0674   -0.2020    2.9992 H   0  0  0  0  0  0  0  0  0  0  0  0
    0.7732   -1.5354    3.9252 H   0  0  0  0  0  0  0  0  0  0  0  0
    1.8053   -0.5523    2.8620 H   0  0  0  0  0  0  0  0  0  0  0  0
   -0.3600    0.7452   -0.9444 C   0  0  0  0  0  0  0  0  0  0  0  0
   -0.7518    1.9098   -0.9623 O   0  0  0  0  0  0  0  0  0  0  0  0
    0.2453    0.1724   -1.9930 N   0  0  0  0  0  0  0  0  0  0  0  0
    0.5434   -0.7853   -1.8994 H   0  0  0  0  0  0  0  0  0  0  0  0
    0.5002    0.8540   -3.2599 C   0  0  0  0  0  0  0  0  0  0  0  0
    1.1192    1.7370   -3.0856 H   0  0  0  0  0  0  0  0  0  0  0  0
    1.0143    0.1858   -3.9526 H   0  0  0  0  0  0  0  0  0  0  0  0
   -0.4442    1.1751   -3.7022 H   0  0  0  0  0  0  0  0  0  0  0  0
  5  6  2  0  0  0  0
  5  7  1  0  0  0  0
  2  3  1  0  0  0  0
  2  4  1  0  0  0  0
  2  5  1  0  0  0  0
  1  2  1  0  0  0  0
 24 25  2  0  0  0  0
 24 26  1  0  0  0  0
 20 21  1  0  0  0  0
 20 22  1  0  0  0  0
 20 23  1  0  0  0  0
 16 17  1  0  0  0  0
 16 18  1  0  0  0  0
 16 19  1  0  0  0  0
 14 15  1  0  0  0  0
 14 16  1  0  0  0  0
 14 20  1  0  0  0  0
 11 12  1  0  0  0  0
 11 13  1  0  0  0  0
 11 14  1  0  0  0  0
  9 10  1  0  0  0  0
  9 11  1  0  0  0  0
  9 24  1  0  0  0  0
  7  8  1  0  0  0  0
  7  9  1  0  0  0  0
 28 29  1  0  0  0  0
 28 30  1  0  0  0  0
 28 31  1  0  0  0  0
 26 27  1  0  0  0  0
 26 28  1  0  0  0  0
M  END
$$$$
default_name
  -OEChem-01062215323D

 31 30  0     1  0  0  0  0  0999 V2000
   -3.5895   -3.5013    1.1082 H   0  0  0  0  0  0  0  0  0  0  0  0
   -3.5145   -2.5363    0.6082 C   0  0  0  0  0  0  0  0  0  0  0  0
   -4.2285   -1.8413    1.0452 H   0  0  0  0  0  0  0  0  0  0  0  0
   -3.7155   -2.6583   -0.4538 H   0  0  0  0  0  0  0  0  0  0  0  0
   -2.1155   -1.9963    0.7922 C   0  0  0  0  0  0  0  0  0  0  0  0
   -1.2875   -2.6383    1.4252 O   0  0  0  0  0  0  0  0  0  0  0  0
   -1.8575   -0.8123    0.2402 N   0  0  0  0  0  0  0  0  0  0  0  0
   -2.6005   -0.3333   -0.2478 H   0  0  0  0  0  0  0  0  0  0  0  0
   -0.5675   -0.1203    0.3102 C   0  0  1  0  0  0  0  0  0  0  0  0
   -0.5790    0.5362    1.1809 H   0  0  0  0  0  0  0  0  0  0  0  0
    0.5457   -1.1735    0.4915 C   0  0  0  0  0  0  0  0  0  0  0  0
    0.4822   -1.8924   -0.3276 H   0  0  0  0  0  0  0  0  0  0  0  0
    1.5084   -0.6640    0.4106 H   0  0  0  0  0  0  0  0  0  0  0  0
    0.5239   -1.9484    1.8219 C   0  0  0  0  0  0  0  0  0  0  0  0
   -0.4646   -2.3795    1.9806 H   0  0  0  0  0  0  0  0  0  0  0  0
    1.5674   -3.0687    1.8569 C   0  0  0  0  0  0  0  0  0  0  0  0
    2.5615   -2.6546    1.6833 H   0  0  0  0  0  0  0  0  0  0  0  0
    1.5496   -3.5566    2.8317 H   0  0  0  0  0  0  0  0  0  0  0  0
    1.3553   -3.8152    1.0946 H   0  0  0  0  0  0  0  0  0  0  0  0
    0.8154   -0.9945    2.9797 C   0  0  0  0  0  0  0  0  0  0  0  0
    0.0674   -0.2020    2.9992 H   0  0  0  0  0  0  0  0  0  0  0  0
    0.7732   -1.5354    3.9252 H   0  0  0  0  0  0  0  0  0  0  0  0
    1.8053   -0.5523    2.8620 H   0  0  0  0  0  0  0  0  0  0  0  0
   -0.3600    0.7452   -0.9444 C   0  0  0  0  0  0  0  0  0  0  0  0
   -0.4924    1.9653   -0.8812 O   0  0  0  0  0  0  0  0  0  0  0  0
   -0.0461    0.1126   -2.0824 N   0  0  0  0  0  0  0  0  0  0  0  0
    0.0506   -0.8898   -2.0530 H   0  0  0  0  0  0  0  0  0  0  0  0
    0.1662    0.7891   -3.3599 C   0  0  0  0  0  0  0  0  0  0  0  0
    0.9779    1.5137   -3.2631 H   0  0  0  0  0  0  0  0  0  0  0  0
    0.4220    0.0643   -4.1343 H   0  0  0  0  0  0  0  0  0  0  0  0
   -0.7408    1.3220   -3.6498 H   0  0  0  0  0  0  0  0  0  0  0  0
  5  6  2  0  0  0  0
  5  7  1  0  0  0  0
  2  3  1  0  0  0  0
  2  4  1  0  0  0  0
  2  5  1  0  0  0  0
  1  2  1  0  0  0  0
 24 25  2  0  0  0  0
 24 26  1  0  0  0  0
 20 21  1  0  0  0  0
 20 22  1  0  0  0  0
 20 23  1  0  0  0  0
 16 17  1  0  0  0  0
 16 18  1  0  0  0  0
 16 19  1  0  0  0  0
 14 15  1  0  0  0  0
 14 16  1  0  0  0  0
 14 20  1  0  0  0  0
 11 12  1  0  0  0  0
 11 13  1  0  0  0  0
 11 14  1  0  0  0  0
  9 10  1  0  0  0  0
  9 11  1  0  0  0  0
  9 24  1  0  0  0  0
  7  8  1  0  0  0  0
  7  9  1  0  0  0  0
 28 29  1  0  0  0  0
 28 30  1  0  0  0  0
 28 31  1  0  0  0  0
 26 27  1  0  0  0  0
 26 28  1  0  0  0  0
M  END
$$$$
default_name
  -OEChem-01062215323D

 31 30  0     1  0  0  0  0  0999 V2000
   -3.5895   -3.5013    1.1082 H   0  0  0  0  0  0  0  0  0  0  0  0
   -3.5145   -2.5363    0.6082 C   0  0  0  0  0  0  0  0  0  0  0  0
   -4.2285   -1.8413    1.0452 H   0  0  0  0  0  0  0  0  0  0  0  0
   -3.7155   -2.6583   -0.4538 H   0  0  0  0  0  0  0  0  0  0  0  0
   -2.1155   -1.9963    0.7922 C   0  0  0  0  0  0  0  0  0  0  0  0
   -1.2875   -2.6383    1.4252 O   0  0  0  0  0  0  0  0  0  0  0  0
   -1.8575   -0.8123    0.2402 N   0  0  0  0  0  0  0  0  0  0  0  0
   -2.6005   -0.3333   -0.2478 H   0  0  0  0  0  0  0  0  0  0  0  0
   -0.5675   -0.1203    0.3102 C   0  0  1  0  0  0  0  0  0  0  0  0
   -0.5790    0.5362    1.1809 H   0  0  0  0  0  0  0  0  0  0  0  0
    0.5457   -1.1735    0.4915 C   0  0  0  0  0  0  0  0  0  0  0  0
    0.4822   -1.8924   -0.3276 H   0  0  0  0  0  0  0  0  0  0  0  0
    1.5084   -0.6640    0.4106 H   0  0  0  0  0  0  0  0  0  0  0  0
    0.5239   -1.9484    1.8219 C   0  0  0  0  0  0  0  0  0  0  0  0
   -0.4646   -2.3795    1.9806 H   0  0  0  0  0  0  0  0  0  0  0  0
    1.5674   -3.0687    1.8569 C   0  0  0  0  0  0  0  0  0  0  0  0
    2.5615   -2.6546    1.6833 H   0  0  0  0  0  0  0  0  0  0  0  0
    1.5496   -3.5566    2.8317 H   0  0  0  0  0  0  0  0  0  0  0  0
    1.3553   -3.8152    1.0946 H   0  0  0  0  0  0  0  0  0  0  0  0
    0.8154   -0.9945    2.9797 C   0  0  0  0  0  0  0  0  0  0  0  0
    0.0674   -0.2020    2.9992 H   0  0  0  0  0  0  0  0  0  0  0  0
    0.7732   -1.5354    3.9252 H   0  0  0  0  0  0  0  0  0  0  0  0
    1.8053   -0.5523    2.8620 H   0  0  0  0  0  0  0  0  0  0  0  0
   -0.3600    0.7452   -0.9444 C   0  0  0  0  0  0  0  0  0  0  0  0
   -0.2183    1.9612   -0.8386 O   0  0  0  0  0  0  0  0  0  0  0  0
   -0.3533    0.1194   -2.1285 N   0  0  0  0  0  0  0  0  0  0  0  0
   -0.4697   -0.8813   -2.1332 H   0  0  0  0  0  0  0  0  0  0  0  0
   -0.1847    0.8005   -3.4101 C   0  0  0  0  0  0  0  0  0  0  0  0
    0.7684    1.3340   -3.4216 H   0  0  0  0  0  0  0  0  0  0  0  0
   -0.2022    0.0783   -4.2278 H   0  0  0  0  0  0  0  0  0  0  0  0
   -0.9886    1.5247   -3.5510 H   0  0  0  0  0  0  0  0  0  0  0  0
  5  6  2  0  0  0  0
  5  7  1  0  0  0  0
  2  3  1  0  0  0  0
  2  4  1  0  0  0  0
  2  5  1  0  0  0  0
  1  2  1  0  0  0  0
 24 25  2  0  0  0  0
 24 26  1  0  0  0  0
 20 21  1  0  0  0  0
 20 22  1  0  0  0  0
 20 23  1  0  0  0  0
 16 17  1  0  0  0  0
 16 18  1  0  0  0  0
 16 19  1  0  0  0  0
 14 15  1  0  0  0  0
 14 16  1  0  0  0  0
 14 20  1  0  0  0  0
 11 12  1  0  0  0  0
 11 13  1  0  0  0  0
 11 14  1  0  0  0  0
  9 10  1  0  0  0  0
  9 11  1  0  0  0  0
  9 24  1  0  0  0  0
  7  8  1  0  0  0  0
  7  9  1  0  0  0  0
 28 29  1  0  0  0  0
 28 30  1  0  0  0  0
 28 31  1  0  0  0  0
 26 27  1  0  0  0  0
 26 28  1  0  0  0  0
M  END
$$$$
default_name
  -OEChem-01062215323D

 31 30  0     1  0  0  0  0  0999 V2000
   -3.5895   -3.5013    1.1082 H   0  0  0  0  0  0  0  0  0  0  0  0
   -3.5145   -2.5363    0.6082 C   0  0  0  0  0  0  0  0  0  0  0  0
   -4.2285   -1.8413    1.0452 H   0  0  0  0  0  0  0  0  0  0  0  0
   -3.7155   -2.6583   -0.4538 H   0  0  0  0  0  0  0  0  0  0  0  0
   -2.1155   -1.9963    0.7922 C   0  0  0  0  0  0  0  0  0  0  0  0
   -1.2875   -2.6383    1.4252 O   0  0  0  0  0  0  0  0  0  0  0  0
   -1.8575   -0.8123    0.2402 N   0  0  0  0  0  0  0  0  0  0  0  0
   -2.6005   -0.3333   -0.2478 H   0  0  0  0  0  0  0  0  0  0  0  0
   -0.5675   -0.1203    0.3102 C   0  0  1  0  0  0  0  0  0  0  0  0
   -0.5790    0.5362    1.1809 H   0  0  0  0  0  0  0  0  0  0  0  0
    0.5457   -1.1735    0.4915 C   0  0  0  0  0  0  0  0  0  0  0  0
    0.4822   -1.8924   -0.3276 H   0  0  0  0  0  0  0  0  0  0  0  0
    1.5084   -0.6640    0.4106 H   0  0  0  0  0  0  0  0  0  0  0  0
    0.5239   -1.9484    1.8219 C   0  0  0  0  0  0  0  0  0  0  0  0
   -0.4646   -2.3795    1.9806 H   0  0  0  0  0  0  0  0  0  0  0  0
    1.5674   -3.0687    1.8569 C   0  0  0  0  0  0  0  0  0  0  0  0
    2.5615   -2.6546    1.6833 H   0  0  0  0  0  0  0  0  0  0  0  0
    1.5496   -3.5566    2.8317 H   0  0  0  0  0  0  0  0  0  0  0  0
    1.3553   -3.8152    1.0946 H   0  0  0  0  0  0  0  0  0  0  0  0
    0.8154   -0.9945    2.9797 C   0  0  0  0  0  0  0  0  0  0  0  0
    0.0674   -0.2020    2.9992 H   0  0  0  0  0  0  0  0  0  0  0  0
    0.7732   -1.5354    3.9252 H   0  0  0  0  0  0  0  0  0  0  0  0
    1.8053   -0.5523    2.8620 H   0  0  0  0  0  0  0  0  0  0  0  0
   -0.3600    0.7452   -0.9444 C   0  0  0  0  0  0  0  0  0  0  0  0
    0.0519    1.8980   -0.8376 O   0  0  0  0  0  0  0  0  0  0  0  0
   -0.6552    0.1924   -2.1281 N   0  0  0  0  0  0  0  0  0  0  0  0
   -0.9823   -0.7605   -2.1345 H   0  0  0  0  0  0  0  0  0  0  0  0
   -0.5286    0.8872   -3.4071 C   0  0  0  0  0  0  0  0  0  0  0  0
    0.5050    1.2102   -3.5506 H   0  0  0  0  0  0  0  0  0  0  0  0
   -0.8158    0.2269   -4.2268 H   0  0  0  0  0  0  0  0  0  0  0  0
   -1.1708    1.7693   -3.4124 H   0  0  0  0  0  0  0  0  0  0  0  0
  5  6  2  0  0  0  0
  5  7  1  0  0  0  0
  2  3  1  0  0  0  0
  2  4  1  0  0  0  0
  2  5  1  0  0  0  0
  1  2  1  0  0  0  0
 24 25  2  0  0  0  0
 24 26  1  0  0  0  0
 20 21  1  0  0  0  0
 20 22  1  0  0  0  0
 20 23  1  0  0  0  0
 16 17  1  0  0  0  0
 16 18  1  0  0  0  0
 16 19  1  0  0  0  0
 14 15  1  0  0  0  0
 14 16  1  0  0  0  0
 14 20  1  0  0  0  0
 11 12  1  0  0  0  0
 11 13  1  0  0  0  0
 11 14  1  0  0  0  0
  9 10  1  0  0  0  0
  9 11  1  0  0  0  0
  9 24  1  0  0  0  0
  7  8  1  0  0  0  0
  7  9  1  0  0  0  0
 28 29  1  0  0  0  0
 28 30  1  0  0  0  0
 28 31  1  0  0  0  0
 26 27  1  0  0  0  0
 26 28  1  0  0  0  0
M  END
$$$$
default_name
  -OEChem-01062215323D

 31 30  0     1  0  0  0  0  0999 V2000
   -3.5895   -3.5013    1.1082 H   0  0  0  0  0  0  0  0  0  0  0  0
   -3.5145   -2.5363    0.6082 C   0  0  0  0  0  0  0  0  0  0  0  0
   -4.2285   -1.8413    1.0452 H   0  0  0  0  0  0  0  0  0  0  0  0
   -3.7155   -2.6583   -0.4538 H   0  0  0  0  0  0  0  0  0  0  0  0
   -2.1155   -1.9963    0.7922 C   0  0  0  0  0  0  0  0  0  0  0  0
   -1.2875   -2.6383    1.4252 O   0  0  0  0  0  0  0  0  0  0  0  0
   -1.8575   -0.8123    0.2402 N   0  0  0  0  0  0  0  0  0  0  0  0
   -2.6005   -0.3333   -0.2478 H   0  0  0  0  0  0  0  0  0  0  0  0
   -0.5675   -0.1203    0.3102 C   0  0  1  0  0  0  0  0  0  0  0  0
   -0.5790    0.5362    1.1809 H   0  0  0  0  0  0  0  0  0  0  0  0
    0.5457   -1.1735    0.4915 C   0  0  0  0  0  0  0  0  0  0  0  0
    0.4822   -1.8924   -0.3276 H   0  0  0  0  0  0  0  0  0  0  0  0
    1.5084   -0.6640    0.4106 H   0  0  0  0  0  0  0  0  0  0  0  0
    0.5239   -1.9484    1.8219 C   0  0  0  0  0  0  0  0  0  0  0  0
   -0.4646   -2.3795    1.9806 H   0  0  0  0  0  0  0  0  0  0  0  0
    1.5674   -3.0687    1.8569 C   0  0  0  0  0  0  0  0  0  0  0  0
    2.5615   -2.6546    1.6833 H   0  0  0  0  0  0  0  0  0  0  0  0
    1.5496   -3.5566    2.8317 H   0  0  0  0  0  0  0  0  0  0  0  0
    1.3553   -3.8152    1.0946 H   0  0  0  0  0  0  0  0  0  0  0  0
    0.8154   -0.9945    2.9797 C   0  0  0  0  0  0  0  0  0  0  0  0
    0.0674   -0.2020    2.9992 H   0  0  0  0  0  0  0  0  0  0  0  0
    0.7732   -1.5354    3.9252 H   0  0  0  0  0  0  0  0  0  0  0  0
    1.8053   -0.5523    2.8620 H   0  0  0  0  0  0  0  0  0  0  0  0
   -0.3600    0.7452   -0.9444 C   0  0  0  0  0  0  0  0  0  0  0  0
    0.2996    1.7799   -0.8781 O   0  0  0  0  0  0  0  0  0  0  0  0
   -0.9314    0.3266   -2.0812 N   0  0  0  0  0  0  0  0  0  0  0  0
   -1.4521   -0.5355   -2.0570 H   0  0  0  0  0  0  0  0  0  0  0  0
   -0.8420    1.0435   -3.3511 C   0  0  0  0  0  0  0  0  0  0  0  0
    0.2057    1.1507   -3.6411 H   0  0  0  0  0  0  0  0  0  0  0  0
   -1.3770    0.4999   -4.1313 H   0  0  0  0  0  0  0  0  0  0  0  0
   -1.2750    2.0393   -3.2434 H   0  0  0  0  0  0  0  0  0  0  0  0
  5  6  2  0  0  0  0
  5  7  1  0  0  0  0
  2  3  1  0  0  0  0
  2  4  1  0  0  0  0
  2  5  1  0  0  0  0
  1  2  1  0  0  0  0
 24 25  2  0  0  0  0
 24 26  1  0  0  0  0
 20 21  1  0  0  0  0
 20 22  1  0  0  0  0
 20 23  1  0  0  0  0
 16 17  1  0  0  0  0
 16 18  1  0  0  0  0
 16 19  1  0  0  0  0
 14 15  1  0  0  0  0
 14 16  1  0  0  0  0
 14 20  1  0  0  0  0
 11 12  1  0  0  0  0
 11 13  1  0  0  0  0
 11 14  1  0  0  0  0
  9 10  1  0  0  0  0
  9 11  1  0  0  0  0
  9 24  1  0  0  0  0
  7  8  1  0  0  0  0
  7  9  1  0  0  0  0
 28 29  1  0  0  0  0
 28 30  1  0  0  0  0
 28 31  1  0  0  0  0
 26 27  1  0  0  0  0
 26 28  1  0  0  0  0
M  END
$$$$
default_name
  -OEChem-01062215323D

 31 30  0     1  0  0  0  0  0999 V2000
   -3.5895   -3.5013    1.1082 H   0  0  0  0  0  0  0  0  0  0  0  0
   -3.5145   -2.5363    0.6082 C   0  0  0  0  0  0  0  0  0  0  0  0
   -4.2285   -1.8413    1.0452 H   0  0  0  0  0  0  0  0  0  0  0  0
   -3.7155   -2.6583   -0.4538 H   0  0  0  0  0  0  0  0  0  0  0  0
   -2.1155   -1.9963    0.7922 C   0  0  0  0  0  0  0  0  0  0  0  0
   -1.2875   -2.6383    1.4252 O   0  0  0  0  0  0  0  0  0  0  0  0
   -1.8575   -0.8123    0.2402 N   0  0  0  0  0  0  0  0  0  0  0  0
   -2.6005   -0.3333   -0.2478 H   0  0  0  0  0  0  0  0  0  0  0  0
   -0.5675   -0.1203    0.3102 C   0  0  1  0  0  0  0  0  0  0  0  0
   -0.5790    0.5362    1.1809 H   0  0  0  0  0  0  0  0  0  0  0  0
    0.5457   -1.1735    0.4915 C   0  0  0  0  0  0  0  0  0  0  0  0
    0.4822   -1.8924   -0.3276 H   0  0  0  0  0  0  0  0  0  0  0  0
    1.5084   -0.6640    0.4106 H   0  0  0  0  0  0  0  0  0  0  0  0
    0.5239   -1.9484    1.8219 C   0  0  0  0  0  0  0  0  0  0  0  0
   -0.4646   -2.3795    1.9806 H   0  0  0  0  0  0  0  0  0  0  0  0
    1.5674   -3.0687    1.8569 C   0  0  0  0  0  0  0  0  0  0  0  0
    2.5615   -2.6546    1.6833 H   0  0  0  0  0  0  0  0  0  0  0  0
    1.5496   -3.5566    2.8317 H   0  0  0  0  0  0  0  0  0  0  0  0
    1.3553   -3.8152    1.0946 H   0  0  0  0  0  0  0  0  0  0  0  0
    0.8154   -0.9945    2.9797 C   0  0  0  0  0  0  0  0  0  0  0  0
    0.0674   -0.2020    2.9992 H   0  0  0  0  0  0  0  0  0  0  0  0
    0.7732   -1.5354    3.9252 H   0  0  0  0  0  0  0  0  0  0  0  0
    1.8053   -0.5523    2.8620 H   0  0  0  0  0  0  0  0  0  0  0  0
   -0.3600    0.7452   -0.9444 C   0  0  0  0  0  0  0  0  0  0  0  0
    0.5080    1.6149   -0.9575 O   0  0  0  0  0  0  0  0  0  0  0  0
   -1.1630    0.5129   -1.9909 N   0  0  0  0  0  0  0  0  0  0  0  0
   -1.8470   -0.2218   -1.9059 H   0  0  0  0  0  0  0  0  0  0  0  0
   -1.1036    1.2587   -3.2459 C   0  0  0  0  0  0  0  0  0  0  0  0
   -0.1092    1.1596   -3.6870 H   0  0  0  0  0  0  0  0  0  0  0  0
   -1.8475    0.8787   -3.9477 H   0  0  0  0  0  0  0  0  0  0  0  0
   -1.2940    2.3161   -3.0555 H   0  0  0  0  0  0  0  0  0  0  0  0
  5  6  2  0  0  0  0
  5  7  1  0  0  0  0
  2  3  1  0  0  0  0
  2  4  1  0  0  0  0
  2  5  1  0  0  0  0
  1  2  1  0  0  0  0
 24 25  2  0  0  0  0
 24 26  1  0  0  0  0
 20 21  1  0  0  0  0
 20 22  1  0  0  0  0
 20 23  1  0  0  0  0
 16 17  1  0  0  0  0
 16 18  1  0  0  0  0
 16 19  1  0  0  0  0
 14 15  1  0  0  0  0
 14 16  1  0  0  0  0
 14 20  1  0  0  0  0
 11 12  1  0  0  0  0
 11 13  1  0  0  0  0
 11 14  1  0  0  0  0
  9 10  1  0  0  0  0
  9 11  1  0  0  0  0
  9 24  1  0  0  0  0
  7  8  1  0  0  0  0
  7  9  1  0  0  0  0
 28 29  1  0  0  0  0
 28 30  1  0  0  0  0
 28 31  1  0  0  0  0
 26 27  1  0  0  0  0
 26 28  1  0  0  0  0
M  END
$$$$
default_name
  -OEChem-01062215323D

 31 30  0     1  0  0  0  0  0999 V2000
   -3.5895   -3.5013    1.1082 H   0  0  0  0  0  0  0  0  0  0  0  0
   -3.5145   -2.5363    0.6082 C   0  0  0  0  0  0  0  0  0  0  0  0
   -4.2285   -1.8413    1.0452 H   0  0  0  0  0  0  0  0  0  0  0  0
   -3.7155   -2.6583   -0.4538 H   0  0  0  0  0  0  0  0  0  0  0  0
   -2.1155   -1.9963    0.7922 C   0  0  0  0  0  0  0  0  0  0  0  0
   -1.2875   -2.6383    1.4252 O   0  0  0  0  0  0  0  0  0  0  0  0
   -1.8575   -0.8123    0.2402 N   0  0  0  0  0  0  0  0  0  0  0  0
   -2.6005   -0.3333   -0.2478 H   0  0  0  0  0  0  0  0  0  0  0  0
   -0.5675   -0.1203    0.3102 C   0  0  1  0  0  0  0  0  0  0  0  0
   -0.5790    0.5362    1.1809 H   0  0  0  0  0  0  0  0  0  0  0  0
    0.5457   -1.1735    0.4915 C   0  0  0  0  0  0  0  0  0  0  0  0
    0.4822   -1.8924   -0.3276 H   0  0  0  0  0  0  0  0  0  0  0  0
    1.5084   -0.6640    0.4106 H   0  0  0  0  0  0  0  0  0  0  0  0
    0.5239   -1.9484    1.8219 C   0  0  0  0  0  0  0  0  0  0  0  0
   -0.4646   -2.3795    1.9806 H   0  0  0  0  0  0  0  0  0  0  0  0
    1.5674   -3.0687    1.8569 C   0  0  0  0  0  0  0  0  0  0  0  0
    2.5615   -2.6546    1.6833 H   0  0  0  0  0  0  0  0  0  0  0  0
    1.5496   -3.5566    2.8317 H   0  0  0  0  0  0  0  0  0  0  0  0
    1.3553   -3.8152    1.0946 H   0  0  0  0  0  0  0  0  0  0  0  0
    0.8154   -0.9945    2.9797 C   0  0  0  0  0  0  0  0  0  0  0  0
    0.0674   -0.2020    2.9992 H   0  0  0  0  0  0  0  0  0  0  0  0
    0.7732   -1.5354    3.9252 H   0  0  0  0  0  0  0  0  0  0  0  0
    1.8053   -0.5523    2.8620 H   0  0  0  0  0  0  0  0  0  0  0  0
   -0.3600    0.7452   -0.9444 C   0  0  0  0  0  0  0  0  0  0  0  0
    0.6630    1.4143   -1.0702 O   0  0  0  0  0  0  0  0  0  0  0  0
   -1.3342    0.7387   -1.8635 N   0  0  0  0  0  0  0  0  0  0  0  0
   -2.1403    0.1594   -1.6914 H   0  0  0  0  0  0  0  0  0  0  0  0
   -1.2955    1.5181   -3.0987 C   0  0  0  0  0  0  0  0  0  0  0  0
   -0.4181    1.2362   -3.6852 H   0  0  0  0  0  0  0  0  0  0  0  0
   -2.1953    1.3376   -3.6887 H   0  0  0  0  0  0  0  0  0  0  0  0
   -1.2266    2.5810   -2.8617 H   0  0  0  0  0  0  0  0  0  0  0  0
  5  6  2  0  0  0  0
  5  7  1  0  0  0  0
  2  3  1  0  0  0  0
  2  4  1  0  0  0  0
  2  5  1  0  0  0  0
  1  2  1  0  0  0  0
 24 25  2  0  0  0  0
 24 26  1  0  0  0  0
 20 21  1  0  0  0  0
 20 22  1  0  0  0  0
 20 23  1  0  0  0  0
 16 17  1  0  0  0  0
 16 18  1  0  0  0  0
 16 19  1  0  0  0  0
 14 15  1  0  0  0  0
 14 16  1  0  0  0  0
 14 20  1  0  0  0  0
 11 12  1  0  0  0  0
 11 13  1  0  0  0  0
 11 14  1  0  0  0  0
  9 10  1  0  0  0  0
  9 11  1  0  0  0  0
  9 24  1  0  0  0  0
  7  8  1  0  0  0  0
  7  9  1  0  0  0  0
 28 29  1  0  0  0  0
 28 30  1  0  0  0  0
 28 31  1  0  0  0  0
 26 27  1  0  0  0  0
 26 28  1  0  0  0  0
M  END
$$$$
default_name
  -OEChem-01062215323D

 31 30  0     1  0  0  0  0  0999 V2000
   -3.5895   -3.5013    1.1082 H   0  0  0  0  0  0  0  0  0  0  0  0
   -3.5145   -2.5363    0.6082 C   0  0  0  0  0  0  0  0  0  0  0  0
   -4.2285   -1.8413    1.0452 H   0  0  0  0  0  0  0  0  0  0  0  0
   -3.7155   -2.6583   -0.4538 H   0  0  0  0  0  0  0  0  0  0  0  0
   -2.1155   -1.9963    0.7922 C   0  0  0  0  0  0  0  0  0  0  0  0
   -1.2875   -2.6383    1.4252 O   0  0  0  0  0  0  0  0  0  0  0  0
   -1.8575   -0.8123    0.2402 N   0  0  0  0  0  0  0  0  0  0  0  0
   -2.6005   -0.3333   -0.2478 H   0  0  0  0  0  0  0  0  0  0  0  0
   -0.5675   -0.1203    0.3102 C   0  0  1  0  0  0  0  0  0  0  0  0
   -0.5790    0.5362    1.1809 H   0  0  0  0  0  0  0  0  0  0  0  0
    0.5457   -1.1735    0.4915 C   0  0  0  0  0  0  0  0  0  0  0  0
    0.4822   -1.8924   -0.3276 H   0  0  0  0  0  0  0  0  0  0  0  0
    1.5084   -0.6640    0.4106 H   0  0  0  0  0  0  0  0  0  0  0  0
    0.5239   -1.9484    1.8219 C   0  0  0  0  0  0  0  0  0  0  0  0
   -0.4646   -2.3795    1.9806 H   0  0  0  0  0  0  0  0  0  0  0  0
    1.5674   -3.0687    1.8569 C   0  0  0  0  0  0  0  0  0  0  0  0
    2.5615   -2.6546    1.6833 H   0  0  0  0  0  0  0  0  0  0  0  0
    1.5496   -3.5566    2.8317 H   0  0  0  0  0  0  0  0  0  0  0  0
    1.3553   -3.8152    1.0946 H   0  0  0  0  0  0  0  0  0  0  0  0
    0.8154   -0.9945    2.9797 C   0  0  0  0  0  0  0  0  0  0  0  0
    0.0674   -0.2020    2.9992 H   0  0  0  0  0  0  0  0  0  0  0  0
    0.7732   -1.5354    3.9252 H   0  0  0  0  0  0  0  0  0  0  0  0
    1.8053   -0.5523    2.8620 H   0  0  0  0  0  0  0  0  0  0  0  0
   -0.3600    0.7452   -0.9444 C   0  0  0  0  0  0  0  0  0  0  0  0
    0.7539    1.1918   -1.2087 O   0  0  0  0  0  0  0  0  0  0  0  0
   -1.4334    0.9884   -1.7076 N   0  0  0  0  0  0  0  0  0  0  0  0
   -2.3119    0.5820   -1.4283 H   0  0  0  0  0  0  0  0  0  0  0  0
   -1.4047    1.8040   -2.9195 C   0  0  0  0  0  0  0  0  0  0  0  0
   -0.7001    1.3754   -3.6358 H   0  0  0  0  0  0  0  0  0  0  0  0
   -2.3967    1.8452   -3.3719 H   0  0  0  0  0  0  0  0  0  0  0  0
   -1.0773    2.8158   -2.6750 H   0  0  0  0  0  0  0  0  0  0  0  0
  5  6  2  0  0  0  0
  5  7  1  0  0  0  0
  2  3  1  0  0  0  0
  2  4  1  0  0  0  0
  2  5  1  0  0  0  0
  1  2  1  0  0  0  0
 24 25  2  0  0  0  0
 24 26  1  0  0  0  0
 20 21  1  0  0  0  0
 20 22  1  0  0  0  0
 20 23  1  0  0  0  0
 16 17  1  0  0  0  0
 16 18  1  0  0  0  0
 16 19  1  0  0  0  0
 14 15  1  0  0  0  0
 14 16  1  0  0  0  0
 14 20  1  0  0  0  0
 11 12  1  0  0  0  0
 11 13  1  0  0  0  0
 11 14  1  0  0  0  0
  9 10  1  0  0  0  0
  9 11  1  0  0  0  0
  9 24  1  0  0  0  0
  7  8  1  0  0  0  0
  7  9  1  0  0  0  0
 28 29  1  0  0  0  0
 28 30  1  0  0  0  0
 28 31  1  0  0  0  0
 26 27  1  0  0  0  0
 26 28  1  0  0  0  0
M  END
$$$$
default_name
  -OEChem-01062215323D

 31 30  0     1  0  0  0  0  0999 V2000
   -3.5895   -3.5013    1.1082 H   0  0  0  0  0  0  0  0  0  0  0  0
   -3.5145   -2.5363    0.6082 C   0  0  0  0  0  0  0  0  0  0  0  0
   -4.2285   -1.8413    1.0452 H   0  0  0  0  0  0  0  0  0  0  0  0
   -3.7155   -2.6583   -0.4538 H   0  0  0  0  0  0  0  0  0  0  0  0
   -2.1155   -1.9963    0.7922 C   0  0  0  0  0  0  0  0  0  0  0  0
   -1.2875   -2.6383    1.4252 O   0  0  0  0  0  0  0  0  0  0  0  0
   -1.8575   -0.8123    0.2402 N   0  0  0  0  0  0  0  0  0  0  0  0
   -2.6005   -0.3333   -0.2478 H   0  0  0  0  0  0  0  0  0  0  0  0
   -0.5675   -0.1203    0.3102 C   0  0  1  0  0  0  0  0  0  0  0  0
   -0.5790    0.5362    1.1809 H   0  0  0  0  0  0  0  0  0  0  0  0
    0.5457   -1.1735    0.4915 C   0  0  0  0  0  0  0  0  0  0  0  0
    0.4822   -1.8924   -0.3276 H   0  0  0  0  0  0  0  0  0  0  0  0
    1.5084   -0.6640    0.4106 H   0  0  0  0  0  0  0  0  0  0  0  0
    0.5239   -1.9484    1.8219 C   0  0  0  0  0  0  0  0  0  0  0  0
   -0.4646   -2.3795    1.9806 H   0  0  0  0  0  0  0  0  0  0  0  0
    1.5674   -3.0687    1.8569 C   0  0  0  0  0  0  0  0  0  0  0  0
    2.5615   -2.6546    1.6833 H   0  0  0  0  0  0  0  0  0  0  0  0
    1.5496   -3.5566    2.8317 H   0  0  0  0  0  0  0  0  0  0  0  0
    1.3553   -3.8152    1.0946 H   0  0  0  0  0  0  0  0  0  0  0  0
    0.8154   -0.9945    2.9797 C   0  0  0  0  0  0  0  0  0  0  0  0
    0.0674   -0.2020    2.9992 H   0  0  0  0  0  0  0  0  0  0  0  0
    0.7732   -1.5354    3.9252 H   0  0  0  0  0  0  0  0  0  0  0  0
    1.8053   -0.5523    2.8620 H   0  0  0  0  0  0  0  0  0  0  0  0
   -0.3600    0.7452   -0.9444 C   0  0  0  0  0  0  0  0  0  0  0  0
    0.7746    0.9624   -1.3635 O   0  0  0  0  0  0  0  0  0  0  0  0
   -1.4538    1.2451   -1.5339 N   0  0  0  0  0  0  0  0  0  0  0  0
   -2.3501    1.0172   -1.1343 H   0  0  0  0  0  0  0  0  0  0  0  0
   -1.4237    2.0970   -2.7206 C   0  0  0  0  0  0  0  0  0  0  0  0
   -0.9359    1.5677   -3.5422 H   0  0  0  0  0  0  0  0  0  0  0  0
   -2.4379    2.3669   -3.0188 H   0  0  0  0  0  0  0  0  0  0  0  0
   -0.8564    3.0046   -2.5082 H   0  0  0  0  0  0  0  0  0  0  0  0
  5  6  2  0  0  0  0
  5  7  1  0  0  0  0
  2  3  1  0  0  0  0
  2  4  1  0  0  0  0
  2  5  1  0  0  0  0
  1  2  1  0  0  0  0
 24 25  2  0  0  0  0
 24 26  1  0  0  0  0
 20 21  1  0  0  0  0
 20 22  1  0  0  0  0
 20 23  1  0  0  0  0
 16 17  1  0  0  0  0
 16 18  1  0  0  0  0
 16 19  1  0  0  0  0
 14 15  1  0  0  0  0
 14 16  1  0  0  0  0
 14 20  1  0  0  0  0
 11 12  1  0  0  0  0
 11 13  1  0  0  0  0
 11 14  1  0  0  0  0
  9 10  1  0  0  0  0
  9 11  1  0  0  0  0
  9 24  1  0  0  0  0
  7  8  1  0  0  0  0
  7  9  1  0  0  0  0
 28 29  1  0  0  0  0
 28 30  1  0  0  0  0
 28 31  1  0  0  0  0
 26 27  1  0  0  0  0
 26 28  1  0  0  0  0
M  END
$$$$
default_name
  -OEChem-01062215323D

 31 30  0     1  0  0  0  0  0999 V2000
   -3.5895   -3.5013    1.1082 H   0  0  0  0  0  0  0  0  0  0  0  0
   -3.5145   -2.5363    0.6082 C   0  0  0  0  0  0  0  0  0  0  0  0
   -4.2285   -1.8413    1.0452 H   0  0  0  0  0  0  0  0  0  0  0  0
   -3.7155   -2.6583   -0.4538 H   0  0  0  0  0  0  0  0  0  0  0  0
   -2.1155   -1.9963    0.7922 C   0  0  0  0  0  0  0  0  0  0  0  0
   -1.2875   -2.6383    1.4252 O   0  0  0  0  0  0  0  0  0  0  0  0
   -1.8575   -0.8123    0.2402 N   0  0  0  0  0  0  0  0  0  0  0  0
   -2.6005   -0.3333   -0.2478 H   0  0  0  0  0  0  0  0  0  0  0  0
   -0.5675   -0.1203    0.3102 C   0  0  1  0  0  0  0  0  0  0  0  0
   -0.5790    0.5362    1.1809 H   0  0  0  0  0  0  0  0  0  0  0  0
    0.5457   -1.1735    0.4915 C   0  0  0  0  0  0  0  0  0  0  0  0
    0.4822   -1.8924   -0.3276 H   0  0  0  0  0  0  0  0  0  0  0  0
    1.5084   -0.6640    0.4106 H   0  0  0  0  0  0  0  0  0  0  0  0
    0.5239   -1.9484    1.8219 C   0  0  0  0  0  0  0  0  0  0  0  0
   -0.4646   -2.3795    1.9806 H   0  0  0  0  0  0  0  0  0  0  0  0
    1.5674   -3.0687    1.8569 C   0  0  0  0  0  0  0  0  0  0  0  0
    2.5615   -2.6546    1.6833 H   0  0  0  0  0  0  0  0  0  0  0  0
    1.5496   -3.5566    2.8317 H   0  0  0  0  0  0  0  0  0  0  0  0
    1.3553   -3.8152    1.0946 H   0  0  0  0  0  0  0  0  0  0  0  0
    0.8154   -0.9945    2.9797 C   0  0  0  0  0  0  0  0  0  0  0  0
    0.0674   -0.2020    2.9992 H   0  0  0  0  0  0  0  0  0  0  0  0
    0.7732   -1.5354    3.9252 H   0  0  0  0  0  0  0  0  0  0  0  0
    1.8053   -0.5523    2.8620 H   0  0  0  0  0  0  0  0  0  0  0  0
   -0.3600    0.7452   -0.9444 C   0  0  0  0  0  0  0  0  0  0  0  0
    0.7236    0.7420   -1.5240 O   0  0  0  0  0  0  0  0  0  0  0  0
   -1.3940    1.4913   -1.3542 N   0  0  0  0  0  0  0  0  0  0  0  0
   -2.2524    1.4355   -0.8297 H   0  0  0  0  0  0  0  0  0  0  0  0
   -1.3512    2.3771   -2.5154 C   0  0  0  0  0  0  0  0  0  0  0  0
   -1.1094    1.7999   -3.4107 H   0  0  0  0  0  0  0  0  0  0  0  0
   -2.3161    2.8672   -2.6535 H   0  0  0  0  0  0  0  0  0  0  0  0
   -0.5789    3.1345   -2.3727 H   0  0  0  0  0  0  0  0  0  0  0  0
  5  6  2  0  0  0  0
  5  7  1  0  0  0  0
  2  3  1  0  0  0  0
  2  4  1  0  0  0  0
  2  5  1  0  0  0  0
  1  2  1  0  0  0  0
 24 25  2  0  0  0  0
 24 26  1  0  0  0  0
 20 21  1  0  0  0  0
 20 22  1  0  0  0  0
 20 23  1  0  0  0  0
 16 17  1  0  0  0  0
 16 18  1  0  0  0  0
 16 19  1  0  0  0  0
 14 15  1  0  0  0  0
 14 16  1  0  0  0  0
 14 20  1  0  0  0  0
 11 12  1  0  0  0  0
 11 13  1  0  0  0  0
 11 14  1  0  0  0  0
  9 10  1  0  0  0  0
  9 11  1  0  0  0  0
  9 24  1  0  0  0  0
  7  8  1  0  0  0  0
  7  9  1  0  0  0  0
 28 29  1  0  0  0  0
 28 30  1  0  0  0  0
 28 31  1  0  0  0  0
 26 27  1  0  0  0  0
 26 28  1  0  0  0  0
M  END
$$$$
default_name
  -OEChem-01062215323D

 31 30  0     1  0  0  0  0  0999 V2000
   -3.5895   -3.5013    1.1082 H   0  0  0  0  0  0  0  0  0  0  0  0
   -3.5145   -2.5363    0.6082 C   0  0  0  0  0  0  0  0  0  0  0  0
   -4.2285   -1.8413    1.0452 H   0  0  0  0  0  0  0  0  0  0  0  0
   -3.7155   -2.6583   -0.4538 H   0  0  0  0  0  0  0  0  0  0  0  0
   -2.1155   -1.9963    0.7922 C   0  0  0  0  0  0  0  0  0  0  0  0
   -1.2875   -2.6383    1.4252 O   0  0  0  0  0  0  0  0  0  0  0  0
   -1.8575   -0.8123    0.2402 N   0  0  0  0  0  0  0  0  0  0  0  0
   -2.6005   -0.3333   -0.2478 H   0  0  0  0  0  0  0  0  0  0  0  0
   -0.5675   -0.1203    0.3102 C   0  0  1  0  0  0  0  0  0  0  0  0
   -0.5790    0.5362    1.1809 H   0  0  0  0  0  0  0  0  0  0  0  0
    0.5457   -1.1735    0.4915 C   0  0  0  0  0  0  0  0  0  0  0  0
    0.4822   -1.8924   -0.3276 H   0  0  0  0  0  0  0  0  0  0  0  0
    1.5084   -0.6640    0.4106 H   0  0  0  0  0  0  0  0  0  0  0  0
    0.5239   -1.9484    1.8219 C   0  0  0  0  0  0  0  0  0  0  0  0
   -0.4646   -2.3795    1.9806 H   0  0  0  0  0  0  0  0  0  0  0  0
    1.5674   -3.0687    1.8569 C   0  0  0  0  0  0  0  0  0  0  0  0
    2.5615   -2.6546    1.6833 H   0  0  0  0  0  0  0  0  0  0  0  0
    1.5496   -3.5566    2.8317 H   0  0  0  0  0  0  0  0  0  0  0  0
    1.3553   -3.8152    1.0946 H   0  0  0  0  0  0  0  0  0  0  0  0
    0.8154   -0.9945    2.9797 C   0  0  0  0  0  0  0  0  0  0  0  0
    0.0674   -0.2020    2.9992 H   0  0  0  0  0  0  0  0  0  0  0  0
    0.7732   -1.5354    3.9252 H   0  0  0  0  0  0  0  0  0  0  0  0
    1.8053   -0.5523    2.8620 H   0  0  0  0  0  0  0  0  0  0  0  0
   -0.3600    0.7452   -0.9444 C   0  0  0  0  0  0  0  0  0  0  0  0
    0.6044    0.5454   -1.6793 O   0  0  0  0  0  0  0  0  0  0  0  0
   -1.2581    1.7103   -1.1807 N   0  0  0  0  0  0  0  0  0  0  0  0
   -2.0253    1.8082   -0.5350 H   0  0  0  0  0  0  0  0  0  0  0  0
   -1.1922    2.6251   -2.3180 C   0  0  0  0  0  0  0  0  0  0  0  0
   -1.2089    2.0563   -3.2503 H   0  0  0  0  0  0  0  0  0  0  0  0
   -2.0397    3.3121   -2.3009 H   0  0  0  0  0  0  0  0  0  0  0  0
   -0.2636    3.1967   -2.2777 H   0  0  0  0  0  0  0  0  0  0  0  0
  5  6  2  0  0  0  0
  5  7  1  0  0  0  0
  2  3  1  0  0  0  0
  2  4  1  0  0  0  0
  2  5  1  0  0  0  0
  1  2  1  0  0  0  0
 24 25  2  0  0  0  0
 24 26  1  0  0  0  0
 20 21  1  0  0  0  0
 20 22  1  0  0  0  0
 20 23  1  0  0  0  0
 16 17  1  0  0  0  0
 16 18  1  0  0  0  0
 16 19  1  0  0  0  0
 14 15  1  0  0  0  0
 14 16  1  0  0  0  0
 14 20  1  0  0  0  0
 11 12  1  0  0  0  0
 11 13  1  0  0  0  0
 11 14  1  0  0  0  0
  9 10  1  0  0  0  0
  9 11  1  0  0  0  0
  9 24  1  0  0  0  0
  7  8  1  0  0  0  0
  7  9  1  0  0  0  0
 28 29  1  0  0  0  0
 28 30  1  0  0  0  0
 28 31  1  0  0  0  0
 26 27  1  0  0  0  0
 26 28  1  0  0  0  0
M  END
$$$$
default_name
  -OEChem-01062215323D

 31 30  0     1  0  0  0  0  0999 V2000
   -3.5895   -3.5013    1.1082 H   0  0  0  0  0  0  0  0  0  0  0  0
   -3.5145   -2.5363    0.6082 C   0  0  0  0  0  0  0  0  0  0  0  0
   -4.2285   -1.8413    1.0452 H   0  0  0  0  0  0  0  0  0  0  0  0
   -3.7155   -2.6583   -0.4538 H   0  0  0  0  0  0  0  0  0  0  0  0
   -2.1155   -1.9963    0.7922 C   0  0  0  0  0  0  0  0  0  0  0  0
   -1.2875   -2.6383    1.4252 O   0  0  0  0  0  0  0  0  0  0  0  0
   -1.8575   -0.8123    0.2402 N   0  0  0  0  0  0  0  0  0  0  0  0
   -2.6005   -0.3333   -0.2478 H   0  0  0  0  0  0  0  0  0  0  0  0
   -0.5675   -0.1203    0.3102 C   0  0  1  0  0  0  0  0  0  0  0  0
   -0.5790    0.5362    1.1809 H   0  0  0  0  0  0  0  0  0  0  0  0
    0.5457   -1.1735    0.4915 C   0  0  0  0  0  0  0  0  0  0  0  0
    0.4822   -1.8924   -0.3276 H   0  0  0  0  0  0  0  0  0  0  0  0
    1.5084   -0.6640    0.4106 H   0  0  0  0  0  0  0  0  0  0  0  0
    0.5239   -1.9484    1.8219 C   0  0  0  0  0  0  0  0  0  0  0  0
   -0.4646   -2.3795    1.9806 H   0  0  0  0  0  0  0  0  0  0  0  0
    1.5674   -3.0687    1.8569 C   0  0  0  0  0  0  0  0  0  0  0  0
    2.5615   -2.6546    1.6833 H   0  0  0  0  0  0  0  0  0  0  0  0
    1.5496   -3.5566    2.8317 H   0  0  0  0  0  0  0  0  0  0  0  0
    1.3553   -3.8152    1.0946 H   0  0  0  0  0  0  0  0  0  0  0  0
    0.8154   -0.9945    2.9797 C   0  0  0  0  0  0  0  0  0  0  0  0
    0.0674   -0.2020    2.9992 H   0  0  0  0  0  0  0  0  0  0  0  0
    0.7732   -1.5354    3.9252 H   0  0  0  0  0  0  0  0  0  0  0  0
    1.8053   -0.5523    2.8620 H   0  0  0  0  0  0  0  0  0  0  0  0
   -0.3600    0.7452   -0.9444 C   0  0  0  0  0  0  0  0  0  0  0  0
    0.4252    0.3861   -1.8188 O   0  0  0  0  0  0  0  0  0  0  0  0
   -1.0554    1.8870   -1.0252 N   0  0  0  0  0  0  0  0  0  0  0  0
   -1.6843    2.1100   -0.2705 H   0  0  0  0  0  0  0  0  0  0  0  0
   -0.9575    2.8243   -2.1418 C   0  0  0  0  0  0  0  0  0  0  0  0
   -1.2275    2.3193   -3.0720 H   0  0  0  0  0  0  0  0  0  0  0  0
   -1.6275    3.6711   -1.9851 H   0  0  0  0  0  0  0  0  0  0  0  0
    0.0679    3.1869   -2.2297 H   0  0  0  0  0  0  0  0  0  0  0  0
  5  6  2  0  0  0  0
  5  7  1  0  0  0  0
  2  3  1  0  0  0  0
  2  4  1  0  0  0  0
  2  5  1  0  0  0  0
  1  2  1  0  0  0  0
 24 25  2  0  0  0  0
 24 26  1  0  0  0  0
 20 21  1  0  0  0  0
 20 22  1  0  0  0  0
 20 23  1  0  0  0  0
 16 17  1  0  0  0  0
 16 18  1  0  0  0  0
 16 19  1  0  0  0  0
 14 15  1  0  0  0  0
 14 16  1  0  0  0  0
 14 20  1  0  0  0  0
 11 12  1  0  0  0  0
 11 13  1  0  0  0  0
 11 14  1  0  0  0  0
  9 10  1  0  0  0  0
  9 11  1  0  0  0  0
  9 24  1  0  0  0  0
  7  8  1  0  0  0  0
  7  9  1  0  0  0  0
 28 29  1  0  0  0  0
 28 30  1  0  0  0  0
 28 31  1  0  0  0  0
 26 27  1  0  0  0  0
 26 28  1  0  0  0  0
M  END
$$$$
default_name
  -OEChem-01062215323D

 31 30  0     1  0  0  0  0  0999 V2000
   -3.5895   -3.5013    1.1082 H   0  0  0  0  0  0  0  0  0  0  0  0
   -3.5145   -2.5363    0.6082 C   0  0  0  0  0  0  0  0  0  0  0  0
   -4.2285   -1.8413    1.0452 H   0  0  0  0  0  0  0  0  0  0  0  0
   -3.7155   -2.6583   -0.4538 H   0  0  0  0  0  0  0  0  0  0  0  0
   -2.1155   -1.9963    0.7922 C   0  0  0  0  0  0  0  0  0  0  0  0
   -1.2875   -2.6383    1.4252 O   0  0  0  0  0  0  0  0  0  0  0  0
   -1.8575   -0.8123    0.2402 N   0  0  0  0  0  0  0  0  0  0  0  0
   -2.6005   -0.3333   -0.2478 H   0  0  0  0  0  0  0  0  0  0  0  0
   -0.5675   -0.1203    0.3102 C   0  0  1  0  0  0  0  0  0  0  0  0
   -0.5790    0.5362    1.1809 H   0  0  0  0  0  0  0  0  0  0  0  0
    0.5457   -1.1735    0.4915 C   0  0  0  0  0  0  0  0  0  0  0  0
    0.4822   -1.8924   -0.3276 H   0  0  0  0  0  0  0  0  0  0  0  0
    1.5084   -0.6640    0.4106 H   0  0  0  0  0  0  0  0  0  0  0  0
    0.5239   -1.9484    1.8219 C   0  0  0  0  0  0  0  0  0  0  0  0
   -0.4646   -2.3795    1.9806 H   0  0  0  0  0  0  0  0  0  0  0  0
    1.5674   -3.0687    1.8569 C   0  0  0  0  0  0  0  0  0  0  0  0
    2.5615   -2.6546    1.6833 H   0  0  0  0  0  0  0  0  0  0  0  0
    1.5496   -3.5566    2.8317 H   0  0  0  0  0  0  0  0  0  0  0  0
    1.3553   -3.8152    1.0946 H   0  0  0  0  0  0  0  0  0  0  0  0
    0.8154   -0.9945    2.9797 C   0  0  0  0  0  0  0  0  0  0  0  0
    0.0674   -0.2020    2.9992 H   0  0  0  0  0  0  0  0  0  0  0  0
    0.7732   -1.5354    3.9252 H   0  0  0  0  0  0  0  0  0  0  0  0
    1.8053   -0.5523    2.8620 H   0  0  0  0  0  0  0  0  0  0  0  0
   -0.3600    0.7452   -0.9444 C   0  0  0  0  0  0  0  0  0  0  0  0
    0.1982    0.2749   -1.9331 O   0  0  0  0  0  0  0  0  0  0  0  0
   -0.7996    2.0095   -0.8985 N   0  0  0  0  0  0  0  0  0  0  0  0
   -1.2528    2.3203   -0.0541 H   0  0  0  0  0  0  0  0  0  0  0  0
   -0.6631    2.9610   -1.9988 C   0  0  0  0  0  0  0  0  0  0  0  0
   -1.1639    2.5710   -2.8878 H   0  0  0  0  0  0  0  0  0  0  0  0
   -1.1075    3.9198   -1.7275 H   0  0  0  0  0  0  0  0  0  0  0  0
    0.3930    3.1058   -2.2319 H   0  0  0  0  0  0  0  0  0  0  0  0
  5  6  2  0  0  0  0
  5  7  1  0  0  0  0
  2  3  1  0  0  0  0
  2  4  1  0  0  0  0
  2  5  1  0  0  0  0
  1  2  1  0  0  0  0
 24 25  2  0  0  0  0
 24 26  1  0  0  0  0
 20 21  1  0  0  0  0
 20 22  1  0  0  0  0
 20 23  1  0  0  0  0
 16 17  1  0  0  0  0
 16 18  1  0  0  0  0
 16 19  1  0  0  0  0
 14 15  1  0  0  0  0
 14 16  1  0  0  0  0
 14 20  1  0  0  0  0
 11 12  1  0  0  0  0
 11 13  1  0  0  0  0
 11 14  1  0  0  0  0
  9 10  1  0  0  0  0
  9 11  1  0  0  0  0
  9 24  1  0  0  0  0
  7  8  1  0  0  0  0
  7  9  1  0  0  0  0
 28 29  1  0  0  0  0
 28 30  1  0  0  0  0
 28 31  1  0  0  0  0
 26 27  1  0  0  0  0
 26 28  1  0  0  0  0
M  END
$$$$
default_name
  -OEChem-01062215323D

 31 30  0     1  0  0  0  0  0999 V2000
   -3.5895   -3.5013    1.1082 H   0  0  0  0  0  0  0  0  0  0  0  0
   -3.5145   -2.5363    0.6082 C   0  0  0  0  0  0  0  0  0  0  0  0
   -4.2285   -1.8413    1.0452 H   0  0  0  0  0  0  0  0  0  0  0  0
   -3.7155   -2.6583   -0.4538 H   0  0  0  0  0  0  0  0  0  0  0  0
   -2.1155   -1.9963    0.7922 C   0  0  0  0  0  0  0  0  0  0  0  0
   -1.2875   -2.6383    1.4252 O   0  0  0  0  0  0  0  0  0  0  0  0
   -1.8575   -0.8123    0.2402 N   0  0  0  0  0  0  0  0  0  0  0  0
   -2.6005   -0.3333   -0.2478 H   0  0  0  0  0  0  0  0  0  0  0  0
   -0.5675   -0.1203    0.3102 C   0  0  1  0  0  0  0  0  0  0  0  0
   -0.5790    0.5362    1.1809 H   0  0  0  0  0  0  0  0  0  0  0  0
    0.5457   -1.1735    0.4915 C   0  0  0  0  0  0  0  0  0  0  0  0
    0.4822   -1.8924   -0.3276 H   0  0  0  0  0  0  0  0  0  0  0  0
    1.5084   -0.6640    0.4106 H   0  0  0  0  0  0  0  0  0  0  0  0
    0.5239   -1.9484    1.8219 C   0  0  0  0  0  0  0  0  0  0  0  0
   -0.4646   -2.3795    1.9806 H   0  0  0  0  0  0  0  0  0  0  0  0
    1.5674   -3.0687    1.8569 C   0  0  0  0  0  0  0  0  0  0  0  0
    2.5615   -2.6546    1.6833 H   0  0  0  0  0  0  0  0  0  0  0  0
    1.5496   -3.5566    2.8317 H   0  0  0  0  0  0  0  0  0  0  0  0
    1.3553   -3.8152    1.0946 H   0  0  0  0  0  0  0  0  0  0  0  0
    0.8154   -0.9945    2.9797 C   0  0  0  0  0  0  0  0  0  0  0  0
    0.0674   -0.2020    2.9992 H   0  0  0  0  0  0  0  0  0  0  0  0
    0.7732   -1.5354    3.9252 H   0  0  0  0  0  0  0  0  0  0  0  0
    1.8053   -0.5523    2.8620 H   0  0  0  0  0  0  0  0  0  0  0  0
   -0.3600    0.7452   -0.9444 C   0  0  0  0  0  0  0  0  0  0  0  0
   -0.0613    0.2194   -2.0142 O   0  0  0  0  0  0  0  0  0  0  0  0
   -0.5082    2.0694   -0.8090 N   0  0  0  0  0  0  0  0  0  0  0  0
   -0.7600    2.4247    0.0995 H   0  0  0  0  0  0  0  0  0  0  0  0
   -0.3291    3.0259   -1.8988 C   0  0  0  0  0  0  0  0  0  0  0  0
   -1.0226    2.7943   -2.7104 H   0  0  0  0  0  0  0  0  0  0  0  0
   -0.5152    4.0413   -1.5458 H   0  0  0  0  0  0  0  0  0  0  0  0
    0.6895    2.9589   -2.2842 H   0  0  0  0  0  0  0  0  0  0  0  0
  5  6  2  0  0  0  0
  5  7  1  0  0  0  0
  2  3  1  0  0  0  0
  2  4  1  0  0  0  0
  2  5  1  0  0  0  0
  1  2  1  0  0  0  0
 24 25  2  0  0  0  0
 24 26  1  0  0  0  0
 20 21  1  0  0  0  0
 20 22  1  0  0  0  0
 20 23  1  0  0  0  0
 16 17  1  0  0  0  0
 16 18  1  0  0  0  0
 16 19  1  0  0  0  0
 14 15  1  0  0  0  0
 14 16  1  0  0  0  0
 14 20  1  0  0  0  0
 11 12  1  0  0  0  0
 11 13  1  0  0  0  0
 11 14  1  0  0  0  0
  9 10  1  0  0  0  0
  9 11  1  0  0  0  0
  9 24  1  0  0  0  0
  7  8  1  0  0  0  0
  7  9  1  0  0  0  0
 28 29  1  0  0  0  0
 28 30  1  0  0  0  0
 28 31  1  0  0  0  0
 26 27  1  0  0  0  0
 26 28  1  0  0  0  0
M  END
$$$$
default_name
  -OEChem-01062215323D

 31 30  0     1  0  0  0  0  0999 V2000
   -3.5895   -3.5013    1.1082 H   0  0  0  0  0  0  0  0  0  0  0  0
   -3.5145   -2.5363    0.6082 C   0  0  0  0  0  0  0  0  0  0  0  0
   -4.2285   -1.8413    1.0452 H   0  0  0  0  0  0  0  0  0  0  0  0
   -3.7155   -2.6583   -0.4538 H   0  0  0  0  0  0  0  0  0  0  0  0
   -2.1155   -1.9963    0.7922 C   0  0  0  0  0  0  0  0  0  0  0  0
   -1.2875   -2.6383    1.4252 O   0  0  0  0  0  0  0  0  0  0  0  0
   -1.8575   -0.8123    0.2402 N   0  0  0  0  0  0  0  0  0  0  0  0
   -2.6005   -0.3333   -0.2478 H   0  0  0  0  0  0  0  0  0  0  0  0
   -0.5675   -0.1203    0.3102 C   0  0  1  0  0  0  0  0  0  0  0  0
   -0.5790    0.5362    1.1809 H   0  0  0  0  0  0  0  0  0  0  0  0
    0.5457   -1.1735    0.4915 C   0  0  0  0  0  0  0  0  0  0  0  0
    0.4822   -1.8924   -0.3276 H   0  0  0  0  0  0  0  0  0  0  0  0
    1.5084   -0.6640    0.4106 H   0  0  0  0  0  0  0  0  0  0  0  0
    0.5239   -1.9484    1.8219 C   0  0  0  0  0  0  0  0  0  0  0  0
   -0.4646   -2.3795    1.9806 H   0  0  0  0  0  0  0  0  0  0  0  0
    1.5674   -3.0687    1.8569 C   0  0  0  0  0  0  0  0  0  0  0  0
    2.5615   -2.6546    1.6833 H   0  0  0  0  0  0  0  0  0  0  0  0
    1.5496   -3.5566    2.8317 H   0  0  0  0  0  0  0  0  0  0  0  0
    1.3553   -3.8152    1.0946 H   0  0  0  0  0  0  0  0  0  0  0  0
    0.8154   -0.9945    2.9797 C   0  0  0  0  0  0  0  0  0  0  0  0
    0.0674   -0.2020    2.9992 H   0  0  0  0  0  0  0  0  0  0  0  0
    0.7732   -1.5354    3.9252 H   0  0  0  0  0  0  0  0  0  0  0  0
    1.8053   -0.5523    2.8620 H   0  0  0  0  0  0  0  0  0  0  0  0
   -0.3600    0.7452   -0.9444 C   0  0  0  0  0  0  0  0  0  0  0  0
   -0.3354    0.2234   -2.0568 O   0  0  0  0  0  0  0  0  0  0  0  0
   -0.2010    2.0626   -0.7629 N   0  0  0  0  0  0  0  0  0  0  0  0
   -0.2396    2.4163    0.1797 H   0  0  0  0  0  0  0  0  0  0  0  0
    0.0218    3.0145   -1.8486 C   0  0  0  0  0  0  0  0  0  0  0  0
   -0.8131    2.9740   -2.5518 H   0  0  0  0  0  0  0  0  0  0  0  0
    0.1090    4.0273   -1.4523 H   0  0  0  0  0  0  0  0  0  0  0  0
    0.9374    2.7562   -2.3831 H   0  0  0  0  0  0  0  0  0  0  0  0
  5  6  2  0  0  0  0
  5  7  1  0  0  0  0
  2  3  1  0  0  0  0
  2  4  1  0  0  0  0
  2  5  1  0  0  0  0
  1  2  1  0  0  0  0
 24 25  2  0  0  0  0
 24 26  1  0  0  0  0
 20 21  1  0  0  0  0
 20 22  1  0  0  0  0
 20 23  1  0  0  0  0
 16 17  1  0  0  0  0
 16 18  1  0  0  0  0
 16 19  1  0  0  0  0
 14 15  1  0  0  0  0
 14 16  1  0  0  0  0
 14 20  1  0  0  0  0
 11 12  1  0  0  0  0
 11 13  1  0  0  0  0
 11 14  1  0  0  0  0
  9 10  1  0  0  0  0
  9 11  1  0  0  0  0
  9 24  1  0  0  0  0
  7  8  1  0  0  0  0
  7  9  1  0  0  0  0
 28 29  1  0  0  0  0
 28 30  1  0  0  0  0
 28 31  1  0  0  0  0
 26 27  1  0  0  0  0
 26 28  1  0  0  0  0
M  END
$$$$
default_name
  -OEChem-01062215323D

 31 30  0     1  0  0  0  0  0999 V2000
   -3.5895   -3.5013    1.1082 H   0  0  0  0  0  0  0  0  0  0  0  0
   -3.5145   -2.5363    0.6082 C   0  0  0  0  0  0  0  0  0  0  0  0
   -4.2285   -1.8413    1.0452 H   0  0  0  0  0  0  0  0  0  0  0  0
   -3.7155   -2.6583   -0.4538 H   0  0  0  0  0  0  0  0  0  0  0  0
   -2.1155   -1.9963    0.7922 C   0  0  0  0  0  0  0  0  0  0  0  0
   -1.2875   -2.6383    1.4252 O   0  0  0  0  0  0  0  0  0  0  0  0
   -1.8575   -0.8123    0.2402 N   0  0  0  0  0  0  0  0  0  0  0  0
   -2.6005   -0.3333   -0.2478 H   0  0  0  0  0  0  0  0  0  0  0  0
   -0.5675   -0.1203    0.3102 C   0  0  1  0  0  0  0  0  0  0  0  0
   -0.5790    0.5362    1.1809 H   0  0  0  0  0  0  0  0  0  0  0  0
    0.5457   -1.1735    0.4915 C   0  0  0  0  0  0  0  0  0  0  0  0
    0.4822   -1.8924   -0.3276 H   0  0  0  0  0  0  0  0  0  0  0  0
    1.5084   -0.6640    0.4106 H   0  0  0  0  0  0  0  0  0  0  0  0
    0.5239   -1.9484    1.8219 C   0  0  0  0  0  0  0  0  0  0  0  0
   -0.4646   -2.3795    1.9806 H   0  0  0  0  0  0  0  0  0  0  0  0
    1.5674   -3.0687    1.8569 C   0  0  0  0  0  0  0  0  0  0  0  0
    2.5615   -2.6546    1.6833 H   0  0  0  0  0  0  0  0  0  0  0  0
    1.5496   -3.5566    2.8317 H   0  0  0  0  0  0  0  0  0  0  0  0
    1.3553   -3.8152    1.0946 H   0  0  0  0  0  0  0  0  0  0  0  0
    0.8154   -0.9945    2.9797 C   0  0  0  0  0  0  0  0  0  0  0  0
    0.0674   -0.2020    2.9992 H   0  0  0  0  0  0  0  0  0  0  0  0
    0.7732   -1.5354    3.9252 H   0  0  0  0  0  0  0  0  0  0  0  0
    1.8053   -0.5523    2.8620 H   0  0  0  0  0  0  0  0  0  0  0  0
   -0.3600    0.7452   -0.9444 C   0  0  0  0  0  0  0  0  0  0  0  0
   -0.6055    0.2867   -2.0578 O   0  0  0  0  0  0  0  0  0  0  0  0
    0.1009    1.9896   -0.7633 N   0  0  0  0  0  0  0  0  0  0  0  0
    0.2729    2.2954    0.1811 H   0  0  0  0  0  0  0  0  0  0  0  0
    0.3657    2.9278   -1.8516 C   0  0  0  0  0  0  0  0  0  0  0  0
   -0.5497    3.0978   -2.4228 H   0  0  0  0  0  0  0  0  0  0  0  0
    0.7226    3.8788   -1.4533 H   0  0  0  0  0  0  0  0  0  0  0  0
    1.1196    2.5115   -2.5217 H   0  0  0  0  0  0  0  0  0  0  0  0
  5  6  2  0  0  0  0
  5  7  1  0  0  0  0
  2  3  1  0  0  0  0
  2  4  1  0  0  0  0
  2  5  1  0  0  0  0
  1  2  1  0  0  0  0
 24 25  2  0  0  0  0
 24 26  1  0  0  0  0
 20 21  1  0  0  0  0
 20 22  1  0  0  0  0
 20 23  1  0  0  0  0
 16 17  1  0  0  0  0
 16 18  1  0  0  0  0
 16 19  1  0  0  0  0
 14 15  1  0  0  0  0
 14 16  1  0  0  0  0
 14 20  1  0  0  0  0
 11 12  1  0  0  0  0
 11 13  1  0  0  0  0
 11 14  1  0  0  0  0
  9 10  1  0  0  0  0
  9 11  1  0  0  0  0
  9 24  1  0  0  0  0
  7  8  1  0  0  0  0
  7  9  1  0  0  0  0
 28 29  1  0  0  0  0
 28 30  1  0  0  0  0
 28 31  1  0  0  0  0
 26 27  1  0  0  0  0
 26 28  1  0  0  0  0
M  END
$$$$
default_name
  -OEChem-01062215323D

 31 30  0     1  0  0  0  0  0999 V2000
   -3.5895   -3.5013    1.1082 H   0  0  0  0  0  0  0  0  0  0  0  0
   -3.5145   -2.5363    0.6082 C   0  0  0  0  0  0  0  0  0  0  0  0
   -4.2285   -1.8413    1.0452 H   0  0  0  0  0  0  0  0  0  0  0  0
   -3.7155   -2.6583   -0.4538 H   0  0  0  0  0  0  0  0  0  0  0  0
   -2.1155   -1.9963    0.7922 C   0  0  0  0  0  0  0  0  0  0  0  0
   -1.2875   -2.6383    1.4252 O   0  0  0  0  0  0  0  0  0  0  0  0
   -1.8575   -0.8123    0.2402 N   0  0  0  0  0  0  0  0  0  0  0  0
   -2.6005   -0.3333   -0.2478 H   0  0  0  0  0  0  0  0  0  0  0  0
   -0.5675   -0.1203    0.3102 C   0  0  1  0  0  0  0  0  0  0  0  0
   -0.5790    0.5362    1.1809 H   0  0  0  0  0  0  0  0  0  0  0  0
    0.5457   -1.1735    0.4915 C   0  0  0  0  0  0  0  0  0  0  0  0
    0.4822   -1.8924   -0.3276 H   0  0  0  0  0  0  0  0  0  0  0  0
    1.5084   -0.6640    0.4106 H   0  0  0  0  0  0  0  0  0  0  0  0
    0.5239   -1.9484    1.8219 C   0  0  0  0  0  0  0  0  0  0  0  0
   -0.4646   -2.3795    1.9806 H   0  0  0  0  0  0  0  0  0  0  0  0
    1.5674   -3.0687    1.8569 C   0  0  0  0  0  0  0  0  0  0  0  0
    2.5615   -2.6546    1.6833 H   0  0  0  0  0  0  0  0  0  0  0  0
    1.5496   -3.5566    2.8317 H   0  0  0  0  0  0  0  0  0  0  0  0
    1.3553   -3.8152    1.0946 H   0  0  0  0  0  0  0  0  0  0  0  0
    0.8154   -0.9945    2.9797 C   0  0  0  0  0  0  0  0  0  0  0  0
    0.0674   -0.2020    2.9992 H   0  0  0  0  0  0  0  0  0  0  0  0
    0.7732   -1.5354    3.9252 H   0  0  0  0  0  0  0  0  0  0  0  0
    1.8053   -0.5523    2.8620 H   0  0  0  0  0  0  0  0  0  0  0  0
   -0.3600    0.7452   -0.9444 C   0  0  0  0  0  0  0  0  0  0  0  0
   -0.8532    0.4048   -2.0173 O   0  0  0  0  0  0  0  0  0  0  0  0
    0.3771    1.8553   -0.8103 N   0  0  0  0  0  0  0  0  0  0  0  0
    0.7427    2.0705    0.1035 H   0  0  0  0  0  0  0  0  0  0  0  0
    0.6791    2.7715   -1.9076 C   0  0  0  0  0  0  0  0  0  0  0  0
   -0.2504    3.1573   -2.3323 H   0  0  0  0  0  0  0  0  0  0  0  0
    1.2838    3.6058   -1.5488 H   0  0  0  0  0  0  0  0  0  0  0  0
    1.2238    2.2416   -2.6907 H   0  0  0  0  0  0  0  0  0  0  0  0
  5  6  2  0  0  0  0
  5  7  1  0  0  0  0
  2  3  1  0  0  0  0
  2  4  1  0  0  0  0
  2  5  1  0  0  0  0
  1  2  1  0  0  0  0
 24 25  2  0  0  0  0
 24 26  1  0  0  0  0
 20 21  1  0  0  0  0
 20 22  1  0  0  0  0
 20 23  1  0  0  0  0
 16 17  1  0  0  0  0
 16 18  1  0  0  0  0
 16 19  1  0  0  0  0
 14 15  1  0  0  0  0
 14 16  1  0  0  0  0
 14 20  1  0  0  0  0
 11 12  1  0  0  0  0
 11 13  1  0  0  0  0
 11 14  1  0  0  0  0
  9 10  1  0  0  0  0
  9 11  1  0  0  0  0
  9 24  1  0  0  0  0
  7  8  1  0  0  0  0
  7  9  1  0  0  0  0
 28 29  1  0  0  0  0
 28 30  1  0  0  0  0
 28 31  1  0  0  0  0
 26 27  1  0  0  0  0
 26 28  1  0  0  0  0
M  END
$$$$
default_name
  -OEChem-01062215323D

 31 30  0     1  0  0  0  0  0999 V2000
   -3.5895   -3.5013    1.1082 H   0  0  0  0  0  0  0  0  0  0  0  0
   -3.5145   -2.5363    0.6082 C   0  0  0  0  0  0  0  0  0  0  0  0
   -4.2285   -1.8413    1.0452 H   0  0  0  0  0  0  0  0  0  0  0  0
   -3.7155   -2.6583   -0.4538 H   0  0  0  0  0  0  0  0  0  0  0  0
   -2.1155   -1.9963    0.7922 C   0  0  0  0  0  0  0  0  0  0  0  0
   -1.2875   -2.6383    1.4252 O   0  0  0  0  0  0  0  0  0  0  0  0
   -1.8575   -0.8123    0.2402 N   0  0  0  0  0  0  0  0  0  0  0  0
   -2.6005   -0.3333   -0.2478 H   0  0  0  0  0  0  0  0  0  0  0  0
   -0.5675   -0.1203    0.3102 C   0  0  1  0  0  0  0  0  0  0  0  0
   -0.5790    0.5362    1.1809 H   0  0  0  0  0  0  0  0  0  0  0  0
    0.5457   -1.1735    0.4915 C   0  0  0  0  0  0  0  0  0  0  0  0
    0.4822   -1.8924   -0.3276 H   0  0  0  0  0  0  0  0  0  0  0  0
    1.5084   -0.6640    0.4106 H   0  0  0  0  0  0  0  0  0  0  0  0
    0.5239   -1.9484    1.8219 C   0  0  0  0  0  0  0  0  0  0  0  0
   -0.4646   -2.3795    1.9806 H   0  0  0  0  0  0  0  0  0  0  0  0
    1.5674   -3.0687    1.8569 C   0  0  0  0  0  0  0  0  0  0  0  0
    2.5615   -2.6546    1.6833 H   0  0  0  0  0  0  0  0  0  0  0  0
    1.5496   -3.5566    2.8317 H   0  0  0  0  0  0  0  0  0  0  0  0
    1.3553   -3.8152    1.0946 H   0  0  0  0  0  0  0  0  0  0  0  0
    0.8154   -0.9945    2.9797 C   0  0  0  0  0  0  0  0  0  0  0  0
    0.0674   -0.2020    2.9992 H   0  0  0  0  0  0  0  0  0  0  0  0
    0.7732   -1.5354    3.9252 H   0  0  0  0  0  0  0  0  0  0  0  0
    1.8053   -0.5523    2.8620 H   0  0  0  0  0  0  0  0  0  0  0  0
   -0.3600    0.7452   -0.9444 C   0  0  0  0  0  0  0  0  0  0  0  0
   -1.0617    0.5698   -1.9379 O   0  0  0  0  0  0  0  0  0  0  0  0
    0.6087    1.6690   -0.9005 N   0  0  0  0  0  0  0  0  0  0  0  0
    1.1377    1.7567   -0.0476 H   0  0  0  0  0  0  0  0  0  0  0  0
    0.9407    2.5563   -2.0128 C   0  0  0  0  0  0  0  0  0  0  0  0
    0.0645    3.1484   -2.2864 H   0  0  0  0  0  0  0  0  0  0  0  0
    1.7543    3.2269   -1.7324 H   0  0  0  0  0  0  0  0  0  0  0  0
    1.2428    1.9647   -2.8785 H   0  0  0  0  0  0  0  0  0  0  0  0
  5  6  2  0  0  0  0
  5  7  1  0  0  0  0
  2  3  1  0  0  0  0
  2  4  1  0  0  0  0
  2  5  1  0  0  0  0
  1  2  1  0  0  0  0
 24 25  2  0  0  0  0
 24 26  1  0  0  0  0
 20 21  1  0  0  0  0
 20 22  1  0  0  0  0
 20 23  1  0  0  0  0
 16 17  1  0  0  0  0
 16 18  1  0  0  0  0
 16 19  1  0  0  0  0
 14 15  1  0  0  0  0
 14 16  1  0  0  0  0
 14 20  1  0  0  0  0
 11 12  1  0  0  0  0
 11 13  1  0  0  0  0
 11 14  1  0  0  0  0
  9 10  1  0  0  0  0
  9 11  1  0  0  0  0
  9 24  1  0  0  0  0
  7  8  1  0  0  0  0
  7  9  1  0  0  0  0
 28 29  1  0  0  0  0
 28 30  1  0  0  0  0
 28 31  1  0  0  0  0
 26 27  1  0  0  0  0
 26 28  1  0  0  0  0
M  END
$$$$
default_name
  -OEChem-01062215323D

 31 30  0     1  0  0  0  0  0999 V2000
   -3.5895   -3.5013    1.1082 H   0  0  0  0  0  0  0  0  0  0  0  0
   -3.5145   -2.5363    0.6082 C   0  0  0  0  0  0  0  0  0  0  0  0
   -4.2285   -1.8413    1.0452 H   0  0  0  0  0  0  0  0  0  0  0  0
   -3.7155   -2.6583   -0.4538 H   0  0  0  0  0  0  0  0  0  0  0  0
   -2.1155   -1.9963    0.7922 C   0  0  0  0  0  0  0  0  0  0  0  0
   -1.2875   -2.6383    1.4252 O   0  0  0  0  0  0  0  0  0  0  0  0
   -1.8575   -0.8123    0.2402 N   0  0  0  0  0  0  0  0  0  0  0  0
   -2.6005   -0.3333   -0.2478 H   0  0  0  0  0  0  0  0  0  0  0  0
   -0.5675   -0.1203    0.3102 C   0  0  1  0  0  0  0  0  0  0  0  0
   -0.4701    0.3208    1.3028 H   0  0  0  0  0  0  0  0  0  0  0  0
    0.5577   -1.1572    0.1102 C   0  0  0  0  0  0  0  0  0  0  0  0
    0.3921   -1.6728   -0.8378 H   0  0  0  0  0  0  0  0  0  0  0  0
    1.5039   -0.6174    0.0322 H   0  0  0  0  0  0  0  0  0  0  0  0
    0.6991   -2.2142    1.2208 C   0  0  0  0  0  0  0  0  0  0  0  0
   -0.2629   -2.6963    1.3950 H   0  0  0  0  0  0  0  0  0  0  0  0
    1.7369   -3.2852    0.8725 C   0  0  0  0  0  0  0  0  0  0  0  0
    2.7027   -2.8163    0.6794 H   0  0  0  0  0  0  0  0  0  0  0  0
    1.8390   -3.9819    1.7048 H   0  0  0  0  0  0  0  0  0  0  0  0
    1.4309   -3.8445   -0.0089 H   0  0  0  0  0  0  0  0  0  0  0  0
    1.1333   -1.5408    2.5221 C   0  0  0  0  0  0  0  0  0  0  0  0
    0.3948   -0.7936    2.8124 H   0  0  0  0  0  0  0  0  0  0  0  0
    1.2074   -2.2831    3.3169 H   0  0  0  0  0  0  0  0  0  0  0  0
    2.1018   -1.0573    2.3899 H   0  0  0  0  0  0  0  0  0  0  0  0
   -0.5152    1.0126   -0.7290 C   0  0  0  0  0  0  0  0  0  0  0  0
   -1.4741    1.2144   -1.4706 O   0  0  0  0  0  0  0  0  0  0  0  0
    0.6070    1.7414   -0.7877 N   0  0  0  0  0  0  0  0  0  0  0  0
    1.3476    1.5189   -0.1420 H   0  0  0  0  0  0  0  0  0  0  0  0
    0.8185    2.8388   -1.7289 C   0  0  0  0  0  0  0  0  0  0  0  0
    0.0507    3.6021   -1.5838 H   0  0  0  0  0  0  0  0  0  0  0  0
    1.8022    3.2850   -1.5753 H   0  0  0  0  0  0  0  0  0  0  0  0
    0.7470    2.4659   -2.7518 H   0  0  0  0  0  0  0  0  0  0  0  0
  5  6  2  0  0  0  0
  5  7  1  0  0  0  0
  2  3  1  0  0  0  0
  2  4  1  0  0  0  0
  2  5  1  0  0  0  0
  1  2  1  0  0  0  0
 24 25  2  0  0  0  0
 24 26  1  0  0  0  0
 20 21  1  0  0  0  0
 20 22  1  0  0  0  0
 20 23  1  0  0  0  0
 16 17  1  0  0  0  0
 16 18  1  0  0  0  0
 16 19  1  0  0  0  0
 14 15  1  0  0  0  0
 14 16  1  0  0  0  0
 14 20  1  0  0  0  0
 11 12  1  0  0  0  0
 11 13  1  0  0  0  0
 11 14  1  0  0  0  0
  9 10  1  0  0  0  0
  9 11  1  0  0  0  0
  9 24  1  0  0  0  0
  7  8  1  0  0  0  0
  7  9  1  0  0  0  0
 28 29  1  0  0  0  0
 28 30  1  0  0  0  0
 28 31  1  0  0  0  0
 26 27  1  0  0  0  0
 26 28  1  0  0  0  0
M  END
$$$$
default_name
  -OEChem-01062215323D

 31 30  0     1  0  0  0  0  0999 V2000
   -3.5895   -3.5013    1.1082 H   0  0  0  0  0  0  0  0  0  0  0  0
   -3.5145   -2.5363    0.6082 C   0  0  0  0  0  0  0  0  0  0  0  0
   -4.2285   -1.8413    1.0452 H   0  0  0  0  0  0  0  0  0  0  0  0
   -3.7155   -2.6583   -0.4538 H   0  0  0  0  0  0  0  0  0  0  0  0
   -2.1155   -1.9963    0.7922 C   0  0  0  0  0  0  0  0  0  0  0  0
   -1.2875   -2.6383    1.4252 O   0  0  0  0  0  0  0  0  0  0  0  0
   -1.8575   -0.8123    0.2402 N   0  0  0  0  0  0  0  0  0  0  0  0
   -2.6005   -0.3333   -0.2478 H   0  0  0  0  0  0  0  0  0  0  0  0
   -0.5675   -0.1203    0.3102 C   0  0  1  0  0  0  0  0  0  0  0  0
   -0.4701    0.3208    1.3028 H   0  0  0  0  0  0  0  0  0  0  0  0
    0.5577   -1.1572    0.1102 C   0  0  0  0  0  0  0  0  0  0  0  0
    0.3921   -1.6728   -0.8378 H   0  0  0  0  0  0  0  0  0  0  0  0
    1.5039   -0.6174    0.0322 H   0  0  0  0  0  0  0  0  0  0  0  0
    0.6991   -2.2142    1.2208 C   0  0  0  0  0  0  0  0  0  0  0  0
   -0.2629   -2.6963    1.3950 H   0  0  0  0  0  0  0  0  0  0  0  0
    1.7369   -3.2852    0.8725 C   0  0  0  0  0  0  0  0  0  0  0  0
    2.7027   -2.8163    0.6794 H   0  0  0  0  0  0  0  0  0  0  0  0
    1.8390   -3.9819    1.7048 H   0  0  0  0  0  0  0  0  0  0  0  0
    1.4309   -3.8445   -0.0089 H   0  0  0  0  0  0  0  0  0  0  0  0
    1.1333   -1.5408    2.5221 C   0  0  0  0  0  0  0  0  0  0  0  0
    0.3948   -0.7936    2.8124 H   0  0  0  0  0  0  0  0  0  0  0  0
    1.2074   -2.2831    3.3169 H   0  0  0  0  0  0  0  0  0  0  0  0
    2.1018   -1.0573    2.3899 H   0  0  0  0  0  0  0  0  0  0  0  0
   -0.5152    1.0126   -0.7290 C   0  0  0  0  0  0  0  0  0  0  0  0
   -1.5467    1.3972   -1.2750 O   0  0  0  0  0  0  0  0  0  0  0  0
    0.6857    1.5363   -1.0074 N   0  0  0  0  0  0  0  0  0  0  0  0
    1.4845    1.1717   -0.5136 H   0  0  0  0  0  0  0  0  0  0  0  0
    0.9041    2.6041   -1.9805 C   0  0  0  0  0  0  0  0  0  0  0  0
    0.3241    3.4853   -1.6974 H   0  0  0  0  0  0  0  0  0  0  0  0
    1.9620    2.8681   -2.0218 H   0  0  0  0  0  0  0  0  0  0  0  0
    0.5754    2.2757   -2.9678 H   0  0  0  0  0  0  0  0  0  0  0  0
  5  6  2  0  0  0  0
  5  7  1  0  0  0  0
  2  3  1  0  0  0  0
  2  4  1  0  0  0  0
  2  5  1  0  0  0  0
  1  2  1  0  0  0  0
 24 25  2  0  0  0  0
 24 26  1  0  0  0  0
 20 21  1  0  0  0  0
 20 22  1  0  0  0  0
 20 23  1  0  0  0  0
 16 17  1  0  0  0  0
 16 18  1  0  0  0  0
 16 19  1  0  0  0  0
 14 15  1  0  0  0  0
 14 16  1  0  0  0  0
 14 20  1  0  0  0  0
 11 12  1  0  0  0  0
 11 13  1  0  0  0  0
 11 14  1  0  0  0  0
  9 10  1  0  0  0  0
  9 11  1  0  0  0  0
  9 24  1  0  0  0  0
  7  8  1  0  0  0  0
  7  9  1  0  0  0  0
 28 29  1  0  0  0  0
 28 30  1  0  0  0  0
 28 31  1  0  0  0  0
 26 27  1  0  0  0  0
 26 28  1  0  0  0  0
M  END
$$$$
default_name
  -OEChem-01062215323D

 31 30  0     1  0  0  0  0  0999 V2000
   -3.5895   -3.5013    1.1082 H   0  0  0  0  0  0  0  0  0  0  0  0
   -3.5145   -2.5363    0.6082 C   0  0  0  0  0  0  0  0  0  0  0  0
   -4.2285   -1.8413    1.0452 H   0  0  0  0  0  0  0  0  0  0  0  0
   -3.7155   -2.6583   -0.4538 H   0  0  0  0  0  0  0  0  0  0  0  0
   -2.1155   -1.9963    0.7922 C   0  0  0  0  0  0  0  0  0  0  0  0
   -1.2875   -2.6383    1.4252 O   0  0  0  0  0  0  0  0  0  0  0  0
   -1.8575   -0.8123    0.2402 N   0  0  0  0  0  0  0  0  0  0  0  0
   -2.6005   -0.3333   -0.2478 H   0  0  0  0  0  0  0  0  0  0  0  0
   -0.5675   -0.1203    0.3102 C   0  0  1  0  0  0  0  0  0  0  0  0
   -0.4701    0.3208    1.3028 H   0  0  0  0  0  0  0  0  0  0  0  0
    0.5577   -1.1572    0.1102 C   0  0  0  0  0  0  0  0  0  0  0  0
    0.3921   -1.6728   -0.8378 H   0  0  0  0  0  0  0  0  0  0  0  0
    1.5039   -0.6174    0.0322 H   0  0  0  0  0  0  0  0  0  0  0  0
    0.6991   -2.2142    1.2208 C   0  0  0  0  0  0  0  0  0  0  0  0
   -0.2629   -2.6963    1.3950 H   0  0  0  0  0  0  0  0  0  0  0  0
    1.7369   -3.2852    0.8725 C   0  0  0  0  0  0  0  0  0  0  0  0
    2.7027   -2.8163    0.6794 H   0  0  0  0  0  0  0  0  0  0  0  0
    1.8390   -3.9819    1.7048 H   0  0  0  0  0  0  0  0  0  0  0  0
    1.4309   -3.8445   -0.0089 H   0  0  0  0  0  0  0  0  0  0  0  0
    1.1333   -1.5408    2.5221 C   0  0  0  0  0  0  0  0  0  0  0  0
    0.3948   -0.7936    2.8124 H   0  0  0  0  0  0  0  0  0  0  0  0
    1.2074   -2.2831    3.3169 H   0  0  0  0  0  0  0  0  0  0  0  0
    2.1018   -1.0573    2.3899 H   0  0  0  0  0  0  0  0  0  0  0  0
   -0.5152    1.0126   -0.7290 C   0  0  0  0  0  0  0  0  0  0  0  0
   -1.5477    1.5848   -1.0705 O   0  0  0  0  0  0  0  0  0  0  0  0
    0.6840    1.3264   -1.2363 N   0  0  0  0  0  0  0  0  0  0  0  0
    1.4853    0.8158   -0.9016 H   0  0  0  0  0  0  0  0  0  0  0  0
    0.8979    2.3645   -2.2420 C   0  0  0  0  0  0  0  0  0  0  0  0
    0.5462    3.3257   -1.8603 H   0  0  0  0  0  0  0  0  0  0  0  0
    1.9583    2.4415   -2.4871 H   0  0  0  0  0  0  0  0  0  0  0  0
    0.3352    2.1239   -3.1454 H   0  0  0  0  0  0  0  0  0  0  0  0
  5  6  2  0  0  0  0
  5  7  1  0  0  0  0
  2  3  1  0  0  0  0
  2  4  1  0  0  0  0
  2  5  1  0  0  0  0
  1  2  1  0  0  0  0
 24 25  2  0  0  0  0
 24 26  1  0  0  0  0
 20 21  1  0  0  0  0
 20 22  1  0  0  0  0
 20 23  1  0  0  0  0
 16 17  1  0  0  0  0
 16 18  1  0  0  0  0
 16 19  1  0  0  0  0
 14 15  1  0  0  0  0
 14 16  1  0  0  0  0
 14 20  1  0  0  0  0
 11 12  1  0  0  0  0
 11 13  1  0  0  0  0
 11 14  1  0  0  0  0
  9 10  1  0  0  0  0
  9 11  1  0  0  0  0
  9 24  1  0  0  0  0
  7  8  1  0  0  0  0
  7  9  1  0  0  0  0
 28 29  1  0  0  0  0
 28 30  1  0  0  0  0
 28 31  1  0  0  0  0
 26 27  1  0  0  0  0
 26 28  1  0  0  0  0
M  END
$$$$
default_name
  -OEChem-01062215323D

 31 30  0     1  0  0  0  0  0999 V2000
   -3.5895   -3.5013    1.1082 H   0  0  0  0  0  0  0  0  0  0  0  0
   -3.5145   -2.5363    0.6082 C   0  0  0  0  0  0  0  0  0  0  0  0
   -4.2285   -1.8413    1.0452 H   0  0  0  0  0  0  0  0  0  0  0  0
   -3.7155   -2.6583   -0.4538 H   0  0  0  0  0  0  0  0  0  0  0  0
   -2.1155   -1.9963    0.7922 C   0  0  0  0  0  0  0  0  0  0  0  0
   -1.2875   -2.6383    1.4252 O   0  0  0  0  0  0  0  0  0  0  0  0
   -1.8575   -0.8123    0.2402 N   0  0  0  0  0  0  0  0  0  0  0  0
   -2.6005   -0.3333   -0.2478 H   0  0  0  0  0  0  0  0  0  0  0  0
   -0.5675   -0.1203    0.3102 C   0  0  1  0  0  0  0  0  0  0  0  0
   -0.4701    0.3208    1.3028 H   0  0  0  0  0  0  0  0  0  0  0  0
    0.5577   -1.1572    0.1102 C   0  0  0  0  0  0  0  0  0  0  0  0
    0.3921   -1.6728   -0.8378 H   0  0  0  0  0  0  0  0  0  0  0  0
    1.5039   -0.6174    0.0322 H   0  0  0  0  0  0  0  0  0  0  0  0
    0.6991   -2.2142    1.2208 C   0  0  0  0  0  0  0  0  0  0  0  0
   -0.2629   -2.6963    1.3950 H   0  0  0  0  0  0  0  0  0  0  0  0
    1.7369   -3.2852    0.8725 C   0  0  0  0  0  0  0  0  0  0  0  0
    2.7027   -2.8163    0.6794 H   0  0  0  0  0  0  0  0  0  0  0  0
    1.8390   -3.9819    1.7048 H   0  0  0  0  0  0  0  0  0  0  0  0
    1.4309   -3.8445   -0.0089 H   0  0  0  0  0  0  0  0  0  0  0  0
    1.1333   -1.5408    2.5221 C   0  0  0  0  0  0  0  0  0  0  0  0
    0.3948   -0.7936    2.8124 H   0  0  0  0  0  0  0  0  0  0  0  0
    1.2074   -2.2831    3.3169 H   0  0  0  0  0  0  0  0  0  0  0  0
    2.1018   -1.0573    2.3899 H   0  0  0  0  0  0  0  0  0  0  0  0
   -0.5152    1.0126   -0.7290 C   0  0  0  0  0  0  0  0  0  0  0  0
   -1.4769    1.7643   -0.8713 O   0  0  0  0  0  0  0  0  0  0  0  0
    0.6020    1.1259   -1.4590 N   0  0  0  0  0  0  0  0  0  0  0  0
    1.3499    0.4752   -1.2797 H   0  0  0  0  0  0  0  0  0  0  0  0
    0.8001    2.1365   -2.4954 C   0  0  0  0  0  0  0  0  0  0  0  0
    0.7017    3.1341   -2.0614 H   0  0  0  0  0  0  0  0  0  0  0  0
    1.7914    2.0341   -2.9396 H   0  0  0  0  0  0  0  0  0  0  0  0
    0.0428    2.0208   -3.2724 H   0  0  0  0  0  0  0  0  0  0  0  0
  5  6  2  0  0  0  0
  5  7  1  0  0  0  0
  2  3  1  0  0  0  0
  2  4  1  0  0  0  0
  2  5  1  0  0  0  0
  1  2  1  0  0  0  0
 24 25  2  0  0  0  0
 24 26  1  0  0  0  0
 20 21  1  0  0  0  0
 20 22  1  0  0  0  0
 20 23  1  0  0  0  0
 16 17  1  0  0  0  0
 16 18  1  0  0  0  0
 16 19  1  0  0  0  0
 14 15  1  0  0  0  0
 14 16  1  0  0  0  0
 14 20  1  0  0  0  0
 11 12  1  0  0  0  0
 11 13  1  0  0  0  0
 11 14  1  0  0  0  0
  9 10  1  0  0  0  0
  9 11  1  0  0  0  0
  9 24  1  0  0  0  0
  7  8  1  0  0  0  0
  7  9  1  0  0  0  0
 28 29  1  0  0  0  0
 28 30  1  0  0  0  0
 28 31  1  0  0  0  0
 26 27  1  0  0  0  0
 26 28  1  0  0  0  0
M  END
$$$$
default_name
  -OEChem-01062215323D

 31 30  0     1  0  0  0  0  0999 V2000
   -3.5895   -3.5013    1.1082 H   0  0  0  0  0  0  0  0  0  0  0  0
   -3.5145   -2.5363    0.6082 C   0  0  0  0  0  0  0  0  0  0  0  0
   -4.2285   -1.8413    1.0452 H   0  0  0  0  0  0  0  0  0  0  0  0
   -3.7155   -2.6583   -0.4538 H   0  0  0  0  0  0  0  0  0  0  0  0
   -2.1155   -1.9963    0.7922 C   0  0  0  0  0  0  0  0  0  0  0  0
   -1.2875   -2.6383    1.4252 O   0  0  0  0  0  0  0  0  0  0  0  0
   -1.8575   -0.8123    0.2402 N   0  0  0  0  0  0  0  0  0  0  0  0
   -2.6005   -0.3333   -0.2478 H   0  0  0  0  0  0  0  0  0  0  0  0
   -0.5675   -0.1203    0.3102 C   0  0  1  0  0  0  0  0  0  0  0  0
   -0.4701    0.3208    1.3028 H   0  0  0  0  0  0  0  0  0  0  0  0
    0.5577   -1.1572    0.1102 C   0  0  0  0  0  0  0  0  0  0  0  0
    0.3921   -1.6728   -0.8378 H   0  0  0  0  0  0  0  0  0  0  0  0
    1.5039   -0.6174    0.0322 H   0  0  0  0  0  0  0  0  0  0  0  0
    0.6991   -2.2142    1.2208 C   0  0  0  0  0  0  0  0  0  0  0  0
   -0.2629   -2.6963    1.3950 H   0  0  0  0  0  0  0  0  0  0  0  0
    1.7369   -3.2852    0.8725 C   0  0  0  0  0  0  0  0  0  0  0  0
    2.7027   -2.8163    0.6794 H   0  0  0  0  0  0  0  0  0  0  0  0
    1.8390   -3.9819    1.7048 H   0  0  0  0  0  0  0  0  0  0  0  0
    1.4309   -3.8445   -0.0089 H   0  0  0  0  0  0  0  0  0  0  0  0
    1.1333   -1.5408    2.5221 C   0  0  0  0  0  0  0  0  0  0  0  0
    0.3948   -0.7936    2.8124 H   0  0  0  0  0  0  0  0  0  0  0  0
    1.2074   -2.2831    3.3169 H   0  0  0  0  0  0  0  0  0  0  0  0
    2.1018   -1.0573    2.3899 H   0  0  0  0  0  0  0  0  0  0  0  0
   -0.5152    1.0126   -0.7290 C   0  0  0  0  0  0  0  0  0  0  0  0
   -1.3391    1.9236   -0.6907 O   0  0  0  0  0  0  0  0  0  0  0  0
    0.4453    0.9485   -1.6603 N   0  0  0  0  0  0  0  0  0  0  0  0
    1.0874    0.1732   -1.6221 H   0  0  0  0  0  0  0  0  0  0  0  0
    0.6175    1.9356   -2.7236 C   0  0  0  0  0  0  0  0  0  0  0  0
    0.7801    2.9236   -2.2869 H   0  0  0  0  0  0  0  0  0  0  0  0
    1.4727    1.6737   -3.3485 H   0  0  0  0  0  0  0  0  0  0  0  0
   -0.2819    1.9735   -3.3404 H   0  0  0  0  0  0  0  0  0  0  0  0
  5  6  2  0  0  0  0
  5  7  1  0  0  0  0
  2  3  1  0  0  0  0
  2  4  1  0  0  0  0
  2  5  1  0  0  0  0
  1  2  1  0  0  0  0
 24 25  2  0  0  0  0
 24 26  1  0  0  0  0
 20 21  1  0  0  0  0
 20 22  1  0  0  0  0
 20 23  1  0  0  0  0
 16 17  1  0  0  0  0
 16 18  1  0  0  0  0
 16 19  1  0  0  0  0
 14 15  1  0  0  0  0
 14 16  1  0  0  0  0
 14 20  1  0  0  0  0
 11 12  1  0  0  0  0
 11 13  1  0  0  0  0
 11 14  1  0  0  0  0
  9 10  1  0  0  0  0
  9 11  1  0  0  0  0
  9 24  1  0  0  0  0
  7  8  1  0  0  0  0
  7  9  1  0  0  0  0
 28 29  1  0  0  0  0
 28 30  1  0  0  0  0
 28 31  1  0  0  0  0
 26 27  1  0  0  0  0
 26 28  1  0  0  0  0
M  END
$$$$
default_name
  -OEChem-01062215323D

 31 30  0     1  0  0  0  0  0999 V2000
   -3.5895   -3.5013    1.1082 H   0  0  0  0  0  0  0  0  0  0  0  0
   -3.5145   -2.5363    0.6082 C   0  0  0  0  0  0  0  0  0  0  0  0
   -4.2285   -1.8413    1.0452 H   0  0  0  0  0  0  0  0  0  0  0  0
   -3.7155   -2.6583   -0.4538 H   0  0  0  0  0  0  0  0  0  0  0  0
   -2.1155   -1.9963    0.7922 C   0  0  0  0  0  0  0  0  0  0  0  0
   -1.2875   -2.6383    1.4252 O   0  0  0  0  0  0  0  0  0  0  0  0
   -1.8575   -0.8123    0.2402 N   0  0  0  0  0  0  0  0  0  0  0  0
   -2.6005   -0.3333   -0.2478 H   0  0  0  0  0  0  0  0  0  0  0  0
   -0.5675   -0.1203    0.3102 C   0  0  1  0  0  0  0  0  0  0  0  0
   -0.4701    0.3208    1.3028 H   0  0  0  0  0  0  0  0  0  0  0  0
    0.5577   -1.1572    0.1102 C   0  0  0  0  0  0  0  0  0  0  0  0
    0.3921   -1.6728   -0.8378 H   0  0  0  0  0  0  0  0  0  0  0  0
    1.5039   -0.6174    0.0322 H   0  0  0  0  0  0  0  0  0  0  0  0
    0.6991   -2.2142    1.2208 C   0  0  0  0  0  0  0  0  0  0  0  0
   -0.2629   -2.6963    1.3950 H   0  0  0  0  0  0  0  0  0  0  0  0
    1.7369   -3.2852    0.8725 C   0  0  0  0  0  0  0  0  0  0  0  0
    2.7027   -2.8163    0.6794 H   0  0  0  0  0  0  0  0  0  0  0  0
    1.8390   -3.9819    1.7048 H   0  0  0  0  0  0  0  0  0  0  0  0
    1.4309   -3.8445   -0.0089 H   0  0  0  0  0  0  0  0  0  0  0  0
    1.1333   -1.5408    2.5221 C   0  0  0  0  0  0  0  0  0  0  0  0
    0.3948   -0.7936    2.8124 H   0  0  0  0  0  0  0  0  0  0  0  0
    1.2074   -2.2831    3.3169 H   0  0  0  0  0  0  0  0  0  0  0  0
    2.1018   -1.0573    2.3899 H   0  0  0  0  0  0  0  0  0  0  0  0
   -0.5152    1.0126   -0.7290 C   0  0  0  0  0  0  0  0  0  0  0  0
   -1.1437    2.0517   -0.5411 O   0  0  0  0  0  0  0  0  0  0  0  0
    0.2245    0.8064   -1.8263 N   0  0  0  0  0  0  0  0  0  0  0  0
    0.7159   -0.0695   -1.9055 H   0  0  0  0  0  0  0  0  0  0  0  0
    0.3624    1.7755   -2.9110 C   0  0  0  0  0  0  0  0  0  0  0  0
    0.7760    2.7085   -2.5216 H   0  0  0  0  0  0  0  0  0  0  0  0
    1.0239    1.3850   -3.6858 H   0  0  0  0  0  0  0  0  0  0  0  0
   -0.6167    1.9852   -3.3445 H   0  0  0  0  0  0  0  0  0  0  0  0
  5  6  2  0  0  0  0
  5  7  1  0  0  0  0
  2  3  1  0  0  0  0
  2  4  1  0  0  0  0
  2  5  1  0  0  0  0
  1  2  1  0  0  0  0
 24 25  2  0  0  0  0
 24 26  1  0  0  0  0
 20 21  1  0  0  0  0
 20 22  1  0  0  0  0
 20 23  1  0  0  0  0
 16 17  1  0  0  0  0
 16 18  1  0  0  0  0
 16 19  1  0  0  0  0
 14 15  1  0  0  0  0
 14 16  1  0  0  0  0
 14 20  1  0  0  0  0
 11 12  1  0  0  0  0
 11 13  1  0  0  0  0
 11 14  1  0  0  0  0
  9 10  1  0  0  0  0
  9 11  1  0  0  0  0
  9 24  1  0  0  0  0
  7  8  1  0  0  0  0
  7  9  1  0  0  0  0
 28 29  1  0  0  0  0
 28 30  1  0  0  0  0
 28 31  1  0  0  0  0
 26 27  1  0  0  0  0
 26 28  1  0  0  0  0
M  END
$$$$
default_name
  -OEChem-01062215323D

 31 30  0     1  0  0  0  0  0999 V2000
   -3.5895   -3.5013    1.1082 H   0  0  0  0  0  0  0  0  0  0  0  0
   -3.5145   -2.5363    0.6082 C   0  0  0  0  0  0  0  0  0  0  0  0
   -4.2285   -1.8413    1.0452 H   0  0  0  0  0  0  0  0  0  0  0  0
   -3.7155   -2.6583   -0.4538 H   0  0  0  0  0  0  0  0  0  0  0  0
   -2.1155   -1.9963    0.7922 C   0  0  0  0  0  0  0  0  0  0  0  0
   -1.2875   -2.6383    1.4252 O   0  0  0  0  0  0  0  0  0  0  0  0
   -1.8575   -0.8123    0.2402 N   0  0  0  0  0  0  0  0  0  0  0  0
   -2.6005   -0.3333   -0.2478 H   0  0  0  0  0  0  0  0  0  0  0  0
   -0.5675   -0.1203    0.3102 C   0  0  1  0  0  0  0  0  0  0  0  0
   -0.4701    0.3208    1.3028 H   0  0  0  0  0  0  0  0  0  0  0  0
    0.5577   -1.1572    0.1102 C   0  0  0  0  0  0  0  0  0  0  0  0
    0.3921   -1.6728   -0.8378 H   0  0  0  0  0  0  0  0  0  0  0  0
    1.5039   -0.6174    0.0322 H   0  0  0  0  0  0  0  0  0  0  0  0
    0.6991   -2.2142    1.2208 C   0  0  0  0  0  0  0  0  0  0  0  0
   -0.2629   -2.6963    1.3950 H   0  0  0  0  0  0  0  0  0  0  0  0
    1.7369   -3.2852    0.8725 C   0  0  0  0  0  0  0  0  0  0  0  0
    2.7027   -2.8163    0.6794 H   0  0  0  0  0  0  0  0  0  0  0  0
    1.8390   -3.9819    1.7048 H   0  0  0  0  0  0  0  0  0  0  0  0
    1.4309   -3.8445   -0.0089 H   0  0  0  0  0  0  0  0  0  0  0  0
    1.1333   -1.5408    2.5221 C   0  0  0  0  0  0  0  0  0  0  0  0
    0.3948   -0.7936    2.8124 H   0  0  0  0  0  0  0  0  0  0  0  0
    1.2074   -2.2831    3.3169 H   0  0  0  0  0  0  0  0  0  0  0  0
    2.1018   -1.0573    2.3899 H   0  0  0  0  0  0  0  0  0  0  0  0
   -0.5152    1.0126   -0.7290 C   0  0  0  0  0  0  0  0  0  0  0  0
   -0.9041    2.1401   -0.4328 O   0  0  0  0  0  0  0  0  0  0  0  0
   -0.0452    0.7092   -1.9459 N   0  0  0  0  0  0  0  0  0  0  0  0
    0.2605   -0.2366   -2.1105 H   0  0  0  0  0  0  0  0  0  0  0  0
    0.0524    1.6671   -3.0448 C   0  0  0  0  0  0  0  0  0  0  0  0
    0.6897    2.5036   -2.7493 H   0  0  0  0  0  0  0  0  0  0  0  0
    0.4756    1.1875   -3.9287 H   0  0  0  0  0  0  0  0  0  0  0  0
   -0.9389    2.0550   -3.2845 H   0  0  0  0  0  0  0  0  0  0  0  0
  5  6  2  0  0  0  0
  5  7  1  0  0  0  0
  2  3  1  0  0  0  0
  2  4  1  0  0  0  0
  2  5  1  0  0  0  0
  1  2  1  0  0  0  0
 24 25  2  0  0  0  0
 24 26  1  0  0  0  0
 20 21  1  0  0  0  0
 20 22  1  0  0  0  0
 20 23  1  0  0  0  0
 16 17  1  0  0  0  0
 16 18  1  0  0  0  0
 16 19  1  0  0  0  0
 14 15  1  0  0  0  0
 14 16  1  0  0  0  0
 14 20  1  0  0  0  0
 11 12  1  0  0  0  0
 11 13  1  0  0  0  0
 11 14  1  0  0  0  0
  9 10  1  0  0  0  0
  9 11  1  0  0  0  0
  9 24  1  0  0  0  0
  7  8  1  0  0  0  0
  7  9  1  0  0  0  0
 28 29  1  0  0  0  0
 28 30  1  0  0  0  0
 28 31  1  0  0  0  0
 26 27  1  0  0  0  0
 26 28  1  0  0  0  0
M  END
$$$$
default_name
  -OEChem-01062215323D

 31 30  0     1  0  0  0  0  0999 V2000
   -3.5895   -3.5013    1.1082 H   0  0  0  0  0  0  0  0  0  0  0  0
   -3.5145   -2.5363    0.6082 C   0  0  0  0  0  0  0  0  0  0  0  0
   -4.2285   -1.8413    1.0452 H   0  0  0  0  0  0  0  0  0  0  0  0
   -3.7155   -2.6583   -0.4538 H   0  0  0  0  0  0  0  0  0  0  0  0
   -2.1155   -1.9963    0.7922 C   0  0  0  0  0  0  0  0  0  0  0  0
   -1.2875   -2.6383    1.4252 O   0  0  0  0  0  0  0  0  0  0  0  0
   -1.8575   -0.8123    0.2402 N   0  0  0  0  0  0  0  0  0  0  0  0
   -2.6005   -0.3333   -0.2478 H   0  0  0  0  0  0  0  0  0  0  0  0
   -0.5675   -0.1203    0.3102 C   0  0  1  0  0  0  0  0  0  0  0  0
   -0.4701    0.3208    1.3028 H   0  0  0  0  0  0  0  0  0  0  0  0
    0.5577   -1.1572    0.1102 C   0  0  0  0  0  0  0  0  0  0  0  0
    0.3921   -1.6728   -0.8378 H   0  0  0  0  0  0  0  0  0  0  0  0
    1.5039   -0.6174    0.0322 H   0  0  0  0  0  0  0  0  0  0  0  0
    0.6991   -2.2142    1.2208 C   0  0  0  0  0  0  0  0  0  0  0  0
   -0.2629   -2.6963    1.3950 H   0  0  0  0  0  0  0  0  0  0  0  0
    1.7369   -3.2852    0.8725 C   0  0  0  0  0  0  0  0  0  0  0  0
    2.7027   -2.8163    0.6794 H   0  0  0  0  0  0  0  0  0  0  0  0
    1.8390   -3.9819    1.7048 H   0  0  0  0  0  0  0  0  0  0  0  0
    1.4309   -3.8445   -0.0089 H   0  0  0  0  0  0  0  0  0  0  0  0
    1.1333   -1.5408    2.5221 C   0  0  0  0  0  0  0  0  0  0  0  0
    0.3948   -0.7936    2.8124 H   0  0  0  0  0  0  0  0  0  0  0  0
    1.2074   -2.2831    3.3169 H   0  0  0  0  0  0  0  0  0  0  0  0
    2.1018   -1.0573    2.3899 H   0  0  0  0  0  0  0  0  0  0  0  0
   -0.5152    1.0126   -0.7290 C   0  0  0  0  0  0  0  0  0  0  0  0
   -0.6365    2.1825   -0.3730 O   0  0  0  0  0  0  0  0  0  0  0  0
   -0.3455    0.6635   -2.0108 N   0  0  0  0  0  0  0  0  0  0  0  0
   -0.2477   -0.3165   -2.2232 H   0  0  0  0  0  0  0  0  0  0  0  0
   -0.2916    1.6178   -3.1159 C   0  0  0  0  0  0  0  0  0  0  0  0
    0.5272    2.3227   -2.9547 H   0  0  0  0  0  0  0  0  0  0  0  0
   -0.1348    1.0948   -4.0605 H   0  0  0  0  0  0  0  0  0  0  0  0
   -1.2265    2.1783   -3.1646 H   0  0  0  0  0  0  0  0  0  0  0  0
  5  6  2  0  0  0  0
  5  7  1  0  0  0  0
  2  3  1  0  0  0  0
  2  4  1  0  0  0  0
  2  5  1  0  0  0  0
  1  2  1  0  0  0  0
 24 25  2  0  0  0  0
 24 26  1  0  0  0  0
 20 21  1  0  0  0  0
 20 22  1  0  0  0  0
 20 23  1  0  0  0  0
 16 17  1  0  0  0  0
 16 18  1  0  0  0  0
 16 19  1  0  0  0  0
 14 15  1  0  0  0  0
 14 16  1  0  0  0  0
 14 20  1  0  0  0  0
 11 12  1  0  0  0  0
 11 13  1  0  0  0  0
 11 14  1  0  0  0  0
  9 10  1  0  0  0  0
  9 11  1  0  0  0  0
  9 24  1  0  0  0  0
  7  8  1  0  0  0  0
  7  9  1  0  0  0  0
 28 29  1  0  0  0  0
 28 30  1  0  0  0  0
 28 31  1  0  0  0  0
 26 27  1  0  0  0  0
 26 28  1  0  0  0  0
M  END
$$$$
default_name
  -OEChem-01062215323D

 31 30  0     1  0  0  0  0  0999 V2000
   -3.5895   -3.5013    1.1082 H   0  0  0  0  0  0  0  0  0  0  0  0
   -3.5145   -2.5363    0.6082 C   0  0  0  0  0  0  0  0  0  0  0  0
   -4.2285   -1.8413    1.0452 H   0  0  0  0  0  0  0  0  0  0  0  0
   -3.7155   -2.6583   -0.4538 H   0  0  0  0  0  0  0  0  0  0  0  0
   -2.1155   -1.9963    0.7922 C   0  0  0  0  0  0  0  0  0  0  0  0
   -1.2875   -2.6383    1.4252 O   0  0  0  0  0  0  0  0  0  0  0  0
   -1.8575   -0.8123    0.2402 N   0  0  0  0  0  0  0  0  0  0  0  0
   -2.6005   -0.3333   -0.2478 H   0  0  0  0  0  0  0  0  0  0  0  0
   -0.5675   -0.1203    0.3102 C   0  0  1  0  0  0  0  0  0  0  0  0
   -0.4701    0.3208    1.3028 H   0  0  0  0  0  0  0  0  0  0  0  0
    0.5577   -1.1572    0.1102 C   0  0  0  0  0  0  0  0  0  0  0  0
    0.3921   -1.6728   -0.8378 H   0  0  0  0  0  0  0  0  0  0  0  0
    1.5039   -0.6174    0.0322 H   0  0  0  0  0  0  0  0  0  0  0  0
    0.6991   -2.2142    1.2208 C   0  0  0  0  0  0  0  0  0  0  0  0
   -0.2629   -2.6963    1.3950 H   0  0  0  0  0  0  0  0  0  0  0  0
    1.7369   -3.2852    0.8725 C   0  0  0  0  0  0  0  0  0  0  0  0
    2.7027   -2.8163    0.6794 H   0  0  0  0  0  0  0  0  0  0  0  0
    1.8390   -3.9819    1.7048 H   0  0  0  0  0  0  0  0  0  0  0  0
    1.4309   -3.8445   -0.0089 H   0  0  0  0  0  0  0  0  0  0  0  0
    1.1333   -1.5408    2.5221 C   0  0  0  0  0  0  0  0  0  0  0  0
    0.3948   -0.7936    2.8124 H   0  0  0  0  0  0  0  0  0  0  0  0
    1.2074   -2.2831    3.3169 H   0  0  0  0  0  0  0  0  0  0  0  0
    2.1018   -1.0573    2.3899 H   0  0  0  0  0  0  0  0  0  0  0  0
   -0.5152    1.0126   -0.7290 C   0  0  0  0  0  0  0  0  0  0  0  0
   -0.3592    2.1762   -0.3659 O   0  0  0  0  0  0  0  0  0  0  0  0
   -0.6560    0.6724   -2.0167 N   0  0  0  0  0  0  0  0  0  0  0  0
   -0.7740   -0.3038   -2.2359 H   0  0  0  0  0  0  0  0  0  0  0  0
   -0.6460    1.6309   -3.1194 C   0  0  0  0  0  0  0  0  0  0  0  0
    0.2993    2.1782   -3.1237 H   0  0  0  0  0  0  0  0  0  0  0  0
   -0.7658    1.1131   -4.0723 H   0  0  0  0  0  0  0  0  0  0  0  0
   -1.4598    2.3466   -2.9929 H   0  0  0  0  0  0  0  0  0  0  0  0
  5  6  2  0  0  0  0
  5  7  1  0  0  0  0
  2  3  1  0  0  0  0
  2  4  1  0  0  0  0
  2  5  1  0  0  0  0
  1  2  1  0  0  0  0
 24 25  2  0  0  0  0
 24 26  1  0  0  0  0
 20 21  1  0  0  0  0
 20 22  1  0  0  0  0
 20 23  1  0  0  0  0
 16 17  1  0  0  0  0
 16 18  1  0  0  0  0
 16 19  1  0  0  0  0
 14 15  1  0  0  0  0
 14 16  1  0  0  0  0
 14 20  1  0  0  0  0
 11 12  1  0  0  0  0
 11 13  1  0  0  0  0
 11 14  1  0  0  0  0
  9 10  1  0  0  0  0
  9 11  1  0  0  0  0
  9 24  1  0  0  0  0
  7  8  1  0  0  0  0
  7  9  1  0  0  0  0
 28 29  1  0  0  0  0
 28 30  1  0  0  0  0
 28 31  1  0  0  0  0
 26 27  1  0  0  0  0
 26 28  1  0  0  0  0
M  END
$$$$
default_name
  -OEChem-01062215323D

 31 30  0     1  0  0  0  0  0999 V2000
   -3.5895   -3.5013    1.1082 H   0  0  0  0  0  0  0  0  0  0  0  0
   -3.5145   -2.5363    0.6082 C   0  0  0  0  0  0  0  0  0  0  0  0
   -4.2285   -1.8413    1.0452 H   0  0  0  0  0  0  0  0  0  0  0  0
   -3.7155   -2.6583   -0.4538 H   0  0  0  0  0  0  0  0  0  0  0  0
   -2.1155   -1.9963    0.7922 C   0  0  0  0  0  0  0  0  0  0  0  0
   -1.2875   -2.6383    1.4252 O   0  0  0  0  0  0  0  0  0  0  0  0
   -1.8575   -0.8123    0.2402 N   0  0  0  0  0  0  0  0  0  0  0  0
   -2.6005   -0.3333   -0.2478 H   0  0  0  0  0  0  0  0  0  0  0  0
   -0.5675   -0.1203    0.3102 C   0  0  1  0  0  0  0  0  0  0  0  0
   -0.4701    0.3208    1.3028 H   0  0  0  0  0  0  0  0  0  0  0  0
    0.5577   -1.1572    0.1102 C   0  0  0  0  0  0  0  0  0  0  0  0
    0.3921   -1.6728   -0.8378 H   0  0  0  0  0  0  0  0  0  0  0  0
    1.5039   -0.6174    0.0322 H   0  0  0  0  0  0  0  0  0  0  0  0
    0.6991   -2.2142    1.2208 C   0  0  0  0  0  0  0  0  0  0  0  0
   -0.2629   -2.6963    1.3950 H   0  0  0  0  0  0  0  0  0  0  0  0
    1.7369   -3.2852    0.8725 C   0  0  0  0  0  0  0  0  0  0  0  0
    2.7027   -2.8163    0.6794 H   0  0  0  0  0  0  0  0  0  0  0  0
    1.8390   -3.9819    1.7048 H   0  0  0  0  0  0  0  0  0  0  0  0
    1.4309   -3.8445   -0.0089 H   0  0  0  0  0  0  0  0  0  0  0  0
    1.1333   -1.5408    2.5221 C   0  0  0  0  0  0  0  0  0  0  0  0
    0.3948   -0.7936    2.8124 H   0  0  0  0  0  0  0  0  0  0  0  0
    1.2074   -2.2831    3.3169 H   0  0  0  0  0  0  0  0  0  0  0  0
    2.1018   -1.0573    2.3899 H   0  0  0  0  0  0  0  0  0  0  0  0
   -0.5152    1.0126   -0.7290 C   0  0  0  0  0  0  0  0  0  0  0  0
   -0.0912    2.1216   -0.4120 O   0  0  0  0  0  0  0  0  0  0  0  0
   -0.9554    0.7354   -1.9631 N   0  0  0  0  0  0  0  0  0  0  0  0
   -1.2825   -0.1995   -2.1477 H   0  0  0  0  0  0  0  0  0  0  0  0
   -0.9867    1.7056   -3.0551 C   0  0  0  0  0  0  0  0  0  0  0  0
    0.0218    2.0800   -3.2447 H   0  0  0  0  0  0  0  0  0  0  0  0
   -1.3743    1.2412   -3.9632 H   0  0  0  0  0  0  0  0  0  0  0  0
   -1.6231    2.5485   -2.7810 H   0  0  0  0  0  0  0  0  0  0  0  0
  5  6  2  0  0  0  0
  5  7  1  0  0  0  0
  2  3  1  0  0  0  0
  2  4  1  0  0  0  0
  2  5  1  0  0  0  0
  1  2  1  0  0  0  0
 24 25  2  0  0  0  0
 24 26  1  0  0  0  0
 20 21  1  0  0  0  0
 20 22  1  0  0  0  0
 20 23  1  0  0  0  0
 16 17  1  0  0  0  0
 16 18  1  0  0  0  0
 16 19  1  0  0  0  0
 14 15  1  0  0  0  0
 14 16  1  0  0  0  0
 14 20  1  0  0  0  0
 11 12  1  0  0  0  0
 11 13  1  0  0  0  0
 11 14  1  0  0  0  0
  9 10  1  0  0  0  0
  9 11  1  0  0  0  0
  9 24  1  0  0  0  0
  7  8  1  0  0  0  0
  7  9  1  0  0  0  0
 28 29  1  0  0  0  0
 28 30  1  0  0  0  0
 28 31  1  0  0  0  0
 26 27  1  0  0  0  0
 26 28  1  0  0  0  0
M  END
$$$$
default_name
  -OEChem-01062215323D

 31 30  0     1  0  0  0  0  0999 V2000
   -3.5895   -3.5013    1.1082 H   0  0  0  0  0  0  0  0  0  0  0  0
   -3.5145   -2.5363    0.6082 C   0  0  0  0  0  0  0  0  0  0  0  0
   -4.2285   -1.8413    1.0452 H   0  0  0  0  0  0  0  0  0  0  0  0
   -3.7155   -2.6583   -0.4538 H   0  0  0  0  0  0  0  0  0  0  0  0
   -2.1155   -1.9963    0.7922 C   0  0  0  0  0  0  0  0  0  0  0  0
   -1.2875   -2.6383    1.4252 O   0  0  0  0  0  0  0  0  0  0  0  0
   -1.8575   -0.8123    0.2402 N   0  0  0  0  0  0  0  0  0  0  0  0
   -2.6005   -0.3333   -0.2478 H   0  0  0  0  0  0  0  0  0  0  0  0
   -0.5675   -0.1203    0.3102 C   0  0  1  0  0  0  0  0  0  0  0  0
   -0.4701    0.3208    1.3028 H   0  0  0  0  0  0  0  0  0  0  0  0
    0.5577   -1.1572    0.1102 C   0  0  0  0  0  0  0  0  0  0  0  0
    0.3921   -1.6728   -0.8378 H   0  0  0  0  0  0  0  0  0  0  0  0
    1.5039   -0.6174    0.0322 H   0  0  0  0  0  0  0  0  0  0  0  0
    0.6991   -2.2142    1.2208 C   0  0  0  0  0  0  0  0  0  0  0  0
   -0.2629   -2.6963    1.3950 H   0  0  0  0  0  0  0  0  0  0  0  0
    1.7369   -3.2852    0.8725 C   0  0  0  0  0  0  0  0  0  0  0  0
    2.7027   -2.8163    0.6794 H   0  0  0  0  0  0  0  0  0  0  0  0
    1.8390   -3.9819    1.7048 H   0  0  0  0  0  0  0  0  0  0  0  0
    1.4309   -3.8445   -0.0089 H   0  0  0  0  0  0  0  0  0  0  0  0
    1.1333   -1.5408    2.5221 C   0  0  0  0  0  0  0  0  0  0  0  0
    0.3948   -0.7936    2.8124 H   0  0  0  0  0  0  0  0  0  0  0  0
    1.2074   -2.2831    3.3169 H   0  0  0  0  0  0  0  0  0  0  0  0
    2.1018   -1.0573    2.3899 H   0  0  0  0  0  0  0  0  0  0  0  0
   -0.5152    1.0126   -0.7290 C   0  0  0  0  0  0  0  0  0  0  0  0
    0.1494    2.0224   -0.5081 O   0  0  0  0  0  0  0  0  0  0  0  0
   -1.2235    0.8481   -1.8537 N   0  0  0  0  0  0  0  0  0  0  0  0
   -1.7387   -0.0105   -1.9646 H   0  0  0  0  0  0  0  0  0  0  0  0
   -1.2905    1.8367   -2.9274 C   0  0  0  0  0  0  0  0  0  0  0  0
   -0.2865    2.0347   -3.3096 H   0  0  0  0  0  0  0  0  0  0  0  0
   -1.9188    1.4704   -3.7407 H   0  0  0  0  0  0  0  0  0  0  0  0
   -1.7050    2.7701   -2.5435 H   0  0  0  0  0  0  0  0  0  0  0  0
  5  6  2  0  0  0  0
  5  7  1  0  0  0  0
  2  3  1  0  0  0  0
  2  4  1  0  0  0  0
  2  5  1  0  0  0  0
  1  2  1  0  0  0  0
 24 25  2  0  0  0  0
 24 26  1  0  0  0  0
 20 21  1  0  0  0  0
 20 22  1  0  0  0  0
 20 23  1  0  0  0  0
 16 17  1  0  0  0  0
 16 18  1  0  0  0  0
 16 19  1  0  0  0  0
 14 15  1  0  0  0  0
 14 16  1  0  0  0  0
 14 20  1  0  0  0  0
 11 12  1  0  0  0  0
 11 13  1  0  0  0  0
 11 14  1  0  0  0  0
  9 10  1  0  0  0  0
  9 11  1  0  0  0  0
  9 24  1  0  0  0  0
  7  8  1  0  0  0  0
  7  9  1  0  0  0  0
 28 29  1  0  0  0  0
 28 30  1  0  0  0  0
 28 31  1  0  0  0  0
 26 27  1  0  0  0  0
 26 28  1  0  0  0  0
M  END
$$$$
default_name
  -OEChem-01062215323D

 31 30  0     1  0  0  0  0  0999 V2000
   -3.5895   -3.5013    1.1082 H   0  0  0  0  0  0  0  0  0  0  0  0
   -3.5145   -2.5363    0.6082 C   0  0  0  0  0  0  0  0  0  0  0  0
   -4.2285   -1.8413    1.0452 H   0  0  0  0  0  0  0  0  0  0  0  0
   -3.7155   -2.6583   -0.4538 H   0  0  0  0  0  0  0  0  0  0  0  0
   -2.1155   -1.9963    0.7922 C   0  0  0  0  0  0  0  0  0  0  0  0
   -1.2875   -2.6383    1.4252 O   0  0  0  0  0  0  0  0  0  0  0  0
   -1.8575   -0.8123    0.2402 N   0  0  0  0  0  0  0  0  0  0  0  0
   -2.6005   -0.3333   -0.2478 H   0  0  0  0  0  0  0  0  0  0  0  0
   -0.5675   -0.1203    0.3102 C   0  0  1  0  0  0  0  0  0  0  0  0
   -0.4701    0.3208    1.3028 H   0  0  0  0  0  0  0  0  0  0  0  0
    0.5577   -1.1572    0.1102 C   0  0  0  0  0  0  0  0  0  0  0  0
    0.3921   -1.6728   -0.8378 H   0  0  0  0  0  0  0  0  0  0  0  0
    1.5039   -0.6174    0.0322 H   0  0  0  0  0  0  0  0  0  0  0  0
    0.6991   -2.2142    1.2208 C   0  0  0  0  0  0  0  0  0  0  0  0
   -0.2629   -2.6963    1.3950 H   0  0  0  0  0  0  0  0  0  0  0  0
    1.7369   -3.2852    0.8725 C   0  0  0  0  0  0  0  0  0  0  0  0
    2.7027   -2.8163    0.6794 H   0  0  0  0  0  0  0  0  0  0  0  0
    1.8390   -3.9819    1.7048 H   0  0  0  0  0  0  0  0  0  0  0  0
    1.4309   -3.8445   -0.0089 H   0  0  0  0  0  0  0  0  0  0  0  0
    1.1333   -1.5408    2.5221 C   0  0  0  0  0  0  0  0  0  0  0  0
    0.3948   -0.7936    2.8124 H   0  0  0  0  0  0  0  0  0  0  0  0
    1.2074   -2.2831    3.3169 H   0  0  0  0  0  0  0  0  0  0  0  0
    2.1018   -1.0573    2.3899 H   0  0  0  0  0  0  0  0  0  0  0  0
   -0.5152    1.0126   -0.7290 C   0  0  0  0  0  0  0  0  0  0  0  0
    0.3462    1.8853   -0.6476 O   0  0  0  0  0  0  0  0  0  0  0  0
   -1.4418    1.0028   -1.6960 N   0  0  0  0  0  0  0  0  0  0  0  0
   -2.1114    0.2501   -1.6992 H   0  0  0  0  0  0  0  0  0  0  0  0
   -1.5366    2.0154   -2.7451 C   0  0  0  0  0  0  0  0  0  0  0  0
   -0.6046    2.0454   -3.3139 H   0  0  0  0  0  0  0  0  0  0  0  0
   -2.3624    1.7851   -3.4200 H   0  0  0  0  0  0  0  0  0  0  0  0
   -1.7002    2.9965   -2.2965 H   0  0  0  0  0  0  0  0  0  0  0  0
  5  6  2  0  0  0  0
  5  7  1  0  0  0  0
  2  3  1  0  0  0  0
  2  4  1  0  0  0  0
  2  5  1  0  0  0  0
  1  2  1  0  0  0  0
 24 25  2  0  0  0  0
 24 26  1  0  0  0  0
 20 21  1  0  0  0  0
 20 22  1  0  0  0  0
 20 23  1  0  0  0  0
 16 17  1  0  0  0  0
 16 18  1  0  0  0  0
 16 19  1  0  0  0  0
 14 15  1  0  0  0  0
 14 16  1  0  0  0  0
 14 20  1  0  0  0  0
 11 12  1  0  0  0  0
 11 13  1  0  0  0  0
 11 14  1  0  0  0  0
  9 10  1  0  0  0  0
  9 11  1  0  0  0  0
  9 24  1  0  0  0  0
  7  8  1  0  0  0  0
  7  9  1  0  0  0  0
 28 29  1  0  0  0  0
 28 30  1  0  0  0  0
 28 31  1  0  0  0  0
 26 27  1  0  0  0  0
 26 28  1  0  0  0  0
M  END
$$$$
default_name
  -OEChem-01062215323D

 31 30  0     1  0  0  0  0  0999 V2000
   -3.5895   -3.5013    1.1082 H   0  0  0  0  0  0  0  0  0  0  0  0
   -3.5145   -2.5363    0.6082 C   0  0  0  0  0  0  0  0  0  0  0  0
   -4.2285   -1.8413    1.0452 H   0  0  0  0  0  0  0  0  0  0  0  0
   -3.7155   -2.6583   -0.4538 H   0  0  0  0  0  0  0  0  0  0  0  0
   -2.1155   -1.9963    0.7922 C   0  0  0  0  0  0  0  0  0  0  0  0
   -1.2875   -2.6383    1.4252 O   0  0  0  0  0  0  0  0  0  0  0  0
   -1.8575   -0.8123    0.2402 N   0  0  0  0  0  0  0  0  0  0  0  0
   -2.6005   -0.3333   -0.2478 H   0  0  0  0  0  0  0  0  0  0  0  0
   -0.5675   -0.1203    0.3102 C   0  0  1  0  0  0  0  0  0  0  0  0
   -0.4701    0.3208    1.3028 H   0  0  0  0  0  0  0  0  0  0  0  0
    0.5577   -1.1572    0.1102 C   0  0  0  0  0  0  0  0  0  0  0  0
    0.3921   -1.6728   -0.8378 H   0  0  0  0  0  0  0  0  0  0  0  0
    1.5039   -0.6174    0.0322 H   0  0  0  0  0  0  0  0  0  0  0  0
    0.6991   -2.2142    1.2208 C   0  0  0  0  0  0  0  0  0  0  0  0
   -0.2629   -2.6963    1.3950 H   0  0  0  0  0  0  0  0  0  0  0  0
    1.7369   -3.2852    0.8725 C   0  0  0  0  0  0  0  0  0  0  0  0
    2.7027   -2.8163    0.6794 H   0  0  0  0  0  0  0  0  0  0  0  0
    1.8390   -3.9819    1.7048 H   0  0  0  0  0  0  0  0  0  0  0  0
    1.4309   -3.8445   -0.0089 H   0  0  0  0  0  0  0  0  0  0  0  0
    1.1333   -1.5408    2.5221 C   0  0  0  0  0  0  0  0  0  0  0  0
    0.3948   -0.7936    2.8124 H   0  0  0  0  0  0  0  0  0  0  0  0
    1.2074   -2.2831    3.3169 H   0  0  0  0  0  0  0  0  0  0  0  0
    2.1018   -1.0573    2.3899 H   0  0  0  0  0  0  0  0  0  0  0  0
   -0.5152    1.0126   -0.7290 C   0  0  0  0  0  0  0  0  0  0  0  0
    0.4856    1.7197   -0.8211 O   0  0  0  0  0  0  0  0  0  0  0  0
   -1.5955    1.1891   -1.5007 N   0  0  0  0  0  0  0  0  0  0  0  0
   -2.3752    0.5647   -1.3695 H   0  0  0  0  0  0  0  0  0  0  0  0
   -1.7084    2.2294   -2.5204 C   0  0  0  0  0  0  0  0  0  0  0  0
   -0.9108    2.1114   -3.2574 H   0  0  0  0  0  0  0  0  0  0  0  0
   -2.6746    2.1637   -3.0229 H   0  0  0  0  0  0  0  0  0  0  0  0
   -1.6089    3.2121   -2.0568 H   0  0  0  0  0  0  0  0  0  0  0  0
  5  6  2  0  0  0  0
  5  7  1  0  0  0  0
  2  3  1  0  0  0  0
  2  4  1  0  0  0  0
  2  5  1  0  0  0  0
  1  2  1  0  0  0  0
 24 25  2  0  0  0  0
 24 26  1  0  0  0  0
 20 21  1  0  0  0  0
 20 22  1  0  0  0  0
 20 23  1  0  0  0  0
 16 17  1  0  0  0  0
 16 18  1  0  0  0  0
 16 19  1  0  0  0  0
 14 15  1  0  0  0  0
 14 16  1  0  0  0  0
 14 20  1  0  0  0  0
 11 12  1  0  0  0  0
 11 13  1  0  0  0  0
 11 14  1  0  0  0  0
  9 10  1  0  0  0  0
  9 11  1  0  0  0  0
  9 24  1  0  0  0  0
  7  8  1  0  0  0  0
  7  9  1  0  0  0  0
 28 29  1  0  0  0  0
 28 30  1  0  0  0  0
 28 31  1  0  0  0  0
 26 27  1  0  0  0  0
 26 28  1  0  0  0  0
M  END
$$$$
default_name
  -OEChem-01062215323D

 31 30  0     1  0  0  0  0  0999 V2000
   -3.5895   -3.5013    1.1082 H   0  0  0  0  0  0  0  0  0  0  0  0
   -3.5145   -2.5363    0.6082 C   0  0  0  0  0  0  0  0  0  0  0  0
   -4.2285   -1.8413    1.0452 H   0  0  0  0  0  0  0  0  0  0  0  0
   -3.7155   -2.6583   -0.4538 H   0  0  0  0  0  0  0  0  0  0  0  0
   -2.1155   -1.9963    0.7922 C   0  0  0  0  0  0  0  0  0  0  0  0
   -1.2875   -2.6383    1.4252 O   0  0  0  0  0  0  0  0  0  0  0  0
   -1.8575   -0.8123    0.2402 N   0  0  0  0  0  0  0  0  0  0  0  0
   -2.6005   -0.3333   -0.2478 H   0  0  0  0  0  0  0  0  0  0  0  0
   -0.5675   -0.1203    0.3102 C   0  0  1  0  0  0  0  0  0  0  0  0
   -0.4701    0.3208    1.3028 H   0  0  0  0  0  0  0  0  0  0  0  0
    0.5577   -1.1572    0.1102 C   0  0  0  0  0  0  0  0  0  0  0  0
    0.3921   -1.6728   -0.8378 H   0  0  0  0  0  0  0  0  0  0  0  0
    1.5039   -0.6174    0.0322 H   0  0  0  0  0  0  0  0  0  0  0  0
    0.6991   -2.2142    1.2208 C   0  0  0  0  0  0  0  0  0  0  0  0
   -0.2629   -2.6963    1.3950 H   0  0  0  0  0  0  0  0  0  0  0  0
    1.7369   -3.2852    0.8725 C   0  0  0  0  0  0  0  0  0  0  0  0
    2.7027   -2.8163    0.6794 H   0  0  0  0  0  0  0  0  0  0  0  0
    1.8390   -3.9819    1.7048 H   0  0  0  0  0  0  0  0  0  0  0  0
    1.4309   -3.8445   -0.0089 H   0  0  0  0  0  0  0  0  0  0  0  0
    1.1333   -1.5408    2.5221 C   0  0  0  0  0  0  0  0  0  0  0  0
    0.3948   -0.7936    2.8124 H   0  0  0  0  0  0  0  0  0  0  0  0
    1.2074   -2.2831    3.3169 H   0  0  0  0  0  0  0  0  0  0  0  0
    2.1018   -1.0573    2.3899 H   0  0  0  0  0  0  0  0  0  0  0  0
   -0.5152    1.0126   -0.7290 C   0  0  0  0  0  0  0  0  0  0  0  0
    0.5583    1.5369   -1.0167 O   0  0  0  0  0  0  0  0  0  0  0  0
   -1.6742    1.3942   -1.2810 N   0  0  0  0  0  0  0  0  0  0  0  0
   -2.5122    0.9118   -0.9980 H   0  0  0  0  0  0  0  0  0  0  0  0
   -1.7941    2.4642   -2.2687 C   0  0  0  0  0  0  0  0  0  0  0  0
   -1.1843    2.2282   -3.1438 H   0  0  0  0  0  0  0  0  0  0  0  0
   -2.8344    2.5806   -2.5765 H   0  0  0  0  0  0  0  0  0  0  0  0
   -1.4372    3.4023   -1.8408 H   0  0  0  0  0  0  0  0  0  0  0  0
  5  6  2  0  0  0  0
  5  7  1  0  0  0  0
  2  3  1  0  0  0  0
  2  4  1  0  0  0  0
  2  5  1  0  0  0  0
  1  2  1  0  0  0  0
 24 25  2  0  0  0  0
 24 26  1  0  0  0  0
 20 21  1  0  0  0  0
 20 22  1  0  0  0  0
 20 23  1  0  0  0  0
 16 17  1  0  0  0  0
 16 18  1  0  0  0  0
 16 19  1  0  0  0  0
 14 15  1  0  0  0  0
 14 16  1  0  0  0  0
 14 20  1  0  0  0  0
 11 12  1  0  0  0  0
 11 13  1  0  0  0  0
 11 14  1  0  0  0  0
  9 10  1  0  0  0  0
  9 11  1  0  0  0  0
  9 24  1  0  0  0  0
  7  8  1  0  0  0  0
  7  9  1  0  0  0  0
 28 29  1  0  0  0  0
 28 30  1  0  0  0  0
 28 31  1  0  0  0  0
 26 27  1  0  0  0  0
 26 28  1  0  0  0  0
M  END
$$$$
default_name
  -OEChem-01062215323D

 31 30  0     1  0  0  0  0  0999 V2000
   -3.5895   -3.5013    1.1082 H   0  0  0  0  0  0  0  0  0  0  0  0
   -3.5145   -2.5363    0.6082 C   0  0  0  0  0  0  0  0  0  0  0  0
   -4.2285   -1.8413    1.0452 H   0  0  0  0  0  0  0  0  0  0  0  0
   -3.7155   -2.6583   -0.4538 H   0  0  0  0  0  0  0  0  0  0  0  0
   -2.1155   -1.9963    0.7922 C   0  0  0  0  0  0  0  0  0  0  0  0
   -1.2875   -2.6383    1.4252 O   0  0  0  0  0  0  0  0  0  0  0  0
   -1.8575   -0.8123    0.2402 N   0  0  0  0  0  0  0  0  0  0  0  0
   -2.6005   -0.3333   -0.2478 H   0  0  0  0  0  0  0  0  0  0  0  0
   -0.5675   -0.1203    0.3102 C   0  0  1  0  0  0  0  0  0  0  0  0
   -0.4701    0.3208    1.3028 H   0  0  0  0  0  0  0  0  0  0  0  0
    0.5577   -1.1572    0.1102 C   0  0  0  0  0  0  0  0  0  0  0  0
    0.3921   -1.6728   -0.8378 H   0  0  0  0  0  0  0  0  0  0  0  0
    1.5039   -0.6174    0.0322 H   0  0  0  0  0  0  0  0  0  0  0  0
    0.6991   -2.2142    1.2208 C   0  0  0  0  0  0  0  0  0  0  0  0
   -0.2629   -2.6963    1.3950 H   0  0  0  0  0  0  0  0  0  0  0  0
    1.7369   -3.2852    0.8725 C   0  0  0  0  0  0  0  0  0  0  0  0
    2.7027   -2.8163    0.6794 H   0  0  0  0  0  0  0  0  0  0  0  0
    1.8390   -3.9819    1.7048 H   0  0  0  0  0  0  0  0  0  0  0  0
    1.4309   -3.8445   -0.0089 H   0  0  0  0  0  0  0  0  0  0  0  0
    1.1333   -1.5408    2.5221 C   0  0  0  0  0  0  0  0  0  0  0  0
    0.3948   -0.7936    2.8124 H   0  0  0  0  0  0  0  0  0  0  0  0
    1.2074   -2.2831    3.3169 H   0  0  0  0  0  0  0  0  0  0  0  0
    2.1018   -1.0573    2.3899 H   0  0  0  0  0  0  0  0  0  0  0  0
   -0.5152    1.0126   -0.7290 C   0  0  0  0  0  0  0  0  0  0  0  0
    0.5593    1.3494   -1.2212 O   0  0  0  0  0  0  0  0  0  0  0  0
   -1.6725    1.6041   -1.0521 N   0  0  0  0  0  0  0  0  0  0  0  0
   -2.5130    1.2678   -0.6099 H   0  0  0  0  0  0  0  0  0  0  0  0
   -1.7878    2.7037   -2.0073 C   0  0  0  0  0  0  0  0  0  0  0  0
   -1.4063    2.3879   -2.9809 H   0  0  0  0  0  0  0  0  0  0  0  0
   -2.8307    3.0073   -2.1112 H   0  0  0  0  0  0  0  0  0  0  0  0
   -1.1970    3.5541   -1.6632 H   0  0  0  0  0  0  0  0  0  0  0  0
  5  6  2  0  0  0  0
  5  7  1  0  0  0  0
  2  3  1  0  0  0  0
  2  4  1  0  0  0  0
  2  5  1  0  0  0  0
  1  2  1  0  0  0  0
 24 25  2  0  0  0  0
 24 26  1  0  0  0  0
 20 21  1  0  0  0  0
 20 22  1  0  0  0  0
 20 23  1  0  0  0  0
 16 17  1  0  0  0  0
 16 18  1  0  0  0  0
 16 19  1  0  0  0  0
 14 15  1  0  0  0  0
 14 16  1  0  0  0  0
 14 20  1  0  0  0  0
 11 12  1  0  0  0  0
 11 13  1  0  0  0  0
 11 14  1  0  0  0  0
  9 10  1  0  0  0  0
  9 11  1  0  0  0  0
  9 24  1  0  0  0  0
  7  8  1  0  0  0  0
  7  9  1  0  0  0  0
 28 29  1  0  0  0  0
 28 30  1  0  0  0  0
 28 31  1  0  0  0  0
 26 27  1  0  0  0  0
 26 28  1  0  0  0  0
M  END
$$$$
default_name
  -OEChem-01062215323D

 31 30  0     1  0  0  0  0  0999 V2000
   -3.5895   -3.5013    1.1082 H   0  0  0  0  0  0  0  0  0  0  0  0
   -3.5145   -2.5363    0.6082 C   0  0  0  0  0  0  0  0  0  0  0  0
   -4.2285   -1.8413    1.0452 H   0  0  0  0  0  0  0  0  0  0  0  0
   -3.7155   -2.6583   -0.4538 H   0  0  0  0  0  0  0  0  0  0  0  0
   -2.1155   -1.9963    0.7922 C   0  0  0  0  0  0  0  0  0  0  0  0
   -1.2875   -2.6383    1.4252 O   0  0  0  0  0  0  0  0  0  0  0  0
   -1.8575   -0.8123    0.2402 N   0  0  0  0  0  0  0  0  0  0  0  0
   -2.6005   -0.3333   -0.2478 H   0  0  0  0  0  0  0  0  0  0  0  0
   -0.5675   -0.1203    0.3102 C   0  0  1  0  0  0  0  0  0  0  0  0
   -0.4701    0.3208    1.3028 H   0  0  0  0  0  0  0  0  0  0  0  0
    0.5577   -1.1572    0.1102 C   0  0  0  0  0  0  0  0  0  0  0  0
    0.3921   -1.6728   -0.8378 H   0  0  0  0  0  0  0  0  0  0  0  0
    1.5039   -0.6174    0.0322 H   0  0  0  0  0  0  0  0  0  0  0  0
    0.6991   -2.2142    1.2208 C   0  0  0  0  0  0  0  0  0  0  0  0
   -0.2629   -2.6963    1.3950 H   0  0  0  0  0  0  0  0  0  0  0  0
    1.7369   -3.2852    0.8725 C   0  0  0  0  0  0  0  0  0  0  0  0
    2.7027   -2.8163    0.6794 H   0  0  0  0  0  0  0  0  0  0  0  0
    1.8390   -3.9819    1.7048 H   0  0  0  0  0  0  0  0  0  0  0  0
    1.4309   -3.8445   -0.0089 H   0  0  0  0  0  0  0  0  0  0  0  0
    1.1333   -1.5408    2.5221 C   0  0  0  0  0  0  0  0  0  0  0  0
    0.3948   -0.7936    2.8124 H   0  0  0  0  0  0  0  0  0  0  0  0
    1.2074   -2.2831    3.3169 H   0  0  0  0  0  0  0  0  0  0  0  0
    2.1018   -1.0573    2.3899 H   0  0  0  0  0  0  0  0  0  0  0  0
   -0.5152    1.0126   -0.7290 C   0  0  0  0  0  0  0  0  0  0  0  0
    0.4885    1.1698   -1.4205 O   0  0  0  0  0  0  0  0  0  0  0  0
   -1.5905    1.8046   -0.8294 N   0  0  0  0  0  0  0  0  0  0  0  0
   -2.3776    1.6084   -0.2318 H   0  0  0  0  0  0  0  0  0  0  0  0
   -1.6900    2.9317   -1.7538 C   0  0  0  0  0  0  0  0  0  0  0  0
   -1.5619    2.5795   -2.7798 H   0  0  0  0  0  0  0  0  0  0  0  0
   -2.6638    3.4146   -1.6586 H   0  0  0  0  0  0  0  0  0  0  0  0
   -0.9046    3.6572   -1.5361 H   0  0  0  0  0  0  0  0  0  0  0  0
  5  6  2  0  0  0  0
  5  7  1  0  0  0  0
  2  3  1  0  0  0  0
  2  4  1  0  0  0  0
  2  5  1  0  0  0  0
  1  2  1  0  0  0  0
 24 25  2  0  0  0  0
 24 26  1  0  0  0  0
 20 21  1  0  0  0  0
 20 22  1  0  0  0  0
 20 23  1  0  0  0  0
 16 17  1  0  0  0  0
 16 18  1  0  0  0  0
 16 19  1  0  0  0  0
 14 15  1  0  0  0  0
 14 16  1  0  0  0  0
 14 20  1  0  0  0  0
 11 12  1  0  0  0  0
 11 13  1  0  0  0  0
 11 14  1  0  0  0  0
  9 10  1  0  0  0  0
  9 11  1  0  0  0  0
  9 24  1  0  0  0  0
  7  8  1  0  0  0  0
  7  9  1  0  0  0  0
 28 29  1  0  0  0  0
 28 30  1  0  0  0  0
 28 31  1  0  0  0  0
 26 27  1  0  0  0  0
 26 28  1  0  0  0  0
M  END
$$$$
default_name
  -OEChem-01062215323D

 31 30  0     1  0  0  0  0  0999 V2000
   -3.5895   -3.5013    1.1082 H   0  0  0  0  0  0  0  0  0  0  0  0
   -3.5145   -2.5363    0.6082 C   0  0  0  0  0  0  0  0  0  0  0  0
   -4.2285   -1.8413    1.0452 H   0  0  0  0  0  0  0  0  0  0  0  0
   -3.7155   -2.6583   -0.4538 H   0  0  0  0  0  0  0  0  0  0  0  0
   -2.1155   -1.9963    0.7922 C   0  0  0  0  0  0  0  0  0  0  0  0
   -1.2875   -2.6383    1.4252 O   0  0  0  0  0  0  0  0  0  0  0  0
   -1.8575   -0.8123    0.2402 N   0  0  0  0  0  0  0  0  0  0  0  0
   -2.6005   -0.3333   -0.2478 H   0  0  0  0  0  0  0  0  0  0  0  0
   -0.5675   -0.1203    0.3102 C   0  0  1  0  0  0  0  0  0  0  0  0
   -0.4701    0.3208    1.3028 H   0  0  0  0  0  0  0  0  0  0  0  0
    0.5577   -1.1572    0.1102 C   0  0  0  0  0  0  0  0  0  0  0  0
    0.3921   -1.6728   -0.8378 H   0  0  0  0  0  0  0  0  0  0  0  0
    1.5039   -0.6174    0.0322 H   0  0  0  0  0  0  0  0  0  0  0  0
    0.6991   -2.2142    1.2208 C   0  0  0  0  0  0  0  0  0  0  0  0
   -0.2629   -2.6963    1.3950 H   0  0  0  0  0  0  0  0  0  0  0  0
    1.7369   -3.2852    0.8725 C   0  0  0  0  0  0  0  0  0  0  0  0
    2.7027   -2.8163    0.6794 H   0  0  0  0  0  0  0  0  0  0  0  0
    1.8390   -3.9819    1.7048 H   0  0  0  0  0  0  0  0  0  0  0  0
    1.4309   -3.8445   -0.0089 H   0  0  0  0  0  0  0  0  0  0  0  0
    1.1333   -1.5408    2.5221 C   0  0  0  0  0  0  0  0  0  0  0  0
    0.3948   -0.7936    2.8124 H   0  0  0  0  0  0  0  0  0  0  0  0
    1.2074   -2.2831    3.3169 H   0  0  0  0  0  0  0  0  0  0  0  0
    2.1018   -1.0573    2.3899 H   0  0  0  0  0  0  0  0  0  0  0  0
   -0.5152    1.0126   -0.7290 C   0  0  0  0  0  0  0  0  0  0  0  0
    0.3507    1.0106   -1.6010 O   0  0  0  0  0  0  0  0  0  0  0  0
   -1.4338    1.9820   -0.6281 N   0  0  0  0  0  0  0  0  0  0  0  0
   -2.1151    1.9103    0.1106 H   0  0  0  0  0  0  0  0  0  0  0  0
   -1.5074    3.1326   -1.5256 C   0  0  0  0  0  0  0  0  0  0  0  0
   -1.6403    2.7900   -2.5543 H   0  0  0  0  0  0  0  0  0  0  0  0
   -2.3451    3.7750   -1.2498 H   0  0  0  0  0  0  0  0  0  0  0  0
   -0.5799    3.7045   -1.4682 H   0  0  0  0  0  0  0  0  0  0  0  0
  5  6  2  0  0  0  0
  5  7  1  0  0  0  0
  2  3  1  0  0  0  0
  2  4  1  0  0  0  0
  2  5  1  0  0  0  0
  1  2  1  0  0  0  0
 24 25  2  0  0  0  0
 24 26  1  0  0  0  0
 20 21  1  0  0  0  0
 20 22  1  0  0  0  0
 20 23  1  0  0  0  0
 16 17  1  0  0  0  0
 16 18  1  0  0  0  0
 16 19  1  0  0  0  0
 14 15  1  0  0  0  0
 14 16  1  0  0  0  0
 14 20  1  0  0  0  0
 11 12  1  0  0  0  0
 11 13  1  0  0  0  0
 11 14  1  0  0  0  0
  9 10  1  0  0  0  0
  9 11  1  0  0  0  0
  9 24  1  0  0  0  0
  7  8  1  0  0  0  0
  7  9  1  0  0  0  0
 28 29  1  0  0  0  0
 28 30  1  0  0  0  0
 28 31  1  0  0  0  0
 26 27  1  0  0  0  0
 26 28  1  0  0  0  0
M  END
$$$$
default_name
  -OEChem-01062215323D

 31 30  0     1  0  0  0  0  0999 V2000
   -3.5895   -3.5013    1.1082 H   0  0  0  0  0  0  0  0  0  0  0  0
   -3.5145   -2.5363    0.6082 C   0  0  0  0  0  0  0  0  0  0  0  0
   -4.2285   -1.8413    1.0452 H   0  0  0  0  0  0  0  0  0  0  0  0
   -3.7155   -2.6583   -0.4538 H   0  0  0  0  0  0  0  0  0  0  0  0
   -2.1155   -1.9963    0.7922 C   0  0  0  0  0  0  0  0  0  0  0  0
   -1.2875   -2.6383    1.4252 O   0  0  0  0  0  0  0  0  0  0  0  0
   -1.8575   -0.8123    0.2402 N   0  0  0  0  0  0  0  0  0  0  0  0
   -2.6005   -0.3333   -0.2478 H   0  0  0  0  0  0  0  0  0  0  0  0
   -0.5675   -0.1203    0.3102 C   0  0  1  0  0  0  0  0  0  0  0  0
   -0.4701    0.3208    1.3028 H   0  0  0  0  0  0  0  0  0  0  0  0
    0.5577   -1.1572    0.1102 C   0  0  0  0  0  0  0  0  0  0  0  0
    0.3921   -1.6728   -0.8378 H   0  0  0  0  0  0  0  0  0  0  0  0
    1.5039   -0.6174    0.0322 H   0  0  0  0  0  0  0  0  0  0  0  0
    0.6991   -2.2142    1.2208 C   0  0  0  0  0  0  0  0  0  0  0  0
   -0.2629   -2.6963    1.3950 H   0  0  0  0  0  0  0  0  0  0  0  0
    1.7369   -3.2852    0.8725 C   0  0  0  0  0  0  0  0  0  0  0  0
    2.7027   -2.8163    0.6794 H   0  0  0  0  0  0  0  0  0  0  0  0
    1.8390   -3.9819    1.7048 H   0  0  0  0  0  0  0  0  0  0  0  0
    1.4309   -3.8445   -0.0089 H   0  0  0  0  0  0  0  0  0  0  0  0
    1.1333   -1.5408    2.5221 C   0  0  0  0  0  0  0  0  0  0  0  0
    0.3948   -0.7936    2.8124 H   0  0  0  0  0  0  0  0  0  0  0  0
    1.2074   -2.2831    3.3169 H   0  0  0  0  0  0  0  0  0  0  0  0
    2.1018   -1.0573    2.3899 H   0  0  0  0  0  0  0  0  0  0  0  0
   -0.5152    1.0126   -0.7290 C   0  0  0  0  0  0  0  0  0  0  0  0
    0.1553    0.8824   -1.7506 O   0  0  0  0  0  0  0  0  0  0  0  0
   -1.2131    2.1241   -0.4621 N   0  0  0  0  0  0  0  0  0  0  0  0
   -1.7435    2.1531    0.3939 H   0  0  0  0  0  0  0  0  0  0  0  0
   -1.2524    3.2927   -1.3382 C   0  0  0  0  0  0  0  0  0  0  0  0
   -1.6362    3.0051   -2.3196 H   0  0  0  0  0  0  0  0  0  0  0  0
   -1.8963    4.0637   -0.9124 H   0  0  0  0  0  0  0  0  0  0  0  0
   -0.2451    3.6928   -1.4641 H   0  0  0  0  0  0  0  0  0  0  0  0
  5  6  2  0  0  0  0
  5  7  1  0  0  0  0
  2  3  1  0  0  0  0
  2  4  1  0  0  0  0
  2  5  1  0  0  0  0
  1  2  1  0  0  0  0
 24 25  2  0  0  0  0
 24 26  1  0  0  0  0
 20 21  1  0  0  0  0
 20 22  1  0  0  0  0
 20 23  1  0  0  0  0
 16 17  1  0  0  0  0
 16 18  1  0  0  0  0
 16 19  1  0  0  0  0
 14 15  1  0  0  0  0
 14 16  1  0  0  0  0
 14 20  1  0  0  0  0
 11 12  1  0  0  0  0
 11 13  1  0  0  0  0
 11 14  1  0  0  0  0
  9 10  1  0  0  0  0
  9 11  1  0  0  0  0
  9 24  1  0  0  0  0
  7  8  1  0  0  0  0
  7  9  1  0  0  0  0
 28 29  1  0  0  0  0
 28 30  1  0  0  0  0
 28 31  1  0  0  0  0
 26 27  1  0  0  0  0
 26 28  1  0  0  0  0
M  END
$$$$
default_name
  -OEChem-01062215323D

 31 30  0     1  0  0  0  0  0999 V2000
   -3.5895   -3.5013    1.1082 H   0  0  0  0  0  0  0  0  0  0  0  0
   -3.5145   -2.5363    0.6082 C   0  0  0  0  0  0  0  0  0  0  0  0
   -4.2285   -1.8413    1.0452 H   0  0  0  0  0  0  0  0  0  0  0  0
   -3.7155   -2.6583   -0.4538 H   0  0  0  0  0  0  0  0  0  0  0  0
   -2.1155   -1.9963    0.7922 C   0  0  0  0  0  0  0  0  0  0  0  0
   -1.2875   -2.6383    1.4252 O   0  0  0  0  0  0  0  0  0  0  0  0
   -1.8575   -0.8123    0.2402 N   0  0  0  0  0  0  0  0  0  0  0  0
   -2.6005   -0.3333   -0.2478 H   0  0  0  0  0  0  0  0  0  0  0  0
   -0.5675   -0.1203    0.3102 C   0  0  1  0  0  0  0  0  0  0  0  0
   -0.4701    0.3208    1.3028 H   0  0  0  0  0  0  0  0  0  0  0  0
    0.5577   -1.1572    0.1102 C   0  0  0  0  0  0  0  0  0  0  0  0
    0.3921   -1.6728   -0.8378 H   0  0  0  0  0  0  0  0  0  0  0  0
    1.5039   -0.6174    0.0322 H   0  0  0  0  0  0  0  0  0  0  0  0
    0.6991   -2.2142    1.2208 C   0  0  0  0  0  0  0  0  0  0  0  0
   -0.2629   -2.6963    1.3950 H   0  0  0  0  0  0  0  0  0  0  0  0
    1.7369   -3.2852    0.8725 C   0  0  0  0  0  0  0  0  0  0  0  0
    2.7027   -2.8163    0.6794 H   0  0  0  0  0  0  0  0  0  0  0  0
    1.8390   -3.9819    1.7048 H   0  0  0  0  0  0  0  0  0  0  0  0
    1.4309   -3.8445   -0.0089 H   0  0  0  0  0  0  0  0  0  0  0  0
    1.1333   -1.5408    2.5221 C   0  0  0  0  0  0  0  0  0  0  0  0
    0.3948   -0.7936    2.8124 H   0  0  0  0  0  0  0  0  0  0  0  0
    1.2074   -2.2831    3.3169 H   0  0  0  0  0  0  0  0  0  0  0  0
    2.1018   -1.0573    2.3899 H   0  0  0  0  0  0  0  0  0  0  0  0
   -0.5152    1.0126   -0.7290 C   0  0  0  0  0  0  0  0  0  0  0  0
   -0.0844    0.7941   -1.8589 O   0  0  0  0  0  0  0  0  0  0  0  0
   -0.9434    2.2213   -0.3425 N   0  0  0  0  0  0  0  0  0  0  0  0
   -1.2881    2.3201    0.5990 H   0  0  0  0  0  0  0  0  0  0  0  0
   -0.9423    3.4011   -1.2044 C   0  0  0  0  0  0  0  0  0  0  0  0
   -1.5499    3.2100   -2.0918 H   0  0  0  0  0  0  0  0  0  0  0  0
   -1.3480    4.2612   -0.6695 H   0  0  0  0  0  0  0  0  0  0  0  0
    0.0771    3.6230   -1.5240 H   0  0  0  0  0  0  0  0  0  0  0  0
  5  6  2  0  0  0  0
  5  7  1  0  0  0  0
  2  3  1  0  0  0  0
  2  4  1  0  0  0  0
  2  5  1  0  0  0  0
  1  2  1  0  0  0  0
 24 25  2  0  0  0  0
 24 26  1  0  0  0  0
 20 21  1  0  0  0  0
 20 22  1  0  0  0  0
 20 23  1  0  0  0  0
 16 17  1  0  0  0  0
 16 18  1  0  0  0  0
 16 19  1  0  0  0  0
 14 15  1  0  0  0  0
 14 16  1  0  0  0  0
 14 20  1  0  0  0  0
 11 12  1  0  0  0  0
 11 13  1  0  0  0  0
 11 14  1  0  0  0  0
  9 10  1  0  0  0  0
  9 11  1  0  0  0  0
  9 24  1  0  0  0  0
  7  8  1  0  0  0  0
  7  9  1  0  0  0  0
 28 29  1  0  0  0  0
 28 30  1  0  0  0  0
 28 31  1  0  0  0  0
 26 27  1  0  0  0  0
 26 28  1  0  0  0  0
M  END
$$$$
default_name
  -OEChem-01062215323D

 31 30  0     1  0  0  0  0  0999 V2000
   -3.5895   -3.5013    1.1082 H   0  0  0  0  0  0  0  0  0  0  0  0
   -3.5145   -2.5363    0.6082 C   0  0  0  0  0  0  0  0  0  0  0  0
   -4.2285   -1.8413    1.0452 H   0  0  0  0  0  0  0  0  0  0  0  0
   -3.7155   -2.6583   -0.4538 H   0  0  0  0  0  0  0  0  0  0  0  0
   -2.1155   -1.9963    0.7922 C   0  0  0  0  0  0  0  0  0  0  0  0
   -1.2875   -2.6383    1.4252 O   0  0  0  0  0  0  0  0  0  0  0  0
   -1.8575   -0.8123    0.2402 N   0  0  0  0  0  0  0  0  0  0  0  0
   -2.6005   -0.3333   -0.2478 H   0  0  0  0  0  0  0  0  0  0  0  0
   -0.5675   -0.1203    0.3102 C   0  0  1  0  0  0  0  0  0  0  0  0
   -0.4701    0.3208    1.3028 H   0  0  0  0  0  0  0  0  0  0  0  0
    0.5577   -1.1572    0.1102 C   0  0  0  0  0  0  0  0  0  0  0  0
    0.3921   -1.6728   -0.8378 H   0  0  0  0  0  0  0  0  0  0  0  0
    1.5039   -0.6174    0.0322 H   0  0  0  0  0  0  0  0  0  0  0  0
    0.6991   -2.2142    1.2208 C   0  0  0  0  0  0  0  0  0  0  0  0
   -0.2629   -2.6963    1.3950 H   0  0  0  0  0  0  0  0  0  0  0  0
    1.7369   -3.2852    0.8725 C   0  0  0  0  0  0  0  0  0  0  0  0
    2.7027   -2.8163    0.6794 H   0  0  0  0  0  0  0  0  0  0  0  0
    1.8390   -3.9819    1.7048 H   0  0  0  0  0  0  0  0  0  0  0  0
    1.4309   -3.8445   -0.0089 H   0  0  0  0  0  0  0  0  0  0  0  0
    1.1333   -1.5408    2.5221 C   0  0  0  0  0  0  0  0  0  0  0  0
    0.3948   -0.7936    2.8124 H   0  0  0  0  0  0  0  0  0  0  0  0
    1.2074   -2.2831    3.3169 H   0  0  0  0  0  0  0  0  0  0  0  0
    2.1018   -1.0573    2.3899 H   0  0  0  0  0  0  0  0  0  0  0  0
   -0.5152    1.0126   -0.7290 C   0  0  0  0  0  0  0  0  0  0  0  0
   -0.3519    0.7516   -1.9187 O   0  0  0  0  0  0  0  0  0  0  0  0
   -0.6431    2.2671   -0.2776 N   0  0  0  0  0  0  0  0  0  0  0  0
   -0.7800    2.4001    0.7116 H   0  0  0  0  0  0  0  0  0  0  0  0
   -0.5984    3.4504   -1.1334 C   0  0  0  0  0  0  0  0  0  0  0  0
   -1.3873    3.3909   -1.8865 H   0  0  0  0  0  0  0  0  0  0  0  0
   -0.7376    4.3539   -0.5377 H   0  0  0  0  0  0  0  0  0  0  0  0
    0.3647    3.4997   -1.6440 H   0  0  0  0  0  0  0  0  0  0  0  0
  5  6  2  0  0  0  0
  5  7  1  0  0  0  0
  2  3  1  0  0  0  0
  2  4  1  0  0  0  0
  2  5  1  0  0  0  0
  1  2  1  0  0  0  0
 24 25  2  0  0  0  0
 24 26  1  0  0  0  0
 20 21  1  0  0  0  0
 20 22  1  0  0  0  0
 20 23  1  0  0  0  0
 16 17  1  0  0  0  0
 16 18  1  0  0  0  0
 16 19  1  0  0  0  0
 14 15  1  0  0  0  0
 14 16  1  0  0  0  0
 14 20  1  0  0  0  0
 11 12  1  0  0  0  0
 11 13  1  0  0  0  0
 11 14  1  0  0  0  0
  9 10  1  0  0  0  0
  9 11  1  0  0  0  0
  9 24  1  0  0  0  0
  7  8  1  0  0  0  0
  7  9  1  0  0  0  0
 28 29  1  0  0  0  0
 28 30  1  0  0  0  0
 28 31  1  0  0  0  0
 26 27  1  0  0  0  0
 26 28  1  0  0  0  0
M  END
$$$$
default_name
  -OEChem-01062215323D

 31 30  0     1  0  0  0  0  0999 V2000
   -3.5895   -3.5013    1.1082 H   0  0  0  0  0  0  0  0  0  0  0  0
   -3.5145   -2.5363    0.6082 C   0  0  0  0  0  0  0  0  0  0  0  0
   -4.2285   -1.8413    1.0452 H   0  0  0  0  0  0  0  0  0  0  0  0
   -3.7155   -2.6583   -0.4538 H   0  0  0  0  0  0  0  0  0  0  0  0
   -2.1155   -1.9963    0.7922 C   0  0  0  0  0  0  0  0  0  0  0  0
   -1.2875   -2.6383    1.4252 O   0  0  0  0  0  0  0  0  0  0  0  0
   -1.8575   -0.8123    0.2402 N   0  0  0  0  0  0  0  0  0  0  0  0
   -2.6005   -0.3333   -0.2478 H   0  0  0  0  0  0  0  0  0  0  0  0
   -0.5675   -0.1203    0.3102 C   0  0  1  0  0  0  0  0  0  0  0  0
   -0.4701    0.3208    1.3028 H   0  0  0  0  0  0  0  0  0  0  0  0
    0.5577   -1.1572    0.1102 C   0  0  0  0  0  0  0  0  0  0  0  0
    0.3921   -1.6728   -0.8378 H   0  0  0  0  0  0  0  0  0  0  0  0
    1.5039   -0.6174    0.0322 H   0  0  0  0  0  0  0  0  0  0  0  0
    0.6991   -2.2142    1.2208 C   0  0  0  0  0  0  0  0  0  0  0  0
   -0.2629   -2.6963    1.3950 H   0  0  0  0  0  0  0  0  0  0  0  0
    1.7369   -3.2852    0.8725 C   0  0  0  0  0  0  0  0  0  0  0  0
    2.7027   -2.8163    0.6794 H   0  0  0  0  0  0  0  0  0  0  0  0
    1.8390   -3.9819    1.7048 H   0  0  0  0  0  0  0  0  0  0  0  0
    1.4309   -3.8445   -0.0089 H   0  0  0  0  0  0  0  0  0  0  0  0
    1.1333   -1.5408    2.5221 C   0  0  0  0  0  0  0  0  0  0  0  0
    0.3948   -0.7936    2.8124 H   0  0  0  0  0  0  0  0  0  0  0  0
    1.2074   -2.2831    3.3169 H   0  0  0  0  0  0  0  0  0  0  0  0
    2.1018   -1.0573    2.3899 H   0  0  0  0  0  0  0  0  0  0  0  0
   -0.5152    1.0126   -0.7290 C   0  0  0  0  0  0  0  0  0  0  0  0
   -0.6292    0.7579   -1.9258 O   0  0  0  0  0  0  0  0  0  0  0  0
   -0.3326    2.2581   -0.2717 N   0  0  0  0  0  0  0  0  0  0  0  0
   -0.2537    2.3874    0.7243 H   0  0  0  0  0  0  0  0  0  0  0  0
   -0.2440    3.4373   -1.1298 C   0  0  0  0  0  0  0  0  0  0  0  0
   -1.1595    3.5354   -1.7175 H   0  0  0  0  0  0  0  0  0  0  0  0
   -0.1066    4.3356   -0.5260 H   0  0  0  0  0  0  0  0  0  0  0  0
    0.5980    3.3314   -1.8157 H   0  0  0  0  0  0  0  0  0  0  0  0
  5  6  2  0  0  0  0
  5  7  1  0  0  0  0
  2  3  1  0  0  0  0
  2  4  1  0  0  0  0
  2  5  1  0  0  0  0
  1  2  1  0  0  0  0
 24 25  2  0  0  0  0
 24 26  1  0  0  0  0
 20 21  1  0  0  0  0
 20 22  1  0  0  0  0
 20 23  1  0  0  0  0
 16 17  1  0  0  0  0
 16 18  1  0  0  0  0
 16 19  1  0  0  0  0
 14 15  1  0  0  0  0
 14 16  1  0  0  0  0
 14 20  1  0  0  0  0
 11 12  1  0  0  0  0
 11 13  1  0  0  0  0
 11 14  1  0  0  0  0
  9 10  1  0  0  0  0
  9 11  1  0  0  0  0
  9 24  1  0  0  0  0
  7  8  1  0  0  0  0
  7  9  1  0  0  0  0
 28 29  1  0  0  0  0
 28 30  1  0  0  0  0
 28 31  1  0  0  0  0
 26 27  1  0  0  0  0
 26 28  1  0  0  0  0
M  END
$$$$
default_name
  -OEChem-01062215323D

 31 30  0     1  0  0  0  0  0999 V2000
   -3.5895   -3.5013    1.1082 H   0  0  0  0  0  0  0  0  0  0  0  0
   -3.5145   -2.5363    0.6082 C   0  0  0  0  0  0  0  0  0  0  0  0
   -4.2285   -1.8413    1.0452 H   0  0  0  0  0  0  0  0  0  0  0  0
   -3.7155   -2.6583   -0.4538 H   0  0  0  0  0  0  0  0  0  0  0  0
   -2.1155   -1.9963    0.7922 C   0  0  0  0  0  0  0  0  0  0  0  0
   -1.2875   -2.6383    1.4252 O   0  0  0  0  0  0  0  0  0  0  0  0
   -1.8575   -0.8123    0.2402 N   0  0  0  0  0  0  0  0  0  0  0  0
   -2.6005   -0.3333   -0.2478 H   0  0  0  0  0  0  0  0  0  0  0  0
   -0.5675   -0.1203    0.3102 C   0  0  1  0  0  0  0  0  0  0  0  0
   -0.4701    0.3208    1.3028 H   0  0  0  0  0  0  0  0  0  0  0  0
    0.5577   -1.1572    0.1102 C   0  0  0  0  0  0  0  0  0  0  0  0
    0.3921   -1.6728   -0.8378 H   0  0  0  0  0  0  0  0  0  0  0  0
    1.5039   -0.6174    0.0322 H   0  0  0  0  0  0  0  0  0  0  0  0
    0.6991   -2.2142    1.2208 C   0  0  0  0  0  0  0  0  0  0  0  0
   -0.2629   -2.6963    1.3950 H   0  0  0  0  0  0  0  0  0  0  0  0
    1.7369   -3.2852    0.8725 C   0  0  0  0  0  0  0  0  0  0  0  0
    2.7027   -2.8163    0.6794 H   0  0  0  0  0  0  0  0  0  0  0  0
    1.8390   -3.9819    1.7048 H   0  0  0  0  0  0  0  0  0  0  0  0
    1.4309   -3.8445   -0.0089 H   0  0  0  0  0  0  0  0  0  0  0  0
    1.1333   -1.5408    2.5221 C   0  0  0  0  0  0  0  0  0  0  0  0
    0.3948   -0.7936    2.8124 H   0  0  0  0  0  0  0  0  0  0  0  0
    1.2074   -2.2831    3.3169 H   0  0  0  0  0  0  0  0  0  0  0  0
    2.1018   -1.0573    2.3899 H   0  0  0  0  0  0  0  0  0  0  0  0
   -0.5152    1.0126   -0.7290 C   0  0  0  0  0  0  0  0  0  0  0  0
   -0.8973    0.8125   -1.8797 O   0  0  0  0  0  0  0  0  0  0  0  0
   -0.0332    2.1952   -0.3253 N   0  0  0  0  0  0  0  0  0  0  0  0
    0.2549    2.2831    0.6361 H   0  0  0  0  0  0  0  0  0  0  0  0
    0.0967    3.3626   -1.1941 C   0  0  0  0  0  0  0  0  0  0  0  0
   -0.8820    3.6336   -1.5964 H   0  0  0  0  0  0  0  0  0  0  0  0
    0.5019    4.2075   -0.6350 H   0  0  0  0  0  0  0  0  0  0  0  0
    0.7612    3.1295   -2.0276 H   0  0  0  0  0  0  0  0  0  0  0  0
  5  6  2  0  0  0  0
  5  7  1  0  0  0  0
  2  3  1  0  0  0  0
  2  4  1  0  0  0  0
  2  5  1  0  0  0  0
  1  2  1  0  0  0  0
 24 25  2  0  0  0  0
 24 26  1  0  0  0  0
 20 21  1  0  0  0  0
 20 22  1  0  0  0  0
 20 23  1  0  0  0  0
 16 17  1  0  0  0  0
 16 18  1  0  0  0  0
 16 19  1  0  0  0  0
 14 15  1  0  0  0  0
 14 16  1  0  0  0  0
 14 20  1  0  0  0  0
 11 12  1  0  0  0  0
 11 13  1  0  0  0  0
 11 14  1  0  0  0  0
  9 10  1  0  0  0  0
  9 11  1  0  0  0  0
  9 24  1  0  0  0  0
  7  8  1  0  0  0  0
  7  9  1  0  0  0  0
 28 29  1  0  0  0  0
 28 30  1  0  0  0  0
 28 31  1  0  0  0  0
 26 27  1  0  0  0  0
 26 28  1  0  0  0  0
M  END
$$$$
default_name
  -OEChem-01062215323D

 31 30  0     1  0  0  0  0  0999 V2000
   -3.5895   -3.5013    1.1082 H   0  0  0  0  0  0  0  0  0  0  0  0
   -3.5145   -2.5363    0.6082 C   0  0  0  0  0  0  0  0  0  0  0  0
   -4.2285   -1.8413    1.0452 H   0  0  0  0  0  0  0  0  0  0  0  0
   -3.7155   -2.6583   -0.4538 H   0  0  0  0  0  0  0  0  0  0  0  0
   -2.1155   -1.9963    0.7922 C   0  0  0  0  0  0  0  0  0  0  0  0
   -1.2875   -2.6383    1.4252 O   0  0  0  0  0  0  0  0  0  0  0  0
   -1.8575   -0.8123    0.2402 N   0  0  0  0  0  0  0  0  0  0  0  0
   -2.6005   -0.3333   -0.2478 H   0  0  0  0  0  0  0  0  0  0  0  0
   -0.5675   -0.1203    0.3102 C   0  0  1  0  0  0  0  0  0  0  0  0
   -0.4701    0.3208    1.3028 H   0  0  0  0  0  0  0  0  0  0  0  0
    0.5577   -1.1572    0.1102 C   0  0  0  0  0  0  0  0  0  0  0  0
    0.3921   -1.6728   -0.8378 H   0  0  0  0  0  0  0  0  0  0  0  0
    1.5039   -0.6174    0.0322 H   0  0  0  0  0  0  0  0  0  0  0  0
    0.6991   -2.2142    1.2208 C   0  0  0  0  0  0  0  0  0  0  0  0
   -0.2629   -2.6963    1.3950 H   0  0  0  0  0  0  0  0  0  0  0  0
    1.7369   -3.2852    0.8725 C   0  0  0  0  0  0  0  0  0  0  0  0
    2.7027   -2.8163    0.6794 H   0  0  0  0  0  0  0  0  0  0  0  0
    1.8390   -3.9819    1.7048 H   0  0  0  0  0  0  0  0  0  0  0  0
    1.4309   -3.8445   -0.0089 H   0  0  0  0  0  0  0  0  0  0  0  0
    1.1333   -1.5408    2.5221 C   0  0  0  0  0  0  0  0  0  0  0  0
    0.3948   -0.7936    2.8124 H   0  0  0  0  0  0  0  0  0  0  0  0
    1.2074   -2.2831    3.3169 H   0  0  0  0  0  0  0  0  0  0  0  0
    2.1018   -1.0573    2.3899 H   0  0  0  0  0  0  0  0  0  0  0  0
   -0.5152    1.0126   -0.7290 C   0  0  0  0  0  0  0  0  0  0  0  0
   -1.1379    0.9118   -1.7836 O   0  0  0  0  0  0  0  0  0  0  0  0
    0.2349    2.0825   -0.4347 N   0  0  0  0  0  0  0  0  0  0  0  0
    0.7110    2.0941    0.4531 H   0  0  0  0  0  0  0  0  0  0  0  0
    0.4005    3.2315   -1.3218 C   0  0  0  0  0  0  0  0  0  0  0  0
   -0.5737    3.6789   -1.5316 H   0  0  0  0  0  0  0  0  0  0  0  0
    1.0464    3.9783   -0.8575 H   0  0  0  0  0  0  0  0  0  0  0  0
    0.8432    2.9079   -2.2651 H   0  0  0  0  0  0  0  0  0  0  0  0
  5  6  2  0  0  0  0
  5  7  1  0  0  0  0
  2  3  1  0  0  0  0
  2  4  1  0  0  0  0
  2  5  1  0  0  0  0
  1  2  1  0  0  0  0
 24 25  2  0  0  0  0
 24 26  1  0  0  0  0
 20 21  1  0  0  0  0
 20 22  1  0  0  0  0
 20 23  1  0  0  0  0
 16 17  1  0  0  0  0
 16 18  1  0  0  0  0
 16 19  1  0  0  0  0
 14 15  1  0  0  0  0
 14 16  1  0  0  0  0
 14 20  1  0  0  0  0
 11 12  1  0  0  0  0
 11 13  1  0  0  0  0
 11 14  1  0  0  0  0
  9 10  1  0  0  0  0
  9 11  1  0  0  0  0
  9 24  1  0  0  0  0
  7  8  1  0  0  0  0
  7  9  1  0  0  0  0
 28 29  1  0  0  0  0
 28 30  1  0  0  0  0
 28 31  1  0  0  0  0
 26 27  1  0  0  0  0
 26 28  1  0  0  0  0
M  END
$$$$
default_name
  -OEChem-01062215323D

 31 30  0     1  0  0  0  0  0999 V2000
   -3.5895   -3.5013    1.1082 H   0  0  0  0  0  0  0  0  0  0  0  0
   -3.5145   -2.5363    0.6082 C   0  0  0  0  0  0  0  0  0  0  0  0
   -4.2285   -1.8413    1.0452 H   0  0  0  0  0  0  0  0  0  0  0  0
   -3.7155   -2.6583   -0.4538 H   0  0  0  0  0  0  0  0  0  0  0  0
   -2.1155   -1.9963    0.7922 C   0  0  0  0  0  0  0  0  0  0  0  0
   -1.2875   -2.6383    1.4252 O   0  0  0  0  0  0  0  0  0  0  0  0
   -1.8575   -0.8123    0.2402 N   0  0  0  0  0  0  0  0  0  0  0  0
   -2.6005   -0.3333   -0.2478 H   0  0  0  0  0  0  0  0  0  0  0  0
   -0.5675   -0.1203    0.3102 C   0  0  1  0  0  0  0  0  0  0  0  0
   -0.4701    0.3208    1.3028 H   0  0  0  0  0  0  0  0  0  0  0  0
    0.5577   -1.1572    0.1102 C   0  0  0  0  0  0  0  0  0  0  0  0
    0.3921   -1.6728   -0.8378 H   0  0  0  0  0  0  0  0  0  0  0  0
    1.5039   -0.6174    0.0322 H   0  0  0  0  0  0  0  0  0  0  0  0
    0.6991   -2.2142    1.2208 C   0  0  0  0  0  0  0  0  0  0  0  0
   -0.2629   -2.6963    1.3950 H   0  0  0  0  0  0  0  0  0  0  0  0
    1.7369   -3.2852    0.8725 C   0  0  0  0  0  0  0  0  0  0  0  0
    2.7027   -2.8163    0.6794 H   0  0  0  0  0  0  0  0  0  0  0  0
    1.8390   -3.9819    1.7048 H   0  0  0  0  0  0  0  0  0  0  0  0
    1.4309   -3.8445   -0.0089 H   0  0  0  0  0  0  0  0  0  0  0  0
    1.1333   -1.5408    2.5221 C   0  0  0  0  0  0  0  0  0  0  0  0
    0.3948   -0.7936    2.8124 H   0  0  0  0  0  0  0  0  0  0  0  0
    1.2074   -2.2831    3.3169 H   0  0  0  0  0  0  0  0  0  0  0  0
    2.1018   -1.0573    2.3899 H   0  0  0  0  0  0  0  0  0  0  0  0
   -0.5152    1.0126   -0.7290 C   0  0  0  0  0  0  0  0  0  0  0  0
   -1.3346    1.0488   -1.6441 O   0  0  0  0  0  0  0  0  0  0  0  0
    0.4532    1.9277   -0.5924 N   0  0  0  0  0  0  0  0  0  0  0  0
    1.0837    1.8335    0.1877 H   0  0  0  0  0  0  0  0  0  0  0  0
    0.6467    3.0528   -1.5042 C   0  0  0  0  0  0  0  0  0  0  0  0
   -0.2555    3.6682   -1.5272 H   0  0  0  0  0  0  0  0  0  0  0  0
    1.4900    3.6636   -1.1782 H   0  0  0  0  0  0  0  0  0  0  0  0
    0.8384    2.6815   -2.5121 H   0  0  0  0  0  0  0  0  0  0  0  0
  5  6  2  0  0  0  0
  5  7  1  0  0  0  0
  2  3  1  0  0  0  0
  2  4  1  0  0  0  0
  2  5  1  0  0  0  0
  1  2  1  0  0  0  0
 24 25  2  0  0  0  0
 24 26  1  0  0  0  0
 20 21  1  0  0  0  0
 20 22  1  0  0  0  0
 20 23  1  0  0  0  0
 16 17  1  0  0  0  0
 16 18  1  0  0  0  0
 16 19  1  0  0  0  0
 14 15  1  0  0  0  0
 14 16  1  0  0  0  0
 14 20  1  0  0  0  0
 11 12  1  0  0  0  0
 11 13  1  0  0  0  0
 11 14  1  0  0  0  0
  9 10  1  0  0  0  0
  9 11  1  0  0  0  0
  9 24  1  0  0  0  0
  7  8  1  0  0  0  0
  7  9  1  0  0  0  0
 28 29  1  0  0  0  0
 28 30  1  0  0  0  0
 28 31  1  0  0  0  0
 26 27  1  0  0  0  0
 26 28  1  0  0  0  0
M  END
$$$$
