@<TRIPOS>MOLECULE
default_name
   30    30     1     0     0
SMALL
No Charge or Current Charge


@<TRIPOS>ATOM
      1 H1          26.0250    25.7930    25.2300 H          1 ACE       0.112300
      2 CH3         26.1160    26.6200    24.5260 C.3        1 ACE      -0.366200
      3 H2          25.4180    27.4070    24.8050 H          1 ACE       0.112300
      4 H3          25.8950    26.2590    23.5220 H          1 ACE       0.112300
      5 C           27.5280    27.1570    24.5730 C.2        1 ACE       0.597200
      6 O           28.3530    26.6670    25.3330 O.2        1 ACE      -0.567900
      7 N           27.8240    28.1630    23.7450 N.am       2 HIP      -0.347900
      8 H           27.0910    28.4990    23.1380 H          2 HIP       0.274700
      9 CA          29.1640    28.7650    23.6370 C.3        2 HIP      -0.135400
     10 HA          29.6470    28.6980    24.6150 H          2 HIP       0.121200
     11 CB          30.0060    27.9200    22.6530 C.3        2 HIP      -0.041400
     12 HB2         30.0170    26.8850    23.0040 H          2 HIP       0.081000
     13 HB3         29.5180    27.9220    21.6760 H          2 HIP       0.081000
     14 CG          31.4350    28.3840    22.4660 C.2        2 HIP      -0.001200
     15 ND1         31.8210    29.5340    21.8050 N.pl3      2 HIP      -0.151300
     16 HD1         31.1590    30.2200    21.4310 H          2 HIP       0.386600
     17 CE1         33.1660    29.6140    21.8400 C.2        2 HIP      -0.017000
     18 HE1         33.7600    30.4190    21.4120 H          2 HIP       0.268100
     19 NE2         33.6420    28.5390    22.5080 N.pl3      2 HIP      -0.171800
     20 HE2         34.6210    28.3360    22.6920 H          2 HIP       0.391100
     21 CD2         32.5680    27.7560    22.9080 C.2        2 HIP      -0.114100
     22 HD2         32.6080    26.8240    23.4650 H          2 HIP       0.231700
     23 C           29.0800    30.2630    23.2940 C.2        2 HIP       0.734100
     24 O           29.3630    30.6640    22.1640 O.2        2 HIP      -0.589400
     25 N           28.7020    31.0810    24.2840 N.am       3 NME      -0.415700
     26 H           28.4790    30.6620    25.1740 H          3 NME       0.271900
     27 CH3         28.5890    32.5390    24.1800 C.3        3 NME      -0.149000
     28 HH31        27.5430    32.8260    24.0550 H          3 NME       0.097600
     29 HH32        28.9720    33.0080    25.0880 H          3 NME       0.097600
     30 HH33        29.1600    32.9140    23.3280 H          3 NME       0.097600
@<TRIPOS>BOND
     1     5     6 2   
     2     5     7 am  
     3     2     3 1   
     4     2     4 1   
     5     2     5 1   
     6     1     2 1   
     7    23    24 2   
     8    23    25 am  
     9    21    22 1   
    10    19    20 1   
    11    19    21 1   
    12    17    18 1   
    13    17    19 1   
    14    15    16 1   
    15    15    17 2   
    16    14    15 1   
    17    14    21 2   
    18    11    12 1   
    19    11    13 1   
    20    11    14 1   
    21     9    10 1   
    22     9    11 1   
    23     9    23 1   
    24     7     8 1   
    25     7     9 1   
    26    27    28 1   
    27    27    29 1   
    28    27    30 1   
    29    25    26 1   
    30    25    27 1   
@<TRIPOS>SUBSTRUCTURE
     1 ACE         1 TEMP              0 ****  ****    0 ROOT
