
  -OEChem-05262217163D

 52 52  0     1  0  0  0  0  0999 V2000
   -2.5383    0.2262    3.7883 C   0  0  0  0  0  0  0  0  0  0  0  0
   -3.1099   -0.4805    2.9720 O   0  0  0  0  0  0  0  0  0  0  0  0
   -2.3441   -0.2651    5.2102 C   0  0  0  0  0  0  0  0  0  0  0  0
   -2.7694   -1.2661    5.3258 H   0  0  0  0  0  0  0  0  0  0  0  0
   -1.2778   -0.3052    5.4472 H   0  0  0  0  0  0  0  0  0  0  0  0
   -2.8408    0.4117    5.9096 H   0  0  0  0  0  0  0  0  0  0  0  0
   -2.0351    1.4566    3.4214 N   0  0  0  0  0  0  0  0  0  0  0  0
   -1.8969    1.8716    2.0184 C   0  0  2  0  0  0  0  0  0  0  0  0
   -0.4822    1.5780    1.4793 C   0  0  0  0  0  0  0  0  0  0  0  0
    0.4772    1.5809    2.2422 O   0  0  0  0  0  0  0  0  0  0  0  0
   -2.2013    3.3692    1.9418 C   0  0  0  0  0  0  0  0  0  0  0  0
   -1.3617    1.8540    4.0725 H   0  0  0  0  0  0  0  0  0  0  0  0
   -2.6170    1.3405    1.3870 H   0  0  0  0  0  0  0  0  0  0  0  0
   -1.4877    3.9375    2.5472 H   0  0  0  0  0  0  0  0  0  0  0  0
   -2.1360    3.7204    0.9073 H   0  0  0  0  0  0  0  0  0  0  0  0
   -3.2116    3.5700    2.3117 H   0  0  0  0  0  0  0  0  0  0  0  0
   -0.2518    1.4878    0.1206 N   0  0  0  0  0  0  0  0  0  0  0  0
    0.8925    0.8035   -0.5107 C   0  0  2  0  0  0  0  0  0  0  0  0
    0.7738    0.9484   -2.0478 C   0  0  0  0  0  0  0  0  0  0  0  0
   -0.2344    1.4411   -2.5489 O   0  0  0  0  0  0  0  0  0  0  0  0
    0.8769   -0.7338   -0.2616 C   0  0  0  0  0  0  0  0  0  0  0  0
    1.0919   -1.1850    1.1619 C   0  0  0  0  0  0  0  0  0  0  0  0
    2.3859   -1.2587    1.6988 C   0  0  0  0  0  0  0  0  0  0  0  0
    0.0083   -1.6298    1.9367 C   0  0  0  0  0  0  0  0  0  0  0  0
    2.5891   -1.7336    2.9993 C   0  0  0  0  0  0  0  0  0  0  0  0
    0.2111   -2.1121    3.2332 C   0  0  0  0  0  0  0  0  0  0  0  0
    1.5015   -2.1594    3.7679 C   0  0  0  0  0  0  0  0  0  0  0  0
   -1.0656    1.6149   -0.4804 H   0  0  0  0  0  0  0  0  0  0  0  0
    1.8338    1.2434   -0.1659 H   0  0  0  0  0  0  0  0  0  0  0  0
    1.6577   -1.2101   -0.8620 H   0  0  0  0  0  0  0  0  0  0  0  0
   -0.0797   -1.1322   -0.6173 H   0  0  0  0  0  0  0  0  0  0  0  0
    3.2399   -0.9376    1.1115 H   0  0  0  0  0  0  0  0  0  0  0  0
   -1.0013   -1.6042    1.5358 H   0  0  0  0  0  0  0  0  0  0  0  0
    3.5931   -1.7732    3.4107 H   0  0  0  0  0  0  0  0  0  0  0  0
   -0.6380   -2.4532    3.8177 H   0  0  0  0  0  0  0  0  0  0  0  0
    1.6603   -2.5310    4.7756 H   0  0  0  0  0  0  0  0  0  0  0  0
    1.7200    0.4013   -2.8979 N   0  0  0  0  0  0  0  0  0  0  0  0
    1.6035    0.3803   -4.3645 C   0  0  2  0  0  0  0  0  0  0  0  0
    0.6492   -0.7341   -4.8570 C   0  0  0  0  0  0  0  0  0  0  0  0
    1.0517   -1.6813   -5.5211 O   0  0  0  0  0  0  0  0  0  0  0  0
    3.0204    0.2468   -4.9364 C   0  0  0  0  0  0  0  0  0  0  0  0
    2.4959   -0.0989   -2.4730 H   0  0  0  0  0  0  0  0  0  0  0  0
    1.1929    1.3337   -4.7145 H   0  0  0  0  0  0  0  0  0  0  0  0
    3.4792   -0.6941   -4.6154 H   0  0  0  0  0  0  0  0  0  0  0  0
    2.9897    0.2600   -6.0307 H   0  0  0  0  0  0  0  0  0  0  0  0
    3.6484    1.0771   -4.5995 H   0  0  0  0  0  0  0  0  0  0  0  0
   -0.6851   -0.6745   -4.5078 N   0  0  0  0  0  0  0  0  0  0  0  0
   -1.6620   -1.7006   -4.8447 C   0  0  0  0  0  0  0  0  0  0  0  0
   -0.9578    0.1014   -3.8996 H   0  0  0  0  0  0  0  0  0  0  0  0
   -1.7512   -1.8011   -5.9314 H   0  0  0  0  0  0  0  0  0  0  0  0
   -1.3640   -2.6666   -4.4237 H   0  0  0  0  0  0  0  0  0  0  0  0
   -2.6430   -1.4344   -4.4398 H   0  0  0  0  0  0  0  0  0  0  0  0
  1  2  2  0  0  0  0
  1  3  1  0  0  0  0
  1  7  1  0  0  0  0
  3  4  1  0  0  0  0
  3  5  1  0  0  0  0
  3  6  1  0  0  0  0
  7  8  1  0  0  0  0
  7 12  1  0  0  0  0
  8  9  1  0  0  0  0
  8 11  1  0  0  0  0
  8 13  1  0  0  0  0
  9 10  2  0  0  0  0
  9 17  1  0  0  0  0
 11 14  1  0  0  0  0
 11 15  1  0  0  0  0
 11 16  1  0  0  0  0
 17 18  1  0  0  0  0
 17 28  1  0  0  0  0
 18 19  1  0  0  0  0
 18 21  1  0  0  0  0
 18 29  1  0  0  0  0
 19 20  2  0  0  0  0
 19 37  1  0  0  0  0
 21 22  1  0  0  0  0
 21 30  1  0  0  0  0
 21 31  1  0  0  0  0
 22 23  1  0  0  0  0
 22 24  2  0  0  0  0
 23 25  2  0  0  0  0
 23 32  1  0  0  0  0
 24 26  1  0  0  0  0
 24 33  1  0  0  0  0
 25 27  1  0  0  0  0
 25 34  1  0  0  0  0
 26 27  2  0  0  0  0
 26 35  1  0  0  0  0
 27 36  1  0  0  0  0
 37 38  1  0  0  0  0
 37 42  1  0  0  0  0
 38 39  1  0  0  0  0
 38 41  1  0  0  0  0
 38 43  1  0  0  0  0
 39 40  2  0  0  0  0
 39 47  1  0  0  0  0
 41 44  1  0  0  0  0
 41 45  1  0  0  0  0
 41 46  1  0  0  0  0
 47 48  1  0  0  0  0
 47 49  1  0  0  0  0
 48 50  1  0  0  0  0
 48 51  1  0  0  0  0
 48 52  1  0  0  0  0
M  END
$$$$

  -OEChem-05262217163D

 52 52  0     1  0  0  0  0  0999 V2000
   -2.5727    0.2773    3.7059 C   0  0  0  0  0  0  0  0  0  0  0  0
   -3.1055   -0.4587    2.8890 O   0  0  0  0  0  0  0  0  0  0  0  0
   -2.4102   -0.1797    5.1434 C   0  0  0  0  0  0  0  0  0  0  0  0
   -2.8184   -1.1866    5.2679 H   0  0  0  0  0  0  0  0  0  0  0  0
   -1.3509   -0.1935    5.4123 H   0  0  0  0  0  0  0  0  0  0  0  0
   -2.9405    0.5012    5.8134 H   0  0  0  0  0  0  0  0  0  0  0  0
   -2.0809    1.5083    3.3243 N   0  0  0  0  0  0  0  0  0  0  0  0
   -1.8983    1.8836    1.9151 C   0  0  2  0  0  0  0  0  0  0  0  0
   -0.4736    1.5538    1.4247 C   0  0  0  0  0  0  0  0  0  0  0  0
    0.4648    1.5723    2.2128 O   0  0  0  0  0  0  0  0  0  0  0  0
   -2.1817    3.3822    1.7885 C   0  0  0  0  0  0  0  0  0  0  0  0
   -1.4349    1.9328    3.9858 H   0  0  0  0  0  0  0  0  0  0  0  0
   -2.6085    1.3444    1.2793 H   0  0  0  0  0  0  0  0  0  0  0  0
   -1.4820    3.9591    2.4020 H   0  0  0  0  0  0  0  0  0  0  0  0
   -2.0779    3.7041    0.7477 H   0  0  0  0  0  0  0  0  0  0  0  0
   -3.2015    3.6039    2.1185 H   0  0  0  0  0  0  0  0  0  0  0  0
   -0.2118    1.4081    0.0768 N   0  0  0  0  0  0  0  0  0  0  0  0
    0.9422    0.7017   -0.5134 C   0  0  2  0  0  0  0  0  0  0  0  0
    0.8353    0.7985   -2.0603 C   0  0  0  0  0  0  0  0  0  0  0  0
   -0.0325    1.5013   -2.5733 O   0  0  0  0  0  0  0  0  0  0  0  0
    0.9310   -0.8231   -0.1861 C   0  0  0  0  0  0  0  0  0  0  0  0
    1.1365   -1.2081    1.2582 C   0  0  0  0  0  0  0  0  0  0  0  0
    2.4261   -1.2525    1.8089 C   0  0  0  0  0  0  0  0  0  0  0  0
    0.0496   -1.6331    2.0392 C   0  0  0  0  0  0  0  0  0  0  0  0
    2.6205   -1.6757    3.1287 C   0  0  0  0  0  0  0  0  0  0  0  0
    0.2434   -2.0644    3.3548 C   0  0  0  0  0  0  0  0  0  0  0  0
    1.5289   -2.0807    3.9029 C   0  0  0  0  0  0  0  0  0  0  0  0
   -0.9987    1.5615   -0.5523 H   0  0  0  0  0  0  0  0  0  0  0  0
    1.8787    1.1597   -0.1789 H   0  0  0  0  0  0  0  0  0  0  0  0
    1.7227   -1.3260   -0.7478 H   0  0  0  0  0  0  0  0  0  0  0  0
   -0.0197   -1.2437   -0.5324 H   0  0  0  0  0  0  0  0  0  0  0  0
    3.2832   -0.9472    1.2175 H   0  0  0  0  0  0  0  0  0  0  0  0
   -0.9559   -1.6324    1.6276 H   0  0  0  0  0  0  0  0  0  0  0  0
    3.6207   -1.6907    3.5508 H   0  0  0  0  0  0  0  0  0  0  0  0
   -0.6087   -2.3899    3.9438 H   0  0  0  0  0  0  0  0  0  0  0  0
    1.6799   -2.4118    4.9258 H   0  0  0  0  0  0  0  0  0  0  0  0
    1.5838   -0.0033   -2.9075 N   0  0  0  0  0  0  0  0  0  0  0  0
    1.4295   -0.0411   -4.3709 C   0  0  2  0  0  0  0  0  0  0  0  0
    0.2141   -0.8938   -4.8090 C   0  0  0  0  0  0  0  0  0  0  0  0
    0.3466   -1.9117   -5.4770 O   0  0  0  0  0  0  0  0  0  0  0  0
    2.7544   -0.5429   -4.9589 C   0  0  0  0  0  0  0  0  0  0  0  0
    2.2230   -0.6665   -2.4786 H   0  0  0  0  0  0  0  0  0  0  0  0
    1.2632    0.9736   -4.7485 H   0  0  0  0  0  0  0  0  0  0  0  0
    2.9655   -1.5630   -4.6216 H   0  0  0  0  0  0  0  0  0  0  0  0
    2.7065   -0.5439   -6.0528 H   0  0  0  0  0  0  0  0  0  0  0  0
    3.5795    0.1068   -4.6513 H   0  0  0  0  0  0  0  0  0  0  0  0
   -1.0504   -0.5103   -4.4092 N   0  0  0  0  0  0  0  0  0  0  0  0
   -2.2623   -1.2652   -4.6955 C   0  0  0  0  0  0  0  0  0  0  0  0
   -1.1019    0.3202   -3.8144 H   0  0  0  0  0  0  0  0  0  0  0  0
   -2.4104   -1.3560   -5.7765 H   0  0  0  0  0  0  0  0  0  0  0  0
   -2.2003   -2.2685   -4.2614 H   0  0  0  0  0  0  0  0  0  0  0  0
   -3.1325   -0.7568   -4.2694 H   0  0  0  0  0  0  0  0  0  0  0  0
  1  2  2  0  0  0  0
  1  3  1  0  0  0  0
  1  7  1  0  0  0  0
  3  4  1  0  0  0  0
  3  5  1  0  0  0  0
  3  6  1  0  0  0  0
  7  8  1  0  0  0  0
  7 12  1  0  0  0  0
  8  9  1  0  0  0  0
  8 11  1  0  0  0  0
  8 13  1  0  0  0  0
  9 10  2  0  0  0  0
  9 17  1  0  0  0  0
 11 14  1  0  0  0  0
 11 15  1  0  0  0  0
 11 16  1  0  0  0  0
 17 18  1  0  0  0  0
 17 28  1  0  0  0  0
 18 19  1  0  0  0  0
 18 21  1  0  0  0  0
 18 29  1  0  0  0  0
 19 20  2  0  0  0  0
 19 37  1  0  0  0  0
 21 22  1  0  0  0  0
 21 30  1  0  0  0  0
 21 31  1  0  0  0  0
 22 23  1  0  0  0  0
 22 24  2  0  0  0  0
 23 25  2  0  0  0  0
 23 32  1  0  0  0  0
 24 26  1  0  0  0  0
 24 33  1  0  0  0  0
 25 27  1  0  0  0  0
 25 34  1  0  0  0  0
 26 27  2  0  0  0  0
 26 35  1  0  0  0  0
 27 36  1  0  0  0  0
 37 38  1  0  0  0  0
 37 42  1  0  0  0  0
 38 39  1  0  0  0  0
 38 41  1  0  0  0  0
 38 43  1  0  0  0  0
 39 40  2  0  0  0  0
 39 47  1  0  0  0  0
 41 44  1  0  0  0  0
 41 45  1  0  0  0  0
 41 46  1  0  0  0  0
 47 48  1  0  0  0  0
 47 49  1  0  0  0  0
 48 50  1  0  0  0  0
 48 51  1  0  0  0  0
 48 52  1  0  0  0  0
M  END
$$$$

  -OEChem-05262217163D

 52 52  0     1  0  0  0  0  0999 V2000
   -2.5987    0.3060    3.6774 C   0  0  0  0  0  0  0  0  0  0  0  0
   -3.0931   -0.4757    2.8790 O   0  0  0  0  0  0  0  0  0  0  0  0
   -2.4717   -0.0811    5.1386 C   0  0  0  0  0  0  0  0  0  0  0  0
   -2.8529   -1.0940    5.2953 H   0  0  0  0  0  0  0  0  0  0  0  0
   -1.4223   -0.0479    5.4427 H   0  0  0  0  0  0  0  0  0  0  0  0
   -3.0458    0.6116    5.7587 H   0  0  0  0  0  0  0  0  0  0  0  0
   -2.1205    1.5289    3.2555 N   0  0  0  0  0  0  0  0  0  0  0  0
   -1.9128    1.8476    1.8360 C   0  0  2  0  0  0  0  0  0  0  0  0
   -0.4837    1.4921    1.3778 C   0  0  0  0  0  0  0  0  0  0  0  0
    0.4433    1.5422    2.1774 O   0  0  0  0  0  0  0  0  0  0  0  0
   -2.1827    3.3420    1.6480 C   0  0  0  0  0  0  0  0  0  0  0  0
   -1.5026    1.9963    3.9146 H   0  0  0  0  0  0  0  0  0  0  0  0
   -2.6185    1.2886    1.2124 H   0  0  0  0  0  0  0  0  0  0  0  0
   -1.4802    3.9369    2.2410 H   0  0  0  0  0  0  0  0  0  0  0  0
   -2.0707    3.6203    0.5954 H   0  0  0  0  0  0  0  0  0  0  0  0
   -3.2018    3.5856    1.9642 H   0  0  0  0  0  0  0  0  0  0  0  0
   -0.2052    1.2985    0.0388 N   0  0  0  0  0  0  0  0  0  0  0  0
    0.9601    0.5814   -0.5178 C   0  0  2  0  0  0  0  0  0  0  0  0
    0.8528    0.6305   -2.0700 C   0  0  0  0  0  0  0  0  0  0  0  0
    0.1745    1.5051   -2.6030 O   0  0  0  0  0  0  0  0  0  0  0  0
    0.9780   -0.9268   -0.1173 C   0  0  0  0  0  0  0  0  0  0  0  0
    1.1924   -1.2401    1.3432 C   0  0  0  0  0  0  0  0  0  0  0  0
    2.4829   -1.2352    1.8939 C   0  0  0  0  0  0  0  0  0  0  0  0
    0.1125   -1.6398    2.1474 C   0  0  0  0  0  0  0  0  0  0  0  0
    2.6845   -1.5854    3.2338 C   0  0  0  0  0  0  0  0  0  0  0  0
    0.3135   -1.9954    3.4844 C   0  0  0  0  0  0  0  0  0  0  0  0
    1.5995   -1.9634    4.0307 C   0  0  0  0  0  0  0  0  0  0  0  0
   -0.9775    1.4550   -0.6063 H   0  0  0  0  0  0  0  0  0  0  0  0
    1.8888    1.0673   -0.2017 H   0  0  0  0  0  0  0  0  0  0  0  0
    1.7862   -1.4352   -0.6505 H   0  0  0  0  0  0  0  0  0  0  0  0
    0.0378   -1.3844   -0.4440 H   0  0  0  0  0  0  0  0  0  0  0  0
    3.3349   -0.9475    1.2865 H   0  0  0  0  0  0  0  0  0  0  0  0
   -0.8936   -1.6750    1.7390 H   0  0  0  0  0  0  0  0  0  0  0  0
    3.6849   -1.5634    3.6549 H   0  0  0  0  0  0  0  0  0  0  0  0
   -0.5334   -2.2986    4.0924 H   0  0  0  0  0  0  0  0  0  0  0  0
    1.7563   -2.2359    5.0700 H   0  0  0  0  0  0  0  0  0  0  0  0
    1.3552   -0.3610   -2.8996 N   0  0  0  0  0  0  0  0  0  0  0  0
    1.1575   -0.4096   -4.3577 C   0  0  2  0  0  0  0  0  0  0  0  0
   -0.2444   -0.9411   -4.7413 C   0  0  0  0  0  0  0  0  0  0  0  0
   -0.3934   -2.0007   -5.3371 O   0  0  0  0  0  0  0  0  0  0  0  0
    2.2957   -1.2508   -4.9493 C   0  0  0  0  0  0  0  0  0  0  0  0
    1.8127   -1.1523   -2.4565 H   0  0  0  0  0  0  0  0  0  0  0  0
    1.2424    0.6001   -4.7739 H   0  0  0  0  0  0  0  0  0  0  0  0
    2.2614   -2.2749   -4.5636 H   0  0  0  0  0  0  0  0  0  0  0  0
    2.2091   -1.2904   -6.0401 H   0  0  0  0  0  0  0  0  0  0  0  0
    3.2659   -0.8123   -4.6965 H   0  0  0  0  0  0  0  0  0  0  0  0
   -1.3573   -0.2086   -4.3808 N   0  0  0  0  0  0  0  0  0  0  0  0
   -2.7283   -0.6275   -4.6368 C   0  0  0  0  0  0  0  0  0  0  0  0
   -1.1803    0.6386   -3.8359 H   0  0  0  0  0  0  0  0  0  0  0  0
   -2.9044   -0.7221   -5.7134 H   0  0  0  0  0  0  0  0  0  0  0  0
   -2.9298   -1.5926   -4.1602 H   0  0  0  0  0  0  0  0  0  0  0  0
   -3.4292    0.1105   -4.2351 H   0  0  0  0  0  0  0  0  0  0  0  0
  1  2  2  0  0  0  0
  1  3  1  0  0  0  0
  1  7  1  0  0  0  0
  3  4  1  0  0  0  0
  3  5  1  0  0  0  0
  3  6  1  0  0  0  0
  7  8  1  0  0  0  0
  7 12  1  0  0  0  0
  8  9  1  0  0  0  0
  8 11  1  0  0  0  0
  8 13  1  0  0  0  0
  9 10  2  0  0  0  0
  9 17  1  0  0  0  0
 11 14  1  0  0  0  0
 11 15  1  0  0  0  0
 11 16  1  0  0  0  0
 17 18  1  0  0  0  0
 17 28  1  0  0  0  0
 18 19  1  0  0  0  0
 18 21  1  0  0  0  0
 18 29  1  0  0  0  0
 19 20  2  0  0  0  0
 19 37  1  0  0  0  0
 21 22  1  0  0  0  0
 21 30  1  0  0  0  0
 21 31  1  0  0  0  0
 22 23  1  0  0  0  0
 22 24  2  0  0  0  0
 23 25  2  0  0  0  0
 23 32  1  0  0  0  0
 24 26  1  0  0  0  0
 24 33  1  0  0  0  0
 25 27  1  0  0  0  0
 25 34  1  0  0  0  0
 26 27  2  0  0  0  0
 26 35  1  0  0  0  0
 27 36  1  0  0  0  0
 37 38  1  0  0  0  0
 37 42  1  0  0  0  0
 38 39  1  0  0  0  0
 38 41  1  0  0  0  0
 38 43  1  0  0  0  0
 39 40  2  0  0  0  0
 39 47  1  0  0  0  0
 41 44  1  0  0  0  0
 41 45  1  0  0  0  0
 41 46  1  0  0  0  0
 47 48  1  0  0  0  0
 47 49  1  0  0  0  0
 48 50  1  0  0  0  0
 48 51  1  0  0  0  0
 48 52  1  0  0  0  0
M  END
$$$$

  -OEChem-05262217163D

 52 52  0     1  0  0  0  0  0999 V2000
   -2.6356    0.2977    3.5877 C   0  0  0  0  0  0  0  0  0  0  0  0
   -3.0882   -0.4819    2.7631 O   0  0  0  0  0  0  0  0  0  0  0  0
   -2.5504   -0.1074    5.0470 C   0  0  0  0  0  0  0  0  0  0  0  0
   -2.9119   -1.1314    5.1763 H   0  0  0  0  0  0  0  0  0  0  0  0
   -1.5139   -0.0535    5.3891 H   0  0  0  0  0  0  0  0  0  0  0  0
   -3.1632    0.5622    5.6554 H   0  0  0  0  0  0  0  0  0  0  0  0
   -2.1673    1.5339    3.1948 N   0  0  0  0  0  0  0  0  0  0  0  0
   -1.9336    1.8719    1.7844 C   0  0  2  0  0  0  0  0  0  0  0  0
   -0.5113    1.4781    1.3366 C   0  0  0  0  0  0  0  0  0  0  0  0
    0.4196    1.5635    2.1280 O   0  0  0  0  0  0  0  0  0  0  0  0
   -2.1533    3.3773    1.6201 C   0  0  0  0  0  0  0  0  0  0  0  0
   -1.5768    2.0064    3.8749 H   0  0  0  0  0  0  0  0  0  0  0  0
   -2.6514    1.3480    1.1444 H   0  0  0  0  0  0  0  0  0  0  0  0
   -1.4416    3.9384    2.2345 H   0  0  0  0  0  0  0  0  0  0  0  0
   -2.0163    3.6713    0.5747 H   0  0  0  0  0  0  0  0  0  0  0  0
   -3.1689    3.6480    1.9253 H   0  0  0  0  0  0  0  0  0  0  0  0
   -0.2453    1.2174    0.0063 N   0  0  0  0  0  0  0  0  0  0  0  0
    0.9175    0.4789   -0.5269 C   0  0  2  0  0  0  0  0  0  0  0  0
    0.7855    0.4530   -2.0760 C   0  0  0  0  0  0  0  0  0  0  0  0
    0.3505    1.4434   -2.6553 O   0  0  0  0  0  0  0  0  0  0  0  0
    0.9884   -1.0011   -0.0404 C   0  0  0  0  0  0  0  0  0  0  0  0
    1.2500   -1.2261    1.4282 C   0  0  0  0  0  0  0  0  0  0  0  0
    2.5554   -1.1557    1.9375 C   0  0  0  0  0  0  0  0  0  0  0  0
    0.2069   -1.6164    2.2838 C   0  0  0  0  0  0  0  0  0  0  0  0
    2.8079   -1.4324    3.2857 C   0  0  0  0  0  0  0  0  0  0  0  0
    0.4592   -1.9009    3.6294 C   0  0  0  0  0  0  0  0  0  0  0  0
    1.7596   -1.8043    4.1327 C   0  0  0  0  0  0  0  0  0  0  0  0
   -1.0281    1.3371   -0.6324 H   0  0  0  0  0  0  0  0  0  0  0  0
    1.8424    0.9993   -0.2580 H   0  0  0  0  0  0  0  0  0  0  0  0
    1.7984   -1.5122   -0.5698 H   0  0  0  0  0  0  0  0  0  0  0  0
    0.0527   -1.5029   -0.3111 H   0  0  0  0  0  0  0  0  0  0  0  0
    3.3798   -0.8754    1.2897 H   0  0  0  0  0  0  0  0  0  0  0  0
   -0.8083   -1.7020    1.9065 H   0  0  0  0  0  0  0  0  0  0  0  0
    3.8192   -1.3590    3.6740 H   0  0  0  0  0  0  0  0  0  0  0  0
   -0.3571   -2.2013    4.2786 H   0  0  0  0  0  0  0  0  0  0  0  0
    1.9563   -2.0212    5.1781 H   0  0  0  0  0  0  0  0  0  0  0  0
    0.9964   -0.6801   -2.8476 N   0  0  0  0  0  0  0  0  0  0  0  0
    0.7902   -0.7508   -4.3031 C   0  0  2  0  0  0  0  0  0  0  0  0
   -0.7044   -0.8927   -4.6800 C   0  0  0  0  0  0  0  0  0  0  0  0
   -1.1440   -1.9074   -5.2067 O   0  0  0  0  0  0  0  0  0  0  0  0
    1.6496   -1.9059   -4.8318 C   0  0  0  0  0  0  0  0  0  0  0  0
    1.2196   -1.5419   -2.3583 H   0  0  0  0  0  0  0  0  0  0  0  0
    1.1525    0.1715   -4.7698 H   0  0  0  0  0  0  0  0  0  0  0  0
    1.3288   -2.8575   -4.3960 H   0  0  0  0  0  0  0  0  0  0  0  0
    1.5589   -1.9776   -5.9205 H   0  0  0  0  0  0  0  0  0  0  0  0
    2.7026   -1.7430   -4.5833 H   0  0  0  0  0  0  0  0  0  0  0  0
   -1.5679    0.1462   -4.3958 N   0  0  0  0  0  0  0  0  0  0  0  0
   -3.0014    0.1079   -4.6502 C   0  0  0  0  0  0  0  0  0  0  0  0
   -1.1642    0.9411   -3.8939 H   0  0  0  0  0  0  0  0  0  0  0  0
   -3.1963   -0.0293   -5.7189 H   0  0  0  0  0  0  0  0  0  0  0  0
   -3.4666   -0.7152   -4.0979 H   0  0  0  0  0  0  0  0  0  0  0  0
   -3.4664    1.0459   -4.3318 H   0  0  0  0  0  0  0  0  0  0  0  0
  1  2  2  0  0  0  0
  1  3  1  0  0  0  0
  1  7  1  0  0  0  0
  3  4  1  0  0  0  0
  3  5  1  0  0  0  0
  3  6  1  0  0  0  0
  7  8  1  0  0  0  0
  7 12  1  0  0  0  0
  8  9  1  0  0  0  0
  8 11  1  0  0  0  0
  8 13  1  0  0  0  0
  9 10  2  0  0  0  0
  9 17  1  0  0  0  0
 11 14  1  0  0  0  0
 11 15  1  0  0  0  0
 11 16  1  0  0  0  0
 17 18  1  0  0  0  0
 17 28  1  0  0  0  0
 18 19  1  0  0  0  0
 18 21  1  0  0  0  0
 18 29  1  0  0  0  0
 19 20  2  0  0  0  0
 19 37  1  0  0  0  0
 21 22  1  0  0  0  0
 21 30  1  0  0  0  0
 21 31  1  0  0  0  0
 22 23  1  0  0  0  0
 22 24  2  0  0  0  0
 23 25  2  0  0  0  0
 23 32  1  0  0  0  0
 24 26  1  0  0  0  0
 24 33  1  0  0  0  0
 25 27  1  0  0  0  0
 25 34  1  0  0  0  0
 26 27  2  0  0  0  0
 26 35  1  0  0  0  0
 27 36  1  0  0  0  0
 37 38  1  0  0  0  0
 37 42  1  0  0  0  0
 38 39  1  0  0  0  0
 38 41  1  0  0  0  0
 38 43  1  0  0  0  0
 39 40  2  0  0  0  0
 39 47  1  0  0  0  0
 41 44  1  0  0  0  0
 41 45  1  0  0  0  0
 41 46  1  0  0  0  0
 47 48  1  0  0  0  0
 47 49  1  0  0  0  0
 48 50  1  0  0  0  0
 48 51  1  0  0  0  0
 48 52  1  0  0  0  0
M  END
$$$$

  -OEChem-05262217163D

 52 52  0     1  0  0  0  0  0999 V2000
   -2.4848    0.3831    3.8789 C   0  0  0  0  0  0  0  0  0  0  0  0
   -3.0061   -0.4962    3.2101 O   0  0  0  0  0  0  0  0  0  0  0  0
   -2.2637    0.1711    5.3646 C   0  0  0  0  0  0  0  0  0  0  0  0
   -2.6408   -0.8100    5.6661 H   0  0  0  0  0  0  0  0  0  0  0  0
   -1.1961    0.2236    5.5930 H   0  0  0  0  0  0  0  0  0  0  0  0
   -2.7897    0.9410    5.9340 H   0  0  0  0  0  0  0  0  0  0  0  0
   -2.0586    1.5558    3.2913 N   0  0  0  0  0  0  0  0  0  0  0  0
   -1.9087    1.7028    1.8364 C   0  0  2  0  0  0  0  0  0  0  0  0
   -0.4625    1.4084    1.3866 C   0  0  0  0  0  0  0  0  0  0  0  0
    0.4615    1.5296    2.1827 O   0  0  0  0  0  0  0  0  0  0  0  0
   -2.3090    3.1328    1.4682 C   0  0  0  0  0  0  0  0  0  0  0  0
   -1.4151    2.1026    3.8587 H   0  0  0  0  0  0  0  0  0  0  0  0
   -2.5742    1.0113    1.3088 H   0  0  0  0  0  0  0  0  0  0  0  0
   -1.6465    3.8548    1.9564 H   0  0  0  0  0  0  0  0  0  0  0  0
   -2.2468    3.2812    0.3858 H   0  0  0  0  0  0  0  0  0  0  0  0
   -3.3374    3.3311    1.7856 H   0  0  0  0  0  0  0  0  0  0  0  0
   -0.1718    1.1782    0.0562 N   0  0  0  0  0  0  0  0  0  0  0  0
    0.9902    0.4171   -0.4445 C   0  0  2  0  0  0  0  0  0  0  0  0
    0.9236    0.4221   -1.9946 C   0  0  0  0  0  0  0  0  0  0  0  0
    0.8284    1.4951   -2.5787 O   0  0  0  0  0  0  0  0  0  0  0  0
    1.0134   -1.0682    0.0274 C   0  0  0  0  0  0  0  0  0  0  0  0
    1.2228   -1.3066    1.5027 C   0  0  0  0  0  0  0  0  0  0  0  0
    2.5132   -1.2657    2.0512 C   0  0  0  0  0  0  0  0  0  0  0  0
    0.1453   -1.6694    2.3277 C   0  0  0  0  0  0  0  0  0  0  0  0
    2.7181   -1.5414    3.4077 C   0  0  0  0  0  0  0  0  0  0  0  0
    0.3495   -1.9507    3.6819 C   0  0  0  0  0  0  0  0  0  0  0  0
    1.6356   -1.8815    4.2249 C   0  0  0  0  0  0  0  0  0  0  0  0
   -0.9638    1.2445   -0.5790 H   0  0  0  0  0  0  0  0  0  0  0  0
    1.9159    0.9126   -0.1335 H   0  0  0  0  0  0  0  0  0  0  0  0
    1.8219   -1.5917   -0.4934 H   0  0  0  0  0  0  0  0  0  0  0  0
    0.0720   -1.5442   -0.2681 H   0  0  0  0  0  0  0  0  0  0  0  0
    3.3622   -1.0053    1.4273 H   0  0  0  0  0  0  0  0  0  0  0  0
   -0.8614   -1.7323    1.9235 H   0  0  0  0  0  0  0  0  0  0  0  0
    3.7192   -1.4903    3.8246 H   0  0  0  0  0  0  0  0  0  0  0  0
   -0.4962   -2.2239    4.3057 H   0  0  0  0  0  0  0  0  0  0  0  0
    1.7948   -2.0940    5.2777 H   0  0  0  0  0  0  0  0  0  0  0  0
    0.8339   -0.7300   -2.7610 N   0  0  0  0  0  0  0  0  0  0  0  0
    0.3776   -0.6942   -4.1569 C   0  0  2  0  0  0  0  0  0  0  0  0
   -1.1537   -0.5216   -4.2424 C   0  0  0  0  0  0  0  0  0  0  0  0
   -1.8831   -1.1568   -3.4887 O   0  0  0  0  0  0  0  0  0  0  0  0
    0.8117   -1.9959   -4.8337 C   0  0  0  0  0  0  0  0  0  0  0  0
    0.6386   -1.5827   -2.2433 H   0  0  0  0  0  0  0  0  0  0  0  0
    0.8531    0.1400   -4.6840 H   0  0  0  0  0  0  0  0  0  0  0  0
    0.3506   -2.8583   -4.3412 H   0  0  0  0  0  0  0  0  0  0  0  0
    0.5104   -1.9958   -5.8858 H   0  0  0  0  0  0  0  0  0  0  0  0
    1.8995   -2.1049   -4.7850 H   0  0  0  0  0  0  0  0  0  0  0  0
   -1.7127    0.3440   -5.1636 N   0  0  0  0  0  0  0  0  0  0  0  0
   -3.1425    0.6207   -5.2233 C   0  0  0  0  0  0  0  0  0  0  0  0
   -1.0763    0.9630   -5.6579 H   0  0  0  0  0  0  0  0  0  0  0  0
   -3.7034   -0.2995   -5.4183 H   0  0  0  0  0  0  0  0  0  0  0  0
   -3.4893    1.0513   -4.2781 H   0  0  0  0  0  0  0  0  0  0  0  0
   -3.3572    1.3312   -6.0274 H   0  0  0  0  0  0  0  0  0  0  0  0
  1  2  2  0  0  0  0
  1  3  1  0  0  0  0
  1  7  1  0  0  0  0
  3  4  1  0  0  0  0
  3  5  1  0  0  0  0
  3  6  1  0  0  0  0
  7  8  1  0  0  0  0
  7 12  1  0  0  0  0
  8  9  1  0  0  0  0
  8 11  1  0  0  0  0
  8 13  1  0  0  0  0
  9 10  2  0  0  0  0
  9 17  1  0  0  0  0
 11 14  1  0  0  0  0
 11 15  1  0  0  0  0
 11 16  1  0  0  0  0
 17 18  1  0  0  0  0
 17 28  1  0  0  0  0
 18 19  1  0  0  0  0
 18 21  1  0  0  0  0
 18 29  1  0  0  0  0
 19 20  2  0  0  0  0
 19 37  1  0  0  0  0
 21 22  1  0  0  0  0
 21 30  1  0  0  0  0
 21 31  1  0  0  0  0
 22 23  1  0  0  0  0
 22 24  2  0  0  0  0
 23 25  2  0  0  0  0
 23 32  1  0  0  0  0
 24 26  1  0  0  0  0
 24 33  1  0  0  0  0
 25 27  1  0  0  0  0
 25 34  1  0  0  0  0
 26 27  2  0  0  0  0
 26 35  1  0  0  0  0
 27 36  1  0  0  0  0
 37 38  1  0  0  0  0
 37 42  1  0  0  0  0
 38 39  1  0  0  0  0
 38 41  1  0  0  0  0
 38 43  1  0  0  0  0
 39 40  2  0  0  0  0
 39 47  1  0  0  0  0
 41 44  1  0  0  0  0
 41 45  1  0  0  0  0
 41 46  1  0  0  0  0
 47 48  1  0  0  0  0
 47 49  1  0  0  0  0
 48 50  1  0  0  0  0
 48 51  1  0  0  0  0
 48 52  1  0  0  0  0
M  END
$$$$

  -OEChem-05262217163D

 52 52  0     1  0  0  0  0  0999 V2000
   -2.5414    0.4368    3.6093 C   0  0  0  0  0  0  0  0  0  0  0  0
   -3.0547   -0.4824    2.9896 O   0  0  0  0  0  0  0  0  0  0  0  0
   -2.3613    0.3250    5.1114 C   0  0  0  0  0  0  0  0  0  0  0  0
   -2.7897   -0.6133    5.4742 H   0  0  0  0  0  0  0  0  0  0  0  0
   -1.2970    0.3464    5.3598 H   0  0  0  0  0  0  0  0  0  0  0  0
   -2.8618    1.1579    5.6109 H   0  0  0  0  0  0  0  0  0  0  0  0
   -2.0794    1.5608    2.9574 N   0  0  0  0  0  0  0  0  0  0  0  0
   -1.8458    1.5982    1.5058 C   0  0  2  0  0  0  0  0  0  0  0  0
   -0.3559    1.3722    1.1736 C   0  0  0  0  0  0  0  0  0  0  0  0
    0.4991    1.5371    2.0375 O   0  0  0  0  0  0  0  0  0  0  0  0
   -2.3144    2.9597    0.9889 C   0  0  0  0  0  0  0  0  0  0  0  0
   -1.4537    2.1392    3.5137 H   0  0  0  0  0  0  0  0  0  0  0  0
   -2.4238    0.8188    0.9974 H   0  0  0  0  0  0  0  0  0  0  0  0
   -1.7405    3.7659    1.4568 H   0  0  0  0  0  0  0  0  0  0  0  0
   -2.1823    3.0231   -0.0958 H   0  0  0  0  0  0  0  0  0  0  0  0
   -3.3747    3.1060    1.2169 H   0  0  0  0  0  0  0  0  0  0  0  0
    0.0426    1.1172   -0.1221 N   0  0  0  0  0  0  0  0  0  0  0  0
    1.2319    0.3287   -0.4955 C   0  0  2  0  0  0  0  0  0  0  0  0
    1.2749    0.3256   -2.0415 C   0  0  0  0  0  0  0  0  0  0  0  0
    1.4456    1.3785   -2.6442 O   0  0  0  0  0  0  0  0  0  0  0  0
    1.1984   -1.1460    0.0033 C   0  0  0  0  0  0  0  0  0  0  0  0
    1.2726   -1.3527    1.4963 C   0  0  0  0  0  0  0  0  0  0  0  0
    2.5077   -1.3100    2.1593 C   0  0  0  0  0  0  0  0  0  0  0  0
    0.1195   -1.6833    2.2276 C   0  0  0  0  0  0  0  0  0  0  0  0
    2.5851   -1.5592    3.5343 C   0  0  0  0  0  0  0  0  0  0  0  0
    0.1966   -1.9395    3.5996 C   0  0  0  0  0  0  0  0  0  0  0  0
    1.4289   -1.8734    4.2554 C   0  0  0  0  0  0  0  0  0  0  0  0
   -0.7251    1.0724   -0.7966 H   0  0  0  0  0  0  0  0  0  0  0  0
    2.1357    0.8200   -0.1203 H   0  0  0  0  0  0  0  0  0  0  0  0
    2.0386   -1.6866   -0.4449 H   0  0  0  0  0  0  0  0  0  0  0  0
    0.2766   -1.6174   -0.3537 H   0  0  0  0  0  0  0  0  0  0  0  0
    3.4120   -1.0697    1.6097 H   0  0  0  0  0  0  0  0  0  0  0  0
   -0.8488   -1.7394    1.7372 H   0  0  0  0  0  0  0  0  0  0  0  0
    3.5439   -1.5070    4.0413 H   0  0  0  0  0  0  0  0  0  0  0  0
   -0.7057   -2.1892    4.1496 H   0  0  0  0  0  0  0  0  0  0  0  0
    1.4881   -2.0671    5.3219 H   0  0  0  0  0  0  0  0  0  0  0  0
    0.9125   -0.7903   -2.7791 N   0  0  0  0  0  0  0  0  0  0  0  0
    0.0893   -0.5884   -3.9803 C   0  0  2  0  0  0  0  0  0  0  0  0
   -1.3027    0.0081   -3.6395 C   0  0  0  0  0  0  0  0  0  0  0  0
   -1.7157    0.0231   -2.4802 O   0  0  0  0  0  0  0  0  0  0  0  0
   -0.0602   -1.9443   -4.6732 C   0  0  0  0  0  0  0  0  0  0  0  0
    0.6448   -1.5823   -2.2031 H   0  0  0  0  0  0  0  0  0  0  0  0
    0.5987    0.0996   -4.6642 H   0  0  0  0  0  0  0  0  0  0  0  0
   -0.5849   -2.6524   -4.0235 H   0  0  0  0  0  0  0  0  0  0  0  0
   -0.6280   -1.8390   -5.6027 H   0  0  0  0  0  0  0  0  0  0  0  0
    0.9246   -2.3560   -4.9162 H   0  0  0  0  0  0  0  0  0  0  0  0
   -2.0957    0.5416   -4.6387 N   0  0  0  0  0  0  0  0  0  0  0  0
   -3.3741    1.1940   -4.3808 C   0  0  0  0  0  0  0  0  0  0  0  0
   -1.6943    0.6052   -5.5697 H   0  0  0  0  0  0  0  0  0  0  0  0
   -4.0492    0.5180   -3.8453 H   0  0  0  0  0  0  0  0  0  0  0  0
   -3.2285    2.0974   -3.7791 H   0  0  0  0  0  0  0  0  0  0  0  0
   -3.8506    1.4788   -5.3239 H   0  0  0  0  0  0  0  0  0  0  0  0
  1  2  2  0  0  0  0
  1  3  1  0  0  0  0
  1  7  1  0  0  0  0
  3  4  1  0  0  0  0
  3  5  1  0  0  0  0
  3  6  1  0  0  0  0
  7  8  1  0  0  0  0
  7 12  1  0  0  0  0
  8  9  1  0  0  0  0
  8 11  1  0  0  0  0
  8 13  1  0  0  0  0
  9 10  2  0  0  0  0
  9 17  1  0  0  0  0
 11 14  1  0  0  0  0
 11 15  1  0  0  0  0
 11 16  1  0  0  0  0
 17 18  1  0  0  0  0
 17 28  1  0  0  0  0
 18 19  1  0  0  0  0
 18 21  1  0  0  0  0
 18 29  1  0  0  0  0
 19 20  2  0  0  0  0
 19 37  1  0  0  0  0
 21 22  1  0  0  0  0
 21 30  1  0  0  0  0
 21 31  1  0  0  0  0
 22 23  1  0  0  0  0
 22 24  2  0  0  0  0
 23 25  2  0  0  0  0
 23 32  1  0  0  0  0
 24 26  1  0  0  0  0
 24 33  1  0  0  0  0
 25 27  1  0  0  0  0
 25 34  1  0  0  0  0
 26 27  2  0  0  0  0
 26 35  1  0  0  0  0
 27 36  1  0  0  0  0
 37 38  1  0  0  0  0
 37 42  1  0  0  0  0
 38 39  1  0  0  0  0
 38 41  1  0  0  0  0
 38 43  1  0  0  0  0
 39 40  2  0  0  0  0
 39 47  1  0  0  0  0
 41 44  1  0  0  0  0
 41 45  1  0  0  0  0
 41 46  1  0  0  0  0
 47 48  1  0  0  0  0
 47 49  1  0  0  0  0
 48 50  1  0  0  0  0
 48 51  1  0  0  0  0
 48 52  1  0  0  0  0
M  END
$$$$

  -OEChem-05262217163D

 52 52  0     1  0  0  0  0  0999 V2000
   -2.5456    0.4844    3.5473 C   0  0  0  0  0  0  0  0  0  0  0  0
   -3.0229   -0.4617    2.9391 O   0  0  0  0  0  0  0  0  0  0  0  0
   -2.4124    0.4193    5.0571 C   0  0  0  0  0  0  0  0  0  0  0  0
   -2.8511   -0.5083    5.4354 H   0  0  0  0  0  0  0  0  0  0  0  0
   -1.3565    0.4516    5.3379 H   0  0  0  0  0  0  0  0  0  0  0  0
   -2.9301    1.2659    5.5143 H   0  0  0  0  0  0  0  0  0  0  0  0
   -2.0916    1.6010    2.8772 N   0  0  0  0  0  0  0  0  0  0  0  0
   -1.8529    1.6129    1.4264 C   0  0  2  0  0  0  0  0  0  0  0  0
   -0.3710    1.3360    1.0985 C   0  0  0  0  0  0  0  0  0  0  0  0
    0.4951    1.5280    1.9450 O   0  0  0  0  0  0  0  0  0  0  0  0
   -2.2786    2.9808    0.8897 C   0  0  0  0  0  0  0  0  0  0  0  0
   -1.4839    2.2037    3.4270 H   0  0  0  0  0  0  0  0  0  0  0  0
   -2.4562    0.8464    0.9274 H   0  0  0  0  0  0  0  0  0  0  0  0
   -1.6708    3.7746    1.3357 H   0  0  0  0  0  0  0  0  0  0  0  0
   -2.1571    3.0180   -0.1977 H   0  0  0  0  0  0  0  0  0  0  0  0
   -3.3303    3.1693    1.1262 H   0  0  0  0  0  0  0  0  0  0  0  0
    0.0028    0.9937   -0.1840 N   0  0  0  0  0  0  0  0  0  0  0  0
    1.1808    0.1801   -0.5406 C   0  0  2  0  0  0  0  0  0  0  0  0
    1.1778    0.0832   -2.0810 C   0  0  0  0  0  0  0  0  0  0  0  0
    1.5647    1.0334   -2.7494 O   0  0  0  0  0  0  0  0  0  0  0  0
    1.1756   -1.2629    0.0409 C   0  0  0  0  0  0  0  0  0  0  0  0
    1.2988   -1.3774    1.5407 C   0  0  0  0  0  0  0  0  0  0  0  0
    2.5542   -1.2855    2.1594 C   0  0  0  0  0  0  0  0  0  0  0  0
    0.1723   -1.6658    2.3288 C   0  0  0  0  0  0  0  0  0  0  0  0
    2.6774   -1.4468    3.5442 C   0  0  0  0  0  0  0  0  0  0  0  0
    0.2948   -1.8337    3.7114 C   0  0  0  0  0  0  0  0  0  0  0  0
    1.5474   -1.7201    4.3213 C   0  0  0  0  0  0  0  0  0  0  0  0
   -0.7754    0.9469   -0.8495 H   0  0  0  0  0  0  0  0  0  0  0  0
    2.0937    0.6956   -0.2233 H   0  0  0  0  0  0  0  0  0  0  0  0
    2.0036   -1.8226   -0.4072 H   0  0  0  0  0  0  0  0  0  0  0  0
    0.2480   -1.7631   -0.2537 H   0  0  0  0  0  0  0  0  0  0  0  0
    3.4389   -1.0760    1.5665 H   0  0  0  0  0  0  0  0  0  0  0  0
   -0.8098   -1.7577    1.8737 H   0  0  0  0  0  0  0  0  0  0  0  0
    3.6519   -1.3582    4.0147 H   0  0  0  0  0  0  0  0  0  0  0  0
   -0.5873   -2.0534    4.3055 H   0  0  0  0  0  0  0  0  0  0  0  0
    1.6431   -1.8459    5.3956 H   0  0  0  0  0  0  0  0  0  0  0  0
    0.5107   -0.9456   -2.7266 N   0  0  0  0  0  0  0  0  0  0  0  0
   -0.2966   -0.6178   -3.9103 C   0  0  2  0  0  0  0  0  0  0  0  0
   -1.5123    0.2738   -3.5471 C   0  0  0  0  0  0  0  0  0  0  0  0
   -1.8990    0.3620   -2.3819 O   0  0  0  0  0  0  0  0  0  0  0  0
   -0.7634   -1.9322   -4.5394 C   0  0  0  0  0  0  0  0  0  0  0  0
    0.0830   -1.6083   -2.0867 H   0  0  0  0  0  0  0  0  0  0  0  0
    0.3187   -0.0802   -4.6402 H   0  0  0  0  0  0  0  0  0  0  0  0
   -1.3943   -2.4907   -3.8404 H   0  0  0  0  0  0  0  0  0  0  0  0
   -1.3410   -1.7374   -5.4481 H   0  0  0  0  0  0  0  0  0  0  0  0
    0.0985   -2.5525   -4.8049 H   0  0  0  0  0  0  0  0  0  0  0  0
   -2.1711    0.9900   -4.5288 N   0  0  0  0  0  0  0  0  0  0  0  0
   -3.2599    1.9173   -4.2444 C   0  0  0  0  0  0  0  0  0  0  0  0
   -1.7652    0.9856   -5.4602 H   0  0  0  0  0  0  0  0  0  0  0  0
   -4.0623    1.4127   -3.6954 H   0  0  0  0  0  0  0  0  0  0  0  0
   -2.8979    2.7595   -3.6452 H   0  0  0  0  0  0  0  0  0  0  0  0
   -3.6768    2.3087   -5.1775 H   0  0  0  0  0  0  0  0  0  0  0  0
  1  2  2  0  0  0  0
  1  3  1  0  0  0  0
  1  7  1  0  0  0  0
  3  4  1  0  0  0  0
  3  5  1  0  0  0  0
  3  6  1  0  0  0  0
  7  8  1  0  0  0  0
  7 12  1  0  0  0  0
  8  9  1  0  0  0  0
  8 11  1  0  0  0  0
  8 13  1  0  0  0  0
  9 10  2  0  0  0  0
  9 17  1  0  0  0  0
 11 14  1  0  0  0  0
 11 15  1  0  0  0  0
 11 16  1  0  0  0  0
 17 18  1  0  0  0  0
 17 28  1  0  0  0  0
 18 19  1  0  0  0  0
 18 21  1  0  0  0  0
 18 29  1  0  0  0  0
 19 20  2  0  0  0  0
 19 37  1  0  0  0  0
 21 22  1  0  0  0  0
 21 30  1  0  0  0  0
 21 31  1  0  0  0  0
 22 23  1  0  0  0  0
 22 24  2  0  0  0  0
 23 25  2  0  0  0  0
 23 32  1  0  0  0  0
 24 26  1  0  0  0  0
 24 33  1  0  0  0  0
 25 27  1  0  0  0  0
 25 34  1  0  0  0  0
 26 27  2  0  0  0  0
 26 35  1  0  0  0  0
 27 36  1  0  0  0  0
 37 38  1  0  0  0  0
 37 42  1  0  0  0  0
 38 39  1  0  0  0  0
 38 41  1  0  0  0  0
 38 43  1  0  0  0  0
 39 40  2  0  0  0  0
 39 47  1  0  0  0  0
 41 44  1  0  0  0  0
 41 45  1  0  0  0  0
 41 46  1  0  0  0  0
 47 48  1  0  0  0  0
 47 49  1  0  0  0  0
 48 50  1  0  0  0  0
 48 51  1  0  0  0  0
 48 52  1  0  0  0  0
M  END
$$$$

  -OEChem-05262217163D

 52 52  0     1  0  0  0  0  0999 V2000
   -2.5351    0.5767    3.5161 C   0  0  0  0  0  0  0  0  0  0  0  0
   -3.0063   -0.3672    2.8995 O   0  0  0  0  0  0  0  0  0  0  0  0
   -2.4083    0.5031    5.0257 C   0  0  0  0  0  0  0  0  0  0  0  0
   -2.8395   -0.4309    5.3962 H   0  0  0  0  0  0  0  0  0  0  0  0
   -1.3541    0.5439    5.3114 H   0  0  0  0  0  0  0  0  0  0  0  0
   -2.9363    1.3416    5.4858 H   0  0  0  0  0  0  0  0  0  0  0  0
   -2.0791    1.6969    2.8532 N   0  0  0  0  0  0  0  0  0  0  0  0
   -1.8314    1.7054    1.4043 C   0  0  2  0  0  0  0  0  0  0  0  0
   -0.3745    1.3177    1.0777 C   0  0  0  0  0  0  0  0  0  0  0  0
    0.5112    1.4902    1.9071 O   0  0  0  0  0  0  0  0  0  0  0  0
   -2.1471    3.1058    0.8753 C   0  0  0  0  0  0  0  0  0  0  0  0
   -1.4782    2.3009    3.4084 H   0  0  0  0  0  0  0  0  0  0  0  0
   -2.4920    0.9933    0.8977 H   0  0  0  0  0  0  0  0  0  0  0  0
   -1.4799    3.8474    1.3264 H   0  0  0  0  0  0  0  0  0  0  0  0
   -2.0203    3.1386   -0.2116 H   0  0  0  0  0  0  0  0  0  0  0  0
   -3.1814    3.3753    1.1100 H   0  0  0  0  0  0  0  0  0  0  0  0
   -0.0434    0.9055   -0.1959 N   0  0  0  0  0  0  0  0  0  0  0  0
    1.1090    0.0588   -0.5617 C   0  0  2  0  0  0  0  0  0  0  0  0
    1.0504   -0.1106   -2.0920 C   0  0  0  0  0  0  0  0  0  0  0  0
    1.6441    0.6756   -2.8177 O   0  0  0  0  0  0  0  0  0  0  0  0
    1.1060   -1.3645    0.0637 C   0  0  0  0  0  0  0  0  0  0  0  0
    1.2788   -1.4285    1.5613 C   0  0  0  0  0  0  0  0  0  0  0  0
    2.5564   -1.3312    2.1313 C   0  0  0  0  0  0  0  0  0  0  0  0
    0.1768   -1.6683    2.3987 C   0  0  0  0  0  0  0  0  0  0  0  0
    2.7267   -1.4383    3.5162 C   0  0  0  0  0  0  0  0  0  0  0  0
    0.3458   -1.7805    3.7821 C   0  0  0  0  0  0  0  0  0  0  0  0
    1.6208   -1.6615    4.3425 C   0  0  0  0  0  0  0  0  0  0  0  0
   -0.8266    0.9079   -0.8569 H   0  0  0  0  0  0  0  0  0  0  0  0
    2.0406    0.5705   -0.2971 H   0  0  0  0  0  0  0  0  0  0  0  0
    1.9133   -1.9474   -0.3931 H   0  0  0  0  0  0  0  0  0  0  0  0
    0.1670   -1.8669   -0.1871 H   0  0  0  0  0  0  0  0  0  0  0  0
    3.4214   -1.1577    1.4990 H   0  0  0  0  0  0  0  0  0  0  0  0
   -0.8219   -1.7632    1.9816 H   0  0  0  0  0  0  0  0  0  0  0  0
    3.7184   -1.3456    3.9487 H   0  0  0  0  0  0  0  0  0  0  0  0
   -0.5175   -1.9615    4.4152 H   0  0  0  0  0  0  0  0  0  0  0  0
    1.7528   -1.7442    5.4168 H   0  0  0  0  0  0  0  0  0  0  0  0
    0.1095   -0.9575   -2.6540 N   0  0  0  0  0  0  0  0  0  0  0  0
   -0.6262   -0.5185   -3.8472 C   0  0  2  0  0  0  0  0  0  0  0  0
   -1.6681    0.5701   -3.4924 C   0  0  0  0  0  0  0  0  0  0  0  0
   -2.0493    0.7086   -2.3306 O   0  0  0  0  0  0  0  0  0  0  0  0
   -1.3123   -1.7439   -4.4532 C   0  0  0  0  0  0  0  0  0  0  0  0
   -0.4524   -1.4450   -1.9614 H   0  0  0  0  0  0  0  0  0  0  0  0
    0.0677   -0.1064   -4.5881 H   0  0  0  0  0  0  0  0  0  0  0  0
   -2.0244   -2.1762   -3.7428 H   0  0  0  0  0  0  0  0  0  0  0  0
   -1.8535   -1.4681   -5.3636 H   0  0  0  0  0  0  0  0  0  0  0  0
   -0.5691   -2.5052   -4.7104 H   0  0  0  0  0  0  0  0  0  0  0  0
   -2.1753    1.4041   -4.4704 N   0  0  0  0  0  0  0  0  0  0  0  0
   -3.0953    2.4992   -4.1866 C   0  0  0  0  0  0  0  0  0  0  0  0
   -1.7713    1.3335   -5.4002 H   0  0  0  0  0  0  0  0  0  0  0  0
   -3.9984    2.1242   -3.6934 H   0  0  0  0  0  0  0  0  0  0  0  0
   -2.6199    3.2405   -3.5357 H   0  0  0  0  0  0  0  0  0  0  0  0
   -3.3924    2.9936   -5.1164 H   0  0  0  0  0  0  0  0  0  0  0  0
  1  2  2  0  0  0  0
  1  3  1  0  0  0  0
  1  7  1  0  0  0  0
  3  4  1  0  0  0  0
  3  5  1  0  0  0  0
  3  6  1  0  0  0  0
  7  8  1  0  0  0  0
  7 12  1  0  0  0  0
  8  9  1  0  0  0  0
  8 11  1  0  0  0  0
  8 13  1  0  0  0  0
  9 10  2  0  0  0  0
  9 17  1  0  0  0  0
 11 14  1  0  0  0  0
 11 15  1  0  0  0  0
 11 16  1  0  0  0  0
 17 18  1  0  0  0  0
 17 28  1  0  0  0  0
 18 19  1  0  0  0  0
 18 21  1  0  0  0  0
 18 29  1  0  0  0  0
 19 20  2  0  0  0  0
 19 37  1  0  0  0  0
 21 22  1  0  0  0  0
 21 30  1  0  0  0  0
 21 31  1  0  0  0  0
 22 23  1  0  0  0  0
 22 24  2  0  0  0  0
 23 25  2  0  0  0  0
 23 32  1  0  0  0  0
 24 26  1  0  0  0  0
 24 33  1  0  0  0  0
 25 27  1  0  0  0  0
 25 34  1  0  0  0  0
 26 27  2  0  0  0  0
 26 35  1  0  0  0  0
 27 36  1  0  0  0  0
 37 38  1  0  0  0  0
 37 42  1  0  0  0  0
 38 39  1  0  0  0  0
 38 41  1  0  0  0  0
 38 43  1  0  0  0  0
 39 40  2  0  0  0  0
 39 47  1  0  0  0  0
 41 44  1  0  0  0  0
 41 45  1  0  0  0  0
 41 46  1  0  0  0  0
 47 48  1  0  0  0  0
 47 49  1  0  0  0  0
 48 50  1  0  0  0  0
 48 51  1  0  0  0  0
 48 52  1  0  0  0  0
M  END
$$$$

  -OEChem-05262217163D

 52 52  0     1  0  0  0  0  0999 V2000
   -2.5132    0.6585    3.5046 C   0  0  0  0  0  0  0  0  0  0  0  0
   -2.9906   -0.2686    2.8673 O   0  0  0  0  0  0  0  0  0  0  0  0
   -2.3870    0.5526    5.0125 C   0  0  0  0  0  0  0  0  0  0  0  0
   -2.7942   -0.4011    5.3596 H   0  0  0  0  0  0  0  0  0  0  0  0
   -1.3349    0.6136    5.3025 H   0  0  0  0  0  0  0  0  0  0  0  0
   -2.9378    1.3660    5.4909 H   0  0  0  0  0  0  0  0  0  0  0  0
   -2.0474    1.7879    2.8640 N   0  0  0  0  0  0  0  0  0  0  0  0
   -1.8037    1.8160    1.4152 C   0  0  2  0  0  0  0  0  0  0  0  0
   -0.3827    1.3235    1.0731 C   0  0  0  0  0  0  0  0  0  0  0  0
    0.5300    1.4676    1.8777 O   0  0  0  0  0  0  0  0  0  0  0  0
   -2.0100    3.2499    0.9234 C   0  0  0  0  0  0  0  0  0  0  0  0
   -1.4380    2.3741    3.4286 H   0  0  0  0  0  0  0  0  0  0  0  0
   -2.5206    1.1713    0.8949 H   0  0  0  0  0  0  0  0  0  0  0  0
   -1.2955    3.9266    1.4025 H   0  0  0  0  0  0  0  0  0  0  0  0
   -1.8685    3.3048   -0.1609 H   0  0  0  0  0  0  0  0  0  0  0  0
   -3.0244    3.5879    1.1561 H   0  0  0  0  0  0  0  0  0  0  0  0
   -0.1128    0.8450   -0.1917 N   0  0  0  0  0  0  0  0  0  0  0  0
    1.0170   -0.0220   -0.5831 C   0  0  2  0  0  0  0  0  0  0  0  0
    0.8831   -0.2702   -2.0960 C   0  0  0  0  0  0  0  0  0  0  0  0
    1.6291    0.2959   -2.8829 O   0  0  0  0  0  0  0  0  0  0  0  0
    1.0261   -1.4274    0.0782 C   0  0  0  0  0  0  0  0  0  0  0  0
    1.2588   -1.4573    1.5682 C   0  0  0  0  0  0  0  0  0  0  0  0
    2.5591   -1.3602    2.0846 C   0  0  0  0  0  0  0  0  0  0  0  0
    0.1885   -1.6649    2.4536 C   0  0  0  0  0  0  0  0  0  0  0  0
    2.7834   -1.4409    3.4635 C   0  0  0  0  0  0  0  0  0  0  0  0
    0.4115   -1.7504    3.8314 C   0  0  0  0  0  0  0  0  0  0  0  0
    1.7093   -1.6355    4.3377 C   0  0  0  0  0  0  0  0  0  0  0  0
   -0.8884    0.9266   -0.8563 H   0  0  0  0  0  0  0  0  0  0  0  0
    1.9646    0.4895   -0.3819 H   0  0  0  0  0  0  0  0  0  0  0  0
    1.8104   -2.0286   -0.3942 H   0  0  0  0  0  0  0  0  0  0  0  0
    0.0749   -1.9279   -0.1273 H   0  0  0  0  0  0  0  0  0  0  0  0
    3.3996   -1.2115    1.4141 H   0  0  0  0  0  0  0  0  0  0  0  0
   -0.8261   -1.7566    2.0765 H   0  0  0  0  0  0  0  0  0  0  0  0
    3.7925   -1.3507    3.8540 H   0  0  0  0  0  0  0  0  0  0  0  0
   -0.4269   -1.9072    4.5029 H   0  0  0  0  0  0  0  0  0  0  0  0
    1.8839   -1.6988    5.4073 H   0  0  0  0  0  0  0  0  0  0  0  0
   -0.2625   -0.8852   -2.5731 N   0  0  0  0  0  0  0  0  0  0  0  0
   -0.9177   -0.3767   -3.7847 C   0  0  2  0  0  0  0  0  0  0  0  0
   -1.7373    0.8977   -3.4748 C   0  0  0  0  0  0  0  0  0  0  0  0
   -2.1012    1.1305   -2.3228 O   0  0  0  0  0  0  0  0  0  0  0  0
   -1.8267   -1.4805   -4.3273 C   0  0  0  0  0  0  0  0  0  0  0  0
   -0.8952   -1.1829   -1.8345 H   0  0  0  0  0  0  0  0  0  0  0  0
   -0.1709   -0.1343   -4.5488 H   0  0  0  0  0  0  0  0  0  0  0  0
   -2.5998   -1.7364   -3.5954 H   0  0  0  0  0  0  0  0  0  0  0  0
   -2.3162   -1.1532   -5.2497 H   0  0  0  0  0  0  0  0  0  0  0  0
   -1.2415   -2.3791   -4.5464 H   0  0  0  0  0  0  0  0  0  0  0  0
   -2.0659    1.7866   -4.4803 N   0  0  0  0  0  0  0  0  0  0  0  0
   -2.7651    3.0424   -4.2361 C   0  0  0  0  0  0  0  0  0  0  0  0
   -1.6684    1.6194   -5.4006 H   0  0  0  0  0  0  0  0  0  0  0  0
   -3.7206    2.8589   -3.7332 H   0  0  0  0  0  0  0  0  0  0  0  0
   -2.1573    3.7029   -3.6089 H   0  0  0  0  0  0  0  0  0  0  0  0
   -2.9683    3.5526   -5.1826 H   0  0  0  0  0  0  0  0  0  0  0  0
  1  2  2  0  0  0  0
  1  3  1  0  0  0  0
  1  7  1  0  0  0  0
  3  4  1  0  0  0  0
  3  5  1  0  0  0  0
  3  6  1  0  0  0  0
  7  8  1  0  0  0  0
  7 12  1  0  0  0  0
  8  9  1  0  0  0  0
  8 11  1  0  0  0  0
  8 13  1  0  0  0  0
  9 10  2  0  0  0  0
  9 17  1  0  0  0  0
 11 14  1  0  0  0  0
 11 15  1  0  0  0  0
 11 16  1  0  0  0  0
 17 18  1  0  0  0  0
 17 28  1  0  0  0  0
 18 19  1  0  0  0  0
 18 21  1  0  0  0  0
 18 29  1  0  0  0  0
 19 20  2  0  0  0  0
 19 37  1  0  0  0  0
 21 22  1  0  0  0  0
 21 30  1  0  0  0  0
 21 31  1  0  0  0  0
 22 23  1  0  0  0  0
 22 24  2  0  0  0  0
 23 25  2  0  0  0  0
 23 32  1  0  0  0  0
 24 26  1  0  0  0  0
 24 33  1  0  0  0  0
 25 27  1  0  0  0  0
 25 34  1  0  0  0  0
 26 27  2  0  0  0  0
 26 35  1  0  0  0  0
 27 36  1  0  0  0  0
 37 38  1  0  0  0  0
 37 42  1  0  0  0  0
 38 39  1  0  0  0  0
 38 41  1  0  0  0  0
 38 43  1  0  0  0  0
 39 40  2  0  0  0  0
 39 47  1  0  0  0  0
 41 44  1  0  0  0  0
 41 45  1  0  0  0  0
 41 46  1  0  0  0  0
 47 48  1  0  0  0  0
 47 49  1  0  0  0  0
 48 50  1  0  0  0  0
 48 51  1  0  0  0  0
 48 52  1  0  0  0  0
M  END
$$$$

  -OEChem-05262217163D

 52 52  0     1  0  0  0  0  0999 V2000
   -2.4118    0.7789    3.5472 C   0  0  0  0  0  0  0  0  0  0  0  0
   -2.9577   -0.1017    2.8989 O   0  0  0  0  0  0  0  0  0  0  0  0
   -2.2408    0.6209    5.0460 C   0  0  0  0  0  0  0  0  0  0  0  0
   -2.6383   -0.3442    5.3720 H   0  0  0  0  0  0  0  0  0  0  0  0
   -1.1803    0.6712    5.3057 H   0  0  0  0  0  0  0  0  0  0  0  0
   -2.7753    1.4178    5.5683 H   0  0  0  0  0  0  0  0  0  0  0  0
   -1.9053    1.8998    2.9232 N   0  0  0  0  0  0  0  0  0  0  0  0
   -1.7081    1.9541    1.4685 C   0  0  2  0  0  0  0  0  0  0  0  0
   -0.3565    1.3320    1.0643 C   0  0  0  0  0  0  0  0  0  0  0  0
    0.6089    1.4307    1.8117 O   0  0  0  0  0  0  0  0  0  0  0  0
   -1.7801    3.4182    1.0317 C   0  0  0  0  0  0  0  0  0  0  0  0
   -1.2470    2.4357    3.4829 H   0  0  0  0  0  0  0  0  0  0  0  0
   -2.5054    1.4054    0.9553 H   0  0  0  0  0  0  0  0  0  0  0  0
   -0.9831    4.0002    1.5054 H   0  0  0  0  0  0  0  0  0  0  0  0
   -1.6700    3.4966   -0.0547 H   0  0  0  0  0  0  0  0  0  0  0  0
   -2.7453    3.8505    1.3129 H   0  0  0  0  0  0  0  0  0  0  0  0
   -0.1988    0.7908   -0.1949 N   0  0  0  0  0  0  0  0  0  0  0  0
    0.8788   -0.1211   -0.6372 C   0  0  2  0  0  0  0  0  0  0  0  0
    0.6384   -0.4476   -2.1218 C   0  0  0  0  0  0  0  0  0  0  0  0
    1.4791   -0.1558   -2.9604 O   0  0  0  0  0  0  0  0  0  0  0  0
    0.8776   -1.5071    0.0614 C   0  0  0  0  0  0  0  0  0  0  0  0
    1.1984   -1.5115    1.5358 C   0  0  0  0  0  0  0  0  0  0  0  0
    2.5290   -1.4519    1.9753 C   0  0  0  0  0  0  0  0  0  0  0  0
    0.1739   -1.6601    2.4849 C   0  0  0  0  0  0  0  0  0  0  0  0
    2.8286   -1.5105    3.3413 C   0  0  0  0  0  0  0  0  0  0  0  0
    0.4723   -1.7255    3.8491 C   0  0  0  0  0  0  0  0  0  0  0  0
    1.8002   -1.6479    4.2789 C   0  0  0  0  0  0  0  0  0  0  0  0
   -0.9651    0.9772   -0.8486 H   0  0  0  0  0  0  0  0  0  0  0  0
    1.8545    0.3616   -0.5180 H   0  0  0  0  0  0  0  0  0  0  0  0
    1.6115   -2.1486   -0.4392 H   0  0  0  0  0  0  0  0  0  0  0  0
   -0.1014   -1.9761   -0.0799 H   0  0  0  0  0  0  0  0  0  0  0  0
    3.3346   -1.3484    1.2550 H   0  0  0  0  0  0  0  0  0  0  0  0
   -0.8630   -1.7213    2.1672 H   0  0  0  0  0  0  0  0  0  0  0  0
    3.8607   -1.4490    3.6724 H   0  0  0  0  0  0  0  0  0  0  0  0
   -0.3310   -1.8389    4.5701 H   0  0  0  0  0  0  0  0  0  0  0  0
    2.0330   -1.6957    5.3382 H   0  0  0  0  0  0  0  0  0  0  0  0
   -0.6450   -0.7687   -2.5310 N   0  0  0  0  0  0  0  0  0  0  0  0
   -1.2082   -0.1823   -3.7528 C   0  0  2  0  0  0  0  0  0  0  0  0
   -1.7727    1.2271   -3.4641 C   0  0  0  0  0  0  0  0  0  0  0  0
   -2.0958    1.5326   -2.3167 O   0  0  0  0  0  0  0  0  0  0  0  0
   -2.3098   -1.1150   -4.2581 C   0  0  0  0  0  0  0  0  0  0  0  0
   -1.3004   -0.8687   -1.7593 H   0  0  0  0  0  0  0  0  0  0  0  0
   -0.4403   -0.0992   -4.5296 H   0  0  0  0  0  0  0  0  0  0  0  0
   -3.1052   -1.2102   -3.5119 H   0  0  0  0  0  0  0  0  0  0  0  0
   -2.7457   -0.7259   -5.1832 H   0  0  0  0  0  0  0  0  0  0  0  0
   -1.8999   -2.1096   -4.4604 H   0  0  0  0  0  0  0  0  0  0  0  0
   -1.9013    2.1573   -4.4776 N   0  0  0  0  0  0  0  0  0  0  0  0
   -2.3271    3.5326   -4.2475 C   0  0  0  0  0  0  0  0  0  0  0  0
   -1.5344    1.9063   -5.3915 H   0  0  0  0  0  0  0  0  0  0  0  0
   -3.3186    3.5559   -3.7830 H   0  0  0  0  0  0  0  0  0  0  0  0
   -1.6177    4.0485   -3.5917 H   0  0  0  0  0  0  0  0  0  0  0  0
   -2.3793    4.0757   -5.1961 H   0  0  0  0  0  0  0  0  0  0  0  0
  1  2  2  0  0  0  0
  1  3  1  0  0  0  0
  1  7  1  0  0  0  0
  3  4  1  0  0  0  0
  3  5  1  0  0  0  0
  3  6  1  0  0  0  0
  7  8  1  0  0  0  0
  7 12  1  0  0  0  0
  8  9  1  0  0  0  0
  8 11  1  0  0  0  0
  8 13  1  0  0  0  0
  9 10  2  0  0  0  0
  9 17  1  0  0  0  0
 11 14  1  0  0  0  0
 11 15  1  0  0  0  0
 11 16  1  0  0  0  0
 17 18  1  0  0  0  0
 17 28  1  0  0  0  0
 18 19  1  0  0  0  0
 18 21  1  0  0  0  0
 18 29  1  0  0  0  0
 19 20  2  0  0  0  0
 19 37  1  0  0  0  0
 21 22  1  0  0  0  0
 21 30  1  0  0  0  0
 21 31  1  0  0  0  0
 22 23  1  0  0  0  0
 22 24  2  0  0  0  0
 23 25  2  0  0  0  0
 23 32  1  0  0  0  0
 24 26  1  0  0  0  0
 24 33  1  0  0  0  0
 25 27  1  0  0  0  0
 25 34  1  0  0  0  0
 26 27  2  0  0  0  0
 26 35  1  0  0  0  0
 27 36  1  0  0  0  0
 37 38  1  0  0  0  0
 37 42  1  0  0  0  0
 38 39  1  0  0  0  0
 38 41  1  0  0  0  0
 38 43  1  0  0  0  0
 39 40  2  0  0  0  0
 39 47  1  0  0  0  0
 41 44  1  0  0  0  0
 41 45  1  0  0  0  0
 41 46  1  0  0  0  0
 47 48  1  0  0  0  0
 47 49  1  0  0  0  0
 48 50  1  0  0  0  0
 48 51  1  0  0  0  0
 48 52  1  0  0  0  0
M  END
$$$$

  -OEChem-05262217163D

 52 52  0     1  0  0  0  0  0999 V2000
   -2.3435    0.4675    3.9950 C   0  0  0  0  0  0  0  0  0  0  0  0
   -2.9382   -0.2888    3.2409 O   0  0  0  0  0  0  0  0  0  0  0  0
   -2.0652    0.0538    5.4274 C   0  0  0  0  0  0  0  0  0  0  0  0
   -2.4197   -0.9660    5.6012 H   0  0  0  0  0  0  0  0  0  0  0  0
   -0.9910    0.0923    5.6256 H   0  0  0  0  0  0  0  0  0  0  0  0
   -2.5795    0.7284    6.1163 H   0  0  0  0  0  0  0  0  0  0  0  0
   -1.8938    1.6878    3.5370 N   0  0  0  0  0  0  0  0  0  0  0  0
   -1.8867    2.0337    2.1103 C   0  0  2  0  0  0  0  0  0  0  0  0
   -0.6025    1.5404    1.4130 C   0  0  0  0  0  0  0  0  0  0  0  0
    0.4747    1.6517    1.9826 O   0  0  0  0  0  0  0  0  0  0  0  0
   -2.0140    3.5545    1.9955 C   0  0  0  0  0  0  0  0  0  0  0  0
   -1.1945    2.1409    4.1205 H   0  0  0  0  0  0  0  0  0  0  0  0
   -2.7478    1.5797    1.6089 H   0  0  0  0  0  0  0  0  0  0  0  0
   -1.1645    4.0487    2.4784 H   0  0  0  0  0  0  0  0  0  0  0  0
   -2.0388    3.8575    0.9441 H   0  0  0  0  0  0  0  0  0  0  0  0
   -2.9363    3.8957    2.4760 H   0  0  0  0  0  0  0  0  0  0  0  0
   -0.6342    1.1657    0.0817 N   0  0  0  0  0  0  0  0  0  0  0  0
    0.4150    0.3849   -0.6136 C   0  0  2  0  0  0  0  0  0  0  0  0
    0.0394    0.1673   -2.0932 C   0  0  0  0  0  0  0  0  0  0  0  0
    0.9089    0.2028   -2.9539 O   0  0  0  0  0  0  0  0  0  0  0  0
    0.5719   -1.0681   -0.0854 C   0  0  0  0  0  0  0  0  0  0  0  0
    1.0943   -1.2213    1.3214 C   0  0  0  0  0  0  0  0  0  0  0  0
    2.4700   -1.1338    1.5789 C   0  0  0  0  0  0  0  0  0  0  0  0
    0.2251   -1.5527    2.3734 C   0  0  0  0  0  0  0  0  0  0  0  0
    2.9652   -1.3358    2.8720 C   0  0  0  0  0  0  0  0  0  0  0  0
    0.7195   -1.7635    3.6645 C   0  0  0  0  0  0  0  0  0  0  0  0
    2.0898   -1.6496    3.9162 C   0  0  0  0  0  0  0  0  0  0  0  0
   -1.5420    1.2393   -0.3646 H   0  0  0  0  0  0  0  0  0  0  0  0
    1.3734    0.9128   -0.5561 H   0  0  0  0  0  0  0  0  0  0  0  0
    1.2575   -1.6101   -0.7470 H   0  0  0  0  0  0  0  0  0  0  0  0
   -0.3975   -1.5730   -0.1532 H   0  0  0  0  0  0  0  0  0  0  0  0
    3.1592   -0.8980    0.7740 H   0  0  0  0  0  0  0  0  0  0  0  0
   -0.8410   -1.6518    2.1913 H   0  0  0  0  0  0  0  0  0  0  0  0
    4.0307   -1.2504    3.0622 H   0  0  0  0  0  0  0  0  0  0  0  0
    0.0369   -2.0220    4.4677 H   0  0  0  0  0  0  0  0  0  0  0  0
    2.4755   -1.8093    4.9186 H   0  0  0  0  0  0  0  0  0  0  0  0
   -1.2834    0.0832   -2.4974 N   0  0  0  0  0  0  0  0  0  0  0  0
   -1.7095   -0.0126   -3.9023 C   0  0  2  0  0  0  0  0  0  0  0  0
   -1.7019    1.3680   -4.6025 C   0  0  0  0  0  0  0  0  0  0  0  0
   -2.7337    1.8933   -5.0028 O   0  0  0  0  0  0  0  0  0  0  0  0
   -3.0871   -0.6862   -3.9207 C   0  0  0  0  0  0  0  0  0  0  0  0
   -1.9879   -0.0298   -1.7762 H   0  0  0  0  0  0  0  0  0  0  0  0
   -1.0185   -0.6579   -4.4555 H   0  0  0  0  0  0  0  0  0  0  0  0
   -3.8209   -0.0804   -3.3793 H   0  0  0  0  0  0  0  0  0  0  0  0
   -3.4335   -0.8085   -4.9520 H   0  0  0  0  0  0  0  0  0  0  0  0
   -3.0360   -1.6755   -3.4555 H   0  0  0  0  0  0  0  0  0  0  0  0
   -0.5049    2.0424   -4.7383 N   0  0  0  0  0  0  0  0  0  0  0  0
   -0.3814    3.3810   -5.2984 C   0  0  0  0  0  0  0  0  0  0  0  0
    0.3149    1.5943   -4.3207 H   0  0  0  0  0  0  0  0  0  0  0  0
   -0.7320    3.3960   -6.3356 H   0  0  0  0  0  0  0  0  0  0  0  0
   -0.9713    4.0959   -4.7156 H   0  0  0  0  0  0  0  0  0  0  0  0
    0.6648    3.7017   -5.2829 H   0  0  0  0  0  0  0  0  0  0  0  0
  1  2  2  0  0  0  0
  1  3  1  0  0  0  0
  1  7  1  0  0  0  0
  3  4  1  0  0  0  0
  3  5  1  0  0  0  0
  3  6  1  0  0  0  0
  7  8  1  0  0  0  0
  7 12  1  0  0  0  0
  8  9  1  0  0  0  0
  8 11  1  0  0  0  0
  8 13  1  0  0  0  0
  9 10  2  0  0  0  0
  9 17  1  0  0  0  0
 11 14  1  0  0  0  0
 11 15  1  0  0  0  0
 11 16  1  0  0  0  0
 17 18  1  0  0  0  0
 17 28  1  0  0  0  0
 18 19  1  0  0  0  0
 18 21  1  0  0  0  0
 18 29  1  0  0  0  0
 19 20  2  0  0  0  0
 19 37  1  0  0  0  0
 21 22  1  0  0  0  0
 21 30  1  0  0  0  0
 21 31  1  0  0  0  0
 22 23  1  0  0  0  0
 22 24  2  0  0  0  0
 23 25  2  0  0  0  0
 23 32  1  0  0  0  0
 24 26  1  0  0  0  0
 24 33  1  0  0  0  0
 25 27  1  0  0  0  0
 25 34  1  0  0  0  0
 26 27  2  0  0  0  0
 26 35  1  0  0  0  0
 27 36  1  0  0  0  0
 37 38  1  0  0  0  0
 37 42  1  0  0  0  0
 38 39  1  0  0  0  0
 38 41  1  0  0  0  0
 38 43  1  0  0  0  0
 39 40  2  0  0  0  0
 39 47  1  0  0  0  0
 41 44  1  0  0  0  0
 41 45  1  0  0  0  0
 41 46  1  0  0  0  0
 47 48  1  0  0  0  0
 47 49  1  0  0  0  0
 48 50  1  0  0  0  0
 48 51  1  0  0  0  0
 48 52  1  0  0  0  0
M  END
$$$$

  -OEChem-05262217163D

 52 52  0     1  0  0  0  0  0999 V2000
   -2.0354    0.4171    4.4617 C   0  0  0  0  0  0  0  0  0  0  0  0
   -2.7469   -0.4405    3.9604 O   0  0  0  0  0  0  0  0  0  0  0  0
   -1.4631    0.2131    5.8515 C   0  0  0  0  0  0  0  0  0  0  0  0
   -1.7864   -0.7502    6.2555 H   0  0  0  0  0  0  0  0  0  0  0  0
   -0.3711    0.2301    5.8111 H   0  0  0  0  0  0  0  0  0  0  0  0
   -1.8081    1.0081    6.5170 H   0  0  0  0  0  0  0  0  0  0  0  0
   -1.7239    1.5632    3.7613 N   0  0  0  0  0  0  0  0  0  0  0  0
   -1.9951    1.7295    2.3270 C   0  0  2  0  0  0  0  0  0  0  0  0
   -0.7204    1.5280    1.4823 C   0  0  0  0  0  0  0  0  0  0  0  0
    0.3770    1.7800    1.9634 O   0  0  0  0  0  0  0  0  0  0  0  0
   -2.5595    3.1373    2.1225 C   0  0  0  0  0  0  0  0  0  0  0  0
   -0.9374    2.0936    4.1313 H   0  0  0  0  0  0  0  0  0  0  0  0
   -2.7427    1.0048    1.9889 H   0  0  0  0  0  0  0  0  0  0  0  0
   -1.8309    3.8921    2.4362 H   0  0  0  0  0  0  0  0  0  0  0  0
   -2.8010    3.3053    1.0686 H   0  0  0  0  0  0  0  0  0  0  0  0
   -3.4729    3.2680    2.7113 H   0  0  0  0  0  0  0  0  0  0  0  0
   -0.8104    1.2615    0.1274 N   0  0  0  0  0  0  0  0  0  0  0  0
    0.2439    0.5286   -0.6136 C   0  0  2  0  0  0  0  0  0  0  0  0
   -0.1079    0.3843   -2.1130 C   0  0  0  0  0  0  0  0  0  0  0  0
    0.7555    0.0439   -2.9127 O   0  0  0  0  0  0  0  0  0  0  0  0
    0.4101   -0.9448   -0.1392 C   0  0  0  0  0  0  0  0  0  0  0  0
    0.9400   -1.1481    1.2594 C   0  0  0  0  0  0  0  0  0  0  0  0
    2.3171   -1.0630    1.5107 C   0  0  0  0  0  0  0  0  0  0  0  0
    0.0820   -1.5352    2.3016 C   0  0  0  0  0  0  0  0  0  0  0  0
    2.8242   -1.3212    2.7889 C   0  0  0  0  0  0  0  0  0  0  0  0
    0.5887   -1.8036    3.5770 C   0  0  0  0  0  0  0  0  0  0  0  0
    1.9597   -1.6907    3.8236 C   0  0  0  0  0  0  0  0  0  0  0  0
   -1.7624    1.0633   -0.1584 H   0  0  0  0  0  0  0  0  0  0  0  0
    1.1975    1.0613   -0.5259 H   0  0  0  0  0  0  0  0  0  0  0  0
    1.0983   -1.4622   -0.8172 H   0  0  0  0  0  0  0  0  0  0  0  0
   -0.5561   -1.4524   -0.2274 H   0  0  0  0  0  0  0  0  0  0  0  0
    2.9985   -0.7869    0.7117 H   0  0  0  0  0  0  0  0  0  0  0  0
   -0.9852   -1.6387    2.1281 H   0  0  0  0  0  0  0  0  0  0  0  0
    3.8907   -1.2391    2.9746 H   0  0  0  0  0  0  0  0  0  0  0  0
   -0.0871   -2.1075    4.3707 H   0  0  0  0  0  0  0  0  0  0  0  0
    2.3544   -1.8975    4.8137 H   0  0  0  0  0  0  0  0  0  0  0  0
   -1.3865    0.6149   -2.5964 N   0  0  0  0  0  0  0  0  0  0  0  0
   -1.7431    0.5276   -4.0215 C   0  0  2  0  0  0  0  0  0  0  0  0
   -1.2660    1.7662   -4.8174 C   0  0  0  0  0  0  0  0  0  0  0  0
   -2.0574    2.5996   -5.2412 O   0  0  0  0  0  0  0  0  0  0  0  0
   -3.2597    0.3133   -4.1056 C   0  0  0  0  0  0  0  0  0  0  0  0
   -2.0184    1.1246   -1.9904 H   0  0  0  0  0  0  0  0  0  0  0  0
   -1.2613   -0.3486   -4.4690 H   0  0  0  0  0  0  0  0  0  0  0  0
   -3.7956    1.1605   -3.6657 H   0  0  0  0  0  0  0  0  0  0  0  0
   -3.5700    0.2144   -5.1508 H   0  0  0  0  0  0  0  0  0  0  0  0
   -3.5467   -0.5985   -3.5732 H   0  0  0  0  0  0  0  0  0  0  0  0
    0.0878    1.9592   -5.0070 N   0  0  0  0  0  0  0  0  0  0  0  0
    0.6591    3.1480   -5.6245 C   0  0  0  0  0  0  0  0  0  0  0  0
    0.7050    1.3051   -4.5182 H   0  0  0  0  0  0  0  0  0  0  0  0
    0.2548    3.2886   -6.6323 H   0  0  0  0  0  0  0  0  0  0  0  0
    0.4332    4.0363   -5.0256 H   0  0  0  0  0  0  0  0  0  0  0  0
    1.7459    3.0473   -5.7007 H   0  0  0  0  0  0  0  0  0  0  0  0
  1  2  2  0  0  0  0
  1  3  1  0  0  0  0
  1  7  1  0  0  0  0
  3  4  1  0  0  0  0
  3  5  1  0  0  0  0
  3  6  1  0  0  0  0
  7  8  1  0  0  0  0
  7 12  1  0  0  0  0
  8  9  1  0  0  0  0
  8 11  1  0  0  0  0
  8 13  1  0  0  0  0
  9 10  2  0  0  0  0
  9 17  1  0  0  0  0
 11 14  1  0  0  0  0
 11 15  1  0  0  0  0
 11 16  1  0  0  0  0
 17 18  1  0  0  0  0
 17 28  1  0  0  0  0
 18 19  1  0  0  0  0
 18 21  1  0  0  0  0
 18 29  1  0  0  0  0
 19 20  2  0  0  0  0
 19 37  1  0  0  0  0
 21 22  1  0  0  0  0
 21 30  1  0  0  0  0
 21 31  1  0  0  0  0
 22 23  1  0  0  0  0
 22 24  2  0  0  0  0
 23 25  2  0  0  0  0
 23 32  1  0  0  0  0
 24 26  1  0  0  0  0
 24 33  1  0  0  0  0
 25 27  1  0  0  0  0
 25 34  1  0  0  0  0
 26 27  2  0  0  0  0
 26 35  1  0  0  0  0
 27 36  1  0  0  0  0
 37 38  1  0  0  0  0
 37 42  1  0  0  0  0
 38 39  1  0  0  0  0
 38 41  1  0  0  0  0
 38 43  1  0  0  0  0
 39 40  2  0  0  0  0
 39 47  1  0  0  0  0
 41 44  1  0  0  0  0
 41 45  1  0  0  0  0
 41 46  1  0  0  0  0
 47 48  1  0  0  0  0
 47 49  1  0  0  0  0
 48 50  1  0  0  0  0
 48 51  1  0  0  0  0
 48 52  1  0  0  0  0
M  END
$$$$

  -OEChem-05262217163D

 52 52  0     1  0  0  0  0  0999 V2000
   -1.9825    0.3861    4.5327 C   0  0  0  0  0  0  0  0  0  0  0  0
   -2.7206   -0.4763    4.0807 O   0  0  0  0  0  0  0  0  0  0  0  0
   -1.3642    0.2126    5.9073 C   0  0  0  0  0  0  0  0  0  0  0  0
   -1.6386   -0.7601    6.3250 H   0  0  0  0  0  0  0  0  0  0  0  0
   -0.2751    0.2708    5.8364 H   0  0  0  0  0  0  0  0  0  0  0  0
   -1.7207    0.9981    6.5781 H   0  0  0  0  0  0  0  0  0  0  0  0
   -1.6821    1.5089    3.7906 N   0  0  0  0  0  0  0  0  0  0  0  0
   -1.9925    1.6426    2.3604 C   0  0  2  0  0  0  0  0  0  0  0  0
   -0.7208    1.5264    1.4951 C   0  0  0  0  0  0  0  0  0  0  0  0
    0.3730    1.8012    1.9725 O   0  0  0  0  0  0  0  0  0  0  0  0
   -2.6623    3.0035    2.1574 C   0  0  0  0  0  0  0  0  0  0  0  0
   -0.8792    2.0409    4.1221 H   0  0  0  0  0  0  0  0  0  0  0  0
   -2.6883    0.8607    2.0395 H   0  0  0  0  0  0  0  0  0  0  0  0
   -1.9835    3.8122    2.4476 H   0  0  0  0  0  0  0  0  0  0  0  0
   -2.9406    3.1428    1.1086 H   0  0  0  0  0  0  0  0  0  0  0  0
   -3.5687    3.0732    2.7672 H   0  0  0  0  0  0  0  0  0  0  0  0
   -0.8093    1.2992    0.1331 N   0  0  0  0  0  0  0  0  0  0  0  0
    0.2416    0.5736   -0.6198 C   0  0  2  0  0  0  0  0  0  0  0  0
   -0.1269    0.4877   -2.1215 C   0  0  0  0  0  0  0  0  0  0  0  0
    0.6087   -0.0791   -2.9208 O   0  0  0  0  0  0  0  0  0  0  0  0
    0.3931   -0.9093   -0.1647 C   0  0  0  0  0  0  0  0  0  0  0  0
    0.9178   -1.1349    1.2330 C   0  0  0  0  0  0  0  0  0  0  0  0
    2.2953   -1.0649    1.4873 C   0  0  0  0  0  0  0  0  0  0  0  0
    0.0556   -1.5293    2.2695 C   0  0  0  0  0  0  0  0  0  0  0  0
    2.7985   -1.3410    2.7634 C   0  0  0  0  0  0  0  0  0  0  0  0
    0.5584   -1.8155    3.5426 C   0  0  0  0  0  0  0  0  0  0  0  0
    1.9296   -1.7149    3.7929 C   0  0  0  0  0  0  0  0  0  0  0  0
   -1.7595    1.0871   -0.1556 H   0  0  0  0  0  0  0  0  0  0  0  0
    1.1993    1.0960   -0.5216 H   0  0  0  0  0  0  0  0  0  0  0  0
    1.0795   -1.4263   -0.8441 H   0  0  0  0  0  0  0  0  0  0  0  0
   -0.5778   -1.4059   -0.2639 H   0  0  0  0  0  0  0  0  0  0  0  0
    2.9802   -0.7866    0.6922 H   0  0  0  0  0  0  0  0  0  0  0  0
   -1.0121   -1.6256    2.0943 H   0  0  0  0  0  0  0  0  0  0  0  0
    3.8657   -1.2702    2.9513 H   0  0  0  0  0  0  0  0  0  0  0  0
   -0.1212   -2.1226    4.3320 H   0  0  0  0  0  0  0  0  0  0  0  0
    2.3208   -1.9349    4.7815 H   0  0  0  0  0  0  0  0  0  0  0  0
   -1.3007    1.0454   -2.6020 N   0  0  0  0  0  0  0  0  0  0  0  0
   -1.6922    1.0228   -4.0205 C   0  0  2  0  0  0  0  0  0  0  0  0
   -0.9155    2.0638   -4.8626 C   0  0  0  0  0  0  0  0  0  0  0  0
   -1.4700    3.0469   -5.3384 O   0  0  0  0  0  0  0  0  0  0  0  0
   -3.2113    1.2230   -4.0795 C   0  0  0  0  0  0  0  0  0  0  0  0
   -1.7279    1.7523   -2.0117 H   0  0  0  0  0  0  0  0  0  0  0  0
   -1.4726    0.0378   -4.4467 H   0  0  0  0  0  0  0  0  0  0  0  0
   -3.4892    2.1991   -3.6692 H   0  0  0  0  0  0  0  0  0  0  0  0
   -3.5589    1.1733   -5.1163 H   0  0  0  0  0  0  0  0  0  0  0  0
   -3.7217    0.4428   -3.5071 H   0  0  0  0  0  0  0  0  0  0  0  0
    0.4413    1.8942   -5.0524 N   0  0  0  0  0  0  0  0  0  0  0  0
    1.2921    2.8530   -5.7435 C   0  0  0  0  0  0  0  0  0  0  0  0
    0.8722    1.1187   -4.5421 H   0  0  0  0  0  0  0  0  0  0  0  0
    0.9345    3.0166   -6.7655 H   0  0  0  0  0  0  0  0  0  0  0  0
    1.2976    3.8108   -5.2134 H   0  0  0  0  0  0  0  0  0  0  0  0
    2.3185    2.4773   -5.7933 H   0  0  0  0  0  0  0  0  0  0  0  0
  1  2  2  0  0  0  0
  1  3  1  0  0  0  0
  1  7  1  0  0  0  0
  3  4  1  0  0  0  0
  3  5  1  0  0  0  0
  3  6  1  0  0  0  0
  7  8  1  0  0  0  0
  7 12  1  0  0  0  0
  8  9  1  0  0  0  0
  8 11  1  0  0  0  0
  8 13  1  0  0  0  0
  9 10  2  0  0  0  0
  9 17  1  0  0  0  0
 11 14  1  0  0  0  0
 11 15  1  0  0  0  0
 11 16  1  0  0  0  0
 17 18  1  0  0  0  0
 17 28  1  0  0  0  0
 18 19  1  0  0  0  0
 18 21  1  0  0  0  0
 18 29  1  0  0  0  0
 19 20  2  0  0  0  0
 19 37  1  0  0  0  0
 21 22  1  0  0  0  0
 21 30  1  0  0  0  0
 21 31  1  0  0  0  0
 22 23  1  0  0  0  0
 22 24  2  0  0  0  0
 23 25  2  0  0  0  0
 23 32  1  0  0  0  0
 24 26  1  0  0  0  0
 24 33  1  0  0  0  0
 25 27  1  0  0  0  0
 25 34  1  0  0  0  0
 26 27  2  0  0  0  0
 26 35  1  0  0  0  0
 27 36  1  0  0  0  0
 37 38  1  0  0  0  0
 37 42  1  0  0  0  0
 38 39  1  0  0  0  0
 38 41  1  0  0  0  0
 38 43  1  0  0  0  0
 39 40  2  0  0  0  0
 39 47  1  0  0  0  0
 41 44  1  0  0  0  0
 41 45  1  0  0  0  0
 41 46  1  0  0  0  0
 47 48  1  0  0  0  0
 47 49  1  0  0  0  0
 48 50  1  0  0  0  0
 48 51  1  0  0  0  0
 48 52  1  0  0  0  0
M  END
$$$$

  -OEChem-05262217163D

 52 52  0     1  0  0  0  0  0999 V2000
   -1.9726    0.3769    4.5221 C   0  0  0  0  0  0  0  0  0  0  0  0
   -2.7239   -0.4664    4.0568 O   0  0  0  0  0  0  0  0  0  0  0  0
   -1.3635    0.1741    5.8968 C   0  0  0  0  0  0  0  0  0  0  0  0
   -1.6152   -0.8195    6.2779 H   0  0  0  0  0  0  0  0  0  0  0  0
   -0.2757    0.2639    5.8409 H   0  0  0  0  0  0  0  0  0  0  0  0
   -1.7490    0.9262    6.5894 H   0  0  0  0  0  0  0  0  0  0  0  0
   -1.6499    1.5030    3.7947 N   0  0  0  0  0  0  0  0  0  0  0  0
   -1.9567    1.6605    2.3662 C   0  0  2  0  0  0  0  0  0  0  0  0
   -0.6920    1.5139    1.4954 C   0  0  0  0  0  0  0  0  0  0  0  0
    0.4110    1.7562    1.9690 O   0  0  0  0  0  0  0  0  0  0  0  0
   -2.5840    3.0435    2.1790 C   0  0  0  0  0  0  0  0  0  0  0  0
   -0.8409    2.0190    4.1360 H   0  0  0  0  0  0  0  0  0  0  0  0
   -2.6776    0.9047    2.0378 H   0  0  0  0  0  0  0  0  0  0  0  0
   -1.8794    3.8280    2.4745 H   0  0  0  0  0  0  0  0  0  0  0  0
   -2.8618    3.2011    1.1326 H   0  0  0  0  0  0  0  0  0  0  0  0
   -3.4858    3.1354    2.7924 H   0  0  0  0  0  0  0  0  0  0  0  0
   -0.7916    1.3033    0.1319 N   0  0  0  0  0  0  0  0  0  0  0  0
    0.2340    0.5627   -0.6407 C   0  0  2  0  0  0  0  0  0  0  0  0
   -0.1758    0.5209   -2.1354 C   0  0  0  0  0  0  0  0  0  0  0  0
    0.3754   -0.2200   -2.9409 O   0  0  0  0  0  0  0  0  0  0  0  0
    0.3642   -0.9267   -0.1960 C   0  0  0  0  0  0  0  0  0  0  0  0
    0.9048   -1.1695    1.1926 C   0  0  0  0  0  0  0  0  0  0  0  0
    2.2864   -1.1273    1.4307 C   0  0  0  0  0  0  0  0  0  0  0  0
    0.0470   -1.5490    2.2382 C   0  0  0  0  0  0  0  0  0  0  0  0
    2.7982   -1.4178    2.7003 C   0  0  0  0  0  0  0  0  0  0  0  0
    0.5580   -1.8487    3.5046 C   0  0  0  0  0  0  0  0  0  0  0  0
    1.9338   -1.7771    3.7387 C   0  0  0  0  0  0  0  0  0  0  0  0
   -1.7489    1.1345   -0.1655 H   0  0  0  0  0  0  0  0  0  0  0  0
    1.2036    1.0649   -0.5533 H   0  0  0  0  0  0  0  0  0  0  0  0
    1.0335   -1.4525   -0.8851 H   0  0  0  0  0  0  0  0  0  0  0  0
   -0.6166   -1.4054   -0.2847 H   0  0  0  0  0  0  0  0  0  0  0  0
    2.9681   -0.8606    0.6290 H   0  0  0  0  0  0  0  0  0  0  0  0
   -1.0245   -1.6207    2.0745 H   0  0  0  0  0  0  0  0  0  0  0  0
    3.8686   -1.3691    2.8766 H   0  0  0  0  0  0  0  0  0  0  0  0
   -0.1191   -2.1443    4.3004 H   0  0  0  0  0  0  0  0  0  0  0  0
    2.3318   -2.0081    4.7220 H   0  0  0  0  0  0  0  0  0  0  0  0
   -1.1622    1.3690   -2.6112 N   0  0  0  0  0  0  0  0  0  0  0  0
   -1.5553    1.4552   -4.0268 C   0  0  2  0  0  0  0  0  0  0  0  0
   -0.5429    2.2711   -4.8663 C   0  0  0  0  0  0  0  0  0  0  0  0
   -0.8392    3.3548   -5.3545 O   0  0  0  0  0  0  0  0  0  0  0  0
   -2.9745    2.0343   -4.0744 C   0  0  0  0  0  0  0  0  0  0  0  0
   -1.4005    2.1511   -2.0071 H   0  0  0  0  0  0  0  0  0  0  0  0
   -1.5944    0.4498   -4.4599 H   0  0  0  0  0  0  0  0  0  0  0  0
   -2.9935    3.0456   -3.6556 H   0  0  0  0  0  0  0  0  0  0  0  0
   -3.3287    2.0824   -5.1092 H   0  0  0  0  0  0  0  0  0  0  0  0
   -3.6632    1.4043   -3.5033 H   0  0  0  0  0  0  0  0  0  0  0  0
    0.7359    1.7795   -5.0372 N   0  0  0  0  0  0  0  0  0  0  0  0
    1.7972    2.4978   -5.7290 C   0  0  0  0  0  0  0  0  0  0  0  0
    0.9577    0.9158   -4.5351 H   0  0  0  0  0  0  0  0  0  0  0  0
    1.5025    2.7154   -6.7607 H   0  0  0  0  0  0  0  0  0  0  0  0
    2.0174    3.4409   -5.2183 H   0  0  0  0  0  0  0  0  0  0  0  0
    2.7096    1.8941   -5.7512 H   0  0  0  0  0  0  0  0  0  0  0  0
  1  2  2  0  0  0  0
  1  3  1  0  0  0  0
  1  7  1  0  0  0  0
  3  4  1  0  0  0  0
  3  5  1  0  0  0  0
  3  6  1  0  0  0  0
  7  8  1  0  0  0  0
  7 12  1  0  0  0  0
  8  9  1  0  0  0  0
  8 11  1  0  0  0  0
  8 13  1  0  0  0  0
  9 10  2  0  0  0  0
  9 17  1  0  0  0  0
 11 14  1  0  0  0  0
 11 15  1  0  0  0  0
 11 16  1  0  0  0  0
 17 18  1  0  0  0  0
 17 28  1  0  0  0  0
 18 19  1  0  0  0  0
 18 21  1  0  0  0  0
 18 29  1  0  0  0  0
 19 20  2  0  0  0  0
 19 37  1  0  0  0  0
 21 22  1  0  0  0  0
 21 30  1  0  0  0  0
 21 31  1  0  0  0  0
 22 23  1  0  0  0  0
 22 24  2  0  0  0  0
 23 25  2  0  0  0  0
 23 32  1  0  0  0  0
 24 26  1  0  0  0  0
 24 33  1  0  0  0  0
 25 27  1  0  0  0  0
 25 34  1  0  0  0  0
 26 27  2  0  0  0  0
 26 35  1  0  0  0  0
 27 36  1  0  0  0  0
 37 38  1  0  0  0  0
 37 42  1  0  0  0  0
 38 39  1  0  0  0  0
 38 41  1  0  0  0  0
 38 43  1  0  0  0  0
 39 40  2  0  0  0  0
 39 47  1  0  0  0  0
 41 44  1  0  0  0  0
 41 45  1  0  0  0  0
 41 46  1  0  0  0  0
 47 48  1  0  0  0  0
 47 49  1  0  0  0  0
 48 50  1  0  0  0  0
 48 51  1  0  0  0  0
 48 52  1  0  0  0  0
M  END
$$$$

  -OEChem-05262217163D

 52 52  0     1  0  0  0  0  0999 V2000
   -2.0145    0.3238    4.4496 C   0  0  0  0  0  0  0  0  0  0  0  0
   -2.7685   -0.4782    3.9202 O   0  0  0  0  0  0  0  0  0  0  0  0
   -1.4283    0.0257    5.8167 C   0  0  0  0  0  0  0  0  0  0  0  0
   -1.7775   -0.9474    6.1733 H   0  0  0  0  0  0  0  0  0  0  0  0
   -0.3369    0.0087    5.7591 H   0  0  0  0  0  0  0  0  0  0  0  0
   -1.7362    0.7937    6.5301 H   0  0  0  0  0  0  0  0  0  0  0  0
   -1.6645    1.4882    3.7991 N   0  0  0  0  0  0  0  0  0  0  0  0
   -1.9408    1.7290    2.3761 C   0  0  2  0  0  0  0  0  0  0  0  0
   -0.6786    1.5222    1.5146 C   0  0  0  0  0  0  0  0  0  0  0  0
    0.4291    1.7227    1.9971 O   0  0  0  0  0  0  0  0  0  0  0  0
   -2.4553    3.1640    2.2407 C   0  0  0  0  0  0  0  0  0  0  0  0
   -0.8510    1.9656    4.1823 H   0  0  0  0  0  0  0  0  0  0  0  0
   -2.7149    1.0470    2.0099 H   0  0  0  0  0  0  0  0  0  0  0  0
   -1.6960    3.8769    2.5788 H   0  0  0  0  0  0  0  0  0  0  0  0
   -2.7014    3.3872    1.1983 H   0  0  0  0  0  0  0  0  0  0  0  0
   -3.3572    3.3017    2.8455 H   0  0  0  0  0  0  0  0  0  0  0  0
   -0.7750    1.3341    0.1476 N   0  0  0  0  0  0  0  0  0  0  0  0
    0.2374    0.5903   -0.6378 C   0  0  2  0  0  0  0  0  0  0  0  0
   -0.1966    0.5979   -2.1273 C   0  0  0  0  0  0  0  0  0  0  0  0
    0.1277   -0.2764   -2.9228 O   0  0  0  0  0  0  0  0  0  0  0  0
    0.3579   -0.9074   -0.2169 C   0  0  0  0  0  0  0  0  0  0  0  0
    0.9041   -1.1770    1.1644 C   0  0  0  0  0  0  0  0  0  0  0  0
    2.2870   -1.1498    1.3967 C   0  0  0  0  0  0  0  0  0  0  0  0
    0.0488   -1.5777    2.2040 C   0  0  0  0  0  0  0  0  0  0  0  0
    2.8029   -1.4694    2.6576 C   0  0  0  0  0  0  0  0  0  0  0  0
    0.5641   -1.9107    3.4605 C   0  0  0  0  0  0  0  0  0  0  0  0
    1.9411   -1.8488    3.6909 C   0  0  0  0  0  0  0  0  0  0  0  0
   -1.7338    1.2144   -0.1694 H   0  0  0  0  0  0  0  0  0  0  0  0
    1.2136    1.0785   -0.5489 H   0  0  0  0  0  0  0  0  0  0  0  0
    1.0221   -1.4260   -0.9166 H   0  0  0  0  0  0  0  0  0  0  0  0
   -0.6266   -1.3778   -0.3099 H   0  0  0  0  0  0  0  0  0  0  0  0
    2.9655   -0.8703    0.5967 H   0  0  0  0  0  0  0  0  0  0  0  0
   -1.0233   -1.6430    2.0410 H   0  0  0  0  0  0  0  0  0  0  0  0
    3.8738   -1.4285    2.8312 H   0  0  0  0  0  0  0  0  0  0  0  0
   -0.1096   -2.2254    4.2519 H   0  0  0  0  0  0  0  0  0  0  0  0
    2.3424   -2.1047    4.6667 H   0  0  0  0  0  0  0  0  0  0  0  0
   -0.9281    1.6674   -2.6152 N   0  0  0  0  0  0  0  0  0  0  0  0
   -1.3120    1.8295   -4.0265 C   0  0  2  0  0  0  0  0  0  0  0  0
   -0.1387    2.3475   -4.8924 C   0  0  0  0  0  0  0  0  0  0  0  0
   -0.1580    3.4607   -5.4029 O   0  0  0  0  0  0  0  0  0  0  0  0
   -2.5391    2.7486   -4.0688 C   0  0  0  0  0  0  0  0  0  0  0  0
   -0.9908    2.4797   -2.0063 H   0  0  0  0  0  0  0  0  0  0  0  0
   -1.6121    0.8603   -4.4397 H   0  0  0  0  0  0  0  0  0  0  0  0
   -2.2971    3.7362   -3.6635 H   0  0  0  0  0  0  0  0  0  0  0  0
   -2.8826    2.8735   -5.1009 H   0  0  0  0  0  0  0  0  0  0  0  0
   -3.3578    2.3197   -3.4833 H   0  0  0  0  0  0  0  0  0  0  0  0
    0.9742    1.5475   -5.0582 N   0  0  0  0  0  0  0  0  0  0  0  0
    2.1807    1.9685   -5.7576 C   0  0  0  0  0  0  0  0  0  0  0  0
    0.9770    0.6675   -4.5361 H   0  0  0  0  0  0  0  0  0  0  0  0
    1.9409    2.2955   -6.7747 H   0  0  0  0  0  0  0  0  0  0  0  0
    2.6618    2.7954   -5.2253 H   0  0  0  0  0  0  0  0  0  0  0  0
    2.8893    1.1372   -5.8221 H   0  0  0  0  0  0  0  0  0  0  0  0
  1  2  2  0  0  0  0
  1  3  1  0  0  0  0
  1  7  1  0  0  0  0
  3  4  1  0  0  0  0
  3  5  1  0  0  0  0
  3  6  1  0  0  0  0
  7  8  1  0  0  0  0
  7 12  1  0  0  0  0
  8  9  1  0  0  0  0
  8 11  1  0  0  0  0
  8 13  1  0  0  0  0
  9 10  2  0  0  0  0
  9 17  1  0  0  0  0
 11 14  1  0  0  0  0
 11 15  1  0  0  0  0
 11 16  1  0  0  0  0
 17 18  1  0  0  0  0
 17 28  1  0  0  0  0
 18 19  1  0  0  0  0
 18 21  1  0  0  0  0
 18 29  1  0  0  0  0
 19 20  2  0  0  0  0
 19 37  1  0  0  0  0
 21 22  1  0  0  0  0
 21 30  1  0  0  0  0
 21 31  1  0  0  0  0
 22 23  1  0  0  0  0
 22 24  2  0  0  0  0
 23 25  2  0  0  0  0
 23 32  1  0  0  0  0
 24 26  1  0  0  0  0
 24 33  1  0  0  0  0
 25 27  1  0  0  0  0
 25 34  1  0  0  0  0
 26 27  2  0  0  0  0
 26 35  1  0  0  0  0
 27 36  1  0  0  0  0
 37 38  1  0  0  0  0
 37 42  1  0  0  0  0
 38 39  1  0  0  0  0
 38 41  1  0  0  0  0
 38 43  1  0  0  0  0
 39 40  2  0  0  0  0
 39 47  1  0  0  0  0
 41 44  1  0  0  0  0
 41 45  1  0  0  0  0
 41 46  1  0  0  0  0
 47 48  1  0  0  0  0
 47 49  1  0  0  0  0
 48 50  1  0  0  0  0
 48 51  1  0  0  0  0
 48 52  1  0  0  0  0
M  END
$$$$

  -OEChem-05262217163D

 52 52  0     1  0  0  0  0  0999 V2000
   -1.9790    0.2852    4.4959 C   0  0  0  0  0  0  0  0  0  0  0  0
   -2.7372   -0.5319    3.9963 O   0  0  0  0  0  0  0  0  0  0  0  0
   -1.3623    0.0157    5.8557 C   0  0  0  0  0  0  0  0  0  0  0  0
   -1.6886   -0.9575    6.2330 H   0  0  0  0  0  0  0  0  0  0  0  0
   -0.2721    0.0158    5.7775 H   0  0  0  0  0  0  0  0  0  0  0  0
   -1.6697    0.7890    6.5637 H   0  0  0  0  0  0  0  0  0  0  0  0
   -1.6538    1.4430    3.8211 N   0  0  0  0  0  0  0  0  0  0  0  0
   -1.9524    1.6602    2.3984 C   0  0  2  0  0  0  0  0  0  0  0  0
   -0.6839    1.5275    1.5309 C   0  0  0  0  0  0  0  0  0  0  0  0
    0.4207    1.7200    2.0244 O   0  0  0  0  0  0  0  0  0  0  0  0
   -2.5583    3.0585    2.2607 C   0  0  0  0  0  0  0  0  0  0  0  0
   -0.8395    1.9354    4.1838 H   0  0  0  0  0  0  0  0  0  0  0  0
   -2.6820    0.9276    2.0383 H   0  0  0  0  0  0  0  0  0  0  0  0
   -1.8445    3.8207    2.5907 H   0  0  0  0  0  0  0  0  0  0  0  0
   -2.8262    3.2607    1.2192 H   0  0  0  0  0  0  0  0  0  0  0  0
   -3.4630    3.1389    2.8718 H   0  0  0  0  0  0  0  0  0  0  0  0
   -0.7688    1.3933    0.1572 N   0  0  0  0  0  0  0  0  0  0  0  0
    0.2387    0.6584   -0.6402 C   0  0  2  0  0  0  0  0  0  0  0  0
   -0.1857    0.7360   -2.1291 C   0  0  0  0  0  0  0  0  0  0  0  0
   -0.1425   -0.2180   -2.8977 O   0  0  0  0  0  0  0  0  0  0  0  0
    0.3438   -0.8522   -0.2655 C   0  0  0  0  0  0  0  0  0  0  0  0
    0.8801   -1.1676    1.1100 C   0  0  0  0  0  0  0  0  0  0  0  0
    2.2619   -1.1594    1.3502 C   0  0  0  0  0  0  0  0  0  0  0  0
    0.0153   -1.5840    2.1353 C   0  0  0  0  0  0  0  0  0  0  0  0
    2.7682   -1.5162    2.6050 C   0  0  0  0  0  0  0  0  0  0  0  0
    0.5205   -1.9521    3.3860 C   0  0  0  0  0  0  0  0  0  0  0  0
    1.8970   -1.9108    3.6247 C   0  0  0  0  0  0  0  0  0  0  0  0
   -1.7256    1.3023   -0.1758 H   0  0  0  0  0  0  0  0  0  0  0  0
    1.2205    1.1302   -0.5272 H   0  0  0  0  0  0  0  0  0  0  0  0
    1.0056   -1.3517   -0.9815 H   0  0  0  0  0  0  0  0  0  0  0  0
   -0.6445   -1.3105   -0.3767 H   0  0  0  0  0  0  0  0  0  0  0  0
    2.9484   -0.8653    0.5626 H   0  0  0  0  0  0  0  0  0  0  0  0
   -1.0568   -1.6330    1.9671 H   0  0  0  0  0  0  0  0  0  0  0  0
    3.8390   -1.4912    2.7838 H   0  0  0  0  0  0  0  0  0  0  0  0
   -0.1622   -2.2777    4.1655 H   0  0  0  0  0  0  0  0  0  0  0  0
    2.2904   -2.1942    4.5960 H   0  0  0  0  0  0  0  0  0  0  0  0
   -0.6026    1.9527   -2.6393 N   0  0  0  0  0  0  0  0  0  0  0  0
   -0.9376    2.1882   -4.0532 C   0  0  2  0  0  0  0  0  0  0  0  0
    0.3247    2.3165   -4.9403 C   0  0  0  0  0  0  0  0  0  0  0  0
    0.6095    3.3638   -5.5081 O   0  0  0  0  0  0  0  0  0  0  0  0
   -1.8382    3.4281   -4.1128 C   0  0  0  0  0  0  0  0  0  0  0  0
   -0.4917    2.7594   -2.0292 H   0  0  0  0  0  0  0  0  0  0  0  0
   -1.5150    1.3415   -4.4402 H   0  0  0  0  0  0  0  0  0  0  0  0
   -1.3072    4.3101   -3.7402 H   0  0  0  0  0  0  0  0  0  0  0  0
   -2.1473    3.6216   -5.1452 H   0  0  0  0  0  0  0  0  0  0  0  0
   -2.7367    3.2770   -3.5070 H   0  0  0  0  0  0  0  0  0  0  0  0
    1.1663    1.2294   -5.0689 N   0  0  0  0  0  0  0  0  0  0  0  0
    2.4230    1.2528   -5.8045 C   0  0  0  0  0  0  0  0  0  0  0  0
    0.9166    0.3989   -4.5259 H   0  0  0  0  0  0  0  0  0  0  0  0
    2.2458    1.4852   -6.8596 H   0  0  0  0  0  0  0  0  0  0  0  0
    3.0989    2.0059   -5.3859 H   0  0  0  0  0  0  0  0  0  0  0  0
    2.9123    0.2760   -5.7439 H   0  0  0  0  0  0  0  0  0  0  0  0
  1  2  2  0  0  0  0
  1  3  1  0  0  0  0
  1  7  1  0  0  0  0
  3  4  1  0  0  0  0
  3  5  1  0  0  0  0
  3  6  1  0  0  0  0
  7  8  1  0  0  0  0
  7 12  1  0  0  0  0
  8  9  1  0  0  0  0
  8 11  1  0  0  0  0
  8 13  1  0  0  0  0
  9 10  2  0  0  0  0
  9 17  1  0  0  0  0
 11 14  1  0  0  0  0
 11 15  1  0  0  0  0
 11 16  1  0  0  0  0
 17 18  1  0  0  0  0
 17 28  1  0  0  0  0
 18 19  1  0  0  0  0
 18 21  1  0  0  0  0
 18 29  1  0  0  0  0
 19 20  2  0  0  0  0
 19 37  1  0  0  0  0
 21 22  1  0  0  0  0
 21 30  1  0  0  0  0
 21 31  1  0  0  0  0
 22 23  1  0  0  0  0
 22 24  2  0  0  0  0
 23 25  2  0  0  0  0
 23 32  1  0  0  0  0
 24 26  1  0  0  0  0
 24 33  1  0  0  0  0
 25 27  1  0  0  0  0
 25 34  1  0  0  0  0
 26 27  2  0  0  0  0
 26 35  1  0  0  0  0
 27 36  1  0  0  0  0
 37 38  1  0  0  0  0
 37 42  1  0  0  0  0
 38 39  1  0  0  0  0
 38 41  1  0  0  0  0
 38 43  1  0  0  0  0
 39 40  2  0  0  0  0
 39 47  1  0  0  0  0
 41 44  1  0  0  0  0
 41 45  1  0  0  0  0
 41 46  1  0  0  0  0
 47 48  1  0  0  0  0
 47 49  1  0  0  0  0
 48 50  1  0  0  0  0
 48 51  1  0  0  0  0
 48 52  1  0  0  0  0
M  END
$$$$

  -OEChem-05262217163D

 52 52  0     1  0  0  0  0  0999 V2000
   -2.0880    0.1972    4.4269 C   0  0  0  0  0  0  0  0  0  0  0  0
   -2.8313   -0.5960    3.8701 O   0  0  0  0  0  0  0  0  0  0  0  0
   -1.5248   -0.1258    5.7982 C   0  0  0  0  0  0  0  0  0  0  0  0
   -1.8738   -1.1082    6.1285 H   0  0  0  0  0  0  0  0  0  0  0  0
   -0.4326   -0.1344    5.7594 H   0  0  0  0  0  0  0  0  0  0  0  0
   -1.8508    0.6251    6.5219 H   0  0  0  0  0  0  0  0  0  0  0  0
   -1.7289    1.3752    3.8063 N   0  0  0  0  0  0  0  0  0  0  0  0
   -1.9683    1.6453    2.3812 C   0  0  2  0  0  0  0  0  0  0  0  0
   -0.6630    1.5492    1.5644 C   0  0  0  0  0  0  0  0  0  0  0  0
    0.4195    1.7233    2.1109 O   0  0  0  0  0  0  0  0  0  0  0  0
   -2.5756    3.0455    2.2715 C   0  0  0  0  0  0  0  0  0  0  0  0
   -0.9280    1.8494    4.2191 H   0  0  0  0  0  0  0  0  0  0  0  0
   -2.6784    0.9245    1.9624 H   0  0  0  0  0  0  0  0  0  0  0  0
   -1.8803    3.7970    2.6591 H   0  0  0  0  0  0  0  0  0  0  0  0
   -2.8021    3.2860    1.2285 H   0  0  0  0  0  0  0  0  0  0  0  0
   -3.5047    3.0997    2.8478 H   0  0  0  0  0  0  0  0  0  0  0  0
   -0.6895    1.4612    0.1852 N   0  0  0  0  0  0  0  0  0  0  0  0
    0.3434    0.7477   -0.5952 C   0  0  2  0  0  0  0  0  0  0  0  0
   -0.0252    0.8832   -2.0929 C   0  0  0  0  0  0  0  0  0  0  0  0
   -0.2852   -0.0716   -2.8170 O   0  0  0  0  0  0  0  0  0  0  0  0
    0.4420   -0.7732   -0.2682 C   0  0  0  0  0  0  0  0  0  0  0  0
    0.9342   -1.1328    1.1136 C   0  0  0  0  0  0  0  0  0  0  0  0
    2.3076   -1.1289    1.3994 C   0  0  0  0  0  0  0  0  0  0  0  0
    0.0376   -1.5785    2.0987 C   0  0  0  0  0  0  0  0  0  0  0  0
    2.7733   -1.5214    2.6592 C   0  0  0  0  0  0  0  0  0  0  0  0
    0.5027   -1.9820    3.3543 C   0  0  0  0  0  0  0  0  0  0  0  0
    1.8707   -1.9465    3.6385 C   0  0  0  0  0  0  0  0  0  0  0  0
   -1.6313    1.3908   -0.1927 H   0  0  0  0  0  0  0  0  0  0  0  0
    1.3208    1.2122   -0.4288 H   0  0  0  0  0  0  0  0  0  0  0  0
    1.1231   -1.2438   -0.9860 H   0  0  0  0  0  0  0  0  0  0  0  0
   -0.5421   -1.2299   -0.4204 H   0  0  0  0  0  0  0  0  0  0  0  0
    3.0194   -0.8134    0.6431 H   0  0  0  0  0  0  0  0  0  0  0  0
   -1.0285   -1.6219    1.8945 H   0  0  0  0  0  0  0  0  0  0  0  0
    3.8373   -1.4996    2.8737 H   0  0  0  0  0  0  0  0  0  0  0  0
   -0.2042   -2.3286    4.1025 H   0  0  0  0  0  0  0  0  0  0  0  0
    2.2327   -2.2566    4.6140 H   0  0  0  0  0  0  0  0  0  0  0  0
   -0.1067    2.1505   -2.6410 N   0  0  0  0  0  0  0  0  0  0  0  0
   -0.4560    2.4343   -4.0425 C   0  0  2  0  0  0  0  0  0  0  0  0
    0.7150    2.1518   -5.0162 C   0  0  0  0  0  0  0  0  0  0  0  0
    1.2314    3.0422   -5.6803 O   0  0  0  0  0  0  0  0  0  0  0  0
   -0.9452    3.8867   -4.1074 C   0  0  0  0  0  0  0  0  0  0  0  0
    0.1710    2.9261   -2.0443 H   0  0  0  0  0  0  0  0  0  0  0  0
   -1.2873    1.7901   -4.3484 H   0  0  0  0  0  0  0  0  0  0  0  0
   -0.1465    4.5756   -3.8141 H   0  0  0  0  0  0  0  0  0  0  0  0
   -1.2583    4.1355   -5.1265 H   0  0  0  0  0  0  0  0  0  0  0  0
   -1.7993    4.0338   -3.4397 H   0  0  0  0  0  0  0  0  0  0  0  0
    1.1911    0.8614   -5.1366 N   0  0  0  0  0  0  0  0  0  0  0  0
    2.3020    0.4766   -5.9956 C   0  0  0  0  0  0  0  0  0  0  0  0
    0.7605    0.1623   -4.5258 H   0  0  0  0  0  0  0  0  0  0  0  0
    2.0688    0.6945   -7.0430 H   0  0  0  0  0  0  0  0  0  0  0  0
    3.2099    1.0205   -5.7147 H   0  0  0  0  0  0  0  0  0  0  0  0
    2.4969   -0.5959   -5.9002 H   0  0  0  0  0  0  0  0  0  0  0  0
  1  2  2  0  0  0  0
  1  3  1  0  0  0  0
  1  7  1  0  0  0  0
  3  4  1  0  0  0  0
  3  5  1  0  0  0  0
  3  6  1  0  0  0  0
  7  8  1  0  0  0  0
  7 12  1  0  0  0  0
  8  9  1  0  0  0  0
  8 11  1  0  0  0  0
  8 13  1  0  0  0  0
  9 10  2  0  0  0  0
  9 17  1  0  0  0  0
 11 14  1  0  0  0  0
 11 15  1  0  0  0  0
 11 16  1  0  0  0  0
 17 18  1  0  0  0  0
 17 28  1  0  0  0  0
 18 19  1  0  0  0  0
 18 21  1  0  0  0  0
 18 29  1  0  0  0  0
 19 20  2  0  0  0  0
 19 37  1  0  0  0  0
 21 22  1  0  0  0  0
 21 30  1  0  0  0  0
 21 31  1  0  0  0  0
 22 23  1  0  0  0  0
 22 24  2  0  0  0  0
 23 25  2  0  0  0  0
 23 32  1  0  0  0  0
 24 26  1  0  0  0  0
 24 33  1  0  0  0  0
 25 27  1  0  0  0  0
 25 34  1  0  0  0  0
 26 27  2  0  0  0  0
 26 35  1  0  0  0  0
 27 36  1  0  0  0  0
 37 38  1  0  0  0  0
 37 42  1  0  0  0  0
 38 39  1  0  0  0  0
 38 41  1  0  0  0  0
 38 43  1  0  0  0  0
 39 40  2  0  0  0  0
 39 47  1  0  0  0  0
 41 44  1  0  0  0  0
 41 45  1  0  0  0  0
 41 46  1  0  0  0  0
 47 48  1  0  0  0  0
 47 49  1  0  0  0  0
 48 50  1  0  0  0  0
 48 51  1  0  0  0  0
 48 52  1  0  0  0  0
M  END
$$$$

  -OEChem-05262217163D

 52 52  0     1  0  0  0  0  0999 V2000
   -2.1374    0.1598    4.3740 C   0  0  0  0  0  0  0  0  0  0  0  0
   -2.8799   -0.6066    3.7797 O   0  0  0  0  0  0  0  0  0  0  0  0
   -1.6195   -0.2028    5.7533 C   0  0  0  0  0  0  0  0  0  0  0  0
   -1.9706   -1.1979    6.0404 H   0  0  0  0  0  0  0  0  0  0  0  0
   -0.5265   -0.2014    5.7536 H   0  0  0  0  0  0  0  0  0  0  0  0
   -1.9781    0.5223    6.4877 H   0  0  0  0  0  0  0  0  0  0  0  0
   -1.7436    1.3465    3.7925 N   0  0  0  0  0  0  0  0  0  0  0  0
   -1.9520    1.6617    2.3720 C   0  0  2  0  0  0  0  0  0  0  0  0
   -0.6331    1.5726    1.5774 C   0  0  0  0  0  0  0  0  0  0  0  0
    0.4416    1.7131    2.1492 O   0  0  0  0  0  0  0  0  0  0  0  0
   -2.5398    3.0724    2.2928 C   0  0  0  0  0  0  0  0  0  0  0  0
   -0.9425    1.7947    4.2331 H   0  0  0  0  0  0  0  0  0  0  0  0
   -2.6620    0.9628    1.9177 H   0  0  0  0  0  0  0  0  0  0  0  0
   -1.8456    3.8021    2.7223 H   0  0  0  0  0  0  0  0  0  0  0  0
   -2.7368    3.3492    1.2528 H   0  0  0  0  0  0  0  0  0  0  0  0
   -3.4829    3.1204    2.8465 H   0  0  0  0  0  0  0  0  0  0  0  0
   -0.6346    1.5198    0.1964 N   0  0  0  0  0  0  0  0  0  0  0  0
    0.4023    0.8108   -0.5792 C   0  0  2  0  0  0  0  0  0  0  0  0
    0.0715    0.9846   -2.0796 C   0  0  0  0  0  0  0  0  0  0  0  0
   -0.4579    0.1078   -2.7539 O   0  0  0  0  0  0  0  0  0  0  0  0
    0.4698   -0.7193   -0.2950 C   0  0  0  0  0  0  0  0  0  0  0  0
    0.9256   -1.1248    1.0863 C   0  0  0  0  0  0  0  0  0  0  0  0
    2.2923   -1.1502    1.4007 C   0  0  0  0  0  0  0  0  0  0  0  0
    0.0009   -1.5812    2.0404 C   0  0  0  0  0  0  0  0  0  0  0  0
    2.7247   -1.5873    2.6578 C   0  0  0  0  0  0  0  0  0  0  0  0
    0.4324   -2.0262    3.2939 C   0  0  0  0  0  0  0  0  0  0  0  0
    1.7946   -2.0245    3.6061 C   0  0  0  0  0  0  0  0  0  0  0  0
   -1.5690    1.4709   -0.2034 H   0  0  0  0  0  0  0  0  0  0  0  0
    1.3838    1.2523   -0.3766 H   0  0  0  0  0  0  0  0  0  0  0  0
    1.1535   -1.1793   -1.0166 H   0  0  0  0  0  0  0  0  0  0  0  0
   -0.5188   -1.1557   -0.4749 H   0  0  0  0  0  0  0  0  0  0  0  0
    3.0249   -0.8233    0.6696 H   0  0  0  0  0  0  0  0  0  0  0  0
   -1.0617   -1.5996    1.8137 H   0  0  0  0  0  0  0  0  0  0  0  0
    3.7844   -1.5910    2.8945 H   0  0  0  0  0  0  0  0  0  0  0  0
   -0.2957   -2.3792    4.0181 H   0  0  0  0  0  0  0  0  0  0  0  0
    2.1310   -2.3693    4.5791 H   0  0  0  0  0  0  0  0  0  0  0  0
    0.3215    2.2039   -2.6816 N   0  0  0  0  0  0  0  0  0  0  0  0
    0.0269    2.5137   -4.0901 C   0  0  2  0  0  0  0  0  0  0  0  0
    1.0597    1.8913   -5.0620 C   0  0  0  0  0  0  0  0  0  0  0  0
    1.7740    2.5851   -5.7754 O   0  0  0  0  0  0  0  0  0  0  0  0
   -0.0644    4.0399   -4.2143 C   0  0  0  0  0  0  0  0  0  0  0  0
    0.7820    2.9131   -2.1163 H   0  0  0  0  0  0  0  0  0  0  0  0
   -0.9516    2.1006   -4.3577 H   0  0  0  0  0  0  0  0  0  0  0  0
    0.8921    4.5063   -3.9566 H   0  0  0  0  0  0  0  0  0  0  0  0
   -0.3199    4.3214   -5.2410 H   0  0  0  0  0  0  0  0  0  0  0  0
   -0.8378    4.4323   -3.5471 H   0  0  0  0  0  0  0  0  0  0  0  0
    1.1844    0.5172   -5.1198 N   0  0  0  0  0  0  0  0  0  0  0  0
    2.1485   -0.1801   -5.9596 C   0  0  0  0  0  0  0  0  0  0  0  0
    0.6001   -0.0172   -4.4717 H   0  0  0  0  0  0  0  0  0  0  0  0
    1.9827    0.0618   -7.0146 H   0  0  0  0  0  0  0  0  0  0  0  0
    3.1696    0.1061   -5.6876 H   0  0  0  0  0  0  0  0  0  0  0  0
    2.0462   -1.2621   -5.8332 H   0  0  0  0  0  0  0  0  0  0  0  0
  1  2  2  0  0  0  0
  1  3  1  0  0  0  0
  1  7  1  0  0  0  0
  3  4  1  0  0  0  0
  3  5  1  0  0  0  0
  3  6  1  0  0  0  0
  7  8  1  0  0  0  0
  7 12  1  0  0  0  0
  8  9  1  0  0  0  0
  8 11  1  0  0  0  0
  8 13  1  0  0  0  0
  9 10  2  0  0  0  0
  9 17  1  0  0  0  0
 11 14  1  0  0  0  0
 11 15  1  0  0  0  0
 11 16  1  0  0  0  0
 17 18  1  0  0  0  0
 17 28  1  0  0  0  0
 18 19  1  0  0  0  0
 18 21  1  0  0  0  0
 18 29  1  0  0  0  0
 19 20  2  0  0  0  0
 19 37  1  0  0  0  0
 21 22  1  0  0  0  0
 21 30  1  0  0  0  0
 21 31  1  0  0  0  0
 22 23  1  0  0  0  0
 22 24  2  0  0  0  0
 23 25  2  0  0  0  0
 23 32  1  0  0  0  0
 24 26  1  0  0  0  0
 24 33  1  0  0  0  0
 25 27  1  0  0  0  0
 25 34  1  0  0  0  0
 26 27  2  0  0  0  0
 26 35  1  0  0  0  0
 27 36  1  0  0  0  0
 37 38  1  0  0  0  0
 37 42  1  0  0  0  0
 38 39  1  0  0  0  0
 38 41  1  0  0  0  0
 38 43  1  0  0  0  0
 39 40  2  0  0  0  0
 39 47  1  0  0  0  0
 41 44  1  0  0  0  0
 41 45  1  0  0  0  0
 41 46  1  0  0  0  0
 47 48  1  0  0  0  0
 47 49  1  0  0  0  0
 48 50  1  0  0  0  0
 48 51  1  0  0  0  0
 48 52  1  0  0  0  0
M  END
$$$$

  -OEChem-05262217163D

 52 52  0     1  0  0  0  0  0999 V2000
   -2.2132    0.1225    4.2870 C   0  0  0  0  0  0  0  0  0  0  0  0
   -2.9247   -0.6353    3.6459 O   0  0  0  0  0  0  0  0  0  0  0  0
   -1.7489   -0.2688    5.6769 C   0  0  0  0  0  0  0  0  0  0  0  0
   -2.1046   -1.2724    5.9258 H   0  0  0  0  0  0  0  0  0  0  0  0
   -0.6569   -0.2606    5.7220 H   0  0  0  0  0  0  0  0  0  0  0  0
   -2.1424    0.4368    6.4123 H   0  0  0  0  0  0  0  0  0  0  0  0
   -1.8049    1.3253    3.7505 N   0  0  0  0  0  0  0  0  0  0  0  0
   -1.9540    1.6698    2.3295 C   0  0  2  0  0  0  0  0  0  0  0  0
   -0.6066    1.5806    1.5843 C   0  0  0  0  0  0  0  0  0  0  0  0
    0.4471    1.7047    2.1980 O   0  0  0  0  0  0  0  0  0  0  0  0
   -2.5201    3.0895    2.2539 C   0  0  0  0  0  0  0  0  0  0  0  0
   -1.0260    1.7675    4.2344 H   0  0  0  0  0  0  0  0  0  0  0  0
   -2.6550    0.9892    1.8349 H   0  0  0  0  0  0  0  0  0  0  0  0
   -1.8346    3.8017    2.7248 H   0  0  0  0  0  0  0  0  0  0  0  0
   -2.6708    3.3882    1.2120 H   0  0  0  0  0  0  0  0  0  0  0  0
   -3.4843    3.1394    2.7697 H   0  0  0  0  0  0  0  0  0  0  0  0
   -0.5593    1.5443    0.2039 N   0  0  0  0  0  0  0  0  0  0  0  0
    0.5066    0.8534   -0.5454 C   0  0  2  0  0  0  0  0  0  0  0  0
    0.2269    1.0425   -2.0516 C   0  0  0  0  0  0  0  0  0  0  0  0
   -0.5452    0.3140   -2.6655 O   0  0  0  0  0  0  0  0  0  0  0  0
    0.5714   -0.6817   -0.2963 C   0  0  0  0  0  0  0  0  0  0  0  0
    0.9779   -1.1120    1.0922 C   0  0  0  0  0  0  0  0  0  0  0  0
    2.3316   -1.1362    1.4574 C   0  0  0  0  0  0  0  0  0  0  0  0
    0.0195   -1.5862    2.0031 C   0  0  0  0  0  0  0  0  0  0  0  0
    2.7179   -1.5886    2.7238 C   0  0  0  0  0  0  0  0  0  0  0  0
    0.4052   -2.0472    3.2655 C   0  0  0  0  0  0  0  0  0  0  0  0
    1.7545   -2.0427    3.6296 C   0  0  0  0  0  0  0  0  0  0  0  0
   -1.4777    1.5007   -0.2328 H   0  0  0  0  0  0  0  0  0  0  0  0
    1.4774    1.2951   -0.2989 H   0  0  0  0  0  0  0  0  0  0  0  0
    1.2815   -1.1221   -1.0044 H   0  0  0  0  0  0  0  0  0  0  0  0
   -0.4081   -1.1190   -0.5187 H   0  0  0  0  0  0  0  0  0  0  0  0
    3.0900   -0.7947    0.7602 H   0  0  0  0  0  0  0  0  0  0  0  0
   -1.0334   -1.6039    1.7351 H   0  0  0  0  0  0  0  0  0  0  0  0
    3.7677   -1.5901    3.0009 H   0  0  0  0  0  0  0  0  0  0  0  0
   -0.3483   -2.4128    3.9568 H   0  0  0  0  0  0  0  0  0  0  0  0
    2.0550   -2.3989    4.6102 H   0  0  0  0  0  0  0  0  0  0  0  0
    0.7613    2.1329   -2.7128 N   0  0  0  0  0  0  0  0  0  0  0  0
    0.5015    2.4586   -4.1246 C   0  0  2  0  0  0  0  0  0  0  0  0
    1.2867    1.5462   -5.0992 C   0  0  0  0  0  0  0  0  0  0  0  0
    2.1321    1.9949   -5.8636 O   0  0  0  0  0  0  0  0  0  0  0  0
    0.8184    3.9472   -4.3169 C   0  0  0  0  0  0  0  0  0  0  0  0
    1.3884    2.7353   -2.1859 H   0  0  0  0  0  0  0  0  0  0  0  0
   -0.5625    2.3160   -4.3415 H   0  0  0  0  0  0  0  0  0  0  0  0
    1.8771    4.1456   -4.1204 H   0  0  0  0  0  0  0  0  0  0  0  0
    0.5955    4.2517   -5.3446 H   0  0  0  0  0  0  0  0  0  0  0  0
    0.2149    4.5579   -3.6386 H   0  0  0  0  0  0  0  0  0  0  0  0
    1.0318    0.1891   -5.1017 N   0  0  0  0  0  0  0  0  0  0  0  0
    1.7311   -0.7721   -5.9432 C   0  0  0  0  0  0  0  0  0  0  0  0
    0.3532   -0.1445   -4.4123 H   0  0  0  0  0  0  0  0  0  0  0  0
    1.5800   -0.5359   -7.0017 H   0  0  0  0  0  0  0  0  0  0  0  0
    2.8046   -0.7595   -5.7284 H   0  0  0  0  0  0  0  0  0  0  0  0
    1.3527   -1.7818   -5.7570 H   0  0  0  0  0  0  0  0  0  0  0  0
  1  2  2  0  0  0  0
  1  3  1  0  0  0  0
  1  7  1  0  0  0  0
  3  4  1  0  0  0  0
  3  5  1  0  0  0  0
  3  6  1  0  0  0  0
  7  8  1  0  0  0  0
  7 12  1  0  0  0  0
  8  9  1  0  0  0  0
  8 11  1  0  0  0  0
  8 13  1  0  0  0  0
  9 10  2  0  0  0  0
  9 17  1  0  0  0  0
 11 14  1  0  0  0  0
 11 15  1  0  0  0  0
 11 16  1  0  0  0  0
 17 18  1  0  0  0  0
 17 28  1  0  0  0  0
 18 19  1  0  0  0  0
 18 21  1  0  0  0  0
 18 29  1  0  0  0  0
 19 20  2  0  0  0  0
 19 37  1  0  0  0  0
 21 22  1  0  0  0  0
 21 30  1  0  0  0  0
 21 31  1  0  0  0  0
 22 23  1  0  0  0  0
 22 24  2  0  0  0  0
 23 25  2  0  0  0  0
 23 32  1  0  0  0  0
 24 26  1  0  0  0  0
 24 33  1  0  0  0  0
 25 27  1  0  0  0  0
 25 34  1  0  0  0  0
 26 27  2  0  0  0  0
 26 35  1  0  0  0  0
 27 36  1  0  0  0  0
 37 38  1  0  0  0  0
 37 42  1  0  0  0  0
 38 39  1  0  0  0  0
 38 41  1  0  0  0  0
 38 43  1  0  0  0  0
 39 40  2  0  0  0  0
 39 47  1  0  0  0  0
 41 44  1  0  0  0  0
 41 45  1  0  0  0  0
 41 46  1  0  0  0  0
 47 48  1  0  0  0  0
 47 49  1  0  0  0  0
 48 50  1  0  0  0  0
 48 51  1  0  0  0  0
 48 52  1  0  0  0  0
M  END
$$$$

  -OEChem-05262217163D

 52 52  0     1  0  0  0  0  0999 V2000
   -2.2538    0.1053    4.2079 C   0  0  0  0  0  0  0  0  0  0  0  0
   -2.9410   -0.6409    3.5277 O   0  0  0  0  0  0  0  0  0  0  0  0
   -1.8154   -0.3250    5.5950 C   0  0  0  0  0  0  0  0  0  0  0  0
   -2.1910   -1.3282    5.8153 H   0  0  0  0  0  0  0  0  0  0  0  0
   -0.7239   -0.3357    5.6534 H   0  0  0  0  0  0  0  0  0  0  0  0
   -2.2065    0.3687    6.3430 H   0  0  0  0  0  0  0  0  0  0  0  0
   -1.8423    1.3254    3.7145 N   0  0  0  0  0  0  0  0  0  0  0  0
   -1.9488    1.6984    2.2965 C   0  0  2  0  0  0  0  0  0  0  0  0
   -0.5862    1.5921    1.5808 C   0  0  0  0  0  0  0  0  0  0  0  0
    0.4542    1.6960    2.2208 O   0  0  0  0  0  0  0  0  0  0  0  0
   -2.4816    3.1313    2.2342 C   0  0  0  0  0  0  0  0  0  0  0  0
   -1.0825    1.7620    4.2323 H   0  0  0  0  0  0  0  0  0  0  0  0
   -2.6542    1.0433    1.7748 H   0  0  0  0  0  0  0  0  0  0  0  0
   -1.7863    3.8209    2.7240 H   0  0  0  0  0  0  0  0  0  0  0  0
   -2.6119    3.4470    1.1945 H   0  0  0  0  0  0  0  0  0  0  0  0
   -3.4507    3.1961    2.7387 H   0  0  0  0  0  0  0  0  0  0  0  0
   -0.5054    1.5627    0.2016 N   0  0  0  0  0  0  0  0  0  0  0  0
    0.5837    0.8865   -0.5261 C   0  0  2  0  0  0  0  0  0  0  0  0
    0.3378    1.0797   -2.0359 C   0  0  0  0  0  0  0  0  0  0  0  0
   -0.6093    0.5370   -2.5958 O   0  0  0  0  0  0  0  0  0  0  0  0
    0.6437   -0.6518   -0.3062 C   0  0  0  0  0  0  0  0  0  0  0  0
    1.0069   -1.1078    1.0865 C   0  0  0  0  0  0  0  0  0  0  0  0
    2.3473   -1.1380    1.4985 C   0  0  0  0  0  0  0  0  0  0  0  0
    0.0180   -1.5954    1.9566 C   0  0  0  0  0  0  0  0  0  0  0  0
    2.6894   -1.6120    2.7702 C   0  0  0  0  0  0  0  0  0  0  0  0
    0.3597   -2.0799    3.2228 C   0  0  0  0  0  0  0  0  0  0  0  0
    1.6954   -2.0826    3.6337 C   0  0  0  0  0  0  0  0  0  0  0  0
   -1.4101    1.5234   -0.2645 H   0  0  0  0  0  0  0  0  0  0  0  0
    1.5453    1.3293   -0.2478 H   0  0  0  0  0  0  0  0  0  0  0  0
    1.3780   -1.0768   -0.9992 H   0  0  0  0  0  0  0  0  0  0  0  0
   -0.3264   -1.0868   -0.5705 H   0  0  0  0  0  0  0  0  0  0  0  0
    3.1294   -0.7843    0.8346 H   0  0  0  0  0  0  0  0  0  0  0  0
   -1.0256   -1.6061    1.6543 H   0  0  0  0  0  0  0  0  0  0  0  0
    3.7287   -1.6183    3.0851 H   0  0  0  0  0  0  0  0  0  0  0  0
   -0.4179   -2.4571    3.8805 H   0  0  0  0  0  0  0  0  0  0  0  0
    1.9614   -2.4549    4.6183 H   0  0  0  0  0  0  0  0  0  0  0  0
    1.1042    1.9766   -2.7573 N   0  0  0  0  0  0  0  0  0  0  0  0
    0.9041    2.2765   -4.1841 C   0  0  2  0  0  0  0  0  0  0  0  0
    1.4293    1.1467   -5.1037 C   0  0  0  0  0  0  0  0  0  0  0  0
    2.3711    1.3207   -5.8673 O   0  0  0  0  0  0  0  0  0  0  0  0
    1.5677    3.6301   -4.4670 C   0  0  0  0  0  0  0  0  0  0  0  0
    1.8806    2.4225   -2.2758 H   0  0  0  0  0  0  0  0  0  0  0  0
   -0.1669    2.3834   -4.3873 H   0  0  0  0  0  0  0  0  0  0  0  0
    2.6458    3.5780   -4.2835 H   0  0  0  0  0  0  0  0  0  0  0  0
    1.4093    3.9178   -5.5112 H   0  0  0  0  0  0  0  0  0  0  0  0
    1.1395    4.4074   -3.8269 H   0  0  0  0  0  0  0  0  0  0  0  0
    0.8298   -0.0958   -5.0478 N   0  0  0  0  0  0  0  0  0  0  0  0
    1.2731   -1.2505   -5.8167 C   0  0  0  0  0  0  0  0  0  0  0  0
    0.0953   -0.2110   -4.3450 H   0  0  0  0  0  0  0  0  0  0  0  0
    1.2122   -1.0420   -6.8898 H   0  0  0  0  0  0  0  0  0  0  0  0
    2.3078   -1.5052   -5.5646 H   0  0  0  0  0  0  0  0  0  0  0  0
    0.6396   -2.1151   -5.5964 H   0  0  0  0  0  0  0  0  0  0  0  0
  1  2  2  0  0  0  0
  1  3  1  0  0  0  0
  1  7  1  0  0  0  0
  3  4  1  0  0  0  0
  3  5  1  0  0  0  0
  3  6  1  0  0  0  0
  7  8  1  0  0  0  0
  7 12  1  0  0  0  0
  8  9  1  0  0  0  0
  8 11  1  0  0  0  0
  8 13  1  0  0  0  0
  9 10  2  0  0  0  0
  9 17  1  0  0  0  0
 11 14  1  0  0  0  0
 11 15  1  0  0  0  0
 11 16  1  0  0  0  0
 17 18  1  0  0  0  0
 17 28  1  0  0  0  0
 18 19  1  0  0  0  0
 18 21  1  0  0  0  0
 18 29  1  0  0  0  0
 19 20  2  0  0  0  0
 19 37  1  0  0  0  0
 21 22  1  0  0  0  0
 21 30  1  0  0  0  0
 21 31  1  0  0  0  0
 22 23  1  0  0  0  0
 22 24  2  0  0  0  0
 23 25  2  0  0  0  0
 23 32  1  0  0  0  0
 24 26  1  0  0  0  0
 24 33  1  0  0  0  0
 25 27  1  0  0  0  0
 25 34  1  0  0  0  0
 26 27  2  0  0  0  0
 26 35  1  0  0  0  0
 27 36  1  0  0  0  0
 37 38  1  0  0  0  0
 37 42  1  0  0  0  0
 38 39  1  0  0  0  0
 38 41  1  0  0  0  0
 38 43  1  0  0  0  0
 39 40  2  0  0  0  0
 39 47  1  0  0  0  0
 41 44  1  0  0  0  0
 41 45  1  0  0  0  0
 41 46  1  0  0  0  0
 47 48  1  0  0  0  0
 47 49  1  0  0  0  0
 48 50  1  0  0  0  0
 48 51  1  0  0  0  0
 48 52  1  0  0  0  0
M  END
$$$$

  -OEChem-05262217163D

 52 52  0     1  0  0  0  0  0999 V2000
   -2.3332    0.0938    4.0966 C   0  0  0  0  0  0  0  0  0  0  0  0
   -2.9872   -0.6343    3.3657 O   0  0  0  0  0  0  0  0  0  0  0  0
   -1.9753   -0.3646    5.4978 C   0  0  0  0  0  0  0  0  0  0  0  0
   -2.3528   -1.3761    5.6724 H   0  0  0  0  0  0  0  0  0  0  0  0
   -0.8896   -0.3664    5.6238 H   0  0  0  0  0  0  0  0  0  0  0  0
   -2.4194    0.3092    6.2344 H   0  0  0  0  0  0  0  0  0  0  0  0
   -1.8932    1.3234    3.6536 N   0  0  0  0  0  0  0  0  0  0  0  0
   -1.9376    1.7347    2.2432 C   0  0  2  0  0  0  0  0  0  0  0  0
   -0.5555    1.6004    1.5722 C   0  0  0  0  0  0  0  0  0  0  0  0
    0.4661    1.6861    2.2446 O   0  0  0  0  0  0  0  0  0  0  0  0
   -2.4195    3.1861    2.1996 C   0  0  0  0  0  0  0  0  0  0  0  0
   -1.1563    1.7430    4.2164 H   0  0  0  0  0  0  0  0  0  0  0  0
   -2.6463    1.1173    1.6812 H   0  0  0  0  0  0  0  0  0  0  0  0
   -1.7214    3.8381    2.7345 H   0  0  0  0  0  0  0  0  0  0  0  0
   -2.4972    3.5339    1.1650 H   0  0  0  0  0  0  0  0  0  0  0  0
   -3.4055    3.2709    2.6670 H   0  0  0  0  0  0  0  0  0  0  0  0
   -0.4376    1.5559    0.1966 N   0  0  0  0  0  0  0  0  0  0  0  0
    0.6688    0.8818   -0.5048 C   0  0  2  0  0  0  0  0  0  0  0  0
    0.4559    1.0591   -2.0200 C   0  0  0  0  0  0  0  0  0  0  0  0
   -0.6017    0.7189   -2.5414 O   0  0  0  0  0  0  0  0  0  0  0  0
    0.7252   -0.6546   -0.2877 C   0  0  0  0  0  0  0  0  0  0  0  0
    1.0548   -1.1120    1.1125 C   0  0  0  0  0  0  0  0  0  0  0  0
    2.3853   -1.1409    1.5564 C   0  0  0  0  0  0  0  0  0  0  0  0
    0.0455   -1.5998    1.9581 C   0  0  0  0  0  0  0  0  0  0  0  0
    2.6972   -1.6160    2.8354 C   0  0  0  0  0  0  0  0  0  0  0  0
    0.3569   -2.0837    3.2323 C   0  0  0  0  0  0  0  0  0  0  0  0
    1.6826   -2.0869    3.6744 C   0  0  0  0  0  0  0  0  0  0  0  0
   -1.3265    1.5302   -0.3010 H   0  0  0  0  0  0  0  0  0  0  0  0
    1.6211    1.3306   -0.2066 H   0  0  0  0  0  0  0  0  0  0  0  0
    1.4767   -1.0785   -0.9624 H   0  0  0  0  0  0  0  0  0  0  0  0
   -0.2387   -1.0873   -0.5780 H   0  0  0  0  0  0  0  0  0  0  0  0
    3.1832   -0.7872    0.9112 H   0  0  0  0  0  0  0  0  0  0  0  0
   -0.9902   -1.6094    1.6295 H   0  0  0  0  0  0  0  0  0  0  0  0
    3.7285   -1.6225    3.1750 H   0  0  0  0  0  0  0  0  0  0  0  0
   -0.4359   -2.4608    3.8714 H   0  0  0  0  0  0  0  0  0  0  0  0
    1.9254   -2.4604    4.6645 H   0  0  0  0  0  0  0  0  0  0  0  0
    1.4044    1.7015   -2.7945 N   0  0  0  0  0  0  0  0  0  0  0  0
    1.2474    1.9822   -4.2307 C   0  0  2  0  0  0  0  0  0  0  0  0
    1.4530    0.7234   -5.1090 C   0  0  0  0  0  0  0  0  0  0  0  0
    2.3707    0.6426   -5.9163 O   0  0  0  0  0  0  0  0  0  0  0  0
    2.2148    3.1184   -4.5855 C   0  0  0  0  0  0  0  0  0  0  0  0
    2.2759    1.9675   -2.3441 H   0  0  0  0  0  0  0  0  0  0  0  0
    0.2306    2.3417   -4.4214 H   0  0  0  0  0  0  0  0  0  0  0  0
    3.2517    2.8090   -4.4196 H   0  0  0  0  0  0  0  0  0  0  0  0
    2.1023    3.3958   -5.6386 H   0  0  0  0  0  0  0  0  0  0  0  0
    2.0089    4.0016   -3.9732 H   0  0  0  0  0  0  0  0  0  0  0  0
    0.5803   -0.3380   -4.9750 N   0  0  0  0  0  0  0  0  0  0  0  0
    0.6870   -1.5823   -5.7238 C   0  0  0  0  0  0  0  0  0  0  0  0
   -0.1357   -0.2458   -4.2500 H   0  0  0  0  0  0  0  0  0  0  0  0
    0.6020   -1.3904   -6.7985 H   0  0  0  0  0  0  0  0  0  0  0  0
    1.6486   -2.0669   -5.5263 H   0  0  0  0  0  0  0  0  0  0  0  0
   -0.1132   -2.2684   -5.4303 H   0  0  0  0  0  0  0  0  0  0  0  0
  1  2  2  0  0  0  0
  1  3  1  0  0  0  0
  1  7  1  0  0  0  0
  3  4  1  0  0  0  0
  3  5  1  0  0  0  0
  3  6  1  0  0  0  0
  7  8  1  0  0  0  0
  7 12  1  0  0  0  0
  8  9  1  0  0  0  0
  8 11  1  0  0  0  0
  8 13  1  0  0  0  0
  9 10  2  0  0  0  0
  9 17  1  0  0  0  0
 11 14  1  0  0  0  0
 11 15  1  0  0  0  0
 11 16  1  0  0  0  0
 17 18  1  0  0  0  0
 17 28  1  0  0  0  0
 18 19  1  0  0  0  0
 18 21  1  0  0  0  0
 18 29  1  0  0  0  0
 19 20  2  0  0  0  0
 19 37  1  0  0  0  0
 21 22  1  0  0  0  0
 21 30  1  0  0  0  0
 21 31  1  0  0  0  0
 22 23  1  0  0  0  0
 22 24  2  0  0  0  0
 23 25  2  0  0  0  0
 23 32  1  0  0  0  0
 24 26  1  0  0  0  0
 24 33  1  0  0  0  0
 25 27  1  0  0  0  0
 25 34  1  0  0  0  0
 26 27  2  0  0  0  0
 26 35  1  0  0  0  0
 27 36  1  0  0  0  0
 37 38  1  0  0  0  0
 37 42  1  0  0  0  0
 38 39  1  0  0  0  0
 38 41  1  0  0  0  0
 38 43  1  0  0  0  0
 39 40  2  0  0  0  0
 39 47  1  0  0  0  0
 41 44  1  0  0  0  0
 41 45  1  0  0  0  0
 41 46  1  0  0  0  0
 47 48  1  0  0  0  0
 47 49  1  0  0  0  0
 48 50  1  0  0  0  0
 48 51  1  0  0  0  0
 48 52  1  0  0  0  0
M  END
$$$$

  -OEChem-05262217163D

 52 52  0     1  0  0  0  0  0999 V2000
   -2.3335    0.1360    4.0780 C   0  0  0  0  0  0  0  0  0  0  0  0
   -3.0097   -0.5707    3.3462 O   0  0  0  0  0  0  0  0  0  0  0  0
   -1.9680   -0.3466    5.4693 C   0  0  0  0  0  0  0  0  0  0  0  0
   -2.3814   -1.3436    5.6441 H   0  0  0  0  0  0  0  0  0  0  0  0
   -0.8811   -0.3930    5.5742 H   0  0  0  0  0  0  0  0  0  0  0  0
   -2.3710    0.3382    6.2195 H   0  0  0  0  0  0  0  0  0  0  0  0
   -1.8745    1.3619    3.6442 N   0  0  0  0  0  0  0  0  0  0  0  0
   -1.9150    1.7847    2.2368 C   0  0  2  0  0  0  0  0  0  0  0  0
   -0.5346    1.6361    1.5644 C   0  0  0  0  0  0  0  0  0  0  0  0
    0.4864    1.6645    2.2429 O   0  0  0  0  0  0  0  0  0  0  0  0
   -2.3802    3.2420    2.2029 C   0  0  0  0  0  0  0  0  0  0  0  0
   -1.1230    1.7584    4.2044 H   0  0  0  0  0  0  0  0  0  0  0  0
   -2.6312    1.1801    1.6709 H   0  0  0  0  0  0  0  0  0  0  0  0
   -1.6788    3.8822    2.7478 H   0  0  0  0  0  0  0  0  0  0  0  0
   -2.4471    3.5995    1.1707 H   0  0  0  0  0  0  0  0  0  0  0  0
   -3.3683    3.3338    2.6650 H   0  0  0  0  0  0  0  0  0  0  0  0
   -0.4100    1.6265    0.1883 N   0  0  0  0  0  0  0  0  0  0  0  0
    0.6856    0.9459   -0.5242 C   0  0  2  0  0  0  0  0  0  0  0  0
    0.5028    1.1577   -2.0385 C   0  0  0  0  0  0  0  0  0  0  0  0
   -0.6030    1.0207   -2.5539 O   0  0  0  0  0  0  0  0  0  0  0  0
    0.6846   -0.5979   -0.3598 C   0  0  0  0  0  0  0  0  0  0  0  0
    0.9765   -1.1170    1.0264 C   0  0  0  0  0  0  0  0  0  0  0  0
    2.2982   -1.2098    1.4866 C   0  0  0  0  0  0  0  0  0  0  0  0
   -0.0615   -1.6009    1.8384 C   0  0  0  0  0  0  0  0  0  0  0  0
    2.5746   -1.7466    2.7488 C   0  0  0  0  0  0  0  0  0  0  0  0
    0.2141   -2.1457    3.0958 C   0  0  0  0  0  0  0  0  0  0  0  0
    1.5323   -2.2144    3.5548 C   0  0  0  0  0  0  0  0  0  0  0  0
   -1.2917    1.6570   -0.3222 H   0  0  0  0  0  0  0  0  0  0  0  0
    1.6468    1.3582   -0.2018 H   0  0  0  0  0  0  0  0  0  0  0  0
    1.4304   -1.0264   -1.0382 H   0  0  0  0  0  0  0  0  0  0  0  0
   -0.2897   -0.9843   -0.6796 H   0  0  0  0  0  0  0  0  0  0  0  0
    3.1179   -0.8588    0.8682 H   0  0  0  0  0  0  0  0  0  0  0  0
   -1.0921   -1.5612    1.4971 H   0  0  0  0  0  0  0  0  0  0  0  0
    3.6000   -1.8029    3.1007 H   0  0  0  0  0  0  0  0  0  0  0  0
   -0.6006   -2.5188    3.7093 H   0  0  0  0  0  0  0  0  0  0  0  0
    1.7468   -2.6362    4.5321 H   0  0  0  0  0  0  0  0  0  0  0  0
    1.5777    1.5039   -2.8366 N   0  0  0  0  0  0  0  0  0  0  0  0
    1.5032    1.6392   -4.2995 C   0  0  2  0  0  0  0  0  0  0  0  0
    1.4671    0.2638   -5.0094 C   0  0  0  0  0  0  0  0  0  0  0  0
    2.3897   -0.1202   -5.7176 O   0  0  0  0  0  0  0  0  0  0  0  0
    2.6862    2.5089   -4.7433 C   0  0  0  0  0  0  0  0  0  0  0  0
    2.4938    1.5415   -2.3976 H   0  0  0  0  0  0  0  0  0  0  0  0
    0.5828    2.1667   -4.5722 H   0  0  0  0  0  0  0  0  0  0  0  0
    3.6365    2.0250   -4.4957 H   0  0  0  0  0  0  0  0  0  0  0  0
    2.6523    2.6689   -5.8257 H   0  0  0  0  0  0  0  0  0  0  0  0
    2.6499    3.4848   -4.2495 H   0  0  0  0  0  0  0  0  0  0  0  0
    0.3823   -0.5665   -4.8071 N   0  0  0  0  0  0  0  0  0  0  0  0
    0.2782   -1.9156   -5.3462 C   0  0  0  0  0  0  0  0  0  0  0  0
   -0.3235   -0.2335   -4.1456 H   0  0  0  0  0  0  0  0  0  0  0  0
    0.3459   -1.8978   -6.4389 H   0  0  0  0  0  0  0  0  0  0  0  0
    1.0814   -2.5479   -4.9539 H   0  0  0  0  0  0  0  0  0  0  0  0
   -0.6817   -2.3607   -5.0671 H   0  0  0  0  0  0  0  0  0  0  0  0
  1  2  2  0  0  0  0
  1  3  1  0  0  0  0
  1  7  1  0  0  0  0
  3  4  1  0  0  0  0
  3  5  1  0  0  0  0
  3  6  1  0  0  0  0
  7  8  1  0  0  0  0
  7 12  1  0  0  0  0
  8  9  1  0  0  0  0
  8 11  1  0  0  0  0
  8 13  1  0  0  0  0
  9 10  2  0  0  0  0
  9 17  1  0  0  0  0
 11 14  1  0  0  0  0
 11 15  1  0  0  0  0
 11 16  1  0  0  0  0
 17 18  1  0  0  0  0
 17 28  1  0  0  0  0
 18 19  1  0  0  0  0
 18 21  1  0  0  0  0
 18 29  1  0  0  0  0
 19 20  2  0  0  0  0
 19 37  1  0  0  0  0
 21 22  1  0  0  0  0
 21 30  1  0  0  0  0
 21 31  1  0  0  0  0
 22 23  1  0  0  0  0
 22 24  2  0  0  0  0
 23 25  2  0  0  0  0
 23 32  1  0  0  0  0
 24 26  1  0  0  0  0
 24 33  1  0  0  0  0
 25 27  1  0  0  0  0
 25 34  1  0  0  0  0
 26 27  2  0  0  0  0
 26 35  1  0  0  0  0
 27 36  1  0  0  0  0
 37 38  1  0  0  0  0
 37 42  1  0  0  0  0
 38 39  1  0  0  0  0
 38 41  1  0  0  0  0
 38 43  1  0  0  0  0
 39 40  2  0  0  0  0
 39 47  1  0  0  0  0
 41 44  1  0  0  0  0
 41 45  1  0  0  0  0
 41 46  1  0  0  0  0
 47 48  1  0  0  0  0
 47 49  1  0  0  0  0
 48 50  1  0  0  0  0
 48 51  1  0  0  0  0
 48 52  1  0  0  0  0
M  END
$$$$

  -OEChem-05262217163D

 52 52  0     1  0  0  0  0  0999 V2000
   -2.4433    0.1339    3.9209 C   0  0  0  0  0  0  0  0  0  0  0  0
   -3.0593   -0.5537    3.1209 O   0  0  0  0  0  0  0  0  0  0  0  0
   -2.1717   -0.3913    5.3179 C   0  0  0  0  0  0  0  0  0  0  0  0
   -2.5803   -1.3997    5.4278 H   0  0  0  0  0  0  0  0  0  0  0  0
   -1.0946   -0.4251    5.5001 H   0  0  0  0  0  0  0  0  0  0  0  0
   -2.6395    0.2612    6.0590 H   0  0  0  0  0  0  0  0  0  0  0  0
   -1.9638    1.3748    3.5573 N   0  0  0  0  0  0  0  0  0  0  0  0
   -1.9134    1.8341    2.1620 C   0  0  2  0  0  0  0  0  0  0  0  0
   -0.5171    1.6131    1.5458 C   0  0  0  0  0  0  0  0  0  0  0  0
    0.4793    1.6321    2.2597 O   0  0  0  0  0  0  0  0  0  0  0  0
   -2.2800    3.3197    2.1469 C   0  0  0  0  0  0  0  0  0  0  0  0
   -1.2547    1.7582    4.1782 H   0  0  0  0  0  0  0  0  0  0  0  0
   -2.6427    1.2925    1.5502 H   0  0  0  0  0  0  0  0  0  0  0  0
   -1.5600    3.8995    2.7336 H   0  0  0  0  0  0  0  0  0  0  0  0
   -2.2810    3.7028    1.1218 H   0  0  0  0  0  0  0  0  0  0  0  0
   -3.2774    3.4676    2.5723 H   0  0  0  0  0  0  0  0  0  0  0  0
   -0.3509    1.5623    0.1758 N   0  0  0  0  0  0  0  0  0  0  0  0
    0.7689    0.8877   -0.5041 C   0  0  2  0  0  0  0  0  0  0  0  0
    0.6005    1.0639   -2.0259 C   0  0  0  0  0  0  0  0  0  0  0  0
   -0.5210    1.1394   -2.5211 O   0  0  0  0  0  0  0  0  0  0  0  0
    0.7896   -0.6523   -0.3072 C   0  0  0  0  0  0  0  0  0  0  0  0
    1.0650   -1.1370    1.0952 C   0  0  0  0  0  0  0  0  0  0  0  0
    2.3791   -1.1991    1.5828 C   0  0  0  0  0  0  0  0  0  0  0  0
    0.0187   -1.6165    1.8997 C   0  0  0  0  0  0  0  0  0  0  0  0
    2.6383   -1.6974    2.8647 C   0  0  0  0  0  0  0  0  0  0  0  0
    0.2779   -2.1241    3.1763 C   0  0  0  0  0  0  0  0  0  0  0  0
    1.5874   -2.1594    3.6628 C   0  0  0  0  0  0  0  0  0  0  0  0
   -1.2103    1.6154   -0.3703 H   0  0  0  0  0  0  0  0  0  0  0  0
    1.7176    1.3263   -0.1792 H   0  0  0  0  0  0  0  0  0  0  0  0
    1.5543   -1.0850   -0.9612 H   0  0  0  0  0  0  0  0  0  0  0  0
   -0.1729   -1.0591   -0.6368 H   0  0  0  0  0  0  0  0  0  0  0  0
    3.2052   -0.8508    0.9716 H   0  0  0  0  0  0  0  0  0  0  0  0
   -1.0057   -1.5996    1.5378 H   0  0  0  0  0  0  0  0  0  0  0  0
    3.6567   -1.7269    3.2396 H   0  0  0  0  0  0  0  0  0  0  0  0
   -0.5428   -2.4938    3.7836 H   0  0  0  0  0  0  0  0  0  0  0  0
    1.7886   -2.5498    4.6558 H   0  0  0  0  0  0  0  0  0  0  0  0
    1.7039    1.1091   -2.8582 N   0  0  0  0  0  0  0  0  0  0  0  0
    1.6269    1.2211   -4.3231 C   0  0  2  0  0  0  0  0  0  0  0  0
    1.2461   -0.1207   -4.9957 C   0  0  0  0  0  0  0  0  0  0  0  0
    2.0226   -0.7150   -5.7332 O   0  0  0  0  0  0  0  0  0  0  0  0
    2.9725    1.7729   -4.8110 C   0  0  0  0  0  0  0  0  0  0  0  0
    2.6170    0.9690   -2.4343 H   0  0  0  0  0  0  0  0  0  0  0  0
    0.8526    1.9471   -4.5941 H   0  0  0  0  0  0  0  0  0  0  0  0
    3.7851    1.0813   -4.5667 H   0  0  0  0  0  0  0  0  0  0  0  0
    2.9537    1.9127   -5.8966 H   0  0  0  0  0  0  0  0  0  0  0  0
    3.1813    2.7395   -4.3427 H   0  0  0  0  0  0  0  0  0  0  0  0
    0.0082   -0.6746   -4.7355 N   0  0  0  0  0  0  0  0  0  0  0  0
   -0.4369   -1.9593   -5.2573 C   0  0  0  0  0  0  0  0  0  0  0  0
   -0.5774   -0.1750   -4.0617 H   0  0  0  0  0  0  0  0  0  0  0  0
   -0.4810   -1.9331   -6.3510 H   0  0  0  0  0  0  0  0  0  0  0  0
    0.2483   -2.7561   -4.9500 H   0  0  0  0  0  0  0  0  0  0  0  0
   -1.4351   -2.1952   -4.8762 H   0  0  0  0  0  0  0  0  0  0  0  0
  1  2  2  0  0  0  0
  1  3  1  0  0  0  0
  1  7  1  0  0  0  0
  3  4  1  0  0  0  0
  3  5  1  0  0  0  0
  3  6  1  0  0  0  0
  7  8  1  0  0  0  0
  7 12  1  0  0  0  0
  8  9  1  0  0  0  0
  8 11  1  0  0  0  0
  8 13  1  0  0  0  0
  9 10  2  0  0  0  0
  9 17  1  0  0  0  0
 11 14  1  0  0  0  0
 11 15  1  0  0  0  0
 11 16  1  0  0  0  0
 17 18  1  0  0  0  0
 17 28  1  0  0  0  0
 18 19  1  0  0  0  0
 18 21  1  0  0  0  0
 18 29  1  0  0  0  0
 19 20  2  0  0  0  0
 19 37  1  0  0  0  0
 21 22  1  0  0  0  0
 21 30  1  0  0  0  0
 21 31  1  0  0  0  0
 22 23  1  0  0  0  0
 22 24  2  0  0  0  0
 23 25  2  0  0  0  0
 23 32  1  0  0  0  0
 24 26  1  0  0  0  0
 24 33  1  0  0  0  0
 25 27  1  0  0  0  0
 25 34  1  0  0  0  0
 26 27  2  0  0  0  0
 26 35  1  0  0  0  0
 27 36  1  0  0  0  0
 37 38  1  0  0  0  0
 37 42  1  0  0  0  0
 38 39  1  0  0  0  0
 38 41  1  0  0  0  0
 38 43  1  0  0  0  0
 39 40  2  0  0  0  0
 39 47  1  0  0  0  0
 41 44  1  0  0  0  0
 41 45  1  0  0  0  0
 41 46  1  0  0  0  0
 47 48  1  0  0  0  0
 47 49  1  0  0  0  0
 48 50  1  0  0  0  0
 48 51  1  0  0  0  0
 48 52  1  0  0  0  0
M  END
$$$$

  -OEChem-05262217163D

 52 52  0     1  0  0  0  0  0999 V2000
   -2.4836    0.1792    3.8544 C   0  0  0  0  0  0  0  0  0  0  0  0
   -3.0883   -0.5037    3.0418 O   0  0  0  0  0  0  0  0  0  0  0  0
   -2.2373   -0.3522    5.2540 C   0  0  0  0  0  0  0  0  0  0  0  0
   -2.6516   -1.3593    5.3538 H   0  0  0  0  0  0  0  0  0  0  0  0
   -1.1635   -0.3917    5.4538 H   0  0  0  0  0  0  0  0  0  0  0  0
   -2.7144    0.2995    5.9897 H   0  0  0  0  0  0  0  0  0  0  0  0
   -1.9882    1.4168    3.5007 N   0  0  0  0  0  0  0  0  0  0  0  0
   -1.8966    1.8679    2.1049 C   0  0  2  0  0  0  0  0  0  0  0  0
   -0.4926    1.6122    1.5206 C   0  0  0  0  0  0  0  0  0  0  0  0
    0.4873    1.6061    2.2571 O   0  0  0  0  0  0  0  0  0  0  0  0
   -2.2265    3.3618    2.0739 C   0  0  0  0  0  0  0  0  0  0  0  0
   -1.2895    1.7940    4.1369 H   0  0  0  0  0  0  0  0  0  0  0  0
   -2.6254    1.3408    1.4800 H   0  0  0  0  0  0  0  0  0  0  0  0
   -1.5040    3.9271    2.6719 H   0  0  0  0  0  0  0  0  0  0  0  0
   -2.1973    3.7386    1.0466 H   0  0  0  0  0  0  0  0  0  0  0  0
   -3.2285    3.5375    2.4781 H   0  0  0  0  0  0  0  0  0  0  0  0
   -0.2980    1.5585    0.1544 N   0  0  0  0  0  0  0  0  0  0  0  0
    0.8274    0.8789   -0.5128 C   0  0  2  0  0  0  0  0  0  0  0  0
    0.6877    1.0571   -2.0400 C   0  0  0  0  0  0  0  0  0  0  0  0
   -0.3998    1.3395   -2.5369 O   0  0  0  0  0  0  0  0  0  0  0  0
    0.8127   -0.6630   -0.3155 C   0  0  0  0  0  0  0  0  0  0  0  0
    1.0521   -1.1564    1.0900 C   0  0  0  0  0  0  0  0  0  0  0  0
    2.3552   -1.2473    1.6013 C   0  0  0  0  0  0  0  0  0  0  0  0
   -0.0189   -1.6156    1.8733 C   0  0  0  0  0  0  0  0  0  0  0  0
    2.5802   -1.7549    2.8858 C   0  0  0  0  0  0  0  0  0  0  0  0
    0.2056   -2.1307    3.1532 C   0  0  0  0  0  0  0  0  0  0  0  0
    1.5051   -2.1960    3.6633 C   0  0  0  0  0  0  0  0  0  0  0  0
   -1.1373    1.6581   -0.4159 H   0  0  0  0  0  0  0  0  0  0  0  0
    1.7769    1.3032   -0.1713 H   0  0  0  0  0  0  0  0  0  0  0  0
    1.5792   -1.1165   -0.9526 H   0  0  0  0  0  0  0  0  0  0  0  0
   -0.1521   -1.0482   -0.6636 H   0  0  0  0  0  0  0  0  0  0  0  0
    3.1998   -0.9152    1.0065 H   0  0  0  0  0  0  0  0  0  0  0  0
   -1.0356   -1.5754    1.4923 H   0  0  0  0  0  0  0  0  0  0  0  0
    3.5910   -1.8085    3.2783 H   0  0  0  0  0  0  0  0  0  0  0  0
   -0.6341   -2.4826    3.7445 H   0  0  0  0  0  0  0  0  0  0  0  0
    1.6806   -2.5930    4.6585 H   0  0  0  0  0  0  0  0  0  0  0  0
    1.7526    0.7933   -2.8827 N   0  0  0  0  0  0  0  0  0  0  0  0
    1.6663    0.8075   -4.3511 C   0  0  2  0  0  0  0  0  0  0  0  0
    1.0017   -0.4746   -4.9085 C   0  0  0  0  0  0  0  0  0  0  0  0
    1.6224   -1.2753   -5.5967 O   0  0  0  0  0  0  0  0  0  0  0  0
    3.0852    1.0269   -4.8904 C   0  0  0  0  0  0  0  0  0  0  0  0
    2.6135    0.4608   -2.4572 H   0  0  0  0  0  0  0  0  0  0  0  0
    1.0531    1.6555   -4.6753 H   0  0  0  0  0  0  0  0  0  0  0  0
    3.7422    0.2020   -4.5966 H   0  0  0  0  0  0  0  0  0  0  0  0
    3.0700    1.0837   -5.9836 H   0  0  0  0  0  0  0  0  0  0  0  0
    3.5006    1.9620   -4.5029 H   0  0  0  0  0  0  0  0  0  0  0  0
   -0.3151   -0.7401   -4.5887 N   0  0  0  0  0  0  0  0  0  0  0  0
   -1.0181   -1.9561   -4.9744 C   0  0  0  0  0  0  0  0  0  0  0  0
   -0.7665   -0.0788   -3.9522 H   0  0  0  0  0  0  0  0  0  0  0  0
   -1.0278   -2.0644   -6.0639 H   0  0  0  0  0  0  0  0  0  0  0  0
   -0.5321   -2.8343   -4.5370 H   0  0  0  0  0  0  0  0  0  0  0  0
   -2.0535   -1.9208   -4.6221 H   0  0  0  0  0  0  0  0  0  0  0  0
  1  2  2  0  0  0  0
  1  3  1  0  0  0  0
  1  7  1  0  0  0  0
  3  4  1  0  0  0  0
  3  5  1  0  0  0  0
  3  6  1  0  0  0  0
  7  8  1  0  0  0  0
  7 12  1  0  0  0  0
  8  9  1  0  0  0  0
  8 11  1  0  0  0  0
  8 13  1  0  0  0  0
  9 10  2  0  0  0  0
  9 17  1  0  0  0  0
 11 14  1  0  0  0  0
 11 15  1  0  0  0  0
 11 16  1  0  0  0  0
 17 18  1  0  0  0  0
 17 28  1  0  0  0  0
 18 19  1  0  0  0  0
 18 21  1  0  0  0  0
 18 29  1  0  0  0  0
 19 20  2  0  0  0  0
 19 37  1  0  0  0  0
 21 22  1  0  0  0  0
 21 30  1  0  0  0  0
 21 31  1  0  0  0  0
 22 23  1  0  0  0  0
 22 24  2  0  0  0  0
 23 25  2  0  0  0  0
 23 32  1  0  0  0  0
 24 26  1  0  0  0  0
 24 33  1  0  0  0  0
 25 27  1  0  0  0  0
 25 34  1  0  0  0  0
 26 27  2  0  0  0  0
 26 35  1  0  0  0  0
 27 36  1  0  0  0  0
 37 38  1  0  0  0  0
 37 42  1  0  0  0  0
 38 39  1  0  0  0  0
 38 41  1  0  0  0  0
 38 43  1  0  0  0  0
 39 40  2  0  0  0  0
 39 47  1  0  0  0  0
 41 44  1  0  0  0  0
 41 45  1  0  0  0  0
 41 46  1  0  0  0  0
 47 48  1  0  0  0  0
 47 49  1  0  0  0  0
 48 50  1  0  0  0  0
 48 51  1  0  0  0  0
 48 52  1  0  0  0  0
M  END
$$$$

  -OEChem-05262217163D

 52 52  0     1  0  0  0  0  0999 V2000
   -2.5893    0.1691    3.7837 C   0  0  0  0  0  0  0  0  0  0  0  0
   -3.2832   -0.3597    2.9283 O   0  0  0  0  0  0  0  0  0  0  0  0
   -2.4041   -0.5037    5.1307 C   0  0  0  0  0  0  0  0  0  0  0  0
   -3.0053   -1.4156    5.1835 H   0  0  0  0  0  0  0  0  0  0  0  0
   -1.3525   -0.7653    5.2732 H   0  0  0  0  0  0  0  0  0  0  0  0
   -2.7163    0.1712    5.9314 H   0  0  0  0  0  0  0  0  0  0  0  0
   -1.9365    1.3562    3.5241 N   0  0  0  0  0  0  0  0  0  0  0  0
   -1.7768    1.8926    2.1652 C   0  0  2  0  0  0  0  0  0  0  0  0
   -0.4129    1.4992    1.5628 C   0  0  0  0  0  0  0  0  0  0  0  0
    0.5518    1.3131    2.2972 O   0  0  0  0  0  0  0  0  0  0  0  0
   -1.9122    3.4143    2.2414 C   0  0  0  0  0  0  0  0  0  0  0  0
   -1.1959    1.5874    4.1824 H   0  0  0  0  0  0  0  0  0  0  0  0
   -2.5618    1.5095    1.5047 H   0  0  0  0  0  0  0  0  0  0  0  0
   -1.1325    3.8377    2.8826 H   0  0  0  0  0  0  0  0  0  0  0  0
   -1.8202    3.8566    1.2446 H   0  0  0  0  0  0  0  0  0  0  0  0
   -2.8893    3.6866    2.6522 H   0  0  0  0  0  0  0  0  0  0  0  0
   -0.2348    1.4589    0.1930 N   0  0  0  0  0  0  0  0  0  0  0  0
    0.8902    0.7938   -0.4868 C   0  0  2  0  0  0  0  0  0  0  0  0
    0.9736    1.2688   -1.9558 C   0  0  0  0  0  0  0  0  0  0  0  0
    0.0798    1.9607   -2.4372 O   0  0  0  0  0  0  0  0  0  0  0  0
    0.6557   -0.7393   -0.5424 C   0  0  0  0  0  0  0  0  0  0  0  0
    0.6833   -1.4344    0.7971 C   0  0  0  0  0  0  0  0  0  0  0  0
    1.9022   -1.7730    1.4033 C   0  0  0  0  0  0  0  0  0  0  0  0
   -0.5155   -1.8038    1.4277 C   0  0  0  0  0  0  0  0  0  0  0  0
    1.9219   -2.4511    2.6273 C   0  0  0  0  0  0  0  0  0  0  0  0
   -0.4970   -2.4864    2.6472 C   0  0  0  0  0  0  0  0  0  0  0  0
    0.7219   -2.8087    3.2500 C   0  0  0  0  0  0  0  0  0  0  0  0
   -1.0317    1.7142   -0.3879 H   0  0  0  0  0  0  0  0  0  0  0  0
    1.8339    1.0232    0.0192 H   0  0  0  0  0  0  0  0  0  0  0  0
    1.4224   -1.2077   -1.1670 H   0  0  0  0  0  0  0  0  0  0  0  0
   -0.3073   -0.9314   -1.0282 H   0  0  0  0  0  0  0  0  0  0  0  0
    2.8411   -1.5039    0.9308 H   0  0  0  0  0  0  0  0  0  0  0  0
   -1.4738   -1.5606    0.9774 H   0  0  0  0  0  0  0  0  0  0  0  0
    2.8704   -2.7004    3.0933 H   0  0  0  0  0  0  0  0  0  0  0  0
   -1.4350   -2.7638    3.1196 H   0  0  0  0  0  0  0  0  0  0  0  0
    0.7362   -3.3374    4.1982 H   0  0  0  0  0  0  0  0  0  0  0  0
    1.9546    0.7877   -2.8058 N   0  0  0  0  0  0  0  0  0  0  0  0
    1.9923    1.0459   -4.2537 C   0  0  2  0  0  0  0  0  0  0  0  0
    0.9983    0.1477   -5.0287 C   0  0  0  0  0  0  0  0  0  0  0  0
    1.3804   -0.6990   -5.8269 O   0  0  0  0  0  0  0  0  0  0  0  0
    3.4437    0.8676   -4.7152 C   0  0  0  0  0  0  0  0  0  0  0  0
    2.6191    0.1216   -2.4214 H   0  0  0  0  0  0  0  0  0  0  0  0
    1.7078    2.0854   -4.4499 H   0  0  0  0  0  0  0  0  0  0  0  0
    3.7821   -0.1584   -4.5380 H   0  0  0  0  0  0  0  0  0  0  0  0
    3.5291    1.0794   -5.7859 H   0  0  0  0  0  0  0  0  0  0  0  0
    4.1029    1.5536   -4.1747 H   0  0  0  0  0  0  0  0  0  0  0  0
   -0.3537    0.2812   -4.7839 N   0  0  0  0  0  0  0  0  0  0  0  0
   -1.3781   -0.5560   -5.3926 C   0  0  0  0  0  0  0  0  0  0  0  0
   -0.6172    0.9598   -4.0652 H   0  0  0  0  0  0  0  0  0  0  0  0
   -1.3408   -0.4740   -6.4840 H   0  0  0  0  0  0  0  0  0  0  0  0
   -1.2324   -1.6043   -5.1118 H   0  0  0  0  0  0  0  0  0  0  0  0
   -2.3708   -0.2412   -5.0568 H   0  0  0  0  0  0  0  0  0  0  0  0
  1  2  2  0  0  0  0
  1  3  1  0  0  0  0
  1  7  1  0  0  0  0
  3  4  1  0  0  0  0
  3  5  1  0  0  0  0
  3  6  1  0  0  0  0
  7  8  1  0  0  0  0
  7 12  1  0  0  0  0
  8  9  1  0  0  0  0
  8 11  1  0  0  0  0
  8 13  1  0  0  0  0
  9 10  2  0  0  0  0
  9 17  1  0  0  0  0
 11 14  1  0  0  0  0
 11 15  1  0  0  0  0
 11 16  1  0  0  0  0
 17 18  1  0  0  0  0
 17 28  1  0  0  0  0
 18 19  1  0  0  0  0
 18 21  1  0  0  0  0
 18 29  1  0  0  0  0
 19 20  2  0  0  0  0
 19 37  1  0  0  0  0
 21 22  1  0  0  0  0
 21 30  1  0  0  0  0
 21 31  1  0  0  0  0
 22 23  1  0  0  0  0
 22 24  2  0  0  0  0
 23 25  2  0  0  0  0
 23 32  1  0  0  0  0
 24 26  1  0  0  0  0
 24 33  1  0  0  0  0
 25 27  1  0  0  0  0
 25 34  1  0  0  0  0
 26 27  2  0  0  0  0
 26 35  1  0  0  0  0
 27 36  1  0  0  0  0
 37 38  1  0  0  0  0
 37 42  1  0  0  0  0
 38 39  1  0  0  0  0
 38 41  1  0  0  0  0
 38 43  1  0  0  0  0
 39 40  2  0  0  0  0
 39 47  1  0  0  0  0
 41 44  1  0  0  0  0
 41 45  1  0  0  0  0
 41 46  1  0  0  0  0
 47 48  1  0  0  0  0
 47 49  1  0  0  0  0
 48 50  1  0  0  0  0
 48 51  1  0  0  0  0
 48 52  1  0  0  0  0
M  END
$$$$

  -OEChem-05262217163D

 52 52  0     1  0  0  0  0  0999 V2000
   -2.6337    0.2344    3.7030 C   0  0  0  0  0  0  0  0  0  0  0  0
   -3.2877   -0.3208    2.8330 O   0  0  0  0  0  0  0  0  0  0  0  0
   -2.5003   -0.4042    5.0724 C   0  0  0  0  0  0  0  0  0  0  0  0
   -3.1218   -1.3020    5.1329 H   0  0  0  0  0  0  0  0  0  0  0  0
   -1.4586   -0.6827    5.2511 H   0  0  0  0  0  0  0  0  0  0  0  0
   -2.8206    0.2985    5.8454 H   0  0  0  0  0  0  0  0  0  0  0  0
   -1.9797    1.4202    3.4411 N   0  0  0  0  0  0  0  0  0  0  0  0
   -1.7701    1.9194    2.0752 C   0  0  2  0  0  0  0  0  0  0  0  0
   -0.4104    1.4592    1.5122 C   0  0  0  0  0  0  0  0  0  0  0  0
    0.5389    1.2849    2.2685 O   0  0  0  0  0  0  0  0  0  0  0  0
   -1.8477    3.4469    2.1141 C   0  0  0  0  0  0  0  0  0  0  0  0
   -1.2684    1.6744    4.1226 H   0  0  0  0  0  0  0  0  0  0  0  0
   -2.5566    1.5520    1.4076 H   0  0  0  0  0  0  0  0  0  0  0  0
   -1.0670    3.8547    2.7644 H   0  0  0  0  0  0  0  0  0  0  0  0
   -1.7148    3.8626    1.1104 H   0  0  0  0  0  0  0  0  0  0  0  0
   -2.8226    3.7669    2.4946 H   0  0  0  0  0  0  0  0  0  0  0  0
   -0.2153    1.3559    0.1484 N   0  0  0  0  0  0  0  0  0  0  0  0
    0.9160    0.6659   -0.4969 C   0  0  2  0  0  0  0  0  0  0  0  0
    0.9972    1.0875   -1.9870 C   0  0  0  0  0  0  0  0  0  0  0  0
    0.2667    1.9759   -2.4183 O   0  0  0  0  0  0  0  0  0  0  0  0
    0.6953   -0.8725   -0.4628 C   0  0  0  0  0  0  0  0  0  0  0  0
    0.7320   -1.4968    0.9115 C   0  0  0  0  0  0  0  0  0  0  0  0
    1.9564   -1.7918    1.5298 C   0  0  0  0  0  0  0  0  0  0  0  0
   -0.4605   -1.8536    1.5615 C   0  0  0  0  0  0  0  0  0  0  0  0
    1.9878   -2.4118    2.7842 C   0  0  0  0  0  0  0  0  0  0  0  0
   -0.4303   -2.4795    2.8112 C   0  0  0  0  0  0  0  0  0  0  0  0
    0.7941   -2.7563    3.4255 C   0  0  0  0  0  0  0  0  0  0  0  0
   -0.9833    1.6446   -0.4547 H   0  0  0  0  0  0  0  0  0  0  0  0
    1.8572    0.9284   -0.0026 H   0  0  0  0  0  0  0  0  0  0  0  0
    1.4671   -1.3717   -1.0552 H   0  0  0  0  0  0  0  0  0  0  0  0
   -0.2660   -1.1001   -0.9364 H   0  0  0  0  0  0  0  0  0  0  0  0
    2.8906   -1.5315    1.0432 H   0  0  0  0  0  0  0  0  0  0  0  0
   -1.4229   -1.6447    1.1024 H   0  0  0  0  0  0  0  0  0  0  0  0
    2.9405   -2.6258    3.2595 H   0  0  0  0  0  0  0  0  0  0  0  0
   -1.3626   -2.7492    3.2987 H   0  0  0  0  0  0  0  0  0  0  0  0
    0.8181   -3.2398    4.3972 H   0  0  0  0  0  0  0  0  0  0  0  0
    1.7579    0.3854   -2.9077 N   0  0  0  0  0  0  0  0  0  0  0  0
    1.7710    0.6566   -4.3544 C   0  0  2  0  0  0  0  0  0  0  0  0
    0.5369    0.0601   -5.0736 C   0  0  0  0  0  0  0  0  0  0  0  0
    0.6446   -0.8271   -5.9110 O   0  0  0  0  0  0  0  0  0  0  0  0
    3.0992    0.1273   -4.9106 C   0  0  0  0  0  0  0  0  0  0  0  0
    2.2774   -0.4190   -2.5678 H   0  0  0  0  0  0  0  0  0  0  0  0
    1.7490    1.7383   -4.5249 H   0  0  0  0  0  0  0  0  0  0  0  0
    3.1730   -0.9561   -4.7706 H   0  0  0  0  0  0  0  0  0  0  0  0
    3.1727    0.3425   -5.9816 H   0  0  0  0  0  0  0  0  0  0  0  0
    3.9437    0.6053   -4.4047 H   0  0  0  0  0  0  0  0  0  0  0  0
   -0.7204    0.5236   -4.7418 N   0  0  0  0  0  0  0  0  0  0  0  0
   -1.9577   -0.0051   -5.2996 C   0  0  0  0  0  0  0  0  0  0  0  0
   -0.7598    1.2231   -3.9965 H   0  0  0  0  0  0  0  0  0  0  0  0
   -1.9774    0.1311   -6.3858 H   0  0  0  0  0  0  0  0  0  0  0  0
   -2.0528   -1.0727   -5.0763 H   0  0  0  0  0  0  0  0  0  0  0  0
   -2.8185    0.5165   -4.8703 H   0  0  0  0  0  0  0  0  0  0  0  0
  1  2  2  0  0  0  0
  1  3  1  0  0  0  0
  1  7  1  0  0  0  0
  3  4  1  0  0  0  0
  3  5  1  0  0  0  0
  3  6  1  0  0  0  0
  7  8  1  0  0  0  0
  7 12  1  0  0  0  0
  8  9  1  0  0  0  0
  8 11  1  0  0  0  0
  8 13  1  0  0  0  0
  9 10  2  0  0  0  0
  9 17  1  0  0  0  0
 11 14  1  0  0  0  0
 11 15  1  0  0  0  0
 11 16  1  0  0  0  0
 17 18  1  0  0  0  0
 17 28  1  0  0  0  0
 18 19  1  0  0  0  0
 18 21  1  0  0  0  0
 18 29  1  0  0  0  0
 19 20  2  0  0  0  0
 19 37  1  0  0  0  0
 21 22  1  0  0  0  0
 21 30  1  0  0  0  0
 21 31  1  0  0  0  0
 22 23  1  0  0  0  0
 22 24  2  0  0  0  0
 23 25  2  0  0  0  0
 23 32  1  0  0  0  0
 24 26  1  0  0  0  0
 24 33  1  0  0  0  0
 25 27  1  0  0  0  0
 25 34  1  0  0  0  0
 26 27  2  0  0  0  0
 26 35  1  0  0  0  0
 27 36  1  0  0  0  0
 37 38  1  0  0  0  0
 37 42  1  0  0  0  0
 38 39  1  0  0  0  0
 38 41  1  0  0  0  0
 38 43  1  0  0  0  0
 39 40  2  0  0  0  0
 39 47  1  0  0  0  0
 41 44  1  0  0  0  0
 41 45  1  0  0  0  0
 41 46  1  0  0  0  0
 47 48  1  0  0  0  0
 47 49  1  0  0  0  0
 48 50  1  0  0  0  0
 48 51  1  0  0  0  0
 48 52  1  0  0  0  0
M  END
$$$$

  -OEChem-05262217163D

 52 52  0     1  0  0  0  0  0999 V2000
   -2.6875    0.2924    3.5675 C   0  0  0  0  0  0  0  0  0  0  0  0
   -3.2978   -0.2559    2.6621 O   0  0  0  0  0  0  0  0  0  0  0  0
   -2.6428   -0.3427    4.9445 C   0  0  0  0  0  0  0  0  0  0  0  0
   -3.2428   -1.2569    4.9583 H   0  0  0  0  0  0  0  0  0  0  0  0
   -1.6114   -0.5935    5.2053 H   0  0  0  0  0  0  0  0  0  0  0  0
   -3.0411    0.3509    5.6890 H   0  0  0  0  0  0  0  0  0  0  0  0
   -2.0072    1.4705    3.3404 N   0  0  0  0  0  0  0  0  0  0  0  0
   -1.7333    1.9725    1.9872 C   0  0  2  0  0  0  0  0  0  0  0  0
   -0.3846    1.4479    1.4548 C   0  0  0  0  0  0  0  0  0  0  0  0
    0.5528    1.2806    2.2270 O   0  0  0  0  0  0  0  0  0  0  0  0
   -1.7314    3.5016    2.0423 C   0  0  0  0  0  0  0  0  0  0  0  0
   -1.3280    1.7176    4.0561 H   0  0  0  0  0  0  0  0  0  0  0  0
   -2.5210    1.6549    1.2958 H   0  0  0  0  0  0  0  0  0  0  0  0
   -0.9440    3.8611    2.7128 H   0  0  0  0  0  0  0  0  0  0  0  0
   -1.5556    3.9191    1.0460 H   0  0  0  0  0  0  0  0  0  0  0  0
   -2.6959    3.8689    2.4060 H   0  0  0  0  0  0  0  0  0  0  0  0
   -0.1825    1.2901    0.0970 N   0  0  0  0  0  0  0  0  0  0  0  0
    0.9500    0.5746   -0.5188 C   0  0  2  0  0  0  0  0  0  0  0  0
    1.0234    0.9489   -2.0247 C   0  0  0  0  0  0  0  0  0  0  0  0
    0.4901    1.9807   -2.4236 O   0  0  0  0  0  0  0  0  0  0  0  0
    0.7418   -0.9635   -0.4124 C   0  0  0  0  0  0  0  0  0  0  0  0
    0.7864   -1.5287    0.9860 C   0  0  0  0  0  0  0  0  0  0  0  0
    2.0135   -1.7885    1.6142 C   0  0  0  0  0  0  0  0  0  0  0  0
   -0.4030   -1.8708    1.6489 C   0  0  0  0  0  0  0  0  0  0  0  0
    2.0504   -2.3577    2.8922 C   0  0  0  0  0  0  0  0  0  0  0  0
   -0.3674   -2.4449    2.9230 C   0  0  0  0  0  0  0  0  0  0  0  0
    0.8596   -2.6858    3.5475 C   0  0  0  0  0  0  0  0  0  0  0  0
   -0.9333    1.5900   -0.5210 H   0  0  0  0  0  0  0  0  0  0  0  0
    1.8911    0.8630   -0.0384 H   0  0  0  0  0  0  0  0  0  0  0  0
    1.5230   -1.4811   -0.9756 H   0  0  0  0  0  0  0  0  0  0  0  0
   -0.2162   -1.2232   -0.8760 H   0  0  0  0  0  0  0  0  0  0  0  0
    2.9450   -1.5405    1.1160 H   0  0  0  0  0  0  0  0  0  0  0  0
   -1.3662   -1.6908    1.1792 H   0  0  0  0  0  0  0  0  0  0  0  0
    3.0050   -2.5447    3.3746 H   0  0  0  0  0  0  0  0  0  0  0  0
   -1.2974   -2.7034    3.4205 H   0  0  0  0  0  0  0  0  0  0  0  0
    0.8882   -3.1292    4.5380 H   0  0  0  0  0  0  0  0  0  0  0  0
    1.5136    0.0821   -2.9890 N   0  0  0  0  0  0  0  0  0  0  0  0
    1.4462    0.3247   -4.4390 C   0  0  2  0  0  0  0  0  0  0  0  0
    0.0413    0.0219   -5.0136 C   0  0  0  0  0  0  0  0  0  0  0  0
   -0.1527   -0.9088   -5.7858 O   0  0  0  0  0  0  0  0  0  0  0  0
    2.5527   -0.5098   -5.0959 C   0  0  0  0  0  0  0  0  0  0  0  0
    1.8416   -0.8266   -2.6751 H   0  0  0  0  0  0  0  0  0  0  0  0
    1.6591    1.3789   -4.6467 H   0  0  0  0  0  0  0  0  0  0  0  0
    2.3873   -1.5777   -4.9213 H   0  0  0  0  0  0  0  0  0  0  0  0
    2.5670   -0.3353   -6.1764 H   0  0  0  0  0  0  0  0  0  0  0  0
    3.5306   -0.2350   -4.6893 H   0  0  0  0  0  0  0  0  0  0  0  0
   -1.0270    0.7993   -4.6127 N   0  0  0  0  0  0  0  0  0  0  0  0
   -2.4073    0.5520   -5.0068 C   0  0  0  0  0  0  0  0  0  0  0  0
   -0.8237    1.5104   -3.9061 H   0  0  0  0  0  0  0  0  0  0  0  0
   -2.5057    0.5804   -6.0970 H   0  0  0  0  0  0  0  0  0  0  0  0
   -2.7378   -0.4281   -4.6477 H   0  0  0  0  0  0  0  0  0  0  0  0
   -3.0640    1.3168   -4.5815 H   0  0  0  0  0  0  0  0  0  0  0  0
  1  2  2  0  0  0  0
  1  3  1  0  0  0  0
  1  7  1  0  0  0  0
  3  4  1  0  0  0  0
  3  5  1  0  0  0  0
  3  6  1  0  0  0  0
  7  8  1  0  0  0  0
  7 12  1  0  0  0  0
  8  9  1  0  0  0  0
  8 11  1  0  0  0  0
  8 13  1  0  0  0  0
  9 10  2  0  0  0  0
  9 17  1  0  0  0  0
 11 14  1  0  0  0  0
 11 15  1  0  0  0  0
 11 16  1  0  0  0  0
 17 18  1  0  0  0  0
 17 28  1  0  0  0  0
 18 19  1  0  0  0  0
 18 21  1  0  0  0  0
 18 29  1  0  0  0  0
 19 20  2  0  0  0  0
 19 37  1  0  0  0  0
 21 22  1  0  0  0  0
 21 30  1  0  0  0  0
 21 31  1  0  0  0  0
 22 23  1  0  0  0  0
 22 24  2  0  0  0  0
 23 25  2  0  0  0  0
 23 32  1  0  0  0  0
 24 26  1  0  0  0  0
 24 33  1  0  0  0  0
 25 27  1  0  0  0  0
 25 34  1  0  0  0  0
 26 27  2  0  0  0  0
 26 35  1  0  0  0  0
 27 36  1  0  0  0  0
 37 38  1  0  0  0  0
 37 42  1  0  0  0  0
 38 39  1  0  0  0  0
 38 41  1  0  0  0  0
 38 43  1  0  0  0  0
 39 40  2  0  0  0  0
 39 47  1  0  0  0  0
 41 44  1  0  0  0  0
 41 45  1  0  0  0  0
 41 46  1  0  0  0  0
 47 48  1  0  0  0  0
 47 49  1  0  0  0  0
 48 50  1  0  0  0  0
 48 51  1  0  0  0  0
 48 52  1  0  0  0  0
M  END
$$$$

  -OEChem-05262217163D

 52 52  0     1  0  0  0  0  0999 V2000
   -2.6559    0.2911    3.6379 C   0  0  0  0  0  0  0  0  0  0  0  0
   -3.2647   -0.3219    2.7738 O   0  0  0  0  0  0  0  0  0  0  0  0
   -2.5725   -0.2669    5.0461 C   0  0  0  0  0  0  0  0  0  0  0  0
   -3.1251   -1.2082    5.1129 H   0  0  0  0  0  0  0  0  0  0  0  0
   -1.5285   -0.4510    5.3124 H   0  0  0  0  0  0  0  0  0  0  0  0
   -3.0023    0.4444    5.7555 H   0  0  0  0  0  0  0  0  0  0  0  0
   -2.0121    1.4729    3.3354 N   0  0  0  0  0  0  0  0  0  0  0  0
   -1.7827    1.9130    1.9526 C   0  0  2  0  0  0  0  0  0  0  0  0
   -0.4344    1.3966    1.4116 C   0  0  0  0  0  0  0  0  0  0  0  0
    0.5250    1.2903    2.1670 O   0  0  0  0  0  0  0  0  0  0  0  0
   -1.8181    3.4426    1.9312 C   0  0  0  0  0  0  0  0  0  0  0  0
   -1.3262    1.7759    4.0227 H   0  0  0  0  0  0  0  0  0  0  0  0
   -2.5788    1.5428    1.2982 H   0  0  0  0  0  0  0  0  0  0  0  0
   -1.0250    3.8545    2.5637 H   0  0  0  0  0  0  0  0  0  0  0  0
   -1.6753    3.8131    0.9113 H   0  0  0  0  0  0  0  0  0  0  0  0
   -2.7829    3.8050    2.2992 H   0  0  0  0  0  0  0  0  0  0  0  0
   -0.2633    1.1788    0.0573 N   0  0  0  0  0  0  0  0  0  0  0  0
    0.8595    0.4387   -0.5489 C   0  0  2  0  0  0  0  0  0  0  0  0
    0.8967    0.7458   -2.0703 C   0  0  0  0  0  0  0  0  0  0  0  0
    0.6515    1.8819   -2.4622 O   0  0  0  0  0  0  0  0  0  0  0  0
    0.6997   -1.0946   -0.3462 C   0  0  0  0  0  0  0  0  0  0  0  0
    0.8088   -1.5711    1.0817 C   0  0  0  0  0  0  0  0  0  0  0  0
    2.0655   -1.7571    1.6770 C   0  0  0  0  0  0  0  0  0  0  0  0
   -0.3444   -1.9023    1.8113 C   0  0  0  0  0  0  0  0  0  0  0  0
    2.1666   -2.2407    2.9864 C   0  0  0  0  0  0  0  0  0  0  0  0
   -0.2443   -2.3907    3.1176 C   0  0  0  0  0  0  0  0  0  0  0  0
    1.0115   -2.5563    3.7084 C   0  0  0  0  0  0  0  0  0  0  0  0
   -1.0510    1.4064   -0.5438 H   0  0  0  0  0  0  0  0  0  0  0  0
    1.8074    0.7699   -0.1111 H   0  0  0  0  0  0  0  0  0  0  0  0
    1.4800   -1.6180   -0.9071 H   0  0  0  0  0  0  0  0  0  0  0  0
   -0.2659   -1.4090   -0.7570 H   0  0  0  0  0  0  0  0  0  0  0  0
    2.9706   -1.5153    1.1290 H   0  0  0  0  0  0  0  0  0  0  0  0
   -1.3297   -1.7794    1.3704 H   0  0  0  0  0  0  0  0  0  0  0  0
    3.1436   -2.3690    3.4426 H   0  0  0  0  0  0  0  0  0  0  0  0
   -1.1459   -2.6411    3.6683 H   0  0  0  0  0  0  0  0  0  0  0  0
    1.0907   -2.9316    4.7244 H   0  0  0  0  0  0  0  0  0  0  0  0
    1.0726   -0.2299   -3.0397 N   0  0  0  0  0  0  0  0  0  0  0  0
    1.0487    0.0201   -4.4902 C   0  0  2  0  0  0  0  0  0  0  0  0
   -0.3886    0.1791   -5.0439 C   0  0  0  0  0  0  0  0  0  0  0  0
   -0.8672   -0.6242   -5.8350 O   0  0  0  0  0  0  0  0  0  0  0  0
    1.8203   -1.1226   -5.1631 C   0  0  0  0  0  0  0  0  0  0  0  0
    1.1616   -1.1912   -2.7239 H   0  0  0  0  0  0  0  0  0  0  0  0
    1.5807    0.9523   -4.7086 H   0  0  0  0  0  0  0  0  0  0  0  0
    1.3262   -2.0824   -4.9804 H   0  0  0  0  0  0  0  0  0  0  0  0
    1.8697   -0.9609   -6.2449 H   0  0  0  0  0  0  0  0  0  0  0  0
    2.8426   -1.1745   -4.7762 H   0  0  0  0  0  0  0  0  0  0  0  0
   -1.1530    1.2524   -4.6317 N   0  0  0  0  0  0  0  0  0  0  0  0
   -2.5183    1.5008   -5.0739 C   0  0  0  0  0  0  0  0  0  0  0  0
   -0.7281    1.8649   -3.9308 H   0  0  0  0  0  0  0  0  0  0  0  0
   -2.5454    1.6639   -6.1564 H   0  0  0  0  0  0  0  0  0  0  0  0
   -3.1615    0.6493   -4.8285 H   0  0  0  0  0  0  0  0  0  0  0  0
   -2.9189    2.3912   -4.5799 H   0  0  0  0  0  0  0  0  0  0  0  0
  1  2  2  0  0  0  0
  1  3  1  0  0  0  0
  1  7  1  0  0  0  0
  3  4  1  0  0  0  0
  3  5  1  0  0  0  0
  3  6  1  0  0  0  0
  7  8  1  0  0  0  0
  7 12  1  0  0  0  0
  8  9  1  0  0  0  0
  8 11  1  0  0  0  0
  8 13  1  0  0  0  0
  9 10  2  0  0  0  0
  9 17  1  0  0  0  0
 11 14  1  0  0  0  0
 11 15  1  0  0  0  0
 11 16  1  0  0  0  0
 17 18  1  0  0  0  0
 17 28  1  0  0  0  0
 18 19  1  0  0  0  0
 18 21  1  0  0  0  0
 18 29  1  0  0  0  0
 19 20  2  0  0  0  0
 19 37  1  0  0  0  0
 21 22  1  0  0  0  0
 21 30  1  0  0  0  0
 21 31  1  0  0  0  0
 22 23  1  0  0  0  0
 22 24  2  0  0  0  0
 23 25  2  0  0  0  0
 23 32  1  0  0  0  0
 24 26  1  0  0  0  0
 24 33  1  0  0  0  0
 25 27  1  0  0  0  0
 25 34  1  0  0  0  0
 26 27  2  0  0  0  0
 26 35  1  0  0  0  0
 27 36  1  0  0  0  0
 37 38  1  0  0  0  0
 37 42  1  0  0  0  0
 38 39  1  0  0  0  0
 38 41  1  0  0  0  0
 38 43  1  0  0  0  0
 39 40  2  0  0  0  0
 39 47  1  0  0  0  0
 41 44  1  0  0  0  0
 41 45  1  0  0  0  0
 41 46  1  0  0  0  0
 47 48  1  0  0  0  0
 47 49  1  0  0  0  0
 48 50  1  0  0  0  0
 48 51  1  0  0  0  0
 48 52  1  0  0  0  0
M  END
$$$$

  -OEChem-05262217163D

 52 52  0     1  0  0  0  0  0999 V2000
   -2.5590    0.3401    3.8072 C   0  0  0  0  0  0  0  0  0  0  0  0
   -3.2517   -0.2971    3.0282 O   0  0  0  0  0  0  0  0  0  0  0  0
   -2.3868   -0.1438    5.2346 C   0  0  0  0  0  0  0  0  0  0  0  0
   -2.9640   -1.0586    5.3952 H   0  0  0  0  0  0  0  0  0  0  0  0
   -1.3321   -0.3528    5.4310 H   0  0  0  0  0  0  0  0  0  0  0  0
   -2.7358    0.6204    5.9331 H   0  0  0  0  0  0  0  0  0  0  0  0
   -1.8974    1.4774    3.3940 N   0  0  0  0  0  0  0  0  0  0  0  0
   -1.7180    1.8213    1.9763 C   0  0  2  0  0  0  0  0  0  0  0  0
   -0.3420    1.3566    1.4571 C   0  0  0  0  0  0  0  0  0  0  0  0
    0.5974    1.2443    2.2376 O   0  0  0  0  0  0  0  0  0  0  0  0
   -1.8589    3.3384    1.8418 C   0  0  0  0  0  0  0  0  0  0  0  0
   -1.1543    1.7844    4.0178 H   0  0  0  0  0  0  0  0  0  0  0  0
   -2.4900    1.3464    1.3616 H   0  0  0  0  0  0  0  0  0  0  0  0
   -1.0983    3.8489    2.4416 H   0  0  0  0  0  0  0  0  0  0  0  0
   -1.7387    3.6420    0.7972 H   0  0  0  0  0  0  0  0  0  0  0  0
   -2.8479    3.6585    2.1843 H   0  0  0  0  0  0  0  0  0  0  0  0
   -0.1313    1.1646    0.1045 N   0  0  0  0  0  0  0  0  0  0  0  0
    0.9823    0.3826   -0.4640 C   0  0  2  0  0  0  0  0  0  0  0  0
    1.1050    0.7153   -1.9725 C   0  0  0  0  0  0  0  0  0  0  0  0
    1.2095    1.8853   -2.3207 O   0  0  0  0  0  0  0  0  0  0  0  0
    0.7502   -1.1442   -0.2918 C   0  0  0  0  0  0  0  0  0  0  0  0
    0.7799   -1.6403    1.1337 C   0  0  0  0  0  0  0  0  0  0  0  0
    2.0023   -1.8854    1.7770 C   0  0  0  0  0  0  0  0  0  0  0  0
   -0.4153   -1.9229    1.8143 C   0  0  0  0  0  0  0  0  0  0  0  0
    2.0294   -2.3836    3.0844 C   0  0  0  0  0  0  0  0  0  0  0  0
   -0.3891   -2.4258    3.1185 C   0  0  0  0  0  0  0  0  0  0  0  0
    0.8334   -2.6546    3.7561 C   0  0  0  0  0  0  0  0  0  0  0  0
   -0.9261    1.3450   -0.5042 H   0  0  0  0  0  0  0  0  0  0  0  0
    1.9236    0.6655    0.0192 H   0  0  0  0  0  0  0  0  0  0  0  0
    1.5271   -1.6890   -0.8383 H   0  0  0  0  0  0  0  0  0  0  0  0
   -0.2136   -1.4101   -0.7400 H   0  0  0  0  0  0  0  0  0  0  0  0
    2.9379   -1.6778    1.2673 H   0  0  0  0  0  0  0  0  0  0  0  0
   -1.3760   -1.7489    1.3375 H   0  0  0  0  0  0  0  0  0  0  0  0
    2.9808   -2.5580    3.5773 H   0  0  0  0  0  0  0  0  0  0  0  0
   -1.3237   -2.6361    3.6303 H   0  0  0  0  0  0  0  0  0  0  0  0
    0.8544   -3.0419    4.7702 H   0  0  0  0  0  0  0  0  0  0  0  0
    0.9750   -0.2428   -2.9659 N   0  0  0  0  0  0  0  0  0  0  0  0
    0.6280    0.1291   -4.3438 C   0  0  2  0  0  0  0  0  0  0  0  0
   -0.8679    0.4905   -4.4694 C   0  0  0  0  0  0  0  0  0  0  0  0
   -1.7014   -0.1100   -3.7986 O   0  0  0  0  0  0  0  0  0  0  0  0
    0.9706   -1.0523   -5.2534 C   0  0  0  0  0  0  0  0  0  0  0  0
    0.6324   -1.1445   -2.6466 H   0  0  0  0  0  0  0  0  0  0  0  0
    1.2232    0.9927   -4.6598 H   0  0  0  0  0  0  0  0  0  0  0  0
    0.3825   -1.9334   -4.9765 H   0  0  0  0  0  0  0  0  0  0  0  0
    0.7536   -0.8049   -6.2972 H   0  0  0  0  0  0  0  0  0  0  0  0
    2.0333   -1.2999   -5.1701 H   0  0  0  0  0  0  0  0  0  0  0  0
   -1.2800    1.4801   -5.3421 N   0  0  0  0  0  0  0  0  0  0  0  0
   -2.6639    1.9287   -5.4344 C   0  0  0  0  0  0  0  0  0  0  0  0
   -0.5551    2.0430   -5.7780 H   0  0  0  0  0  0  0  0  0  0  0  0
   -3.3192    1.0963   -5.7121 H   0  0  0  0  0  0  0  0  0  0  0  0
   -2.9992    2.3365   -4.4749 H   0  0  0  0  0  0  0  0  0  0  0  0
   -2.7579    2.7096   -6.1952 H   0  0  0  0  0  0  0  0  0  0  0  0
  1  2  2  0  0  0  0
  1  3  1  0  0  0  0
  1  7  1  0  0  0  0
  3  4  1  0  0  0  0
  3  5  1  0  0  0  0
  3  6  1  0  0  0  0
  7  8  1  0  0  0  0
  7 12  1  0  0  0  0
  8  9  1  0  0  0  0
  8 11  1  0  0  0  0
  8 13  1  0  0  0  0
  9 10  2  0  0  0  0
  9 17  1  0  0  0  0
 11 14  1  0  0  0  0
 11 15  1  0  0  0  0
 11 16  1  0  0  0  0
 17 18  1  0  0  0  0
 17 28  1  0  0  0  0
 18 19  1  0  0  0  0
 18 21  1  0  0  0  0
 18 29  1  0  0  0  0
 19 20  2  0  0  0  0
 19 37  1  0  0  0  0
 21 22  1  0  0  0  0
 21 30  1  0  0  0  0
 21 31  1  0  0  0  0
 22 23  1  0  0  0  0
 22 24  2  0  0  0  0
 23 25  2  0  0  0  0
 23 32  1  0  0  0  0
 24 26  1  0  0  0  0
 24 33  1  0  0  0  0
 25 27  1  0  0  0  0
 25 34  1  0  0  0  0
 26 27  2  0  0  0  0
 26 35  1  0  0  0  0
 27 36  1  0  0  0  0
 37 38  1  0  0  0  0
 37 42  1  0  0  0  0
 38 39  1  0  0  0  0
 38 41  1  0  0  0  0
 38 43  1  0  0  0  0
 39 40  2  0  0  0  0
 39 47  1  0  0  0  0
 41 44  1  0  0  0  0
 41 45  1  0  0  0  0
 41 46  1  0  0  0  0
 47 48  1  0  0  0  0
 47 49  1  0  0  0  0
 48 50  1  0  0  0  0
 48 51  1  0  0  0  0
 48 52  1  0  0  0  0
M  END
$$$$

  -OEChem-05262217163D

 52 52  0     1  0  0  0  0  0999 V2000
   -2.6109    0.4660    3.5234 C   0  0  0  0  0  0  0  0  0  0  0  0
   -3.2993   -0.1847    2.7519 O   0  0  0  0  0  0  0  0  0  0  0  0
   -2.5094    0.0460    4.9775 C   0  0  0  0  0  0  0  0  0  0  0  0
   -3.1625   -0.8097    5.1697 H   0  0  0  0  0  0  0  0  0  0  0  0
   -1.4795   -0.2357    5.2110 H   0  0  0  0  0  0  0  0  0  0  0  0
   -2.8100    0.8717    5.6267 H   0  0  0  0  0  0  0  0  0  0  0  0
   -1.8923    1.5580    3.0837 N   0  0  0  0  0  0  0  0  0  0  0  0
   -1.6330    1.8186    1.6603 C   0  0  2  0  0  0  0  0  0  0  0  0
   -0.2226    1.3440    1.2560 C   0  0  0  0  0  0  0  0  0  0  0  0
    0.6612    1.2582    2.1031 O   0  0  0  0  0  0  0  0  0  0  0  0
   -1.7835    3.3218    1.4193 C   0  0  0  0  0  0  0  0  0  0  0  0
   -1.1662    1.8715    3.7242 H   0  0  0  0  0  0  0  0  0  0  0  0
   -2.3584    1.2936    1.0299 H   0  0  0  0  0  0  0  0  0  0  0  0
   -1.0502    3.8802    2.0099 H   0  0  0  0  0  0  0  0  0  0  0  0
   -1.6275    3.5556    0.3614 H   0  0  0  0  0  0  0  0  0  0  0  0
   -2.7875    3.6531    1.7027 H   0  0  0  0  0  0  0  0  0  0  0  0
    0.0766    1.0962   -0.0689 N   0  0  0  0  0  0  0  0  0  0  0  0
    1.1960    0.2544   -0.5243 C   0  0  2  0  0  0  0  0  0  0  0  0
    1.4094    0.5528   -2.0250 C   0  0  0  0  0  0  0  0  0  0  0  0
    1.7634    1.6714   -2.3773 O   0  0  0  0  0  0  0  0  0  0  0  0
    0.9066   -1.2568   -0.3191 C   0  0  0  0  0  0  0  0  0  0  0  0
    0.8202   -1.6992    1.1214 C   0  0  0  0  0  0  0  0  0  0  0  0
    1.9856   -1.9534    1.8592 C   0  0  0  0  0  0  0  0  0  0  0  0
   -0.4288   -1.9199    1.7246 C   0  0  0  0  0  0  0  0  0  0  0  0
    1.9051   -2.3999    3.1832 C   0  0  0  0  0  0  0  0  0  0  0  0
   -0.5102   -2.3729    3.0448 C   0  0  0  0  0  0  0  0  0  0  0  0
    0.6567   -2.6102    3.7768 C   0  0  0  0  0  0  0  0  0  0  0  0
   -0.6956    1.2095   -0.7291 H   0  0  0  0  0  0  0  0  0  0  0  0
    2.1132    0.5273    0.0085 H   0  0  0  0  0  0  0  0  0  0  0  0
    1.6993   -1.8389   -0.8003 H   0  0  0  0  0  0  0  0  0  0  0  0
   -0.0359   -1.5112   -0.8156 H   0  0  0  0  0  0  0  0  0  0  0  0
    2.9604   -1.7929    1.4097 H   0  0  0  0  0  0  0  0  0  0  0  0
   -1.3479   -1.7359    1.1745 H   0  0  0  0  0  0  0  0  0  0  0  0
    2.8136   -2.5812    3.7496 H   0  0  0  0  0  0  0  0  0  0  0  0
   -1.4848   -2.5365    3.4952 H   0  0  0  0  0  0  0  0  0  0  0  0
    0.5946   -2.9578    4.8034 H   0  0  0  0  0  0  0  0  0  0  0  0
    1.0014   -0.3393   -3.0035 N   0  0  0  0  0  0  0  0  0  0  0  0
    0.3385    0.2023   -4.1982 C   0  0  2  0  0  0  0  0  0  0  0  0
   -1.0277    0.8507   -3.8534 C   0  0  0  0  0  0  0  0  0  0  0  0
   -1.5676    0.6377   -2.7685 O   0  0  0  0  0  0  0  0  0  0  0  0
    0.1545   -0.9449   -5.1935 C   0  0  0  0  0  0  0  0  0  0  0  0
    0.5814   -1.1833   -2.6262 H   0  0  0  0  0  0  0  0  0  0  0  0
    0.9742    0.9654   -4.6607 H   0  0  0  0  0  0  0  0  0  0  0  0
   -0.4920   -1.7208   -4.7707 H   0  0  0  0  0  0  0  0  0  0  0  0
   -0.3014   -0.5795   -6.1190 H   0  0  0  0  0  0  0  0  0  0  0  0
    1.1232   -1.3917   -5.4397 H   0  0  0  0  0  0  0  0  0  0  0  0
   -1.6573    1.6794   -4.7636 N   0  0  0  0  0  0  0  0  0  0  0  0
   -2.9109    2.3687   -4.4819 C   0  0  0  0  0  0  0  0  0  0  0  0
   -1.1512    1.9120   -5.6132 H   0  0  0  0  0  0  0  0  0  0  0  0
   -3.6923    1.6500   -4.2131 H   0  0  0  0  0  0  0  0  0  0  0  0
   -2.7820    3.0750   -3.6552 H   0  0  0  0  0  0  0  0  0  0  0  0
   -3.2440    2.9241   -5.3640 H   0  0  0  0  0  0  0  0  0  0  0  0
  1  2  2  0  0  0  0
  1  3  1  0  0  0  0
  1  7  1  0  0  0  0
  3  4  1  0  0  0  0
  3  5  1  0  0  0  0
  3  6  1  0  0  0  0
  7  8  1  0  0  0  0
  7 12  1  0  0  0  0
  8  9  1  0  0  0  0
  8 11  1  0  0  0  0
  8 13  1  0  0  0  0
  9 10  2  0  0  0  0
  9 17  1  0  0  0  0
 11 14  1  0  0  0  0
 11 15  1  0  0  0  0
 11 16  1  0  0  0  0
 17 18  1  0  0  0  0
 17 28  1  0  0  0  0
 18 19  1  0  0  0  0
 18 21  1  0  0  0  0
 18 29  1  0  0  0  0
 19 20  2  0  0  0  0
 19 37  1  0  0  0  0
 21 22  1  0  0  0  0
 21 30  1  0  0  0  0
 21 31  1  0  0  0  0
 22 23  1  0  0  0  0
 22 24  2  0  0  0  0
 23 25  2  0  0  0  0
 23 32  1  0  0  0  0
 24 26  1  0  0  0  0
 24 33  1  0  0  0  0
 25 27  1  0  0  0  0
 25 34  1  0  0  0  0
 26 27  2  0  0  0  0
 26 35  1  0  0  0  0
 27 36  1  0  0  0  0
 37 38  1  0  0  0  0
 37 42  1  0  0  0  0
 38 39  1  0  0  0  0
 38 41  1  0  0  0  0
 38 43  1  0  0  0  0
 39 40  2  0  0  0  0
 39 47  1  0  0  0  0
 41 44  1  0  0  0  0
 41 45  1  0  0  0  0
 41 46  1  0  0  0  0
 47 48  1  0  0  0  0
 47 49  1  0  0  0  0
 48 50  1  0  0  0  0
 48 51  1  0  0  0  0
 48 52  1  0  0  0  0
M  END
$$$$

  -OEChem-05262217163D

 52 52  0     1  0  0  0  0  0999 V2000
   -2.5636    0.5534    3.5141 C   0  0  0  0  0  0  0  0  0  0  0  0
   -3.2293   -0.1706    2.7889 O   0  0  0  0  0  0  0  0  0  0  0  0
   -2.4265    0.2229    4.9882 C   0  0  0  0  0  0  0  0  0  0  0  0
   -3.0372   -0.6487    5.2384 H   0  0  0  0  0  0  0  0  0  0  0  0
   -1.3822    0.0007    5.2225 H   0  0  0  0  0  0  0  0  0  0  0  0
   -2.7570    1.0702    5.5937 H   0  0  0  0  0  0  0  0  0  0  0  0
   -1.8975    1.6485    3.0048 N   0  0  0  0  0  0  0  0  0  0  0  0
   -1.6527    1.8234    1.5661 C   0  0  2  0  0  0  0  0  0  0  0  0
   -0.2586    1.2968    1.1702 C   0  0  0  0  0  0  0  0  0  0  0  0
    0.6344    1.2307    2.0087 O   0  0  0  0  0  0  0  0  0  0  0  0
   -1.7756    3.3126    1.2399 C   0  0  0  0  0  0  0  0  0  0  0  0
   -1.1790    2.0252    3.6189 H   0  0  0  0  0  0  0  0  0  0  0  0
   -2.3998    1.2801    0.9774 H   0  0  0  0  0  0  0  0  0  0  0  0
   -1.0232    3.8890    1.7878 H   0  0  0  0  0  0  0  0  0  0  0  0
   -1.6298    3.4804    0.1681 H   0  0  0  0  0  0  0  0  0  0  0  0
   -2.7688    3.6801    1.5156 H   0  0  0  0  0  0  0  0  0  0  0  0
    0.0142    0.9770   -0.1440 N   0  0  0  0  0  0  0  0  0  0  0  0
    1.1215    0.1127   -0.5868 C   0  0  2  0  0  0  0  0  0  0  0  0
    1.2914    0.3371   -2.1023 C   0  0  0  0  0  0  0  0  0  0  0  0
    1.8550    1.3439   -2.5120 O   0  0  0  0  0  0  0  0  0  0  0  0
    0.8539   -1.3895   -0.3064 C   0  0  0  0  0  0  0  0  0  0  0  0
    0.8131   -1.7633    1.1552 C   0  0  0  0  0  0  0  0  0  0  0  0
    2.0025   -1.9712    1.8688 C   0  0  0  0  0  0  0  0  0  0  0  0
   -0.4148   -1.9594    1.8079 C   0  0  0  0  0  0  0  0  0  0  0  0
    1.9657   -2.3509    3.2153 C   0  0  0  0  0  0  0  0  0  0  0  0
   -0.4527   -2.3440    3.1515 C   0  0  0  0  0  0  0  0  0  0  0  0
    0.7379   -2.5377    3.8577 C   0  0  0  0  0  0  0  0  0  0  0  0
   -0.7557    1.1105   -0.8067 H   0  0  0  0  0  0  0  0  0  0  0  0
    2.0515    0.4153   -0.0929 H   0  0  0  0  0  0  0  0  0  0  0  0
    1.6370   -1.9842   -0.7886 H   0  0  0  0  0  0  0  0  0  0  0  0
   -0.1001   -1.6782   -0.7587 H   0  0  0  0  0  0  0  0  0  0  0  0
    2.9619   -1.8274    1.3818 H   0  0  0  0  0  0  0  0  0  0  0  0
   -1.3514   -1.8063    1.2792 H   0  0  0  0  0  0  0  0  0  0  0  0
    2.8924   -2.4976    3.7614 H   0  0  0  0  0  0  0  0  0  0  0  0
   -1.4120   -2.4865    3.6404 H   0  0  0  0  0  0  0  0  0  0  0  0
    0.7091   -2.8325    4.9022 H   0  0  0  0  0  0  0  0  0  0  0  0
    0.5896   -0.4418   -3.0072 N   0  0  0  0  0  0  0  0  0  0  0  0
   -0.0451    0.2225   -4.1534 C   0  0  2  0  0  0  0  0  0  0  0  0
   -1.2078    1.1458   -3.7066 C   0  0  0  0  0  0  0  0  0  0  0  0
   -1.7107    1.0237   -2.5898 O   0  0  0  0  0  0  0  0  0  0  0  0
   -0.5545   -0.8662   -5.0995 C   0  0  0  0  0  0  0  0  0  0  0  0
    0.0227   -1.1570   -2.5614 H   0  0  0  0  0  0  0  0  0  0  0  0
    0.6936    0.8309   -4.6868 H   0  0  0  0  0  0  0  0  0  0  0  0
   -1.3104   -1.4835   -4.6032 H   0  0  0  0  0  0  0  0  0  0  0  0
   -1.0026   -0.4188   -5.9921 H   0  0  0  0  0  0  0  0  0  0  0  0
    0.2721   -1.5111   -5.4146 H   0  0  0  0  0  0  0  0  0  0  0  0
   -1.6887    2.1237   -4.5570 N   0  0  0  0  0  0  0  0  0  0  0  0
   -2.7091    3.0895   -4.1667 C   0  0  0  0  0  0  0  0  0  0  0  0
   -1.1881    2.2694   -5.4291 H   0  0  0  0  0  0  0  0  0  0  0  0
   -3.6052    2.5776   -3.8000 H   0  0  0  0  0  0  0  0  0  0  0  0
   -2.3305    3.7470   -3.3770 H   0  0  0  0  0  0  0  0  0  0  0  0
   -2.9942    3.7057   -5.0249 H   0  0  0  0  0  0  0  0  0  0  0  0
  1  2  2  0  0  0  0
  1  3  1  0  0  0  0
  1  7  1  0  0  0  0
  3  4  1  0  0  0  0
  3  5  1  0  0  0  0
  3  6  1  0  0  0  0
  7  8  1  0  0  0  0
  7 12  1  0  0  0  0
  8  9  1  0  0  0  0
  8 11  1  0  0  0  0
  8 13  1  0  0  0  0
  9 10  2  0  0  0  0
  9 17  1  0  0  0  0
 11 14  1  0  0  0  0
 11 15  1  0  0  0  0
 11 16  1  0  0  0  0
 17 18  1  0  0  0  0
 17 28  1  0  0  0  0
 18 19  1  0  0  0  0
 18 21  1  0  0  0  0
 18 29  1  0  0  0  0
 19 20  2  0  0  0  0
 19 37  1  0  0  0  0
 21 22  1  0  0  0  0
 21 30  1  0  0  0  0
 21 31  1  0  0  0  0
 22 23  1  0  0  0  0
 22 24  2  0  0  0  0
 23 25  2  0  0  0  0
 23 32  1  0  0  0  0
 24 26  1  0  0  0  0
 24 33  1  0  0  0  0
 25 27  1  0  0  0  0
 25 34  1  0  0  0  0
 26 27  2  0  0  0  0
 26 35  1  0  0  0  0
 27 36  1  0  0  0  0
 37 38  1  0  0  0  0
 37 42  1  0  0  0  0
 38 39  1  0  0  0  0
 38 41  1  0  0  0  0
 38 43  1  0  0  0  0
 39 40  2  0  0  0  0
 39 47  1  0  0  0  0
 41 44  1  0  0  0  0
 41 45  1  0  0  0  0
 41 46  1  0  0  0  0
 47 48  1  0  0  0  0
 47 49  1  0  0  0  0
 48 50  1  0  0  0  0
 48 51  1  0  0  0  0
 48 52  1  0  0  0  0
M  END
$$$$

  -OEChem-05262217163D

 52 52  0     1  0  0  0  0  0999 V2000
   -2.5010    0.6498    3.5455 C   0  0  0  0  0  0  0  0  0  0  0  0
   -3.1739   -0.1033    2.8573 O   0  0  0  0  0  0  0  0  0  0  0  0
   -2.3399    0.3752    5.0288 C   0  0  0  0  0  0  0  0  0  0  0  0
   -2.9271   -0.5012    5.3167 H   0  0  0  0  0  0  0  0  0  0  0  0
   -1.2880    0.1869    5.2592 H   0  0  0  0  0  0  0  0  0  0  0  0
   -2.6845    1.2355    5.6075 H   0  0  0  0  0  0  0  0  0  0  0  0
   -1.8504    1.7298    2.9860 N   0  0  0  0  0  0  0  0  0  0  0  0
   -1.6356    1.8528    1.5371 C   0  0  2  0  0  0  0  0  0  0  0  0
   -0.2702    1.2677    1.1214 C   0  0  0  0  0  0  0  0  0  0  0  0
    0.6470    1.2041    1.9332 O   0  0  0  0  0  0  0  0  0  0  0  0
   -1.7224    3.3341    1.1668 C   0  0  0  0  0  0  0  0  0  0  0  0
   -1.1240    2.1328    3.5731 H   0  0  0  0  0  0  0  0  0  0  0  0
   -2.4151    1.3168    0.9845 H   0  0  0  0  0  0  0  0  0  0  0  0
   -0.9399    3.9050    1.6768 H   0  0  0  0  0  0  0  0  0  0  0  0
   -1.6006    3.4637    0.0865 H   0  0  0  0  0  0  0  0  0  0  0  0
   -2.6969    3.7393    1.4560 H   0  0  0  0  0  0  0  0  0  0  0  0
   -0.0545    0.8855   -0.1869 N   0  0  0  0  0  0  0  0  0  0  0  0
    1.0271   -0.0047   -0.6459 C   0  0  2  0  0  0  0  0  0  0  0  0
    1.1276    0.1507   -2.1739 C   0  0  0  0  0  0  0  0  0  0  0  0
    1.8808    0.9839   -2.6594 O   0  0  0  0  0  0  0  0  0  0  0  0
    0.7621   -1.4943   -0.3102 C   0  0  0  0  0  0  0  0  0  0  0  0
    0.7790   -1.8174    1.1638 C   0  0  0  0  0  0  0  0  0  0  0  0
    1.9948   -2.0098    1.8361 C   0  0  0  0  0  0  0  0  0  0  0  0
   -0.4229   -1.9692    1.8741 C   0  0  0  0  0  0  0  0  0  0  0  0
    2.0093   -2.3350    3.1973 C   0  0  0  0  0  0  0  0  0  0  0  0
   -0.4094   -2.2973    3.2330 C   0  0  0  0  0  0  0  0  0  0  0  0
    0.8070   -2.4794    3.8967 C   0  0  0  0  0  0  0  0  0  0  0  0
   -0.8257    1.0633   -0.8379 H   0  0  0  0  0  0  0  0  0  0  0  0
    1.9808    0.3060   -0.2051 H   0  0  0  0  0  0  0  0  0  0  0  0
    1.5234   -2.1076   -0.8038 H   0  0  0  0  0  0  0  0  0  0  0  0
   -0.2081   -1.7942   -0.7177 H   0  0  0  0  0  0  0  0  0  0  0  0
    2.9348   -1.8955    1.3052 H   0  0  0  0  0  0  0  0  0  0  0  0
   -1.3787   -1.8226    1.3791 H   0  0  0  0  0  0  0  0  0  0  0  0
    2.9555   -2.4718    3.7117 H   0  0  0  0  0  0  0  0  0  0  0  0
   -1.3485   -2.4054    3.7677 H   0  0  0  0  0  0  0  0  0  0  0  0
    0.8186   -2.7307    4.9529 H   0  0  0  0  0  0  0  0  0  0  0  0
    0.1673   -0.4352   -2.9813 N   0  0  0  0  0  0  0  0  0  0  0  0
   -0.3869    0.3359   -4.1016 C   0  0  2  0  0  0  0  0  0  0  0  0
   -1.3334    1.4512   -3.5949 C   0  0  0  0  0  0  0  0  0  0  0  0
   -1.8414    1.3721   -2.4768 O   0  0  0  0  0  0  0  0  0  0  0  0
   -1.1355   -0.6349   -5.0159 C   0  0  0  0  0  0  0  0  0  0  0  0
   -0.5155   -0.9766   -2.4585 H   0  0  0  0  0  0  0  0  0  0  0  0
    0.4212    0.8012   -4.6765 H   0  0  0  0  0  0  0  0  0  0  0  0
   -1.9645   -1.1073   -4.4791 H   0  0  0  0  0  0  0  0  0  0  0  0
   -1.5402   -0.1072   -5.8850 H   0  0  0  0  0  0  0  0  0  0  0  0
   -0.4579   -1.4176   -5.3715 H   0  0  0  0  0  0  0  0  0  0  0  0
   -1.6051    2.5534   -4.3831 N   0  0  0  0  0  0  0  0  0  0  0  0
   -2.3960    3.6873   -3.9200 C   0  0  0  0  0  0  0  0  0  0  0  0
   -1.0878    2.6427   -5.2533 H   0  0  0  0  0  0  0  0  0  0  0  0
   -3.3907    3.3586   -3.6010 H   0  0  0  0  0  0  0  0  0  0  0  0
   -1.9003    4.1806   -3.0773 H   0  0  0  0  0  0  0  0  0  0  0  0
   -2.5178    4.4168   -4.7265 H   0  0  0  0  0  0  0  0  0  0  0  0
  1  2  2  0  0  0  0
  1  3  1  0  0  0  0
  1  7  1  0  0  0  0
  3  4  1  0  0  0  0
  3  5  1  0  0  0  0
  3  6  1  0  0  0  0
  7  8  1  0  0  0  0
  7 12  1  0  0  0  0
  8  9  1  0  0  0  0
  8 11  1  0  0  0  0
  8 13  1  0  0  0  0
  9 10  2  0  0  0  0
  9 17  1  0  0  0  0
 11 14  1  0  0  0  0
 11 15  1  0  0  0  0
 11 16  1  0  0  0  0
 17 18  1  0  0  0  0
 17 28  1  0  0  0  0
 18 19  1  0  0  0  0
 18 21  1  0  0  0  0
 18 29  1  0  0  0  0
 19 20  2  0  0  0  0
 19 37  1  0  0  0  0
 21 22  1  0  0  0  0
 21 30  1  0  0  0  0
 21 31  1  0  0  0  0
 22 23  1  0  0  0  0
 22 24  2  0  0  0  0
 23 25  2  0  0  0  0
 23 32  1  0  0  0  0
 24 26  1  0  0  0  0
 24 33  1  0  0  0  0
 25 27  1  0  0  0  0
 25 34  1  0  0  0  0
 26 27  2  0  0  0  0
 26 35  1  0  0  0  0
 27 36  1  0  0  0  0
 37 38  1  0  0  0  0
 37 42  1  0  0  0  0
 38 39  1  0  0  0  0
 38 41  1  0  0  0  0
 38 43  1  0  0  0  0
 39 40  2  0  0  0  0
 39 47  1  0  0  0  0
 41 44  1  0  0  0  0
 41 45  1  0  0  0  0
 41 46  1  0  0  0  0
 47 48  1  0  0  0  0
 47 49  1  0  0  0  0
 48 50  1  0  0  0  0
 48 51  1  0  0  0  0
 48 52  1  0  0  0  0
M  END
$$$$

  -OEChem-05262217163D

 52 52  0     1  0  0  0  0  0999 V2000
   -2.4838    0.7265    3.5021 C   0  0  0  0  0  0  0  0  0  0  0  0
   -3.1494   -0.0041    2.7834 O   0  0  0  0  0  0  0  0  0  0  0  0
   -2.3592    0.4189    4.9822 C   0  0  0  0  0  0  0  0  0  0  0  0
   -2.9876   -0.4367    5.2446 H   0  0  0  0  0  0  0  0  0  0  0  0
   -1.3202    0.1818    5.2251 H   0  0  0  0  0  0  0  0  0  0  0  0
   -2.6765    1.2827    5.5715 H   0  0  0  0  0  0  0  0  0  0  0  0
   -1.8081    1.8085    2.9773 N   0  0  0  0  0  0  0  0  0  0  0  0
   -1.5787    1.9593    1.5338 C   0  0  2  0  0  0  0  0  0  0  0  0
   -0.2701    1.2687    1.1002 C   0  0  0  0  0  0  0  0  0  0  0  0
    0.6698    1.1859    1.8831 O   0  0  0  0  0  0  0  0  0  0  0  0
   -1.5297    3.4534    1.2097 C   0  0  0  0  0  0  0  0  0  0  0  0
   -1.0856    2.1898    3.5829 H   0  0  0  0  0  0  0  0  0  0  0  0
   -2.4033    1.5146    0.9659 H   0  0  0  0  0  0  0  0  0  0  0  0
   -0.7029    3.9352    1.7414 H   0  0  0  0  0  0  0  0  0  0  0  0
   -1.3875    3.6034    0.1346 H   0  0  0  0  0  0  0  0  0  0  0  0
   -2.4661    3.9368    1.5051 H   0  0  0  0  0  0  0  0  0  0  0  0
   -0.1257    0.8282   -0.1994 N   0  0  0  0  0  0  0  0  0  0  0  0
    0.9289   -0.0800   -0.6883 C   0  0  2  0  0  0  0  0  0  0  0  0
    0.9470    0.0020   -2.2238 C   0  0  0  0  0  0  0  0  0  0  0  0
    1.8353    0.6160   -2.7983 O   0  0  0  0  0  0  0  0  0  0  0  0
    0.6735   -1.5577   -0.3020 C   0  0  0  0  0  0  0  0  0  0  0  0
    0.7610   -1.8425    1.1771 C   0  0  0  0  0  0  0  0  0  0  0  0
    2.0090   -2.0243    1.7902 C   0  0  0  0  0  0  0  0  0  0  0  0
   -0.4033   -1.9679    1.9519 C   0  0  0  0  0  0  0  0  0  0  0  0
    2.0937   -2.3125    3.1567 C   0  0  0  0  0  0  0  0  0  0  0  0
   -0.3202   -2.2606    3.3167 C   0  0  0  0  0  0  0  0  0  0  0  0
    0.9288   -2.4316    3.9211 C   0  0  0  0  0  0  0  0  0  0  0  0
   -0.8831    1.0780   -0.8422 H   0  0  0  0  0  0  0  0  0  0  0  0
    1.9060    0.2384   -0.3080 H   0  0  0  0  0  0  0  0  0  0  0  0
    1.4075   -2.1881   -0.8153 H   0  0  0  0  0  0  0  0  0  0  0  0
   -0.3154   -1.8621   -0.6586 H   0  0  0  0  0  0  0  0  0  0  0  0
    2.9196   -1.9306    1.2071 H   0  0  0  0  0  0  0  0  0  0  0  0
   -1.3823   -1.8284    1.5018 H   0  0  0  0  0  0  0  0  0  0  0  0
    3.0660   -2.4392    3.6232 H   0  0  0  0  0  0  0  0  0  0  0  0
   -1.2303   -2.3502    3.9020 H   0  0  0  0  0  0  0  0  0  0  0  0
    0.9956   -2.6539    4.9816 H   0  0  0  0  0  0  0  0  0  0  0  0
   -0.1972   -0.3428   -2.9228 N   0  0  0  0  0  0  0  0  0  0  0  0
   -0.6603    0.5090   -4.0254 C   0  0  2  0  0  0  0  0  0  0  0  0
   -1.3917    1.7570   -3.4789 C   0  0  0  0  0  0  0  0  0  0  0  0
   -1.8910    1.7328   -2.3546 O   0  0  0  0  0  0  0  0  0  0  0  0
   -1.5943   -0.3219   -4.9063 C   0  0  0  0  0  0  0  0  0  0  0  0
   -0.9359   -0.7058   -2.3255 H   0  0  0  0  0  0  0  0  0  0  0  0
    0.1872    0.8400   -4.6356 H   0  0  0  0  0  0  0  0  0  0  0  0
   -2.4621   -0.6631   -4.3325 H   0  0  0  0  0  0  0  0  0  0  0  0
   -1.9497    0.2731   -5.7532 H   0  0  0  0  0  0  0  0  0  0  0  0
   -1.0666   -1.1982   -5.2959 H   0  0  0  0  0  0  0  0  0  0  0  0
   -1.4798    2.9113   -4.2331 N   0  0  0  0  0  0  0  0  0  0  0  0
   -2.0749    4.1445   -3.7325 C   0  0  0  0  0  0  0  0  0  0  0  0
   -0.9673    2.9365   -5.1104 H   0  0  0  0  0  0  0  0  0  0  0  0
   -3.1163    3.9759   -3.4379 H   0  0  0  0  0  0  0  0  0  0  0  0
   -1.5180    4.5131   -2.8647 H   0  0  0  0  0  0  0  0  0  0  0  0
   -2.0579    4.9160   -4.5083 H   0  0  0  0  0  0  0  0  0  0  0  0
  1  2  2  0  0  0  0
  1  3  1  0  0  0  0
  1  7  1  0  0  0  0
  3  4  1  0  0  0  0
  3  5  1  0  0  0  0
  3  6  1  0  0  0  0
  7  8  1  0  0  0  0
  7 12  1  0  0  0  0
  8  9  1  0  0  0  0
  8 11  1  0  0  0  0
  8 13  1  0  0  0  0
  9 10  2  0  0  0  0
  9 17  1  0  0  0  0
 11 14  1  0  0  0  0
 11 15  1  0  0  0  0
 11 16  1  0  0  0  0
 17 18  1  0  0  0  0
 17 28  1  0  0  0  0
 18 19  1  0  0  0  0
 18 21  1  0  0  0  0
 18 29  1  0  0  0  0
 19 20  2  0  0  0  0
 19 37  1  0  0  0  0
 21 22  1  0  0  0  0
 21 30  1  0  0  0  0
 21 31  1  0  0  0  0
 22 23  1  0  0  0  0
 22 24  2  0  0  0  0
 23 25  2  0  0  0  0
 23 32  1  0  0  0  0
 24 26  1  0  0  0  0
 24 33  1  0  0  0  0
 25 27  1  0  0  0  0
 25 34  1  0  0  0  0
 26 27  2  0  0  0  0
 26 35  1  0  0  0  0
 27 36  1  0  0  0  0
 37 38  1  0  0  0  0
 37 42  1  0  0  0  0
 38 39  1  0  0  0  0
 38 41  1  0  0  0  0
 38 43  1  0  0  0  0
 39 40  2  0  0  0  0
 39 47  1  0  0  0  0
 41 44  1  0  0  0  0
 41 45  1  0  0  0  0
 41 46  1  0  0  0  0
 47 48  1  0  0  0  0
 47 49  1  0  0  0  0
 48 50  1  0  0  0  0
 48 51  1  0  0  0  0
 48 52  1  0  0  0  0
M  END
$$$$

  -OEChem-05262217163D

 52 52  0     1  0  0  0  0  0999 V2000
   -2.3237    0.4009    3.9914 C   0  0  0  0  0  0  0  0  0  0  0  0
   -3.0466   -0.2814    3.2801 O   0  0  0  0  0  0  0  0  0  0  0  0
   -1.9855   -0.0594    5.3969 C   0  0  0  0  0  0  0  0  0  0  0  0
   -2.4857   -1.0070    5.6159 H   0  0  0  0  0  0  0  0  0  0  0  0
   -0.9058   -0.2004    5.4927 H   0  0  0  0  0  0  0  0  0  0  0  0
   -2.3139    0.6879    6.1232 H   0  0  0  0  0  0  0  0  0  0  0  0
   -1.7826    1.5753    3.5117 N   0  0  0  0  0  0  0  0  0  0  0  0
   -1.8095    1.9312    2.0871 C   0  0  2  0  0  0  0  0  0  0  0  0
   -0.5507    1.4223    1.3554 C   0  0  0  0  0  0  0  0  0  0  0  0
    0.5290    1.4194    1.9337 O   0  0  0  0  0  0  0  0  0  0  0  0
   -1.9144    3.4545    1.9836 C   0  0  0  0  0  0  0  0  0  0  0  0
   -1.0040    1.9434    4.0534 H   0  0  0  0  0  0  0  0  0  0  0  0
   -2.6889    1.4944    1.6026 H   0  0  0  0  0  0  0  0  0  0  0  0
   -1.0450    3.9324    2.4466 H   0  0  0  0  0  0  0  0  0  0  0  0
   -1.9628    3.7639    0.9349 H   0  0  0  0  0  0  0  0  0  0  0  0
   -2.8181    3.8076    2.4900 H   0  0  0  0  0  0  0  0  0  0  0  0
   -0.6080    1.0932    0.0123 N   0  0  0  0  0  0  0  0  0  0  0  0
    0.4427    0.3306   -0.6947 C   0  0  2  0  0  0  0  0  0  0  0  0
    0.2721    0.4595   -2.2195 C   0  0  0  0  0  0  0  0  0  0  0  0
    1.2180    0.7990   -2.9179 O   0  0  0  0  0  0  0  0  0  0  0  0
    0.3681   -1.1867   -0.3959 C   0  0  0  0  0  0  0  0  0  0  0  0
    0.6892   -1.5672    1.0287 C   0  0  0  0  0  0  0  0  0  0  0  0
    2.0222   -1.6760    1.4503 C   0  0  0  0  0  0  0  0  0  0  0  0
   -0.3383   -1.8785    1.9336 C   0  0  0  0  0  0  0  0  0  0  0  0
    2.3233   -2.0678    2.7595 C   0  0  0  0  0  0  0  0  0  0  0  0
   -0.0383   -2.2786    3.2393 C   0  0  0  0  0  0  0  0  0  0  0  0
    1.2929   -2.3704    3.6549 C   0  0  0  0  0  0  0  0  0  0  0  0
   -1.5224    1.1697   -0.4208 H   0  0  0  0  0  0  0  0  0  0  0  0
    1.4333    0.7145   -0.4236 H   0  0  0  0  0  0  0  0  0  0  0  0
    1.0742   -1.7103   -1.0498 H   0  0  0  0  0  0  0  0  0  0  0  0
   -0.6314   -1.5564   -0.6464 H   0  0  0  0  0  0  0  0  0  0  0  0
    2.8301   -1.4455    0.7627 H   0  0  0  0  0  0  0  0  0  0  0  0
   -1.3793   -1.8124    1.6303 H   0  0  0  0  0  0  0  0  0  0  0  0
    3.3587   -2.1373    3.0788 H   0  0  0  0  0  0  0  0  0  0  0  0
   -0.8443   -2.5188    3.9260 H   0  0  0  0  0  0  0  0  0  0  0  0
    1.5277   -2.6793    4.6690 H   0  0  0  0  0  0  0  0  0  0  0  0
   -0.9734    0.3284   -2.8118 N   0  0  0  0  0  0  0  0  0  0  0  0
   -1.2455    0.6280   -4.2254 C   0  0  2  0  0  0  0  0  0  0  0  0
   -1.3433    2.1520   -4.4763 C   0  0  0  0  0  0  0  0  0  0  0  0
   -2.4104    2.6920   -4.7418 O   0  0  0  0  0  0  0  0  0  0  0  0
   -2.5204   -0.1254   -4.6243 C   0  0  0  0  0  0  0  0  0  0  0  0
   -1.7515    0.0574   -2.2197 H   0  0  0  0  0  0  0  0  0  0  0  0
   -0.4281    0.2483   -4.8482 H   0  0  0  0  0  0  0  0  0  0  0  0
   -3.3725    0.2111   -4.0251 H   0  0  0  0  0  0  0  0  0  0  0  0
   -2.7491    0.0532   -5.6800 H   0  0  0  0  0  0  0  0  0  0  0  0
   -2.3904   -1.2018   -4.4771 H   0  0  0  0  0  0  0  0  0  0  0  0
   -0.2097    2.9274   -4.3345 N   0  0  0  0  0  0  0  0  0  0  0  0
   -0.2029    4.3809   -4.4234 C   0  0  0  0  0  0  0  0  0  0  0  0
    0.6234    2.4440   -3.9881 H   0  0  0  0  0  0  0  0  0  0  0  0
   -0.6104    4.7088   -5.3855 H   0  0  0  0  0  0  0  0  0  0  0  0
   -0.8037    4.8164   -3.6183 H   0  0  0  0  0  0  0  0  0  0  0  0
    0.8206    4.7581   -4.3370 H   0  0  0  0  0  0  0  0  0  0  0  0
  1  2  2  0  0  0  0
  1  3  1  0  0  0  0
  1  7  1  0  0  0  0
  3  4  1  0  0  0  0
  3  5  1  0  0  0  0
  3  6  1  0  0  0  0
  7  8  1  0  0  0  0
  7 12  1  0  0  0  0
  8  9  1  0  0  0  0
  8 11  1  0  0  0  0
  8 13  1  0  0  0  0
  9 10  2  0  0  0  0
  9 17  1  0  0  0  0
 11 14  1  0  0  0  0
 11 15  1  0  0  0  0
 11 16  1  0  0  0  0
 17 18  1  0  0  0  0
 17 28  1  0  0  0  0
 18 19  1  0  0  0  0
 18 21  1  0  0  0  0
 18 29  1  0  0  0  0
 19 20  2  0  0  0  0
 19 37  1  0  0  0  0
 21 22  1  0  0  0  0
 21 30  1  0  0  0  0
 21 31  1  0  0  0  0
 22 23  1  0  0  0  0
 22 24  2  0  0  0  0
 23 25  2  0  0  0  0
 23 32  1  0  0  0  0
 24 26  1  0  0  0  0
 24 33  1  0  0  0  0
 25 27  1  0  0  0  0
 25 34  1  0  0  0  0
 26 27  2  0  0  0  0
 26 35  1  0  0  0  0
 27 36  1  0  0  0  0
 37 38  1  0  0  0  0
 37 42  1  0  0  0  0
 38 39  1  0  0  0  0
 38 41  1  0  0  0  0
 38 43  1  0  0  0  0
 39 40  2  0  0  0  0
 39 47  1  0  0  0  0
 41 44  1  0  0  0  0
 41 45  1  0  0  0  0
 41 46  1  0  0  0  0
 47 48  1  0  0  0  0
 47 49  1  0  0  0  0
 48 50  1  0  0  0  0
 48 51  1  0  0  0  0
 48 52  1  0  0  0  0
M  END
$$$$

  -OEChem-05262217163D

 52 52  0     1  0  0  0  0  0999 V2000
   -2.1989    0.2929    4.2330 C   0  0  0  0  0  0  0  0  0  0  0  0
   -2.9857   -0.3941    3.5985 O   0  0  0  0  0  0  0  0  0  0  0  0
   -1.7336   -0.1548    5.6057 C   0  0  0  0  0  0  0  0  0  0  0  0
   -2.2461   -1.0759    5.8964 H   0  0  0  0  0  0  0  0  0  0  0  0
   -0.6563   -0.3391    5.5912 H   0  0  0  0  0  0  0  0  0  0  0  0
   -1.9538    0.6185    6.3456 H   0  0  0  0  0  0  0  0  0  0  0  0
   -1.7045    1.4629    3.6962 N   0  0  0  0  0  0  0  0  0  0  0  0
   -1.8703    1.8257    2.2828 C   0  0  2  0  0  0  0  0  0  0  0  0
   -0.6266    1.4500    1.4522 C   0  0  0  0  0  0  0  0  0  0  0  0
    0.4865    1.5166    1.9592 O   0  0  0  0  0  0  0  0  0  0  0  0
   -2.1266    3.3327    2.2152 C   0  0  0  0  0  0  0  0  0  0  0  0
   -0.8824    1.8397    4.1634 H   0  0  0  0  0  0  0  0  0  0  0  0
   -2.7360    1.3115    1.8530 H   0  0  0  0  0  0  0  0  0  0  0  0
   -1.2731    3.8861    2.6205 H   0  0  0  0  0  0  0  0  0  0  0  0
   -2.2846    3.6483    1.1792 H   0  0  0  0  0  0  0  0  0  0  0  0
   -3.0178    3.5914    2.7954 H   0  0  0  0  0  0  0  0  0  0  0  0
   -0.7470    1.1815    0.0993 N   0  0  0  0  0  0  0  0  0  0  0  0
    0.2948    0.4631   -0.6677 C   0  0  2  0  0  0  0  0  0  0  0  0
    0.1096    0.6209   -2.1903 C   0  0  0  0  0  0  0  0  0  0  0  0
    1.0899    0.6235   -2.9236 O   0  0  0  0  0  0  0  0  0  0  0  0
    0.2465   -1.0639   -0.4161 C   0  0  0  0  0  0  0  0  0  0  0  0
    0.6148   -1.4858    0.9850 C   0  0  0  0  0  0  0  0  0  0  0  0
    1.9617   -1.5909    1.3616 C   0  0  0  0  0  0  0  0  0  0  0  0
   -0.3799   -1.8481    1.9072 C   0  0  0  0  0  0  0  0  0  0  0  0
    2.3085   -2.0255    2.6456 C   0  0  0  0  0  0  0  0  0  0  0  0
   -0.0342   -2.2925    3.1868 C   0  0  0  0  0  0  0  0  0  0  0  0
    1.3102   -2.3773    3.5593 C   0  0  0  0  0  0  0  0  0  0  0  0
   -1.7051    1.0949   -0.2192 H   0  0  0  0  0  0  0  0  0  0  0  0
    1.2862    0.8514   -0.4063 H   0  0  0  0  0  0  0  0  0  0  0  0
    0.9378   -1.5605   -1.1064 H   0  0  0  0  0  0  0  0  0  0  0  0
   -0.7565   -1.4349   -0.6506 H   0  0  0  0  0  0  0  0  0  0  0  0
    2.7450   -1.3253    0.6581 H   0  0  0  0  0  0  0  0  0  0  0  0
   -1.4304   -1.7911    1.6372 H   0  0  0  0  0  0  0  0  0  0  0  0
    3.3543   -2.0909    2.9301 H   0  0  0  0  0  0  0  0  0  0  0  0
   -0.8162   -2.5728    3.8863 H   0  0  0  0  0  0  0  0  0  0  0  0
    1.5797   -2.7200    4.5538 H   0  0  0  0  0  0  0  0  0  0  0  0
   -1.1398    0.7912   -2.7641 N   0  0  0  0  0  0  0  0  0  0  0  0
   -1.3540    1.0482   -4.1962 C   0  0  2  0  0  0  0  0  0  0  0  0
   -1.0358    2.5151   -4.5737 C   0  0  0  0  0  0  0  0  0  0  0  0
   -1.9158    3.2976   -4.9116 O   0  0  0  0  0  0  0  0  0  0  0  0
   -2.7963    0.6449   -4.5269 C   0  0  0  0  0  0  0  0  0  0  0  0
   -1.9339    0.8837   -2.1425 H   0  0  0  0  0  0  0  0  0  0  0  0
   -0.6883    0.4111   -4.7887 H   0  0  0  0  0  0  0  0  0  0  0  0
   -3.5079    1.2531   -3.9594 H   0  0  0  0  0  0  0  0  0  0  0  0
   -2.9935    0.7886   -5.5942 H   0  0  0  0  0  0  0  0  0  0  0  0
   -2.9635   -0.4091   -4.2851 H   0  0  0  0  0  0  0  0  0  0  0  0
    0.2673    2.9615   -4.4809 N   0  0  0  0  0  0  0  0  0  0  0  0
    0.6713    4.3426   -4.7048 C   0  0  0  0  0  0  0  0  0  0  0  0
    0.9421    2.2997   -4.0881 H   0  0  0  0  0  0  0  0  0  0  0  0
    0.3962    4.6636   -5.7149 H   0  0  0  0  0  0  0  0  0  0  0  0
    0.1882    5.0057   -3.9798 H   0  0  0  0  0  0  0  0  0  0  0  0
    1.7556    4.4398   -4.5953 H   0  0  0  0  0  0  0  0  0  0  0  0
  1  2  2  0  0  0  0
  1  3  1  0  0  0  0
  1  7  1  0  0  0  0
  3  4  1  0  0  0  0
  3  5  1  0  0  0  0
  3  6  1  0  0  0  0
  7  8  1  0  0  0  0
  7 12  1  0  0  0  0
  8  9  1  0  0  0  0
  8 11  1  0  0  0  0
  8 13  1  0  0  0  0
  9 10  2  0  0  0  0
  9 17  1  0  0  0  0
 11 14  1  0  0  0  0
 11 15  1  0  0  0  0
 11 16  1  0  0  0  0
 17 18  1  0  0  0  0
 17 28  1  0  0  0  0
 18 19  1  0  0  0  0
 18 21  1  0  0  0  0
 18 29  1  0  0  0  0
 19 20  2  0  0  0  0
 19 37  1  0  0  0  0
 21 22  1  0  0  0  0
 21 30  1  0  0  0  0
 21 31  1  0  0  0  0
 22 23  1  0  0  0  0
 22 24  2  0  0  0  0
 23 25  2  0  0  0  0
 23 32  1  0  0  0  0
 24 26  1  0  0  0  0
 24 33  1  0  0  0  0
 25 27  1  0  0  0  0
 25 34  1  0  0  0  0
 26 27  2  0  0  0  0
 26 35  1  0  0  0  0
 27 36  1  0  0  0  0
 37 38  1  0  0  0  0
 37 42  1  0  0  0  0
 38 39  1  0  0  0  0
 38 41  1  0  0  0  0
 38 43  1  0  0  0  0
 39 40  2  0  0  0  0
 39 47  1  0  0  0  0
 41 44  1  0  0  0  0
 41 45  1  0  0  0  0
 41 46  1  0  0  0  0
 47 48  1  0  0  0  0
 47 49  1  0  0  0  0
 48 50  1  0  0  0  0
 48 51  1  0  0  0  0
 48 52  1  0  0  0  0
M  END
$$$$

  -OEChem-05262217163D

 52 52  0     1  0  0  0  0  0999 V2000
   -2.1568    0.1977    4.3402 C   0  0  0  0  0  0  0  0  0  0  0  0
   -2.9858   -0.4708    3.7408 O   0  0  0  0  0  0  0  0  0  0  0  0
   -1.6423   -0.2638    5.6908 C   0  0  0  0  0  0  0  0  0  0  0  0
   -2.1149   -1.2090    5.9720 H   0  0  0  0  0  0  0  0  0  0  0  0
   -0.5599   -0.4094    5.6482 H   0  0  0  0  0  0  0  0  0  0  0  0
   -1.8726    0.4850    6.4524 H   0  0  0  0  0  0  0  0  0  0  0  0
   -1.6635    1.3598    3.7853 N   0  0  0  0  0  0  0  0  0  0  0  0
   -1.8939    1.7463    2.3870 C   0  0  2  0  0  0  0  0  0  0  0  0
   -0.6513    1.4787    1.5141 C   0  0  0  0  0  0  0  0  0  0  0  0
    0.4685    1.5881    1.9986 O   0  0  0  0  0  0  0  0  0  0  0  0
   -2.2517    3.2339    2.3671 C   0  0  0  0  0  0  0  0  0  0  0  0
   -0.8136    1.7198    4.2153 H   0  0  0  0  0  0  0  0  0  0  0  0
   -2.7330    1.1851    1.9637 H   0  0  0  0  0  0  0  0  0  0  0  0
   -1.4300    3.8318    2.7748 H   0  0  0  0  0  0  0  0  0  0  0  0
   -2.4487    3.5671    1.3435 H   0  0  0  0  0  0  0  0  0  0  0  0
   -3.1478    3.4161    2.9685 H   0  0  0  0  0  0  0  0  0  0  0  0
   -0.7869    1.2612    0.1529 N   0  0  0  0  0  0  0  0  0  0  0  0
    0.2598    0.5780   -0.6400 C   0  0  2  0  0  0  0  0  0  0  0  0
    0.0668    0.7876   -2.1573 C   0  0  0  0  0  0  0  0  0  0  0  0
    0.9678    0.5044   -2.9371 O   0  0  0  0  0  0  0  0  0  0  0  0
    0.2125   -0.9568   -0.4267 C   0  0  0  0  0  0  0  0  0  0  0  0
    0.5823   -1.4187    0.9620 C   0  0  0  0  0  0  0  0  0  0  0  0
    1.9304   -1.5343    1.3308 C   0  0  0  0  0  0  0  0  0  0  0  0
   -0.4087   -1.8111    1.8759 C   0  0  0  0  0  0  0  0  0  0  0  0
    2.2825   -2.0114    2.5983 C   0  0  0  0  0  0  0  0  0  0  0  0
   -0.0576   -2.2970    3.1393 C   0  0  0  0  0  0  0  0  0  0  0  0
    1.2882   -2.3930    3.5038 C   0  0  0  0  0  0  0  0  0  0  0  0
   -1.7462    1.0858   -0.1278 H   0  0  0  0  0  0  0  0  0  0  0  0
    1.2502    0.9627   -0.3713 H   0  0  0  0  0  0  0  0  0  0  0  0
    0.9039   -1.4372   -1.1280 H   0  0  0  0  0  0  0  0  0  0  0  0
   -0.7901   -1.3212   -0.6730 H   0  0  0  0  0  0  0  0  0  0  0  0
    2.7106   -1.2474    0.6320 H   0  0  0  0  0  0  0  0  0  0  0  0
   -1.4605   -1.7477    1.6129 H   0  0  0  0  0  0  0  0  0  0  0  0
    3.3294   -2.0882    2.8758 H   0  0  0  0  0  0  0  0  0  0  0  0
   -0.8362   -2.6021    3.8328 H   0  0  0  0  0  0  0  0  0  0  0  0
    1.5615   -2.7686    4.4852 H   0  0  0  0  0  0  0  0  0  0  0  0
   -1.1242    1.2661   -2.6773 N   0  0  0  0  0  0  0  0  0  0  0  0
   -1.3512    1.4982   -4.1122 C   0  0  2  0  0  0  0  0  0  0  0  0
   -0.6953    2.8120   -4.5992 C   0  0  0  0  0  0  0  0  0  0  0  0
   -1.3673    3.7746   -4.9489 O   0  0  0  0  0  0  0  0  0  0  0  0
   -2.8655    1.4587   -4.3508 C   0  0  0  0  0  0  0  0  0  0  0  0
   -1.7526    1.7193   -2.0229 H   0  0  0  0  0  0  0  0  0  0  0  0
   -0.9055    0.6828   -4.6925 H   0  0  0  0  0  0  0  0  0  0  0  0
   -3.3667    2.2551   -3.7916 H   0  0  0  0  0  0  0  0  0  0  0  0
   -3.0840    1.5938   -5.4150 H   0  0  0  0  0  0  0  0  0  0  0  0
   -3.2759    0.4950   -4.0343 H   0  0  0  0  0  0  0  0  0  0  0  0
    0.6816    2.9121   -4.5963 N   0  0  0  0  0  0  0  0  0  0  0  0
    1.4080    4.1287   -4.9319 C   0  0  0  0  0  0  0  0  0  0  0  0
    1.1897    2.1174   -4.1995 H   0  0  0  0  0  0  0  0  0  0  0  0
    1.1629    4.4528   -5.9488 H   0  0  0  0  0  0  0  0  0  0  0  0
    1.1520    4.9322   -4.2335 H   0  0  0  0  0  0  0  0  0  0  0  0
    2.4863    3.9510   -4.8771 H   0  0  0  0  0  0  0  0  0  0  0  0
  1  2  2  0  0  0  0
  1  3  1  0  0  0  0
  1  7  1  0  0  0  0
  3  4  1  0  0  0  0
  3  5  1  0  0  0  0
  3  6  1  0  0  0  0
  7  8  1  0  0  0  0
  7 12  1  0  0  0  0
  8  9  1  0  0  0  0
  8 11  1  0  0  0  0
  8 13  1  0  0  0  0
  9 10  2  0  0  0  0
  9 17  1  0  0  0  0
 11 14  1  0  0  0  0
 11 15  1  0  0  0  0
 11 16  1  0  0  0  0
 17 18  1  0  0  0  0
 17 28  1  0  0  0  0
 18 19  1  0  0  0  0
 18 21  1  0  0  0  0
 18 29  1  0  0  0  0
 19 20  2  0  0  0  0
 19 37  1  0  0  0  0
 21 22  1  0  0  0  0
 21 30  1  0  0  0  0
 21 31  1  0  0  0  0
 22 23  1  0  0  0  0
 22 24  2  0  0  0  0
 23 25  2  0  0  0  0
 23 32  1  0  0  0  0
 24 26  1  0  0  0  0
 24 33  1  0  0  0  0
 25 27  1  0  0  0  0
 25 34  1  0  0  0  0
 26 27  2  0  0  0  0
 26 35  1  0  0  0  0
 27 36  1  0  0  0  0
 37 38  1  0  0  0  0
 37 42  1  0  0  0  0
 38 39  1  0  0  0  0
 38 41  1  0  0  0  0
 38 43  1  0  0  0  0
 39 40  2  0  0  0  0
 39 47  1  0  0  0  0
 41 44  1  0  0  0  0
 41 45  1  0  0  0  0
 41 46  1  0  0  0  0
 47 48  1  0  0  0  0
 47 49  1  0  0  0  0
 48 50  1  0  0  0  0
 48 51  1  0  0  0  0
 48 52  1  0  0  0  0
M  END
$$$$

  -OEChem-05262217163D

 52 52  0     1  0  0  0  0  0999 V2000
   -2.0922    0.1771    4.3993 C   0  0  0  0  0  0  0  0  0  0  0  0
   -2.9477   -0.5021    3.8516 O   0  0  0  0  0  0  0  0  0  0  0  0
   -1.5083   -0.2649    5.7280 C   0  0  0  0  0  0  0  0  0  0  0  0
   -2.0014   -1.1783    6.0723 H   0  0  0  0  0  0  0  0  0  0  0  0
   -0.4389   -0.4617    5.6175 H   0  0  0  0  0  0  0  0  0  0  0  0
   -1.6521    0.5167    6.4781 H   0  0  0  0  0  0  0  0  0  0  0  0
   -1.6272    1.3304    3.8031 N   0  0  0  0  0  0  0  0  0  0  0  0
   -1.9060    1.6866    2.4053 C   0  0  2  0  0  0  0  0  0  0  0  0
   -0.6704    1.4612    1.5108 C   0  0  0  0  0  0  0  0  0  0  0  0
    0.4538    1.5834    1.9823 O   0  0  0  0  0  0  0  0  0  0  0  0
   -2.3307    3.1567    2.3739 C   0  0  0  0  0  0  0  0  0  0  0  0
   -0.7620    1.6999    4.1930 H   0  0  0  0  0  0  0  0  0  0  0  0
   -2.7260    1.0807    2.0068 H   0  0  0  0  0  0  0  0  0  0  0  0
   -1.5242    3.7981    2.7444 H   0  0  0  0  0  0  0  0  0  0  0  0
   -2.5766    3.4633    1.3526 H   0  0  0  0  0  0  0  0  0  0  0  0
   -3.2139    3.3090    3.0025 H   0  0  0  0  0  0  0  0  0  0  0  0
   -0.8151    1.2670    0.1472 N   0  0  0  0  0  0  0  0  0  0  0  0
    0.2260    0.5934   -0.6616 C   0  0  2  0  0  0  0  0  0  0  0  0
    0.0071    0.8413   -2.1714 C   0  0  0  0  0  0  0  0  0  0  0  0
    0.7723    0.3680   -3.0028 O   0  0  0  0  0  0  0  0  0  0  0  0
    0.1832   -0.9447   -0.4604 C   0  0  0  0  0  0  0  0  0  0  0  0
    0.5665   -1.4140    0.9221 C   0  0  0  0  0  0  0  0  0  0  0  0
    1.9172   -1.5289    1.2809 C   0  0  0  0  0  0  0  0  0  0  0  0
   -0.4174   -1.8176    1.8389 C   0  0  0  0  0  0  0  0  0  0  0  0
    2.2788   -2.0139    2.5427 C   0  0  0  0  0  0  0  0  0  0  0  0
   -0.0570   -2.3115    3.0962 C   0  0  0  0  0  0  0  0  0  0  0  0
    1.2912   -2.4057    3.4517 C   0  0  0  0  0  0  0  0  0  0  0  0
   -1.7756    1.0897   -0.1328 H   0  0  0  0  0  0  0  0  0  0  0  0
    1.2184    0.9757   -0.3986 H   0  0  0  0  0  0  0  0  0  0  0  0
    0.8712   -1.4212   -1.1671 H   0  0  0  0  0  0  0  0  0  0  0  0
   -0.8198   -1.3100   -0.7030 H   0  0  0  0  0  0  0  0  0  0  0  0
    2.6922   -1.2332    0.5803 H   0  0  0  0  0  0  0  0  0  0  0  0
   -1.4711   -1.7570    1.5827 H   0  0  0  0  0  0  0  0  0  0  0  0
    3.3279   -2.0886    2.8129 H   0  0  0  0  0  0  0  0  0  0  0  0
   -0.8311   -2.6231    3.7918 H   0  0  0  0  0  0  0  0  0  0  0  0
    1.5711   -2.7877    4.4288 H   0  0  0  0  0  0  0  0  0  0  0  0
   -1.0540    1.6100   -2.6202 N   0  0  0  0  0  0  0  0  0  0  0  0
   -1.2767    1.9461   -4.0355 C   0  0  2  0  0  0  0  0  0  0  0  0
   -0.3251    3.0641   -4.5246 C   0  0  0  0  0  0  0  0  0  0  0  0
   -0.7406    4.1765   -4.8251 O   0  0  0  0  0  0  0  0  0  0  0  0
   -2.7585    2.3090   -4.1951 C   0  0  0  0  0  0  0  0  0  0  0  0
   -1.5004    2.1966   -1.9215 H   0  0  0  0  0  0  0  0  0  0  0  0
   -1.0838    1.0653   -4.6575 H   0  0  0  0  0  0  0  0  0  0  0  0
   -3.0074    3.1925   -3.5984 H   0  0  0  0  0  0  0  0  0  0  0  0
   -2.9842    2.5268   -5.2442 H   0  0  0  0  0  0  0  0  0  0  0  0
   -3.3915    1.4769   -3.8720 H   0  0  0  0  0  0  0  0  0  0  0  0
    1.0312    2.8121   -4.5761 N   0  0  0  0  0  0  0  0  0  0  0  0
    2.0330    3.8177   -4.9011 C   0  0  0  0  0  0  0  0  0  0  0  0
    1.3325    1.9016   -4.2191 H   0  0  0  0  0  0  0  0  0  0  0  0
    1.8552    4.2267   -5.9013 H   0  0  0  0  0  0  0  0  0  0  0  0
    2.0036    4.6363   -4.1745 H   0  0  0  0  0  0  0  0  0  0  0  0
    3.0326    3.3727   -4.8822 H   0  0  0  0  0  0  0  0  0  0  0  0
  1  2  2  0  0  0  0
  1  3  1  0  0  0  0
  1  7  1  0  0  0  0
  3  4  1  0  0  0  0
  3  5  1  0  0  0  0
  3  6  1  0  0  0  0
  7  8  1  0  0  0  0
  7 12  1  0  0  0  0
  8  9  1  0  0  0  0
  8 11  1  0  0  0  0
  8 13  1  0  0  0  0
  9 10  2  0  0  0  0
  9 17  1  0  0  0  0
 11 14  1  0  0  0  0
 11 15  1  0  0  0  0
 11 16  1  0  0  0  0
 17 18  1  0  0  0  0
 17 28  1  0  0  0  0
 18 19  1  0  0  0  0
 18 21  1  0  0  0  0
 18 29  1  0  0  0  0
 19 20  2  0  0  0  0
 19 37  1  0  0  0  0
 21 22  1  0  0  0  0
 21 30  1  0  0  0  0
 21 31  1  0  0  0  0
 22 23  1  0  0  0  0
 22 24  2  0  0  0  0
 23 25  2  0  0  0  0
 23 32  1  0  0  0  0
 24 26  1  0  0  0  0
 24 33  1  0  0  0  0
 25 27  1  0  0  0  0
 25 34  1  0  0  0  0
 26 27  2  0  0  0  0
 26 35  1  0  0  0  0
 27 36  1  0  0  0  0
 37 38  1  0  0  0  0
 37 42  1  0  0  0  0
 38 39  1  0  0  0  0
 38 41  1  0  0  0  0
 38 43  1  0  0  0  0
 39 40  2  0  0  0  0
 39 47  1  0  0  0  0
 41 44  1  0  0  0  0
 41 45  1  0  0  0  0
 41 46  1  0  0  0  0
 47 48  1  0  0  0  0
 47 49  1  0  0  0  0
 48 50  1  0  0  0  0
 48 51  1  0  0  0  0
 48 52  1  0  0  0  0
M  END
$$$$

  -OEChem-05262217163D

 52 52  0     1  0  0  0  0  0999 V2000
   -2.0309    0.1572    4.4547 C   0  0  0  0  0  0  0  0  0  0  0  0
   -2.9013   -0.5366    3.9510 O   0  0  0  0  0  0  0  0  0  0  0  0
   -1.4005   -0.2527    5.7722 C   0  0  0  0  0  0  0  0  0  0  0  0
   -1.8477   -1.1831    6.1328 H   0  0  0  0  0  0  0  0  0  0  0  0
   -0.3266   -0.4057    5.6380 H   0  0  0  0  0  0  0  0  0  0  0  0
   -1.5595    0.5270    6.5210 H   0  0  0  0  0  0  0  0  0  0  0  0
   -1.5913    1.3001    3.8208 N   0  0  0  0  0  0  0  0  0  0  0  0
   -1.9074    1.6233    2.4229 C   0  0  2  0  0  0  0  0  0  0  0  0
   -0.6765    1.4356    1.5132 C   0  0  0  0  0  0  0  0  0  0  0  0
    0.4508    1.5558    1.9781 O   0  0  0  0  0  0  0  0  0  0  0  0
   -2.3922    3.0740    2.3790 C   0  0  0  0  0  0  0  0  0  0  0  0
   -0.7167    1.6811    4.1774 H   0  0  0  0  0  0  0  0  0  0  0  0
   -2.7064    0.9772    2.0453 H   0  0  0  0  0  0  0  0  0  0  0  0
   -1.6055    3.7520    2.7262 H   0  0  0  0  0  0  0  0  0  0  0  0
   -2.6691    3.3558    1.3586 H   0  0  0  0  0  0  0  0  0  0  0  0
   -3.2693    3.1992    3.0219 H   0  0  0  0  0  0  0  0  0  0  0  0
   -0.8243    1.2764    0.1457 N   0  0  0  0  0  0  0  0  0  0  0  0
    0.2061    0.6078   -0.6805 C   0  0  2  0  0  0  0  0  0  0  0  0
   -0.0287    0.9085   -2.1800 C   0  0  0  0  0  0  0  0  0  0  0  0
    0.5581    0.2909   -3.0605 O   0  0  0  0  0  0  0  0  0  0  0  0
    0.1469   -0.9341   -0.5009 C   0  0  0  0  0  0  0  0  0  0  0  0
    0.5326   -1.4278    0.8735 C   0  0  0  0  0  0  0  0  0  0  0  0
    1.8834   -1.5640    1.2256 C   0  0  0  0  0  0  0  0  0  0  0  0
   -0.4522   -1.8292    1.7907 C   0  0  0  0  0  0  0  0  0  0  0  0
    2.2434   -2.0626    2.4829 C   0  0  0  0  0  0  0  0  0  0  0  0
   -0.0932   -2.3364    3.0432 C   0  0  0  0  0  0  0  0  0  0  0  0
    1.2549   -2.4483    3.3932 C   0  0  0  0  0  0  0  0  0  0  0  0
   -1.7871    1.1324   -0.1472 H   0  0  0  0  0  0  0  0  0  0  0  0
    1.2041    0.9750   -0.4164 H   0  0  0  0  0  0  0  0  0  0  0  0
    0.8271   -1.4092   -1.2160 H   0  0  0  0  0  0  0  0  0  0  0  0
   -0.8616   -1.2840   -0.7441 H   0  0  0  0  0  0  0  0  0  0  0  0
    2.6596   -1.2746    0.5238 H   0  0  0  0  0  0  0  0  0  0  0  0
   -1.5059   -1.7559    1.5381 H   0  0  0  0  0  0  0  0  0  0  0  0
    3.2919   -2.1531    2.7498 H   0  0  0  0  0  0  0  0  0  0  0  0
   -0.8680   -2.6452    3.7391 H   0  0  0  0  0  0  0  0  0  0  0  0
    1.5342   -2.8406    4.3665 H   0  0  0  0  0  0  0  0  0  0  0  0
   -0.8767    1.9350   -2.5586 N   0  0  0  0  0  0  0  0  0  0  0  0
   -1.0692    2.3694   -3.9512 C   0  0  2  0  0  0  0  0  0  0  0  0
    0.1072    3.2380   -4.4578 C   0  0  0  0  0  0  0  0  0  0  0  0
   -0.0395    4.4231   -4.7308 O   0  0  0  0  0  0  0  0  0  0  0  0
   -2.4199    3.0922   -4.0285 C   0  0  0  0  0  0  0  0  0  0  0  0
   -1.1498    2.5759   -1.8184 H   0  0  0  0  0  0  0  0  0  0  0  0
   -1.1258    1.4927   -4.6055 H   0  0  0  0  0  0  0  0  0  0  0  0
   -2.4188    3.9832   -3.3925 H   0  0  0  0  0  0  0  0  0  0  0  0
   -2.6231    3.4039   -5.0583 H   0  0  0  0  0  0  0  0  0  0  0  0
   -3.2273    2.4292   -3.7033 H   0  0  0  0  0  0  0  0  0  0  0  0
    1.3600    2.6692   -4.5723 N   0  0  0  0  0  0  0  0  0  0  0  0
    2.5560    3.4075   -4.9535 C   0  0  0  0  0  0  0  0  0  0  0  0
    1.4464    1.7001   -4.2552 H   0  0  0  0  0  0  0  0  0  0  0  0
    2.4184    3.8797   -5.9319 H   0  0  0  0  0  0  0  0  0  0  0  0
    2.7778    4.1844   -4.2147 H   0  0  0  0  0  0  0  0  0  0  0  0
    3.4136    2.7307   -5.0140 H   0  0  0  0  0  0  0  0  0  0  0  0
  1  2  2  0  0  0  0
  1  3  1  0  0  0  0
  1  7  1  0  0  0  0
  3  4  1  0  0  0  0
  3  5  1  0  0  0  0
  3  6  1  0  0  0  0
  7  8  1  0  0  0  0
  7 12  1  0  0  0  0
  8  9  1  0  0  0  0
  8 11  1  0  0  0  0
  8 13  1  0  0  0  0
  9 10  2  0  0  0  0
  9 17  1  0  0  0  0
 11 14  1  0  0  0  0
 11 15  1  0  0  0  0
 11 16  1  0  0  0  0
 17 18  1  0  0  0  0
 17 28  1  0  0  0  0
 18 19  1  0  0  0  0
 18 21  1  0  0  0  0
 18 29  1  0  0  0  0
 19 20  2  0  0  0  0
 19 37  1  0  0  0  0
 21 22  1  0  0  0  0
 21 30  1  0  0  0  0
 21 31  1  0  0  0  0
 22 23  1  0  0  0  0
 22 24  2  0  0  0  0
 23 25  2  0  0  0  0
 23 32  1  0  0  0  0
 24 26  1  0  0  0  0
 24 33  1  0  0  0  0
 25 27  1  0  0  0  0
 25 34  1  0  0  0  0
 26 27  2  0  0  0  0
 26 35  1  0  0  0  0
 27 36  1  0  0  0  0
 37 38  1  0  0  0  0
 37 42  1  0  0  0  0
 38 39  1  0  0  0  0
 38 41  1  0  0  0  0
 38 43  1  0  0  0  0
 39 40  2  0  0  0  0
 39 47  1  0  0  0  0
 41 44  1  0  0  0  0
 41 45  1  0  0  0  0
 41 46  1  0  0  0  0
 47 48  1  0  0  0  0
 47 49  1  0  0  0  0
 48 50  1  0  0  0  0
 48 51  1  0  0  0  0
 48 52  1  0  0  0  0
M  END
$$$$

  -OEChem-05262217163D

 52 52  0     1  0  0  0  0  0999 V2000
   -2.0720    0.0877    4.4419 C   0  0  0  0  0  0  0  0  0  0  0  0
   -2.9403   -0.5907    3.9143 O   0  0  0  0  0  0  0  0  0  0  0  0
   -1.4579   -0.3541    5.7566 C   0  0  0  0  0  0  0  0  0  0  0  0
   -1.9234   -1.2825    6.0986 H   0  0  0  0  0  0  0  0  0  0  0  0
   -0.3857   -0.5229    5.6280 H   0  0  0  0  0  0  0  0  0  0  0  0
   -1.6094    0.4164    6.5162 H   0  0  0  0  0  0  0  0  0  0  0  0
   -1.6191    1.2410    3.8368 N   0  0  0  0  0  0  0  0  0  0  0  0
   -1.9168    1.5941    2.4418 C   0  0  2  0  0  0  0  0  0  0  0  0
   -0.6707    1.4369    1.5468 C   0  0  0  0  0  0  0  0  0  0  0  0
    0.4495    1.5349    2.0336 O   0  0  0  0  0  0  0  0  0  0  0  0
   -2.4176    3.0397    2.4247 C   0  0  0  0  0  0  0  0  0  0  0  0
   -0.7458    1.6085    4.2105 H   0  0  0  0  0  0  0  0  0  0  0  0
   -2.7030    0.9489    2.0367 H   0  0  0  0  0  0  0  0  0  0  0  0
   -1.6458    3.7179    2.8030 H   0  0  0  0  0  0  0  0  0  0  0  0
   -2.6792    3.3436    1.4068 H   0  0  0  0  0  0  0  0  0  0  0  0
   -3.3078    3.1380    3.0541 H   0  0  0  0  0  0  0  0  0  0  0  0
   -0.7938    1.3242    0.1726 N   0  0  0  0  0  0  0  0  0  0  0  0
    0.2390    0.6684   -0.6595 C   0  0  2  0  0  0  0  0  0  0  0  0
    0.0121    1.0381   -2.1454 C   0  0  0  0  0  0  0  0  0  0  0  0
    0.3509    0.3069   -3.0686 O   0  0  0  0  0  0  0  0  0  0  0  0
    0.1704   -0.8781   -0.5220 C   0  0  0  0  0  0  0  0  0  0  0  0
    0.5407   -1.4082    0.8425 C   0  0  0  0  0  0  0  0  0  0  0  0
    1.8876   -1.5592    1.2029 C   0  0  0  0  0  0  0  0  0  0  0  0
   -0.4542   -1.8298    1.7394 C   0  0  0  0  0  0  0  0  0  0  0  0
    2.2345   -2.0917    2.4495 C   0  0  0  0  0  0  0  0  0  0  0  0
   -0.1086   -2.3708    2.9814 C   0  0  0  0  0  0  0  0  0  0  0  0
    1.2360   -2.4967    3.3403 C   0  0  0  0  0  0  0  0  0  0  0  0
   -1.7527    1.2180   -0.1489 H   0  0  0  0  0  0  0  0  0  0  0  0
    1.2373    1.0181   -0.3745 H   0  0  0  0  0  0  0  0  0  0  0  0
    0.8560   -1.3381   -1.2417 H   0  0  0  0  0  0  0  0  0  0  0  0
   -0.8372   -1.2166   -0.7843 H   0  0  0  0  0  0  0  0  0  0  0  0
    2.6709   -1.2542    0.5158 H   0  0  0  0  0  0  0  0  0  0  0  0
   -1.5052   -1.7467    1.4781 H   0  0  0  0  0  0  0  0  0  0  0  0
    3.2805   -2.1935    2.7223 H   0  0  0  0  0  0  0  0  0  0  0  0
   -0.8911   -2.6947    3.6618 H   0  0  0  0  0  0  0  0  0  0  0  0
    1.5054   -2.9151    4.3053 H   0  0  0  0  0  0  0  0  0  0  0  0
   -0.5559    2.2598   -2.4611 N   0  0  0  0  0  0  0  0  0  0  0  0
   -0.7521    2.7554   -3.8325 C   0  0  2  0  0  0  0  0  0  0  0  0
    0.5609    3.2819   -4.4608 C   0  0  0  0  0  0  0  0  0  0  0  0
    0.7052    4.4616   -4.7575 O   0  0  0  0  0  0  0  0  0  0  0  0
   -1.8577    3.8171   -3.7807 C   0  0  0  0  0  0  0  0  0  0  0  0
   -0.6589    2.9171   -1.6917 H   0  0  0  0  0  0  0  0  0  0  0  0
   -1.1062    1.9382   -4.4704 H   0  0  0  0  0  0  0  0  0  0  0  0
   -1.5530    4.6613   -3.1540 H   0  0  0  0  0  0  0  0  0  0  0  0
   -2.0691    4.1928   -4.7869 H   0  0  0  0  0  0  0  0  0  0  0  0
   -2.7782    3.3902   -3.3716 H   0  0  0  0  0  0  0  0  0  0  0  0
    1.6011    2.4001   -4.6766 N   0  0  0  0  0  0  0  0  0  0  0  0
    2.9000    2.7874   -5.2092 C   0  0  0  0  0  0  0  0  0  0  0  0
    1.4549    1.4411   -4.3509 H   0  0  0  0  0  0  0  0  0  0  0  0
    2.7863    3.2489   -6.1956 H   0  0  0  0  0  0  0  0  0  0  0  0
    3.3917    3.5006   -4.5395 H   0  0  0  0  0  0  0  0  0  0  0  0
    3.5426    1.9080   -5.3122 H   0  0  0  0  0  0  0  0  0  0  0  0
  1  2  2  0  0  0  0
  1  3  1  0  0  0  0
  1  7  1  0  0  0  0
  3  4  1  0  0  0  0
  3  5  1  0  0  0  0
  3  6  1  0  0  0  0
  7  8  1  0  0  0  0
  7 12  1  0  0  0  0
  8  9  1  0  0  0  0
  8 11  1  0  0  0  0
  8 13  1  0  0  0  0
  9 10  2  0  0  0  0
  9 17  1  0  0  0  0
 11 14  1  0  0  0  0
 11 15  1  0  0  0  0
 11 16  1  0  0  0  0
 17 18  1  0  0  0  0
 17 28  1  0  0  0  0
 18 19  1  0  0  0  0
 18 21  1  0  0  0  0
 18 29  1  0  0  0  0
 19 20  2  0  0  0  0
 19 37  1  0  0  0  0
 21 22  1  0  0  0  0
 21 30  1  0  0  0  0
 21 31  1  0  0  0  0
 22 23  1  0  0  0  0
 22 24  2  0  0  0  0
 23 25  2  0  0  0  0
 23 32  1  0  0  0  0
 24 26  1  0  0  0  0
 24 33  1  0  0  0  0
 25 27  1  0  0  0  0
 25 34  1  0  0  0  0
 26 27  2  0  0  0  0
 26 35  1  0  0  0  0
 27 36  1  0  0  0  0
 37 38  1  0  0  0  0
 37 42  1  0  0  0  0
 38 39  1  0  0  0  0
 38 41  1  0  0  0  0
 38 43  1  0  0  0  0
 39 40  2  0  0  0  0
 39 47  1  0  0  0  0
 41 44  1  0  0  0  0
 41 45  1  0  0  0  0
 41 46  1  0  0  0  0
 47 48  1  0  0  0  0
 47 49  1  0  0  0  0
 48 50  1  0  0  0  0
 48 51  1  0  0  0  0
 48 52  1  0  0  0  0
M  END
$$$$

  -OEChem-05262217163D

 52 52  0     1  0  0  0  0  0999 V2000
   -2.0921    0.0391    4.4068 C   0  0  0  0  0  0  0  0  0  0  0  0
   -2.9650   -0.6134    3.8547 O   0  0  0  0  0  0  0  0  0  0  0  0
   -1.4762   -0.4595    5.7005 C   0  0  0  0  0  0  0  0  0  0  0  0
   -1.9093   -1.4245    5.9777 H   0  0  0  0  0  0  0  0  0  0  0  0
   -0.3971   -0.5807    5.5758 H   0  0  0  0  0  0  0  0  0  0  0  0
   -1.6650    0.2559    6.5047 H   0  0  0  0  0  0  0  0  0  0  0  0
   -1.6305    1.2102    3.8440 N   0  0  0  0  0  0  0  0  0  0  0  0
   -1.9138    1.6057    2.4574 C   0  0  2  0  0  0  0  0  0  0  0  0
   -0.6600    1.4615    1.5716 C   0  0  0  0  0  0  0  0  0  0  0  0
    0.4563    1.5365    2.0719 O   0  0  0  0  0  0  0  0  0  0  0  0
   -2.4011    3.0559    2.4756 C   0  0  0  0  0  0  0  0  0  0  0  0
   -0.7531    1.5540    4.2306 H   0  0  0  0  0  0  0  0  0  0  0  0
   -2.7011    0.9793    2.0259 H   0  0  0  0  0  0  0  0  0  0  0  0
   -1.6326    3.7141    2.8940 H   0  0  0  0  0  0  0  0  0  0  0  0
   -2.6358    3.3951    1.4621 H   0  0  0  0  0  0  0  0  0  0  0  0
   -3.3049    3.1419    3.0871 H   0  0  0  0  0  0  0  0  0  0  0  0
   -0.7679    1.3847    0.1943 N   0  0  0  0  0  0  0  0  0  0  0  0
    0.2626    0.7322   -0.6404 C   0  0  2  0  0  0  0  0  0  0  0  0
    0.0471    1.1513   -2.1143 C   0  0  0  0  0  0  0  0  0  0  0  0
    0.1090    0.3641   -3.0517 O   0  0  0  0  0  0  0  0  0  0  0  0
    0.1792   -0.8163   -0.5382 C   0  0  0  0  0  0  0  0  0  0  0  0
    0.5321   -1.3855    0.8157 C   0  0  0  0  0  0  0  0  0  0  0  0
    1.8741   -1.5599    1.1844 C   0  0  0  0  0  0  0  0  0  0  0  0
   -0.4752   -1.8215    1.6919 C   0  0  0  0  0  0  0  0  0  0  0  0
    2.2041   -2.1320    2.4180 C   0  0  0  0  0  0  0  0  0  0  0  0
   -0.1465   -2.4035    2.9199 C   0  0  0  0  0  0  0  0  0  0  0  0
    1.1934   -2.5531    3.2876 C   0  0  0  0  0  0  0  0  0  0  0  0
   -1.7240    1.3117   -0.1447 H   0  0  0  0  0  0  0  0  0  0  0  0
    1.2627    1.0619   -0.3386 H   0  0  0  0  0  0  0  0  0  0  0  0
    0.8677   -1.2618   -1.2645 H   0  0  0  0  0  0  0  0  0  0  0  0
   -0.8290   -1.1391   -0.8180 H   0  0  0  0  0  0  0  0  0  0  0  0
    2.6674   -1.2449    0.5137 H   0  0  0  0  0  0  0  0  0  0  0  0
   -1.5228   -1.7178    1.4248 H   0  0  0  0  0  0  0  0  0  0  0  0
    3.2464   -2.2525    2.6976 H   0  0  0  0  0  0  0  0  0  0  0  0
   -0.9377   -2.7410    3.5834 H   0  0  0  0  0  0  0  0  0  0  0  0
    1.4490   -3.0023    4.2426 H   0  0  0  0  0  0  0  0  0  0  0  0
   -0.1981    2.4818   -2.4007 N   0  0  0  0  0  0  0  0  0  0  0  0
   -0.3632    3.0258   -3.7578 C   0  0  2  0  0  0  0  0  0  0  0  0
    0.9874    3.1875   -4.4971 C   0  0  0  0  0  0  0  0  0  0  0  0
    1.4116    4.2868   -4.8323 O   0  0  0  0  0  0  0  0  0  0  0  0
   -1.1343    4.3452   -3.6304 C   0  0  0  0  0  0  0  0  0  0  0  0
   -0.1302    3.1324   -1.6217 H   0  0  0  0  0  0  0  0  0  0  0  0
   -0.9736    2.3401   -4.3551 H   0  0  0  0  0  0  0  0  0  0  0  0
   -0.5602    5.0720   -3.0466 H   0  0  0  0  0  0  0  0  0  0  0  0
   -1.3233    4.7703   -4.6215 H   0  0  0  0  0  0  0  0  0  0  0  0
   -2.0968    4.1802   -3.1371 H   0  0  0  0  0  0  0  0  0  0  0  0
    1.7406    2.0629   -4.7696 N   0  0  0  0  0  0  0  0  0  0  0  0
    3.0576    2.0941   -5.3906 C   0  0  0  0  0  0  0  0  0  0  0  0
    1.3731    1.1774   -4.4119 H   0  0  0  0  0  0  0  0  0  0  0  0
    3.0049    2.5675   -6.3765 H   0  0  0  0  0  0  0  0  0  0  0  0
    3.7618    2.6544   -4.7672 H   0  0  0  0  0  0  0  0  0  0  0  0
    3.4389    1.0763   -5.5157 H   0  0  0  0  0  0  0  0  0  0  0  0
  1  2  2  0  0  0  0
  1  3  1  0  0  0  0
  1  7  1  0  0  0  0
  3  4  1  0  0  0  0
  3  5  1  0  0  0  0
  3  6  1  0  0  0  0
  7  8  1  0  0  0  0
  7 12  1  0  0  0  0
  8  9  1  0  0  0  0
  8 11  1  0  0  0  0
  8 13  1  0  0  0  0
  9 10  2  0  0  0  0
  9 17  1  0  0  0  0
 11 14  1  0  0  0  0
 11 15  1  0  0  0  0
 11 16  1  0  0  0  0
 17 18  1  0  0  0  0
 17 28  1  0  0  0  0
 18 19  1  0  0  0  0
 18 21  1  0  0  0  0
 18 29  1  0  0  0  0
 19 20  2  0  0  0  0
 19 37  1  0  0  0  0
 21 22  1  0  0  0  0
 21 30  1  0  0  0  0
 21 31  1  0  0  0  0
 22 23  1  0  0  0  0
 22 24  2  0  0  0  0
 23 25  2  0  0  0  0
 23 32  1  0  0  0  0
 24 26  1  0  0  0  0
 24 33  1  0  0  0  0
 25 27  1  0  0  0  0
 25 34  1  0  0  0  0
 26 27  2  0  0  0  0
 26 35  1  0  0  0  0
 27 36  1  0  0  0  0
 37 38  1  0  0  0  0
 37 42  1  0  0  0  0
 38 39  1  0  0  0  0
 38 41  1  0  0  0  0
 38 43  1  0  0  0  0
 39 40  2  0  0  0  0
 39 47  1  0  0  0  0
 41 44  1  0  0  0  0
 41 45  1  0  0  0  0
 41 46  1  0  0  0  0
 47 48  1  0  0  0  0
 47 49  1  0  0  0  0
 48 50  1  0  0  0  0
 48 51  1  0  0  0  0
 48 52  1  0  0  0  0
M  END
$$$$

  -OEChem-05262217163D

 52 52  0     1  0  0  0  0  0999 V2000
   -2.1558   -0.0093    4.3695 C   0  0  0  0  0  0  0  0  0  0  0  0
   -3.0179   -0.6462    3.7837 O   0  0  0  0  0  0  0  0  0  0  0  0
   -1.5820   -0.5307    5.6736 C   0  0  0  0  0  0  0  0  0  0  0  0
   -2.0625   -1.4736    5.9488 H   0  0  0  0  0  0  0  0  0  0  0  0
   -0.5081   -0.7019    5.5646 H   0  0  0  0  0  0  0  0  0  0  0  0
   -1.7495    0.1959    6.4725 H   0  0  0  0  0  0  0  0  0  0  0  0
   -1.6712    1.1679    3.8397 N   0  0  0  0  0  0  0  0  0  0  0  0
   -1.9175    1.5942    2.4551 C   0  0  2  0  0  0  0  0  0  0  0  0
   -0.6419    1.4658    1.5977 C   0  0  0  0  0  0  0  0  0  0  0  0
    0.4625    1.5153    2.1274 O   0  0  0  0  0  0  0  0  0  0  0  0
   -2.4000    3.0458    2.4944 C   0  0  0  0  0  0  0  0  0  0  0  0
   -0.8047    1.5021    4.2577 H   0  0  0  0  0  0  0  0  0  0  0  0
   -2.6961    0.9803    1.9903 H   0  0  0  0  0  0  0  0  0  0  0  0
   -1.6327    3.6932    2.9314 H   0  0  0  0  0  0  0  0  0  0  0  0
   -2.6243    3.4034    1.4849 H   0  0  0  0  0  0  0  0  0  0  0  0
   -3.3093    3.1259    3.0987 H   0  0  0  0  0  0  0  0  0  0  0  0
   -0.7127    1.4307    0.2167 N   0  0  0  0  0  0  0  0  0  0  0  0
    0.3291    0.7876   -0.6082 C   0  0  2  0  0  0  0  0  0  0  0  0
    0.1555    1.2559   -2.0710 C   0  0  0  0  0  0  0  0  0  0  0  0
   -0.0675    0.4882   -3.0006 O   0  0  0  0  0  0  0  0  0  0  0  0
    0.2290   -0.7614   -0.5537 C   0  0  0  0  0  0  0  0  0  0  0  0
    0.5435   -1.3705    0.7922 C   0  0  0  0  0  0  0  0  0  0  0  0
    1.8744   -1.5674    1.1885 C   0  0  0  0  0  0  0  0  0  0  0  0
   -0.4888   -1.8165    1.6331 C   0  0  0  0  0  0  0  0  0  0  0  0
    2.1684   -2.1739    2.4149 C   0  0  0  0  0  0  0  0  0  0  0  0
   -0.1963   -2.4312    2.8543 C   0  0  0  0  0  0  0  0  0  0  0  0
    1.1329   -2.6062    3.2491 C   0  0  0  0  0  0  0  0  0  0  0  0
   -1.6594    1.3859   -0.1525 H   0  0  0  0  0  0  0  0  0  0  0  0
    1.3254    1.0933   -0.2709 H   0  0  0  0  0  0  0  0  0  0  0  0
    0.9275   -1.1895   -1.2811 H   0  0  0  0  0  0  0  0  0  0  0  0
   -0.7764   -1.0669   -0.8626 H   0  0  0  0  0  0  0  0  0  0  0  0
    2.6866   -1.2426    0.5458 H   0  0  0  0  0  0  0  0  0  0  0  0
   -1.5283   -1.6937    1.3438 H   0  0  0  0  0  0  0  0  0  0  0  0
    3.2021   -2.3126    2.7163 H   0  0  0  0  0  0  0  0  0  0  0  0
   -1.0079   -2.7734    3.4905 H   0  0  0  0  0  0  0  0  0  0  0  0
    1.3612   -3.0829    4.1977 H   0  0  0  0  0  0  0  0  0  0  0  0
    0.2511    2.6064   -2.3508 N   0  0  0  0  0  0  0  0  0  0  0  0
    0.1140    3.1917   -3.6938 C   0  0  2  0  0  0  0  0  0  0  0  0
    1.3870    3.0034   -4.5547 C   0  0  0  0  0  0  0  0  0  0  0  0
    2.0389    3.9585   -4.9589 O   0  0  0  0  0  0  0  0  0  0  0  0
   -0.2723    4.6647   -3.5119 C   0  0  0  0  0  0  0  0  0  0  0  0
    0.4967    3.2188   -1.5764 H   0  0  0  0  0  0  0  0  0  0  0  0
   -0.7065    2.6973   -4.2248 H   0  0  0  0  0  0  0  0  0  0  0  0
    0.5221    5.2110   -2.9931 H   0  0  0  0  0  0  0  0  0  0  0  0
   -0.4359    5.1358   -4.4864 H   0  0  0  0  0  0  0  0  0  0  0  0
   -1.1947    4.7485   -2.9292 H   0  0  0  0  0  0  0  0  0  0  0  0
    1.8021    1.7247   -4.8695 N   0  0  0  0  0  0  0  0  0  0  0  0
    3.0004    1.4221   -5.6400 C   0  0  0  0  0  0  0  0  0  0  0  0
    1.2502    0.9593   -4.4739 H   0  0  0  0  0  0  0  0  0  0  0  0
    2.9394    1.8743   -6.6354 H   0  0  0  0  0  0  0  0  0  0  0  0
    3.8906    1.8064   -5.1311 H   0  0  0  0  0  0  0  0  0  0  0  0
    3.1090    0.3397   -5.7582 H   0  0  0  0  0  0  0  0  0  0  0  0
  1  2  2  0  0  0  0
  1  3  1  0  0  0  0
  1  7  1  0  0  0  0
  3  4  1  0  0  0  0
  3  5  1  0  0  0  0
  3  6  1  0  0  0  0
  7  8  1  0  0  0  0
  7 12  1  0  0  0  0
  8  9  1  0  0  0  0
  8 11  1  0  0  0  0
  8 13  1  0  0  0  0
  9 10  2  0  0  0  0
  9 17  1  0  0  0  0
 11 14  1  0  0  0  0
 11 15  1  0  0  0  0
 11 16  1  0  0  0  0
 17 18  1  0  0  0  0
 17 28  1  0  0  0  0
 18 19  1  0  0  0  0
 18 21  1  0  0  0  0
 18 29  1  0  0  0  0
 19 20  2  0  0  0  0
 19 37  1  0  0  0  0
 21 22  1  0  0  0  0
 21 30  1  0  0  0  0
 21 31  1  0  0  0  0
 22 23  1  0  0  0  0
 22 24  2  0  0  0  0
 23 25  2  0  0  0  0
 23 32  1  0  0  0  0
 24 26  1  0  0  0  0
 24 33  1  0  0  0  0
 25 27  1  0  0  0  0
 25 34  1  0  0  0  0
 26 27  2  0  0  0  0
 26 35  1  0  0  0  0
 27 36  1  0  0  0  0
 37 38  1  0  0  0  0
 37 42  1  0  0  0  0
 38 39  1  0  0  0  0
 38 41  1  0  0  0  0
 38 43  1  0  0  0  0
 39 40  2  0  0  0  0
 39 47  1  0  0  0  0
 41 44  1  0  0  0  0
 41 45  1  0  0  0  0
 41 46  1  0  0  0  0
 47 48  1  0  0  0  0
 47 49  1  0  0  0  0
 48 50  1  0  0  0  0
 48 51  1  0  0  0  0
 48 52  1  0  0  0  0
M  END
$$$$

  -OEChem-05262217163D

 52 52  0     1  0  0  0  0  0999 V2000
   -2.2114   -0.0307    4.3366 C   0  0  0  0  0  0  0  0  0  0  0  0
   -3.0827   -0.6363    3.7315 O   0  0  0  0  0  0  0  0  0  0  0  0
   -1.6618   -0.5899    5.6355 C   0  0  0  0  0  0  0  0  0  0  0  0
   -2.1559   -1.5343    5.8796 H   0  0  0  0  0  0  0  0  0  0  0  0
   -0.5881   -0.7688    5.5383 H   0  0  0  0  0  0  0  0  0  0  0  0
   -1.8333    0.1183    6.4496 H   0  0  0  0  0  0  0  0  0  0  0  0
   -1.6931    1.1434    3.8323 N   0  0  0  0  0  0  0  0  0  0  0  0
   -1.9122    1.5998    2.4525 C   0  0  2  0  0  0  0  0  0  0  0  0
   -0.6224    1.4799    1.6148 C   0  0  0  0  0  0  0  0  0  0  0  0
    0.4721    1.5008    2.1673 O   0  0  0  0  0  0  0  0  0  0  0  0
   -2.3878    3.0529    2.5136 C   0  0  0  0  0  0  0  0  0  0  0  0
   -0.8247    1.4507    4.2665 H   0  0  0  0  0  0  0  0  0  0  0  0
   -2.6852    0.9999    1.9615 H   0  0  0  0  0  0  0  0  0  0  0  0
   -1.6281    3.6865    2.9830 H   0  0  0  0  0  0  0  0  0  0  0  0
   -2.5869    3.4345    1.5076 H   0  0  0  0  0  0  0  0  0  0  0  0
   -3.3106    3.1230    3.0984 H   0  0  0  0  0  0  0  0  0  0  0  0
   -0.6653    1.4778    0.2319 N   0  0  0  0  0  0  0  0  0  0  0  0
    0.3848    0.8384   -0.5836 C   0  0  2  0  0  0  0  0  0  0  0  0
    0.2562    1.3370   -2.0396 C   0  0  0  0  0  0  0  0  0  0  0  0
   -0.2245    0.6533   -2.9367 O   0  0  0  0  0  0  0  0  0  0  0  0
    0.2651   -0.7096   -0.5723 C   0  0  0  0  0  0  0  0  0  0  0  0
    0.5419   -1.3531    0.7652 C   0  0  0  0  0  0  0  0  0  0  0  0
    1.8609   -1.5747    1.1872 C   0  0  0  0  0  0  0  0  0  0  0  0
   -0.5148   -1.8041    1.5727 C   0  0  0  0  0  0  0  0  0  0  0  0
    2.1195   -2.2063    2.4088 C   0  0  0  0  0  0  0  0  0  0  0  0
   -0.2576   -2.4451    2.7883 C   0  0  0  0  0  0  0  0  0  0  0  0
    1.0599   -2.6412    3.2107 C   0  0  0  0  0  0  0  0  0  0  0  0
   -1.6041    1.4544   -0.1594 H   0  0  0  0  0  0  0  0  0  0  0  0
    1.3769    1.1189   -0.2139 H   0  0  0  0  0  0  0  0  0  0  0  0
    0.9717   -1.1255   -1.2986 H   0  0  0  0  0  0  0  0  0  0  0  0
   -0.7381   -0.9955   -0.9065 H   0  0  0  0  0  0  0  0  0  0  0  0
    2.6919   -1.2478    0.5700 H   0  0  0  0  0  0  0  0  0  0  0  0
   -1.5461   -1.6644    1.2615 H   0  0  0  0  0  0  0  0  0  0  0  0
    3.1447   -2.3610    2.7318 H   0  0  0  0  0  0  0  0  0  0  0  0
   -1.0872   -2.7901    3.3990 H   0  0  0  0  0  0  0  0  0  0  0  0
    1.2602   -3.1359    4.1562 H   0  0  0  0  0  0  0  0  0  0  0  0
    0.6814    2.6158   -2.3469 N   0  0  0  0  0  0  0  0  0  0  0  0
    0.6027    3.2237   -3.6846 C   0  0  2  0  0  0  0  0  0  0  0  0
    1.7142    2.7132   -4.6347 C   0  0  0  0  0  0  0  0  0  0  0  0
    2.5530    3.4688   -5.1101 O   0  0  0  0  0  0  0  0  0  0  0  0
    0.6339    4.7456   -3.4941 C   0  0  0  0  0  0  0  0  0  0  0  0
    1.0954    3.1578   -1.5925 H   0  0  0  0  0  0  0  0  0  0  0  0
   -0.3561    2.9660   -4.1471 H   0  0  0  0  0  0  0  0  0  0  0  0
    1.5809    5.0584   -3.0422 H   0  0  0  0  0  0  0  0  0  0  0  0
    0.5290    5.2508   -4.4598 H   0  0  0  0  0  0  0  0  0  0  0  0
   -0.1874    5.0668   -2.8464 H   0  0  0  0  0  0  0  0  0  0  0  0
    1.7652    1.3697   -4.9500 N   0  0  0  0  0  0  0  0  0  0  0  0
    2.7813    0.7706   -5.8045 C   0  0  0  0  0  0  0  0  0  0  0  0
    1.0686    0.7722   -4.4978 H   0  0  0  0  0  0  0  0  0  0  0  0
    2.7530    1.2172   -6.8037 H   0  0  0  0  0  0  0  0  0  0  0  0
    3.7781    0.9227   -5.3780 H   0  0  0  0  0  0  0  0  0  0  0  0
    2.6063   -0.3049   -5.9019 H   0  0  0  0  0  0  0  0  0  0  0  0
  1  2  2  0  0  0  0
  1  3  1  0  0  0  0
  1  7  1  0  0  0  0
  3  4  1  0  0  0  0
  3  5  1  0  0  0  0
  3  6  1  0  0  0  0
  7  8  1  0  0  0  0
  7 12  1  0  0  0  0
  8  9  1  0  0  0  0
  8 11  1  0  0  0  0
  8 13  1  0  0  0  0
  9 10  2  0  0  0  0
  9 17  1  0  0  0  0
 11 14  1  0  0  0  0
 11 15  1  0  0  0  0
 11 16  1  0  0  0  0
 17 18  1  0  0  0  0
 17 28  1  0  0  0  0
 18 19  1  0  0  0  0
 18 21  1  0  0  0  0
 18 29  1  0  0  0  0
 19 20  2  0  0  0  0
 19 37  1  0  0  0  0
 21 22  1  0  0  0  0
 21 30  1  0  0  0  0
 21 31  1  0  0  0  0
 22 23  1  0  0  0  0
 22 24  2  0  0  0  0
 23 25  2  0  0  0  0
 23 32  1  0  0  0  0
 24 26  1  0  0  0  0
 24 33  1  0  0  0  0
 25 27  1  0  0  0  0
 25 34  1  0  0  0  0
 26 27  2  0  0  0  0
 26 35  1  0  0  0  0
 27 36  1  0  0  0  0
 37 38  1  0  0  0  0
 37 42  1  0  0  0  0
 38 39  1  0  0  0  0
 38 41  1  0  0  0  0
 38 43  1  0  0  0  0
 39 40  2  0  0  0  0
 39 47  1  0  0  0  0
 41 44  1  0  0  0  0
 41 45  1  0  0  0  0
 41 46  1  0  0  0  0
 47 48  1  0  0  0  0
 47 49  1  0  0  0  0
 48 50  1  0  0  0  0
 48 51  1  0  0  0  0
 48 52  1  0  0  0  0
M  END
$$$$

  -OEChem-05262217163D

 52 52  0     1  0  0  0  0  0999 V2000
   -2.2852   -0.0580    4.2273 C   0  0  0  0  0  0  0  0  0  0  0  0
   -3.1199   -0.6476    3.5581 O   0  0  0  0  0  0  0  0  0  0  0  0
   -1.7800   -0.6715    5.5194 C   0  0  0  0  0  0  0  0  0  0  0  0
   -2.2518   -1.6439    5.6856 H   0  0  0  0  0  0  0  0  0  0  0  0
   -0.6972   -0.8105    5.4662 H   0  0  0  0  0  0  0  0  0  0  0  0
   -2.0156   -0.0160    6.3612 H   0  0  0  0  0  0  0  0  0  0  0  0
   -1.7646    1.1456    3.8004 N   0  0  0  0  0  0  0  0  0  0  0  0
   -1.9169    1.6456    2.4265 C   0  0  2  0  0  0  0  0  0  0  0  0
   -0.5994    1.5073    1.6367 C   0  0  0  0  0  0  0  0  0  0  0  0
    0.4741    1.4981    2.2299 O   0  0  0  0  0  0  0  0  0  0  0  0
   -2.3494    3.1108    2.5069 C   0  0  0  0  0  0  0  0  0  0  0  0
   -0.9203    1.4420    4.2866 H   0  0  0  0  0  0  0  0  0  0  0  0
   -2.6893    1.0843    1.8906 H   0  0  0  0  0  0  0  0  0  0  0  0
   -1.5920    3.7074    3.0259 H   0  0  0  0  0  0  0  0  0  0  0  0
   -2.4909    3.5244    1.5038 H   0  0  0  0  0  0  0  0  0  0  0  0
   -3.2948    3.1955    3.0521 H   0  0  0  0  0  0  0  0  0  0  0  0
   -0.5937    1.5138    0.2537 N   0  0  0  0  0  0  0  0  0  0  0  0
    0.4815    0.8849   -0.5333 C   0  0  2  0  0  0  0  0  0  0  0  0
    0.3984    1.3933   -1.9871 C   0  0  0  0  0  0  0  0  0  0  0  0
   -0.3229    0.8556   -2.8206 O   0  0  0  0  0  0  0  0  0  0  0  0
    0.3633   -0.6616   -0.5557 C   0  0  0  0  0  0  0  0  0  0  0  0
    0.5928   -1.3323    0.7777 C   0  0  0  0  0  0  0  0  0  0  0  0
    1.8953   -1.5634    1.2433 C   0  0  0  0  0  0  0  0  0  0  0  0
   -0.4923   -1.8004    1.5359 C   0  0  0  0  0  0  0  0  0  0  0  0
    2.1092   -2.2257    2.4574 C   0  0  0  0  0  0  0  0  0  0  0  0
   -0.2795   -2.4716    2.7437 C   0  0  0  0  0  0  0  0  0  0  0  0
    1.0214   -2.6806    3.2088 C   0  0  0  0  0  0  0  0  0  0  0  0
   -1.5158    1.5085   -0.1770 H   0  0  0  0  0  0  0  0  0  0  0  0
    1.4602    1.1598   -0.1254 H   0  0  0  0  0  0  0  0  0  0  0  0
    1.0931   -1.0619   -1.2676 H   0  0  0  0  0  0  0  0  0  0  0  0
   -0.6283   -0.9415   -0.9275 H   0  0  0  0  0  0  0  0  0  0  0  0
    2.7481   -1.2222    0.6655 H   0  0  0  0  0  0  0  0  0  0  0  0
   -1.5116   -1.6512    1.1909 H   0  0  0  0  0  0  0  0  0  0  0  0
    3.1216   -2.3904    2.8136 H   0  0  0  0  0  0  0  0  0  0  0  0
   -1.1311   -2.8307    3.3144 H   0  0  0  0  0  0  0  0  0  0  0  0
    1.1872   -3.1999    4.1479 H   0  0  0  0  0  0  0  0  0  0  0  0
    1.0971    2.5279   -2.3550 N   0  0  0  0  0  0  0  0  0  0  0  0
    1.0590    3.1286   -3.6977 C   0  0  2  0  0  0  0  0  0  0  0  0
    1.9079    2.3399   -4.7255 C   0  0  0  0  0  0  0  0  0  0  0  0
    2.8848    2.8377   -5.2718 O   0  0  0  0  0  0  0  0  0  0  0  0
    1.5047    4.5892   -3.5558 C   0  0  0  0  0  0  0  0  0  0  0  0
    1.6859    2.9610   -1.6481 H   0  0  0  0  0  0  0  0  0  0  0  0
    0.0279    3.1301   -4.0670 H   0  0  0  0  0  0  0  0  0  0  0  0
    2.5342    4.6437   -3.1872 H   0  0  0  0  0  0  0  0  0  0  0  0
    1.4582    5.0950   -4.5257 H   0  0  0  0  0  0  0  0  0  0  0  0
    0.8523    5.1220   -2.8574 H   0  0  0  0  0  0  0  0  0  0  0  0
    1.5613    1.0376   -5.0268 N   0  0  0  0  0  0  0  0  0  0  0  0
    2.3140    0.1824   -5.9341 C   0  0  0  0  0  0  0  0  0  0  0  0
    0.7739    0.6471   -4.5029 H   0  0  0  0  0  0  0  0  0  0  0  0
    2.3665    0.6331   -6.9307 H   0  0  0  0  0  0  0  0  0  0  0  0
    3.3321    0.0304   -5.5609 H   0  0  0  0  0  0  0  0  0  0  0  0
    1.8273   -0.7936   -6.0220 H   0  0  0  0  0  0  0  0  0  0  0  0
  1  2  2  0  0  0  0
  1  3  1  0  0  0  0
  1  7  1  0  0  0  0
  3  4  1  0  0  0  0
  3  5  1  0  0  0  0
  3  6  1  0  0  0  0
  7  8  1  0  0  0  0
  7 12  1  0  0  0  0
  8  9  1  0  0  0  0
  8 11  1  0  0  0  0
  8 13  1  0  0  0  0
  9 10  2  0  0  0  0
  9 17  1  0  0  0  0
 11 14  1  0  0  0  0
 11 15  1  0  0  0  0
 11 16  1  0  0  0  0
 17 18  1  0  0  0  0
 17 28  1  0  0  0  0
 18 19  1  0  0  0  0
 18 21  1  0  0  0  0
 18 29  1  0  0  0  0
 19 20  2  0  0  0  0
 19 37  1  0  0  0  0
 21 22  1  0  0  0  0
 21 30  1  0  0  0  0
 21 31  1  0  0  0  0
 22 23  1  0  0  0  0
 22 24  2  0  0  0  0
 23 25  2  0  0  0  0
 23 32  1  0  0  0  0
 24 26  1  0  0  0  0
 24 33  1  0  0  0  0
 25 27  1  0  0  0  0
 25 34  1  0  0  0  0
 26 27  2  0  0  0  0
 26 35  1  0  0  0  0
 27 36  1  0  0  0  0
 37 38  1  0  0  0  0
 37 42  1  0  0  0  0
 38 39  1  0  0  0  0
 38 41  1  0  0  0  0
 38 43  1  0  0  0  0
 39 40  2  0  0  0  0
 39 47  1  0  0  0  0
 41 44  1  0  0  0  0
 41 45  1  0  0  0  0
 41 46  1  0  0  0  0
 47 48  1  0  0  0  0
 47 49  1  0  0  0  0
 48 50  1  0  0  0  0
 48 51  1  0  0  0  0
 48 52  1  0  0  0  0
M  END
$$$$

  -OEChem-05262217163D

 52 52  0     1  0  0  0  0  0999 V2000
   -2.3556   -0.0545    4.1437 C   0  0  0  0  0  0  0  0  0  0  0  0
   -3.1661   -0.6254    3.4301 O   0  0  0  0  0  0  0  0  0  0  0  0
   -1.9069   -0.6939    5.4440 C   0  0  0  0  0  0  0  0  0  0  0  0
   -2.4360   -1.6373    5.6041 H   0  0  0  0  0  0  0  0  0  0  0  0
   -0.8328   -0.8932    5.4079 H   0  0  0  0  0  0  0  0  0  0  0  0
   -2.1182   -0.0248    6.2815 H   0  0  0  0  0  0  0  0  0  0  0  0
   -1.8081    1.1518    3.7613 N   0  0  0  0  0  0  0  0  0  0  0  0
   -1.9031    1.6805    2.3935 C   0  0  2  0  0  0  0  0  0  0  0  0
   -0.5679    1.5114    1.6405 C   0  0  0  0  0  0  0  0  0  0  0  0
    0.4876    1.4758    2.2645 O   0  0  0  0  0  0  0  0  0  0  0  0
   -2.2865    3.1587    2.4894 C   0  0  0  0  0  0  0  0  0  0  0  0
   -0.9795    1.4285    4.2841 H   0  0  0  0  0  0  0  0  0  0  0  0
   -2.6788    1.1559    1.8258 H   0  0  0  0  0  0  0  0  0  0  0  0
   -1.5225    3.7185    3.0386 H   0  0  0  0  0  0  0  0  0  0  0  0
   -2.3866    3.5942    1.4905 H   0  0  0  0  0  0  0  0  0  0  0  0
   -3.2421    3.2678    3.0116 H   0  0  0  0  0  0  0  0  0  0  0  0
   -0.5253    1.5199    0.2586 N   0  0  0  0  0  0  0  0  0  0  0  0
    0.5669    0.8953   -0.5063 C   0  0  2  0  0  0  0  0  0  0  0  0
    0.5174    1.4071   -1.9585 C   0  0  0  0  0  0  0  0  0  0  0  0
   -0.3751    1.0537   -2.7224 O   0  0  0  0  0  0  0  0  0  0  0  0
    0.4404   -0.6485   -0.5573 C   0  0  0  0  0  0  0  0  0  0  0  0
    0.6280   -1.3377    0.7727 C   0  0  0  0  0  0  0  0  0  0  0  0
    1.9145   -1.5838    1.2744 C   0  0  0  0  0  0  0  0  0  0  0  0
   -0.4834   -1.7967    1.4973 C   0  0  0  0  0  0  0  0  0  0  0  0
    2.0860   -2.2584    2.4887 C   0  0  0  0  0  0  0  0  0  0  0  0
   -0.3128   -2.4779    2.7059 C   0  0  0  0  0  0  0  0  0  0  0  0
    0.9721   -2.7062    3.2054 C   0  0  0  0  0  0  0  0  0  0  0  0
   -1.4325    1.5386   -0.2027 H   0  0  0  0  0  0  0  0  0  0  0  0
    1.5350    1.1621   -0.0697 H   0  0  0  0  0  0  0  0  0  0  0  0
    1.1885   -1.0427   -1.2535 H   0  0  0  0  0  0  0  0  0  0  0  0
   -0.5413   -0.9177   -0.9621 H   0  0  0  0  0  0  0  0  0  0  0  0
    2.7878   -1.2468    0.7251 H   0  0  0  0  0  0  0  0  0  0  0  0
   -1.4908   -1.6297    1.1267 H   0  0  0  0  0  0  0  0  0  0  0  0
    3.0858   -2.4371    2.8730 H   0  0  0  0  0  0  0  0  0  0  0  0
   -1.1849   -2.8280    3.2510 H   0  0  0  0  0  0  0  0  0  0  0  0
    1.1047   -3.2342    4.1448 H   0  0  0  0  0  0  0  0  0  0  0  0
    1.4402    2.3366   -2.4011 N   0  0  0  0  0  0  0  0  0  0  0  0
    1.4477    2.9167   -3.7532 C   0  0  2  0  0  0  0  0  0  0  0  0
    2.0117    1.9379   -4.8121 C   0  0  0  0  0  0  0  0  0  0  0  0
    3.0477    2.1738   -5.4216 O   0  0  0  0  0  0  0  0  0  0  0  0
    2.2308    4.2337   -3.6832 C   0  0  0  0  0  0  0  0  0  0  0  0
    2.1716    2.6152   -1.7522 H   0  0  0  0  0  0  0  0  0  0  0  0
    0.4221    3.1569   -4.0529 H   0  0  0  0  0  0  0  0  0  0  0  0
    3.2687    4.0510   -3.3859 H   0  0  0  0  0  0  0  0  0  0  0  0
    2.2335    4.7246   -4.6619 H   0  0  0  0  0  0  0  0  0  0  0  0
    1.7722    4.9133   -2.9583 H   0  0  0  0  0  0  0  0  0  0  0  0
    1.3373    0.7594   -5.0631 N   0  0  0  0  0  0  0  0  0  0  0  0
    1.8041   -0.2674   -5.9843 C   0  0  0  0  0  0  0  0  0  0  0  0
    0.5135    0.5788   -4.4838 H   0  0  0  0  0  0  0  0  0  0  0  0
    1.9220    0.1461   -6.9912 H   0  0  0  0  0  0  0  0  0  0  0  0
    2.7668   -0.6703   -5.6530 H   0  0  0  0  0  0  0  0  0  0  0  0
    1.0820   -1.0881   -6.0309 H   0  0  0  0  0  0  0  0  0  0  0  0
  1  2  2  0  0  0  0
  1  3  1  0  0  0  0
  1  7  1  0  0  0  0
  3  4  1  0  0  0  0
  3  5  1  0  0  0  0
  3  6  1  0  0  0  0
  7  8  1  0  0  0  0
  7 12  1  0  0  0  0
  8  9  1  0  0  0  0
  8 11  1  0  0  0  0
  8 13  1  0  0  0  0
  9 10  2  0  0  0  0
  9 17  1  0  0  0  0
 11 14  1  0  0  0  0
 11 15  1  0  0  0  0
 11 16  1  0  0  0  0
 17 18  1  0  0  0  0
 17 28  1  0  0  0  0
 18 19  1  0  0  0  0
 18 21  1  0  0  0  0
 18 29  1  0  0  0  0
 19 20  2  0  0  0  0
 19 37  1  0  0  0  0
 21 22  1  0  0  0  0
 21 30  1  0  0  0  0
 21 31  1  0  0  0  0
 22 23  1  0  0  0  0
 22 24  2  0  0  0  0
 23 25  2  0  0  0  0
 23 32  1  0  0  0  0
 24 26  1  0  0  0  0
 24 33  1  0  0  0  0
 25 27  1  0  0  0  0
 25 34  1  0  0  0  0
 26 27  2  0  0  0  0
 26 35  1  0  0  0  0
 27 36  1  0  0  0  0
 37 38  1  0  0  0  0
 37 42  1  0  0  0  0
 38 39  1  0  0  0  0
 38 41  1  0  0  0  0
 38 43  1  0  0  0  0
 39 40  2  0  0  0  0
 39 47  1  0  0  0  0
 41 44  1  0  0  0  0
 41 45  1  0  0  0  0
 41 46  1  0  0  0  0
 47 48  1  0  0  0  0
 47 49  1  0  0  0  0
 48 50  1  0  0  0  0
 48 51  1  0  0  0  0
 48 52  1  0  0  0  0
M  END
$$$$

  -OEChem-05262217163D

 52 52  0     1  0  0  0  0  0999 V2000
   -2.4298   -0.0519    4.0401 C   0  0  0  0  0  0  0  0  0  0  0  0
   -3.2095   -0.5906    3.2694 O   0  0  0  0  0  0  0  0  0  0  0  0
   -2.0693   -0.7306    5.3481 C   0  0  0  0  0  0  0  0  0  0  0  0
   -2.6235   -1.6676    5.4526 H   0  0  0  0  0  0  0  0  0  0  0  0
   -0.9987   -0.9497    5.3711 H   0  0  0  0  0  0  0  0  0  0  0  0
   -2.3185   -0.0784    6.1885 H   0  0  0  0  0  0  0  0  0  0  0  0
   -1.8450    1.1552    3.7195 N   0  0  0  0  0  0  0  0  0  0  0  0
   -1.8772    1.7309    2.3676 C   0  0  2  0  0  0  0  0  0  0  0  0
   -0.5309    1.5294    1.6430 C   0  0  0  0  0  0  0  0  0  0  0  0
    0.5093    1.4585    2.2895 O   0  0  0  0  0  0  0  0  0  0  0  0
   -2.2011    3.2204    2.5016 C   0  0  0  0  0  0  0  0  0  0  0  0
   -1.0383    1.4044    4.2880 H   0  0  0  0  0  0  0  0  0  0  0  0
   -2.6590    1.2598    1.7626 H   0  0  0  0  0  0  0  0  0  0  0  0
   -1.4330    3.7292    3.0931 H   0  0  0  0  0  0  0  0  0  0  0  0
   -2.2495    3.6920    1.5153 H   0  0  0  0  0  0  0  0  0  0  0  0
   -3.1684    3.3536    2.9963 H   0  0  0  0  0  0  0  0  0  0  0  0
   -0.4618    1.5365    0.2621 N   0  0  0  0  0  0  0  0  0  0  0  0
    0.6375    0.9090   -0.4893 C   0  0  2  0  0  0  0  0  0  0  0  0
    0.6173    1.4178   -1.9417 C   0  0  0  0  0  0  0  0  0  0  0  0
   -0.3824    1.2709   -2.6379 O   0  0  0  0  0  0  0  0  0  0  0  0
    0.4981   -0.6308   -0.5604 C   0  0  0  0  0  0  0  0  0  0  0  0
    0.6554   -1.3335    0.7659 C   0  0  0  0  0  0  0  0  0  0  0  0
    1.9315   -1.5944    1.2861 C   0  0  0  0  0  0  0  0  0  0  0  0
   -0.4718   -1.7890    1.4682 C   0  0  0  0  0  0  0  0  0  0  0  0
    2.0778   -2.2768    2.4991 C   0  0  0  0  0  0  0  0  0  0  0  0
   -0.3260   -2.4805    2.6746 C   0  0  0  0  0  0  0  0  0  0  0  0
    0.9489   -2.7199    3.1946 C   0  0  0  0  0  0  0  0  0  0  0  0
   -1.3551    1.5912   -0.2239 H   0  0  0  0  0  0  0  0  0  0  0  0
    1.5986    1.1685   -0.0341 H   0  0  0  0  0  0  0  0  0  0  0  0
    1.2553   -1.0251   -1.2465 H   0  0  0  0  0  0  0  0  0  0  0  0
   -0.4788   -0.8841   -0.9866 H   0  0  0  0  0  0  0  0  0  0  0  0
    2.8162   -1.2609    0.7530 H   0  0  0  0  0  0  0  0  0  0  0  0
   -1.4717   -1.6111    1.0818 H   0  0  0  0  0  0  0  0  0  0  0  0
    3.0697   -2.4646    2.8988 H   0  0  0  0  0  0  0  0  0  0  0  0
   -1.2092   -2.8302    3.2018 H   0  0  0  0  0  0  0  0  0  0  0  0
    1.0626   -3.2534    4.1334 H   0  0  0  0  0  0  0  0  0  0  0  0
    1.7064    2.0879   -2.4674 N   0  0  0  0  0  0  0  0  0  0  0  0
    1.7683    2.6162   -3.8391 C   0  0  2  0  0  0  0  0  0  0  0  0
    2.0029    1.5045   -4.8913 C   0  0  0  0  0  0  0  0  0  0  0  0
    3.0205    1.4648   -5.5721 O   0  0  0  0  0  0  0  0  0  0  0  0
    2.8572    3.6960   -3.8636 C   0  0  0  0  0  0  0  0  0  0  0  0
    2.5326    2.1718   -1.8810 H   0  0  0  0  0  0  0  0  0  0  0  0
    0.8164    3.0976   -4.0873 H   0  0  0  0  0  0  0  0  0  0  0  0
    3.8344    3.2637   -3.6246 H   0  0  0  0  0  0  0  0  0  0  0  0
    2.9150    4.1527   -4.8569 H   0  0  0  0  0  0  0  0  0  0  0  0
    2.6330    4.4821   -3.1361 H   0  0  0  0  0  0  0  0  0  0  0  0
    1.0484    0.5198   -5.0522 N   0  0  0  0  0  0  0  0  0  0  0  0
    1.1869   -0.6100   -5.9601 C   0  0  0  0  0  0  0  0  0  0  0  0
    0.2462    0.5603   -4.4182 H   0  0  0  0  0  0  0  0  0  0  0  0
    1.2735   -0.2612   -6.9943 H   0  0  0  0  0  0  0  0  0  0  0  0
    2.0770   -1.1963   -5.7092 H   0  0  0  0  0  0  0  0  0  0  0  0
    0.3107   -1.2614   -5.8868 H   0  0  0  0  0  0  0  0  0  0  0  0
  1  2  2  0  0  0  0
  1  3  1  0  0  0  0
  1  7  1  0  0  0  0
  3  4  1  0  0  0  0
  3  5  1  0  0  0  0
  3  6  1  0  0  0  0
  7  8  1  0  0  0  0
  7 12  1  0  0  0  0
  8  9  1  0  0  0  0
  8 11  1  0  0  0  0
  8 13  1  0  0  0  0
  9 10  2  0  0  0  0
  9 17  1  0  0  0  0
 11 14  1  0  0  0  0
 11 15  1  0  0  0  0
 11 16  1  0  0  0  0
 17 18  1  0  0  0  0
 17 28  1  0  0  0  0
 18 19  1  0  0  0  0
 18 21  1  0  0  0  0
 18 29  1  0  0  0  0
 19 20  2  0  0  0  0
 19 37  1  0  0  0  0
 21 22  1  0  0  0  0
 21 30  1  0  0  0  0
 21 31  1  0  0  0  0
 22 23  1  0  0  0  0
 22 24  2  0  0  0  0
 23 25  2  0  0  0  0
 23 32  1  0  0  0  0
 24 26  1  0  0  0  0
 24 33  1  0  0  0  0
 25 27  1  0  0  0  0
 25 34  1  0  0  0  0
 26 27  2  0  0  0  0
 26 35  1  0  0  0  0
 27 36  1  0  0  0  0
 37 38  1  0  0  0  0
 37 42  1  0  0  0  0
 38 39  1  0  0  0  0
 38 41  1  0  0  0  0
 38 43  1  0  0  0  0
 39 40  2  0  0  0  0
 39 47  1  0  0  0  0
 41 44  1  0  0  0  0
 41 45  1  0  0  0  0
 41 46  1  0  0  0  0
 47 48  1  0  0  0  0
 47 49  1  0  0  0  0
 48 50  1  0  0  0  0
 48 51  1  0  0  0  0
 48 52  1  0  0  0  0
M  END
$$$$

  -OEChem-05262217163D

 52 52  0     1  0  0  0  0  0999 V2000
   -2.4681   -0.0081    3.9853 C   0  0  0  0  0  0  0  0  0  0  0  0
   -3.2385   -0.5346    3.1968 O   0  0  0  0  0  0  0  0  0  0  0  0
   -2.1343   -0.7014    5.2929 C   0  0  0  0  0  0  0  0  0  0  0  0
   -2.6877   -1.6411    5.3731 H   0  0  0  0  0  0  0  0  0  0  0  0
   -1.0639   -0.9177    5.3362 H   0  0  0  0  0  0  0  0  0  0  0  0
   -2.4038   -0.0608    6.1360 H   0  0  0  0  0  0  0  0  0  0  0  0
   -1.8667    1.1958    3.6837 N   0  0  0  0  0  0  0  0  0  0  0  0
   -1.8578    1.7708    2.3310 C   0  0  2  0  0  0  0  0  0  0  0  0
   -0.5034    1.5347    1.6334 C   0  0  0  0  0  0  0  0  0  0  0  0
    0.5208    1.4287    2.3001 O   0  0  0  0  0  0  0  0  0  0  0  0
   -2.1454    3.2680    2.4567 C   0  0  0  0  0  0  0  0  0  0  0  0
   -1.0712    1.4356    4.2717 H   0  0  0  0  0  0  0  0  0  0  0  0
   -2.6392    1.3187    1.7112 H   0  0  0  0  0  0  0  0  0  0  0  0
   -1.3722    3.7576    3.0575 H   0  0  0  0  0  0  0  0  0  0  0  0
   -2.1676    3.7377    1.4685 H   0  0  0  0  0  0  0  0  0  0  0  0
   -3.1155    3.4280    2.9379 H   0  0  0  0  0  0  0  0  0  0  0  0
   -0.4078    1.5408    0.2546 N   0  0  0  0  0  0  0  0  0  0  0  0
    0.6953    0.9055   -0.4838 C   0  0  2  0  0  0  0  0  0  0  0  0
    0.7043    1.4148   -1.9359 C   0  0  0  0  0  0  0  0  0  0  0  0
   -0.3420    1.4830   -2.5740 O   0  0  0  0  0  0  0  0  0  0  0  0
    0.5292   -0.6306   -0.5706 C   0  0  0  0  0  0  0  0  0  0  0  0
    0.6505   -1.3481    0.7521 C   0  0  0  0  0  0  0  0  0  0  0  0
    1.9116   -1.6382    1.2937 C   0  0  0  0  0  0  0  0  0  0  0  0
   -0.4978   -1.7842    1.4316 C   0  0  0  0  0  0  0  0  0  0  0  0
    2.0226   -2.3342    2.5028 C   0  0  0  0  0  0  0  0  0  0  0  0
   -0.3880   -2.4867    2.6353 C   0  0  0  0  0  0  0  0  0  0  0  0
    0.8723   -2.7590    3.1747 C   0  0  0  0  0  0  0  0  0  0  0  0
   -1.2825    1.6471   -0.2565 H   0  0  0  0  0  0  0  0  0  0  0  0
    1.6521    1.1519   -0.0118 H   0  0  0  0  0  0  0  0  0  0  0  0
    1.2892   -1.0350   -1.2478 H   0  0  0  0  0  0  0  0  0  0  0  0
   -0.4454   -0.8600   -1.0155 H   0  0  0  0  0  0  0  0  0  0  0  0
    2.8123   -1.3177    0.7804 H   0  0  0  0  0  0  0  0  0  0  0  0
   -1.4867   -1.5814    1.0300 H   0  0  0  0  0  0  0  0  0  0  0  0
    3.0031   -2.5460    2.9185 H   0  0  0  0  0  0  0  0  0  0  0  0
   -1.2879   -2.8184    3.1454 H   0  0  0  0  0  0  0  0  0  0  0  0
    0.9579   -3.3025    4.1110 H   0  0  0  0  0  0  0  0  0  0  0  0
    1.8876    1.7911   -2.5439 N   0  0  0  0  0  0  0  0  0  0  0  0
    1.9897    2.2543   -3.9363 C   0  0  2  0  0  0  0  0  0  0  0  0
    1.9089    1.0873   -4.9510 C   0  0  0  0  0  0  0  0  0  0  0  0
    2.8511    0.7990   -5.6785 O   0  0  0  0  0  0  0  0  0  0  0  0
    3.2901    3.0597   -4.0536 C   0  0  0  0  0  0  0  0  0  0  0  0
    2.7458    1.6729   -2.0123 H   0  0  0  0  0  0  0  0  0  0  0  0
    1.1580    2.9317   -4.1581 H   0  0  0  0  0  0  0  0  0  0  0  0
    4.1581    2.4235   -3.8524 H   0  0  0  0  0  0  0  0  0  0  0  0
    3.3908    3.4717   -5.0628 H   0  0  0  0  0  0  0  0  0  0  0  0
    3.2908    3.8900   -3.3408 H   0  0  0  0  0  0  0  0  0  0  0  0
    0.7531    0.3345   -5.0170 N   0  0  0  0  0  0  0  0  0  0  0  0
    0.5837   -0.8278   -5.8779 C   0  0  0  0  0  0  0  0  0  0  0  0
    0.0165    0.5786   -4.3501 H   0  0  0  0  0  0  0  0  0  0  0  0
    0.6960   -0.5448   -6.9295 H   0  0  0  0  0  0  0  0  0  0  0  0
    1.3268   -1.5950   -5.6372 H   0  0  0  0  0  0  0  0  0  0  0  0
   -0.4136   -1.2565   -5.7398 H   0  0  0  0  0  0  0  0  0  0  0  0
  1  2  2  0  0  0  0
  1  3  1  0  0  0  0
  1  7  1  0  0  0  0
  3  4  1  0  0  0  0
  3  5  1  0  0  0  0
  3  6  1  0  0  0  0
  7  8  1  0  0  0  0
  7 12  1  0  0  0  0
  8  9  1  0  0  0  0
  8 11  1  0  0  0  0
  8 13  1  0  0  0  0
  9 10  2  0  0  0  0
  9 17  1  0  0  0  0
 11 14  1  0  0  0  0
 11 15  1  0  0  0  0
 11 16  1  0  0  0  0
 17 18  1  0  0  0  0
 17 28  1  0  0  0  0
 18 19  1  0  0  0  0
 18 21  1  0  0  0  0
 18 29  1  0  0  0  0
 19 20  2  0  0  0  0
 19 37  1  0  0  0  0
 21 22  1  0  0  0  0
 21 30  1  0  0  0  0
 21 31  1  0  0  0  0
 22 23  1  0  0  0  0
 22 24  2  0  0  0  0
 23 25  2  0  0  0  0
 23 32  1  0  0  0  0
 24 26  1  0  0  0  0
 24 33  1  0  0  0  0
 25 27  1  0  0  0  0
 25 34  1  0  0  0  0
 26 27  2  0  0  0  0
 26 35  1  0  0  0  0
 27 36  1  0  0  0  0
 37 38  1  0  0  0  0
 37 42  1  0  0  0  0
 38 39  1  0  0  0  0
 38 41  1  0  0  0  0
 38 43  1  0  0  0  0
 39 40  2  0  0  0  0
 39 47  1  0  0  0  0
 41 44  1  0  0  0  0
 41 45  1  0  0  0  0
 41 46  1  0  0  0  0
 47 48  1  0  0  0  0
 47 49  1  0  0  0  0
 48 50  1  0  0  0  0
 48 51  1  0  0  0  0
 48 52  1  0  0  0  0
M  END
$$$$

  -OEChem-05262217163D

 52 52  0     1  0  0  0  0  0999 V2000
   -2.5063    0.0358    3.9174 C   0  0  0  0  0  0  0  0  0  0  0  0
   -3.2599   -0.4722    3.1011 O   0  0  0  0  0  0  0  0  0  0  0  0
   -2.2261   -0.6711    5.2301 C   0  0  0  0  0  0  0  0  0  0  0  0
   -2.8512   -1.5639    5.3191 H   0  0  0  0  0  0  0  0  0  0  0  0
   -1.1755   -0.9692    5.2753 H   0  0  0  0  0  0  0  0  0  0  0  0
   -2.4445   -0.0041    6.0674 H   0  0  0  0  0  0  0  0  0  0  0  0
   -1.8784    1.2333    3.6460 N   0  0  0  0  0  0  0  0  0  0  0  0
   -1.8254    1.8231    2.3008 C   0  0  2  0  0  0  0  0  0  0  0  0
   -0.4680    1.5462    1.6233 C   0  0  0  0  0  0  0  0  0  0  0  0
    0.5412    1.4038    2.3063 O   0  0  0  0  0  0  0  0  0  0  0  0
   -2.0652    3.3279    2.4385 C   0  0  0  0  0  0  0  0  0  0  0  0
   -1.0943    1.4521    4.2568 H   0  0  0  0  0  0  0  0  0  0  0  0
   -2.6119    1.4060    1.6633 H   0  0  0  0  0  0  0  0  0  0  0  0
   -1.2864    3.7876    3.0557 H   0  0  0  0  0  0  0  0  0  0  0  0
   -2.0575    3.8076    1.4548 H   0  0  0  0  0  0  0  0  0  0  0  0
   -3.0370    3.5140    2.9065 H   0  0  0  0  0  0  0  0  0  0  0  0
   -0.3509    1.5490    0.2460 N   0  0  0  0  0  0  0  0  0  0  0  0
    0.7561    0.9062   -0.4811 C   0  0  2  0  0  0  0  0  0  0  0  0
    0.7932    1.4105   -1.9354 C   0  0  0  0  0  0  0  0  0  0  0  0
   -0.2496    1.6806   -2.5245 O   0  0  0  0  0  0  0  0  0  0  0  0
    0.5606   -0.6260   -0.5781 C   0  0  0  0  0  0  0  0  0  0  0  0
    0.6469   -1.3548    0.7409 C   0  0  0  0  0  0  0  0  0  0  0  0
    1.8933   -1.6741    1.2993 C   0  0  0  0  0  0  0  0  0  0  0  0
   -0.5206   -1.7731    1.3989 C   0  0  0  0  0  0  0  0  0  0  0  0
    1.9708   -2.3827    2.5036 C   0  0  0  0  0  0  0  0  0  0  0  0
   -0.4440   -2.4886    2.5974 C   0  0  0  0  0  0  0  0  0  0  0  0
    0.8020   -2.7908    3.1534 C   0  0  0  0  0  0  0  0  0  0  0  0
   -1.2076    1.7004   -0.2843 H   0  0  0  0  0  0  0  0  0  0  0  0
    1.7096    1.1376    0.0044 H   0  0  0  0  0  0  0  0  0  0  0  0
    1.3214   -1.0451   -1.2453 H   0  0  0  0  0  0  0  0  0  0  0  0
   -0.4116   -0.8318   -1.0392 H   0  0  0  0  0  0  0  0  0  0  0  0
    2.8081   -1.3670    0.8029 H   0  0  0  0  0  0  0  0  0  0  0  0
   -1.4991   -1.5454    0.9850 H   0  0  0  0  0  0  0  0  0  0  0  0
    2.9400   -2.6177    2.9328 H   0  0  0  0  0  0  0  0  0  0  0  0
   -1.3584   -2.8063    3.0902 H   0  0  0  0  0  0  0  0  0  0  0  0
    0.8620   -3.3437    4.0859 H   0  0  0  0  0  0  0  0  0  0  0  0
    1.9897    1.4815   -2.6253 N   0  0  0  0  0  0  0  0  0  0  0  0
    2.0997    1.8496   -4.0452 C   0  0  2  0  0  0  0  0  0  0  0  0
    1.7087    0.6815   -4.9832 C   0  0  0  0  0  0  0  0  0  0  0  0
    2.5268    0.1455   -5.7206 O   0  0  0  0  0  0  0  0  0  0  0  0
    3.5301    2.3511   -4.2809 C   0  0  0  0  0  0  0  0  0  0  0  0
    2.8288    1.1710   -2.1428 H   0  0  0  0  0  0  0  0  0  0  0  0
    1.4175    2.6790   -4.2618 H   0  0  0  0  0  0  0  0  0  0  0  0
    4.2566    1.5575   -4.0779 H   0  0  0  0  0  0  0  0  0  0  0  0
    3.6516    2.6724   -5.3204 H   0  0  0  0  0  0  0  0  0  0  0  0
    3.7485    3.2024   -3.6289 H   0  0  0  0  0  0  0  0  0  0  0  0
    0.4107    0.2107   -4.9635 N   0  0  0  0  0  0  0  0  0  0  0  0
   -0.0535   -0.9303   -5.7414 C   0  0  0  0  0  0  0  0  0  0  0  0
   -0.2148    0.6418   -4.2781 H   0  0  0  0  0  0  0  0  0  0  0  0
    0.0922   -0.7498   -6.8117 H   0  0  0  0  0  0  0  0  0  0  0  0
    0.4950   -1.8349   -5.4584 H   0  0  0  0  0  0  0  0  0  0  0  0
   -1.1195   -1.1001   -5.5622 H   0  0  0  0  0  0  0  0  0  0  0  0
  1  2  2  0  0  0  0
  1  3  1  0  0  0  0
  1  7  1  0  0  0  0
  3  4  1  0  0  0  0
  3  5  1  0  0  0  0
  3  6  1  0  0  0  0
  7  8  1  0  0  0  0
  7 12  1  0  0  0  0
  8  9  1  0  0  0  0
  8 11  1  0  0  0  0
  8 13  1  0  0  0  0
  9 10  2  0  0  0  0
  9 17  1  0  0  0  0
 11 14  1  0  0  0  0
 11 15  1  0  0  0  0
 11 16  1  0  0  0  0
 17 18  1  0  0  0  0
 17 28  1  0  0  0  0
 18 19  1  0  0  0  0
 18 21  1  0  0  0  0
 18 29  1  0  0  0  0
 19 20  2  0  0  0  0
 19 37  1  0  0  0  0
 21 22  1  0  0  0  0
 21 30  1  0  0  0  0
 21 31  1  0  0  0  0
 22 23  1  0  0  0  0
 22 24  2  0  0  0  0
 23 25  2  0  0  0  0
 23 32  1  0  0  0  0
 24 26  1  0  0  0  0
 24 33  1  0  0  0  0
 25 27  1  0  0  0  0
 25 34  1  0  0  0  0
 26 27  2  0  0  0  0
 26 35  1  0  0  0  0
 27 36  1  0  0  0  0
 37 38  1  0  0  0  0
 37 42  1  0  0  0  0
 38 39  1  0  0  0  0
 38 41  1  0  0  0  0
 38 43  1  0  0  0  0
 39 40  2  0  0  0  0
 39 47  1  0  0  0  0
 41 44  1  0  0  0  0
 41 45  1  0  0  0  0
 41 46  1  0  0  0  0
 47 48  1  0  0  0  0
 47 49  1  0  0  0  0
 48 50  1  0  0  0  0
 48 51  1  0  0  0  0
 48 52  1  0  0  0  0
M  END
$$$$

  -OEChem-05262217163D

 52 52  0     1  0  0  0  0  0999 V2000
   -2.5680    0.0798    3.7947 C   0  0  0  0  0  0  0  0  0  0  0  0
   -3.2638   -0.4186    2.9228 O   0  0  0  0  0  0  0  0  0  0  0  0
   -2.3718   -0.6471    5.1118 C   0  0  0  0  0  0  0  0  0  0  0  0
   -2.9109   -1.5985    5.1020 H   0  0  0  0  0  0  0  0  0  0  0  0
   -1.3091   -0.8464    5.2717 H   0  0  0  0  0  0  0  0  0  0  0  0
   -2.7495   -0.0369    5.9356 H   0  0  0  0  0  0  0  0  0  0  0  0
   -1.9283    1.2830    3.5809 N   0  0  0  0  0  0  0  0  0  0  0  0
   -1.7976    1.8879    2.2478 C   0  0  2  0  0  0  0  0  0  0  0  0
   -0.4396    1.5416    1.6040 C   0  0  0  0  0  0  0  0  0  0  0  0
    0.5485    1.3698    2.3100 O   0  0  0  0  0  0  0  0  0  0  0  0
   -1.9528    3.4021    2.4027 C   0  0  0  0  0  0  0  0  0  0  0  0
   -1.1856    1.4969    4.2427 H   0  0  0  0  0  0  0  0  0  0  0  0
   -2.5892    1.5282    1.5822 H   0  0  0  0  0  0  0  0  0  0  0  0
   -1.1644    3.8057    3.0463 H   0  0  0  0  0  0  0  0  0  0  0  0
   -1.8913    3.8940    1.4269 H   0  0  0  0  0  0  0  0  0  0  0  0
   -2.9239    3.6393    2.8487 H   0  0  0  0  0  0  0  0  0  0  0  0
   -0.2967    1.5206    0.2297 N   0  0  0  0  0  0  0  0  0  0  0  0
    0.8154    0.8675   -0.4806 C   0  0  2  0  0  0  0  0  0  0  0  0
    0.8732    1.3512   -1.9434 C   0  0  0  0  0  0  0  0  0  0  0  0
   -0.1168    1.8440   -2.4775 O   0  0  0  0  0  0  0  0  0  0  0  0
    0.6101   -0.6660   -0.5560 C   0  0  0  0  0  0  0  0  0  0  0  0
    0.6814   -1.3793    0.7722 C   0  0  0  0  0  0  0  0  0  0  0  0
    1.9225   -1.6996    1.3420 C   0  0  0  0  0  0  0  0  0  0  0  0
   -0.4922   -1.7890    1.4244 C   0  0  0  0  0  0  0  0  0  0  0  0
    1.9892   -2.3993    2.5520 C   0  0  0  0  0  0  0  0  0  0  0  0
   -0.4267   -2.4947    2.6295 C   0  0  0  0  0  0  0  0  0  0  0  0
    0.8143   -2.7976    3.1967 C   0  0  0  0  0  0  0  0  0  0  0  0
   -1.1267    1.7276   -0.3236 H   0  0  0  0  0  0  0  0  0  0  0  0
    1.7651    1.1032    0.0107 H   0  0  0  0  0  0  0  0  0  0  0  0
    1.3708   -1.1042   -1.2103 H   0  0  0  0  0  0  0  0  0  0  0  0
   -0.3609   -0.8691   -1.0212 H   0  0  0  0  0  0  0  0  0  0  0  0
    2.8425   -1.4002    0.8506 H   0  0  0  0  0  0  0  0  0  0  0  0
   -1.4664   -1.5619    1.0004 H   0  0  0  0  0  0  0  0  0  0  0  0
    2.9545   -2.6346    2.9895 H   0  0  0  0  0  0  0  0  0  0  0  0
   -1.3451   -2.8067    3.1183 H   0  0  0  0  0  0  0  0  0  0  0  0
    0.8658   -3.3445    4.1333 H   0  0  0  0  0  0  0  0  0  0  0  0
    2.0004    1.1231   -2.7125 N   0  0  0  0  0  0  0  0  0  0  0  0
    2.0953    1.4254   -4.1489 C   0  0  2  0  0  0  0  0  0  0  0  0
    1.3736    0.3672   -5.0189 C   0  0  0  0  0  0  0  0  0  0  0  0
    1.9848   -0.3476   -5.8036 O   0  0  0  0  0  0  0  0  0  0  0  0
    3.5842    1.5633   -4.4910 C   0  0  0  0  0  0  0  0  0  0  0  0
    2.7698    0.6222   -2.2763 H   0  0  0  0  0  0  0  0  0  0  0  0
    1.6169    2.3896   -4.3522 H   0  0  0  0  0  0  0  0  0  0  0  0
    4.1106    0.6198   -4.3138 H   0  0  0  0  0  0  0  0  0  0  0  0
    3.7064    1.8339   -5.5448 H   0  0  0  0  0  0  0  0  0  0  0  0
    4.0460    2.3438   -3.8787 H   0  0  0  0  0  0  0  0  0  0  0  0
    0.0091    0.2049   -4.8832 N   0  0  0  0  0  0  0  0  0  0  0  0
   -0.7673   -0.8032   -5.5915 C   0  0  0  0  0  0  0  0  0  0  0  0
   -0.4456    0.7832   -4.1723 H   0  0  0  0  0  0  0  0  0  0  0  0
   -0.6643   -0.6753   -6.6740 H   0  0  0  0  0  0  0  0  0  0  0  0
   -0.4276   -1.8081   -5.3202 H   0  0  0  0  0  0  0  0  0  0  0  0
   -1.8266   -0.7133   -5.3325 H   0  0  0  0  0  0  0  0  0  0  0  0
  1  2  2  0  0  0  0
  1  3  1  0  0  0  0
  1  7  1  0  0  0  0
  3  4  1  0  0  0  0
  3  5  1  0  0  0  0
  3  6  1  0  0  0  0
  7  8  1  0  0  0  0
  7 12  1  0  0  0  0
  8  9  1  0  0  0  0
  8 11  1  0  0  0  0
  8 13  1  0  0  0  0
  9 10  2  0  0  0  0
  9 17  1  0  0  0  0
 11 14  1  0  0  0  0
 11 15  1  0  0  0  0
 11 16  1  0  0  0  0
 17 18  1  0  0  0  0
 17 28  1  0  0  0  0
 18 19  1  0  0  0  0
 18 21  1  0  0  0  0
 18 29  1  0  0  0  0
 19 20  2  0  0  0  0
 19 37  1  0  0  0  0
 21 22  1  0  0  0  0
 21 30  1  0  0  0  0
 21 31  1  0  0  0  0
 22 23  1  0  0  0  0
 22 24  2  0  0  0  0
 23 25  2  0  0  0  0
 23 32  1  0  0  0  0
 24 26  1  0  0  0  0
 24 33  1  0  0  0  0
 25 27  1  0  0  0  0
 25 34  1  0  0  0  0
 26 27  2  0  0  0  0
 26 35  1  0  0  0  0
 27 36  1  0  0  0  0
 37 38  1  0  0  0  0
 37 42  1  0  0  0  0
 38 39  1  0  0  0  0
 38 41  1  0  0  0  0
 38 43  1  0  0  0  0
 39 40  2  0  0  0  0
 39 47  1  0  0  0  0
 41 44  1  0  0  0  0
 41 45  1  0  0  0  0
 41 46  1  0  0  0  0
 47 48  1  0  0  0  0
 47 49  1  0  0  0  0
 48 50  1  0  0  0  0
 48 51  1  0  0  0  0
 48 52  1  0  0  0  0
M  END
$$$$

  -OEChem-05262217163D

 52 52  0     1  0  0  0  0  0999 V2000
   -2.7264    0.0944    3.6368 C   0  0  0  0  0  0  0  0  0  0  0  0
   -3.4395   -0.2308    2.6995 O   0  0  0  0  0  0  0  0  0  0  0  0
   -2.6706   -0.7706    4.8816 C   0  0  0  0  0  0  0  0  0  0  0  0
   -3.3777   -1.6002    4.7971 H   0  0  0  0  0  0  0  0  0  0  0  0
   -1.6635   -1.1764    5.0073 H   0  0  0  0  0  0  0  0  0  0  0  0
   -2.9297   -0.1764    5.7611 H   0  0  0  0  0  0  0  0  0  0  0  0
   -1.9392    1.2246    3.5604 N   0  0  0  0  0  0  0  0  0  0  0  0
   -1.6772    1.9198    2.2928 C   0  0  2  0  0  0  0  0  0  0  0  0
   -0.3820    1.4050    1.6330 C   0  0  0  0  0  0  0  0  0  0  0  0
    0.5700    1.0753    2.3331 O   0  0  0  0  0  0  0  0  0  0  0  0
   -1.5765    3.4177    2.5872 C   0  0  0  0  0  0  0  0  0  0  0  0
   -1.2048    1.2831    4.2618 H   0  0  0  0  0  0  0  0  0  0  0  0
   -2.5035    1.7636    1.5915 H   0  0  0  0  0  0  0  0  0  0  0  0
   -0.7503    3.6202    3.2764 H   0  0  0  0  0  0  0  0  0  0  0  0
   -1.4025    3.9773    1.6629 H   0  0  0  0  0  0  0  0  0  0  0  0
   -2.5057    3.7775    3.0399 H   0  0  0  0  0  0  0  0  0  0  0  0
   -0.2621    1.3675    0.2564 N   0  0  0  0  0  0  0  0  0  0  0  0
    0.8473    0.7261   -0.4694 C   0  0  2  0  0  0  0  0  0  0  0  0
    1.1172    1.4410   -1.8115 C   0  0  0  0  0  0  0  0  0  0  0  0
    0.3695    2.3302   -2.2091 O   0  0  0  0  0  0  0  0  0  0  0  0
    0.4713   -0.7434   -0.7719 C   0  0  0  0  0  0  0  0  0  0  0  0
    0.3652   -1.5985    0.4679 C   0  0  0  0  0  0  0  0  0  0  0  0
    1.5163   -2.1297    1.0684 C   0  0  0  0  0  0  0  0  0  0  0  0
   -0.8895   -1.8903    1.0251 C   0  0  0  0  0  0  0  0  0  0  0  0
    1.4152   -2.9356    2.2079 C   0  0  0  0  0  0  0  0  0  0  0  0
   -0.9919   -2.6965    2.1626 C   0  0  0  0  0  0  0  0  0  0  0  0
    0.1604   -3.2198    2.7556 C   0  0  0  0  0  0  0  0  0  0  0  0
   -1.0281    1.7480   -0.2958 H   0  0  0  0  0  0  0  0  0  0  0  0
    1.7668    0.7646    0.1241 H   0  0  0  0  0  0  0  0  0  0  0  0
    1.2237   -1.1940   -1.4263 H   0  0  0  0  0  0  0  0  0  0  0  0
   -0.4786   -0.7674   -1.3165 H   0  0  0  0  0  0  0  0  0  0  0  0
    2.4964   -1.9140    0.6558 H   0  0  0  0  0  0  0  0  0  0  0  0
   -1.7961   -1.4859    0.5836 H   0  0  0  0  0  0  0  0  0  0  0  0
    2.3122   -3.3391    2.6677 H   0  0  0  0  0  0  0  0  0  0  0  0
   -1.9711   -2.9100    2.5813 H   0  0  0  0  0  0  0  0  0  0  0  0
    0.0809   -3.8456    3.6393 H   0  0  0  0  0  0  0  0  0  0  0  0
    2.1223    1.0044   -2.6569 N   0  0  0  0  0  0  0  0  0  0  0  0
    2.3968    1.5755   -3.9846 C   0  0  2  0  0  0  0  0  0  0  0  0
    1.4146    1.0556   -5.0618 C   0  0  0  0  0  0  0  0  0  0  0  0
    1.7949    0.3785   -6.0091 O   0  0  0  0  0  0  0  0  0  0  0  0
    3.8634    1.2744   -4.3183 C   0  0  0  0  0  0  0  0  0  0  0  0
    2.6709    0.2036   -2.3562 H   0  0  0  0  0  0  0  0  0  0  0  0
    2.2825    2.6642   -3.9446 H   0  0  0  0  0  0  0  0  0  0  0  0
    4.0326    0.1945   -4.3786 H   0  0  0  0  0  0  0  0  0  0  0  0
    4.1307    1.7196   -5.2820 H   0  0  0  0  0  0  0  0  0  0  0  0
    4.5237    1.6907   -3.5514 H   0  0  0  0  0  0  0  0  0  0  0  0
    0.0702    1.3430   -4.9365 N   0  0  0  0  0  0  0  0  0  0  0  0
   -0.9555    0.8553   -5.8482 C   0  0  0  0  0  0  0  0  0  0  0  0
   -0.2045    1.8563   -4.0952 H   0  0  0  0  0  0  0  0  0  0  0  0
   -0.7524    1.1933   -6.8699 H   0  0  0  0  0  0  0  0  0  0  0  0
   -0.9872   -0.2392   -5.8382 H   0  0  0  0  0  0  0  0  0  0  0  0
   -1.9375    1.2337   -5.5485 H   0  0  0  0  0  0  0  0  0  0  0  0
  1  2  2  0  0  0  0
  1  3  1  0  0  0  0
  1  7  1  0  0  0  0
  3  4  1  0  0  0  0
  3  5  1  0  0  0  0
  3  6  1  0  0  0  0
  7  8  1  0  0  0  0
  7 12  1  0  0  0  0
  8  9  1  0  0  0  0
  8 11  1  0  0  0  0
  8 13  1  0  0  0  0
  9 10  2  0  0  0  0
  9 17  1  0  0  0  0
 11 14  1  0  0  0  0
 11 15  1  0  0  0  0
 11 16  1  0  0  0  0
 17 18  1  0  0  0  0
 17 28  1  0  0  0  0
 18 19  1  0  0  0  0
 18 21  1  0  0  0  0
 18 29  1  0  0  0  0
 19 20  2  0  0  0  0
 19 37  1  0  0  0  0
 21 22  1  0  0  0  0
 21 30  1  0  0  0  0
 21 31  1  0  0  0  0
 22 23  1  0  0  0  0
 22 24  2  0  0  0  0
 23 25  2  0  0  0  0
 23 32  1  0  0  0  0
 24 26  1  0  0  0  0
 24 33  1  0  0  0  0
 25 27  1  0  0  0  0
 25 34  1  0  0  0  0
 26 27  2  0  0  0  0
 26 35  1  0  0  0  0
 27 36  1  0  0  0  0
 37 38  1  0  0  0  0
 37 42  1  0  0  0  0
 38 39  1  0  0  0  0
 38 41  1  0  0  0  0
 38 43  1  0  0  0  0
 39 40  2  0  0  0  0
 39 47  1  0  0  0  0
 41 44  1  0  0  0  0
 41 45  1  0  0  0  0
 41 46  1  0  0  0  0
 47 48  1  0  0  0  0
 47 49  1  0  0  0  0
 48 50  1  0  0  0  0
 48 51  1  0  0  0  0
 48 52  1  0  0  0  0
M  END
$$$$

  -OEChem-05262217163D

 52 52  0     1  0  0  0  0  0999 V2000
   -2.7374    0.1786    3.5915 C   0  0  0  0  0  0  0  0  0  0  0  0
   -3.4335   -0.1755    2.6517 O   0  0  0  0  0  0  0  0  0  0  0  0
   -2.6999   -0.6502    4.8614 C   0  0  0  0  0  0  0  0  0  0  0  0
   -3.4290   -1.4630    4.8033 H   0  0  0  0  0  0  0  0  0  0  0  0
   -1.7031   -1.0783    4.9960 H   0  0  0  0  0  0  0  0  0  0  0  0
   -2.9394   -0.0236    5.7239 H   0  0  0  0  0  0  0  0  0  0  0  0
   -1.9495    1.3069    3.4956 N   0  0  0  0  0  0  0  0  0  0  0  0
   -1.6556    1.9503    2.2081 C   0  0  2  0  0  0  0  0  0  0  0  0
   -0.3696    1.3755    1.5813 C   0  0  0  0  0  0  0  0  0  0  0  0
    0.5600    1.0307    2.3036 O   0  0  0  0  0  0  0  0  0  0  0  0
   -1.5113    3.4536    2.4517 C   0  0  0  0  0  0  0  0  0  0  0  0
   -1.2268    1.3832    4.2073 H   0  0  0  0  0  0  0  0  0  0  0  0
   -2.4802    1.7938    1.5046 H   0  0  0  0  0  0  0  0  0  0  0  0
   -0.6909    3.6529    3.1488 H   0  0  0  0  0  0  0  0  0  0  0  0
   -1.3024    3.9738    1.5116 H   0  0  0  0  0  0  0  0  0  0  0  0
   -2.4359    3.8591    2.8742 H   0  0  0  0  0  0  0  0  0  0  0  0
   -0.2302    1.3056    0.2082 N   0  0  0  0  0  0  0  0  0  0  0  0
    0.8872    0.6439   -0.4869 C   0  0  2  0  0  0  0  0  0  0  0  0
    1.1700    1.3371   -1.8423 C   0  0  0  0  0  0  0  0  0  0  0  0
    0.5867    2.3750   -2.1433 O   0  0  0  0  0  0  0  0  0  0  0  0
    0.5038   -0.8349   -0.7463 C   0  0  0  0  0  0  0  0  0  0  0  0
    0.3789   -1.6554    0.5156 C   0  0  0  0  0  0  0  0  0  0  0  0
    1.5181   -2.1790    1.1456 C   0  0  0  0  0  0  0  0  0  0  0  0
   -0.8850   -1.9263    1.0631 C   0  0  0  0  0  0  0  0  0  0  0  0
    1.3954   -2.9554    2.3037 C   0  0  0  0  0  0  0  0  0  0  0  0
   -1.0089   -2.7038    2.2184 C   0  0  0  0  0  0  0  0  0  0  0  0
    0.1315   -3.2198    2.8400 C   0  0  0  0  0  0  0  0  0  0  0  0
   -0.9597    1.7278   -0.3619 H   0  0  0  0  0  0  0  0  0  0  0  0
    1.8016    0.6952    0.1139 H   0  0  0  0  0  0  0  0  0  0  0  0
    1.2617   -1.3144   -1.3722 H   0  0  0  0  0  0  0  0  0  0  0  0
   -0.4392   -0.8699   -1.3028 H   0  0  0  0  0  0  0  0  0  0  0  0
    2.5059   -1.9800    0.7428 H   0  0  0  0  0  0  0  0  0  0  0  0
   -1.7829   -1.5271    0.6000 H   0  0  0  0  0  0  0  0  0  0  0  0
    2.2828   -3.3517    2.7875 H   0  0  0  0  0  0  0  0  0  0  0  0
   -1.9953   -2.9002    2.6286 H   0  0  0  0  0  0  0  0  0  0  0  0
    0.0358   -3.8232    3.7376 H   0  0  0  0  0  0  0  0  0  0  0  0
    1.9534    0.7356   -2.8131 N   0  0  0  0  0  0  0  0  0  0  0  0
    2.1593    1.2732   -4.1674 C   0  0  2  0  0  0  0  0  0  0  0  0
    0.9591    0.9834   -5.1010 C   0  0  0  0  0  0  0  0  0  0  0  0
    1.0664    0.2648   -6.0870 O   0  0  0  0  0  0  0  0  0  0  0  0
    3.4790    0.6962   -4.6949 C   0  0  0  0  0  0  0  0  0  0  0  0
    2.3497   -0.1742   -2.5951 H   0  0  0  0  0  0  0  0  0  0  0  0
    2.2706    2.3618   -4.1166 H   0  0  0  0  0  0  0  0  0  0  0  0
    3.4235   -0.3949   -4.7661 H   0  0  0  0  0  0  0  0  0  0  0  0
    3.6953    1.0963   -5.6906 H   0  0  0  0  0  0  0  0  0  0  0  0
    4.3057    0.9632   -4.0297 H   0  0  0  0  0  0  0  0  0  0  0  0
   -0.2704    1.5340   -4.7995 N   0  0  0  0  0  0  0  0  0  0  0  0
   -1.4825    1.2996   -5.5723 C   0  0  0  0  0  0  0  0  0  0  0  0
   -0.3189    2.0804   -3.9360 H   0  0  0  0  0  0  0  0  0  0  0  0
   -1.3475    1.6314   -6.6070 H   0  0  0  0  0  0  0  0  0  0  0  0
   -1.7363    0.2345   -5.5739 H   0  0  0  0  0  0  0  0  0  0  0  0
   -2.3191    1.8553   -5.1384 H   0  0  0  0  0  0  0  0  0  0  0  0
  1  2  2  0  0  0  0
  1  3  1  0  0  0  0
  1  7  1  0  0  0  0
  3  4  1  0  0  0  0
  3  5  1  0  0  0  0
  3  6  1  0  0  0  0
  7  8  1  0  0  0  0
  7 12  1  0  0  0  0
  8  9  1  0  0  0  0
  8 11  1  0  0  0  0
  8 13  1  0  0  0  0
  9 10  2  0  0  0  0
  9 17  1  0  0  0  0
 11 14  1  0  0  0  0
 11 15  1  0  0  0  0
 11 16  1  0  0  0  0
 17 18  1  0  0  0  0
 17 28  1  0  0  0  0
 18 19  1  0  0  0  0
 18 21  1  0  0  0  0
 18 29  1  0  0  0  0
 19 20  2  0  0  0  0
 19 37  1  0  0  0  0
 21 22  1  0  0  0  0
 21 30  1  0  0  0  0
 21 31  1  0  0  0  0
 22 23  1  0  0  0  0
 22 24  2  0  0  0  0
 23 25  2  0  0  0  0
 23 32  1  0  0  0  0
 24 26  1  0  0  0  0
 24 33  1  0  0  0  0
 25 27  1  0  0  0  0
 25 34  1  0  0  0  0
 26 27  2  0  0  0  0
 26 35  1  0  0  0  0
 27 36  1  0  0  0  0
 37 38  1  0  0  0  0
 37 42  1  0  0  0  0
 38 39  1  0  0  0  0
 38 41  1  0  0  0  0
 38 43  1  0  0  0  0
 39 40  2  0  0  0  0
 39 47  1  0  0  0  0
 41 44  1  0  0  0  0
 41 45  1  0  0  0  0
 41 46  1  0  0  0  0
 47 48  1  0  0  0  0
 47 49  1  0  0  0  0
 48 50  1  0  0  0  0
 48 51  1  0  0  0  0
 48 52  1  0  0  0  0
M  END
$$$$

  -OEChem-05262217163D

 52 52  0     1  0  0  0  0  0999 V2000
   -2.7414    0.2437    3.5364 C   0  0  0  0  0  0  0  0  0  0  0  0
   -3.4304   -0.1118    2.5918 O   0  0  0  0  0  0  0  0  0  0  0  0
   -2.7409   -0.5663    4.8192 C   0  0  0  0  0  0  0  0  0  0  0  0
   -3.4310   -1.4100    4.7326 H   0  0  0  0  0  0  0  0  0  0  0  0
   -1.7368   -0.9510    5.0157 H   0  0  0  0  0  0  0  0  0  0  0  0
   -3.0544    0.0609    5.6572 H   0  0  0  0  0  0  0  0  0  0  0  0
   -1.9310    1.3554    3.4330 N   0  0  0  0  0  0  0  0  0  0  0  0
   -1.6155    1.9784    2.1402 C   0  0  2  0  0  0  0  0  0  0  0  0
   -0.3415    1.3671    1.5237 C   0  0  0  0  0  0  0  0  0  0  0  0
    0.5883    1.0369    2.2526 O   0  0  0  0  0  0  0  0  0  0  0  0
   -1.4356    3.4807    2.3673 C   0  0  0  0  0  0  0  0  0  0  0  0
   -1.2158    1.4317    4.1524 H   0  0  0  0  0  0  0  0  0  0  0  0
   -2.4410    1.8351    1.4351 H   0  0  0  0  0  0  0  0  0  0  0  0
   -0.6080    3.6687    3.0590 H   0  0  0  0  0  0  0  0  0  0  0  0
   -1.2179    3.9858    1.4209 H   0  0  0  0  0  0  0  0  0  0  0  0
   -2.3488    3.9125    2.7886 H   0  0  0  0  0  0  0  0  0  0  0  0
   -0.2137    1.2483    0.1517 N   0  0  0  0  0  0  0  0  0  0  0  0
    0.8947    0.5518   -0.5252 C   0  0  2  0  0  0  0  0  0  0  0  0
    1.1698    1.2000   -1.9069 C   0  0  0  0  0  0  0  0  0  0  0  0
    0.8055    2.3508   -2.1291 O   0  0  0  0  0  0  0  0  0  0  0  0
    0.5038   -0.9366   -0.7138 C   0  0  0  0  0  0  0  0  0  0  0  0
    0.3885   -1.7013    0.5828 C   0  0  0  0  0  0  0  0  0  0  0  0
    1.5318   -2.2013    1.2238 C   0  0  0  0  0  0  0  0  0  0  0  0
   -0.8721   -1.9490    1.1489 C   0  0  0  0  0  0  0  0  0  0  0  0
    1.4169   -2.9264    2.4153 C   0  0  0  0  0  0  0  0  0  0  0  0
   -0.9880   -2.6763    2.3368 C   0  0  0  0  0  0  0  0  0  0  0  0
    0.1567   -3.1649    2.9723 C   0  0  0  0  0  0  0  0  0  0  0  0
   -0.9426    1.6609   -0.4250 H   0  0  0  0  0  0  0  0  0  0  0  0
    1.8148    0.6231    0.0645 H   0  0  0  0  0  0  0  0  0  0  0  0
    1.2591   -1.4476   -1.3170 H   0  0  0  0  0  0  0  0  0  0  0  0
   -0.4423   -0.9952   -1.2626 H   0  0  0  0  0  0  0  0  0  0  0  0
    2.5165   -2.0206    0.8048 H   0  0  0  0  0  0  0  0  0  0  0  0
   -1.7732   -1.5703    0.6746 H   0  0  0  0  0  0  0  0  0  0  0  0
    2.3079   -3.3020    2.9091 H   0  0  0  0  0  0  0  0  0  0  0  0
   -1.9714   -2.8553    2.7613 H   0  0  0  0  0  0  0  0  0  0  0  0
    0.0677   -3.7281    3.8963 H   0  0  0  0  0  0  0  0  0  0  0  0
    1.6683    0.4758   -2.9778 N   0  0  0  0  0  0  0  0  0  0  0  0
    1.8274    1.0068   -4.3409 C   0  0  2  0  0  0  0  0  0  0  0  0
    0.4892    1.0287   -5.1171 C   0  0  0  0  0  0  0  0  0  0  0  0
    0.2939    0.3063   -6.0867 O   0  0  0  0  0  0  0  0  0  0  0  0
    2.9071    0.1695   -5.0379 C   0  0  0  0  0  0  0  0  0  0  0  0
    1.8568   -0.5107   -2.8268 H   0  0  0  0  0  0  0  0  0  0  0  0
    2.1891    2.0398   -4.2938 H   0  0  0  0  0  0  0  0  0  0  0  0
    2.6008   -0.8796   -5.1037 H   0  0  0  0  0  0  0  0  0  0  0  0
    3.0789    0.5430   -6.0527 H   0  0  0  0  0  0  0  0  0  0  0  0
    3.8501    0.2263   -4.4855 H   0  0  0  0  0  0  0  0  0  0  0  0
   -0.5224    1.8602   -4.6802 N   0  0  0  0  0  0  0  0  0  0  0  0
   -1.8554    1.8958   -5.2658 C   0  0  0  0  0  0  0  0  0  0  0  0
   -0.3354    2.3786   -3.8184 H   0  0  0  0  0  0  0  0  0  0  0  0
   -1.7985    2.1218   -6.3358 H   0  0  0  0  0  0  0  0  0  0  0  0
   -2.3560    0.9306   -5.1356 H   0  0  0  0  0  0  0  0  0  0  0  0
   -2.4591    2.6695   -4.7817 H   0  0  0  0  0  0  0  0  0  0  0  0
  1  2  2  0  0  0  0
  1  3  1  0  0  0  0
  1  7  1  0  0  0  0
  3  4  1  0  0  0  0
  3  5  1  0  0  0  0
  3  6  1  0  0  0  0
  7  8  1  0  0  0  0
  7 12  1  0  0  0  0
  8  9  1  0  0  0  0
  8 11  1  0  0  0  0
  8 13  1  0  0  0  0
  9 10  2  0  0  0  0
  9 17  1  0  0  0  0
 11 14  1  0  0  0  0
 11 15  1  0  0  0  0
 11 16  1  0  0  0  0
 17 18  1  0  0  0  0
 17 28  1  0  0  0  0
 18 19  1  0  0  0  0
 18 21  1  0  0  0  0
 18 29  1  0  0  0  0
 19 20  2  0  0  0  0
 19 37  1  0  0  0  0
 21 22  1  0  0  0  0
 21 30  1  0  0  0  0
 21 31  1  0  0  0  0
 22 23  1  0  0  0  0
 22 24  2  0  0  0  0
 23 25  2  0  0  0  0
 23 32  1  0  0  0  0
 24 26  1  0  0  0  0
 24 33  1  0  0  0  0
 25 27  1  0  0  0  0
 25 34  1  0  0  0  0
 26 27  2  0  0  0  0
 26 35  1  0  0  0  0
 27 36  1  0  0  0  0
 37 38  1  0  0  0  0
 37 42  1  0  0  0  0
 38 39  1  0  0  0  0
 38 41  1  0  0  0  0
 38 43  1  0  0  0  0
 39 40  2  0  0  0  0
 39 47  1  0  0  0  0
 41 44  1  0  0  0  0
 41 45  1  0  0  0  0
 41 46  1  0  0  0  0
 47 48  1  0  0  0  0
 47 49  1  0  0  0  0
 48 50  1  0  0  0  0
 48 51  1  0  0  0  0
 48 52  1  0  0  0  0
M  END
$$$$

  -OEChem-05262217163D

 52 52  0     1  0  0  0  0  0999 V2000
   -2.8039    0.3036    3.3474 C   0  0  0  0  0  0  0  0  0  0  0  0
   -3.4105   -0.0227    2.3381 O   0  0  0  0  0  0  0  0  0  0  0  0
   -2.9515   -0.5126    4.6174 C   0  0  0  0  0  0  0  0  0  0  0  0
   -3.6379   -1.3477    4.4513 H   0  0  0  0  0  0  0  0  0  0  0  0
   -1.9796   -0.9100    4.9203 H   0  0  0  0  0  0  0  0  0  0  0  0
   -3.3477    0.1147    5.4195 H   0  0  0  0  0  0  0  0  0  0  0  0
   -1.9603    1.3950    3.3307 N   0  0  0  0  0  0  0  0  0  0  0  0
   -1.5517    2.0505    2.0818 C   0  0  2  0  0  0  0  0  0  0  0  0
   -0.3087    1.3727    1.4727 C   0  0  0  0  0  0  0  0  0  0  0  0
    0.6324    1.0678    2.1970 O   0  0  0  0  0  0  0  0  0  0  0  0
   -1.2643    3.5221    2.3877 C   0  0  0  0  0  0  0  0  0  0  0  0
   -1.3076    1.4523    4.1085 H   0  0  0  0  0  0  0  0  0  0  0  0
   -2.3638    2.0070    1.3486 H   0  0  0  0  0  0  0  0  0  0  0  0
   -0.4491    3.6118    3.1131 H   0  0  0  0  0  0  0  0  0  0  0  0
   -0.9744    4.0504    1.4740 H   0  0  0  0  0  0  0  0  0  0  0  0
   -2.1548    4.0059    2.8004 H   0  0  0  0  0  0  0  0  0  0  0  0
   -0.2184    1.1851    0.1058 N   0  0  0  0  0  0  0  0  0  0  0  0
    0.8703    0.4554   -0.5677 C   0  0  2  0  0  0  0  0  0  0  0  0
    1.0947    1.0437   -1.9843 C   0  0  0  0  0  0  0  0  0  0  0  0
    1.0038    2.2539   -2.1615 O   0  0  0  0  0  0  0  0  0  0  0  0
    0.5140   -1.0504   -0.6553 C   0  0  0  0  0  0  0  0  0  0  0  0
    0.4659   -1.7413    0.6862 C   0  0  0  0  0  0  0  0  0  0  0  0
    1.6461   -2.1729    1.3101 C   0  0  0  0  0  0  0  0  0  0  0  0
   -0.7661   -2.0010    1.3072 C   0  0  0  0  0  0  0  0  0  0  0  0
    1.5966   -2.8388    2.5399 C   0  0  0  0  0  0  0  0  0  0  0  0
   -0.8170   -2.6735    2.5321 C   0  0  0  0  0  0  0  0  0  0  0  0
    0.3648   -3.0905    3.1510 C   0  0  0  0  0  0  0  0  0  0  0  0
   -0.9880    1.5315   -0.4605 H   0  0  0  0  0  0  0  0  0  0  0  0
    1.8088    0.5752   -0.0153 H   0  0  0  0  0  0  0  0  0  0  0  0
    1.2640   -1.5724   -1.2572 H   0  0  0  0  0  0  0  0  0  0  0  0
   -0.4504   -1.1650   -1.1620 H   0  0  0  0  0  0  0  0  0  0  0  0
    2.6094   -1.9819    0.8479 H   0  0  0  0  0  0  0  0  0  0  0  0
   -1.6943   -1.6778    0.8437 H   0  0  0  0  0  0  0  0  0  0  0  0
    2.5163   -3.1590    3.0202 H   0  0  0  0  0  0  0  0  0  0  0  0
   -1.7777   -2.8704    2.9982 H   0  0  0  0  0  0  0  0  0  0  0  0
    0.3271   -3.6093    4.1041 H   0  0  0  0  0  0  0  0  0  0  0  0
    1.2609    0.2499   -3.1083 N   0  0  0  0  0  0  0  0  0  0  0  0
    1.3616    0.7653   -4.4830 C   0  0  2  0  0  0  0  0  0  0  0  0
   -0.0169    1.1619   -5.0644 C   0  0  0  0  0  0  0  0  0  0  0  0
   -0.5240    0.5491   -5.9958 O   0  0  0  0  0  0  0  0  0  0  0  0
    2.0750   -0.3028   -5.3211 C   0  0  0  0  0  0  0  0  0  0  0  0
    1.2043   -0.7562   -2.9805 H   0  0  0  0  0  0  0  0  0  0  0  0
    1.9859    1.6653   -4.4924 H   0  0  0  0  0  0  0  0  0  0  0  0
    1.4934   -1.2303   -5.3420 H   0  0  0  0  0  0  0  0  0  0  0  0
    2.2027    0.0475   -6.3504 H   0  0  0  0  0  0  0  0  0  0  0  0
    3.0641   -0.5178   -4.9051 H   0  0  0  0  0  0  0  0  0  0  0  0
   -0.7032    2.2188   -4.5005 N   0  0  0  0  0  0  0  0  0  0  0  0
   -2.0351    2.6386   -4.9132 C   0  0  0  0  0  0  0  0  0  0  0  0
   -0.2722    2.6446   -3.6758 H   0  0  0  0  0  0  0  0  0  0  0  0
   -2.0438    2.8937   -5.9781 H   0  0  0  0  0  0  0  0  0  0  0  0
   -2.7604    1.8376   -4.7359 H   0  0  0  0  0  0  0  0  0  0  0  0
   -2.3453    3.5210   -4.3452 H   0  0  0  0  0  0  0  0  0  0  0  0
  1  2  2  0  0  0  0
  1  3  1  0  0  0  0
  1  7  1  0  0  0  0
  3  4  1  0  0  0  0
  3  5  1  0  0  0  0
  3  6  1  0  0  0  0
  7  8  1  0  0  0  0
  7 12  1  0  0  0  0
  8  9  1  0  0  0  0
  8 11  1  0  0  0  0
  8 13  1  0  0  0  0
  9 10  2  0  0  0  0
  9 17  1  0  0  0  0
 11 14  1  0  0  0  0
 11 15  1  0  0  0  0
 11 16  1  0  0  0  0
 17 18  1  0  0  0  0
 17 28  1  0  0  0  0
 18 19  1  0  0  0  0
 18 21  1  0  0  0  0
 18 29  1  0  0  0  0
 19 20  2  0  0  0  0
 19 37  1  0  0  0  0
 21 22  1  0  0  0  0
 21 30  1  0  0  0  0
 21 31  1  0  0  0  0
 22 23  1  0  0  0  0
 22 24  2  0  0  0  0
 23 25  2  0  0  0  0
 23 32  1  0  0  0  0
 24 26  1  0  0  0  0
 24 33  1  0  0  0  0
 25 27  1  0  0  0  0
 25 34  1  0  0  0  0
 26 27  2  0  0  0  0
 26 35  1  0  0  0  0
 27 36  1  0  0  0  0
 37 38  1  0  0  0  0
 37 42  1  0  0  0  0
 38 39  1  0  0  0  0
 38 41  1  0  0  0  0
 38 43  1  0  0  0  0
 39 40  2  0  0  0  0
 39 47  1  0  0  0  0
 41 44  1  0  0  0  0
 41 45  1  0  0  0  0
 41 46  1  0  0  0  0
 47 48  1  0  0  0  0
 47 49  1  0  0  0  0
 48 50  1  0  0  0  0
 48 51  1  0  0  0  0
 48 52  1  0  0  0  0
M  END
$$$$

  -OEChem-05262217163D

 52 52  0     1  0  0  0  0  0999 V2000
   -2.6201    0.2492    3.7245 C   0  0  0  0  0  0  0  0  0  0  0  0
   -3.3884   -0.1910    2.8823 O   0  0  0  0  0  0  0  0  0  0  0  0
   -2.4942   -0.4437    5.0683 C   0  0  0  0  0  0  0  0  0  0  0  0
   -3.1758   -1.2973    5.1186 H   0  0  0  0  0  0  0  0  0  0  0  0
   -1.4708   -0.8016    5.2068 H   0  0  0  0  0  0  0  0  0  0  0  0
   -2.7419    0.2532    5.8726 H   0  0  0  0  0  0  0  0  0  0  0  0
   -1.8362    1.3518    3.4547 N   0  0  0  0  0  0  0  0  0  0  0  0
   -1.6231    1.8566    2.0910 C   0  0  2  0  0  0  0  0  0  0  0  0
   -0.3215    1.2913    1.4868 C   0  0  0  0  0  0  0  0  0  0  0  0
    0.6227    1.0232    2.2228 O   0  0  0  0  0  0  0  0  0  0  0  0
   -1.5675    3.3838    2.1563 C   0  0  0  0  0  0  0  0  0  0  0  0
   -1.0640    1.4925    4.1024 H   0  0  0  0  0  0  0  0  0  0  0  0
   -2.4550    1.5702    1.4390 H   0  0  0  0  0  0  0  0  0  0  0  0
   -0.7330    3.7111    2.7848 H   0  0  0  0  0  0  0  0  0  0  0  0
   -1.4332    3.8039    1.1548 H   0  0  0  0  0  0  0  0  0  0  0  0
   -2.4977    3.7793    2.5759 H   0  0  0  0  0  0  0  0  0  0  0  0
   -0.2000    1.1244    0.1191 N   0  0  0  0  0  0  0  0  0  0  0  0
    0.8831    0.3597   -0.5248 C   0  0  2  0  0  0  0  0  0  0  0  0
    1.1851    0.9516   -1.9223 C   0  0  0  0  0  0  0  0  0  0  0  0
    1.4404    2.1447   -2.0328 O   0  0  0  0  0  0  0  0  0  0  0  0
    0.4794   -1.1313   -0.6341 C   0  0  0  0  0  0  0  0  0  0  0  0
    0.3679   -1.8209    0.7041 C   0  0  0  0  0  0  0  0  0  0  0  0
    1.5128   -2.2925    1.3631 C   0  0  0  0  0  0  0  0  0  0  0  0
   -0.8896   -2.0267    1.2932 C   0  0  0  0  0  0  0  0  0  0  0  0
    1.4031   -2.9467    2.5954 C   0  0  0  0  0  0  0  0  0  0  0  0
   -1.0008   -2.6851    2.5213 C   0  0  0  0  0  0  0  0  0  0  0  0
    0.1459   -3.1440    3.1751 C   0  0  0  0  0  0  0  0  0  0  0  0
   -0.9955    1.3994   -0.4508 H   0  0  0  0  0  0  0  0  0  0  0  0
    1.8065    0.4399    0.0591 H   0  0  0  0  0  0  0  0  0  0  0  0
    1.2315   -1.6688   -1.2206 H   0  0  0  0  0  0  0  0  0  0  0  0
   -0.4743   -1.2130   -1.1671 H   0  0  0  0  0  0  0  0  0  0  0  0
    2.4948   -2.1420    0.9257 H   0  0  0  0  0  0  0  0  0  0  0  0
   -1.7924   -1.6705    0.8050 H   0  0  0  0  0  0  0  0  0  0  0  0
    2.2960   -3.2983    3.1032 H   0  0  0  0  0  0  0  0  0  0  0  0
   -1.9822   -2.8324    2.9632 H   0  0  0  0  0  0  0  0  0  0  0  0
    0.0609   -3.6515    4.1311 H   0  0  0  0  0  0  0  0  0  0  0  0
    1.0608    0.2078   -3.0847 N   0  0  0  0  0  0  0  0  0  0  0  0
    0.9658    0.8440   -4.4041 C   0  0  2  0  0  0  0  0  0  0  0  0
   -0.4434    1.4276   -4.6396 C   0  0  0  0  0  0  0  0  0  0  0  0
   -1.4343    0.7416   -4.4127 O   0  0  0  0  0  0  0  0  0  0  0  0
    1.3039   -0.2081   -5.4629 C   0  0  0  0  0  0  0  0  0  0  0  0
    0.5980   -0.6909   -2.9807 H   0  0  0  0  0  0  0  0  0  0  0  0
    1.6977    1.6548   -4.4836 H   0  0  0  0  0  0  0  0  0  0  0  0
    0.5901   -1.0375   -5.4237 H   0  0  0  0  0  0  0  0  0  0  0  0
    1.2666    0.2338   -6.4635 H   0  0  0  0  0  0  0  0  0  0  0  0
    2.3103   -0.6050   -5.2967 H   0  0  0  0  0  0  0  0  0  0  0  0
   -0.5983    2.7237   -5.0938 N   0  0  0  0  0  0  0  0  0  0  0  0
   -1.9002    3.3676   -5.2202 C   0  0  0  0  0  0  0  0  0  0  0  0
    0.2340    3.3071   -5.0978 H   0  0  0  0  0  0  0  0  0  0  0  0
   -2.5482    2.7953   -5.8925 H   0  0  0  0  0  0  0  0  0  0  0  0
   -2.3866    3.4439   -4.2421 H   0  0  0  0  0  0  0  0  0  0  0  0
   -1.7849    4.3755   -5.6305 H   0  0  0  0  0  0  0  0  0  0  0  0
  1  2  2  0  0  0  0
  1  3  1  0  0  0  0
  1  7  1  0  0  0  0
  3  4  1  0  0  0  0
  3  5  1  0  0  0  0
  3  6  1  0  0  0  0
  7  8  1  0  0  0  0
  7 12  1  0  0  0  0
  8  9  1  0  0  0  0
  8 11  1  0  0  0  0
  8 13  1  0  0  0  0
  9 10  2  0  0  0  0
  9 17  1  0  0  0  0
 11 14  1  0  0  0  0
 11 15  1  0  0  0  0
 11 16  1  0  0  0  0
 17 18  1  0  0  0  0
 17 28  1  0  0  0  0
 18 19  1  0  0  0  0
 18 21  1  0  0  0  0
 18 29  1  0  0  0  0
 19 20  2  0  0  0  0
 19 37  1  0  0  0  0
 21 22  1  0  0  0  0
 21 30  1  0  0  0  0
 21 31  1  0  0  0  0
 22 23  1  0  0  0  0
 22 24  2  0  0  0  0
 23 25  2  0  0  0  0
 23 32  1  0  0  0  0
 24 26  1  0  0  0  0
 24 33  1  0  0  0  0
 25 27  1  0  0  0  0
 25 34  1  0  0  0  0
 26 27  2  0  0  0  0
 26 35  1  0  0  0  0
 27 36  1  0  0  0  0
 37 38  1  0  0  0  0
 37 42  1  0  0  0  0
 38 39  1  0  0  0  0
 38 41  1  0  0  0  0
 38 43  1  0  0  0  0
 39 40  2  0  0  0  0
 39 47  1  0  0  0  0
 41 44  1  0  0  0  0
 41 45  1  0  0  0  0
 41 46  1  0  0  0  0
 47 48  1  0  0  0  0
 47 49  1  0  0  0  0
 48 50  1  0  0  0  0
 48 51  1  0  0  0  0
 48 52  1  0  0  0  0
M  END
$$$$

  -OEChem-05262217163D

 52 52  0     1  0  0  0  0  0999 V2000
   -2.6418    0.4441    3.4773 C   0  0  0  0  0  0  0  0  0  0  0  0
   -3.3965    0.0140    2.6180 O   0  0  0  0  0  0  0  0  0  0  0  0
   -2.6187   -0.1976    4.8515 C   0  0  0  0  0  0  0  0  0  0  0  0
   -3.3456   -1.0130    4.9006 H   0  0  0  0  0  0  0  0  0  0  0  0
   -1.6233   -0.5999    5.0563 H   0  0  0  0  0  0  0  0  0  0  0  0
   -2.8692    0.5445    5.6134 H   0  0  0  0  0  0  0  0  0  0  0  0
   -1.7817    1.4877    3.2063 N   0  0  0  0  0  0  0  0  0  0  0  0
   -1.4662    1.9170    1.8369 C   0  0  2  0  0  0  0  0  0  0  0  0
   -0.1551    1.2731    1.3431 C   0  0  0  0  0  0  0  0  0  0  0  0
    0.7193    0.9736    2.1506 O   0  0  0  0  0  0  0  0  0  0  0  0
   -1.3512    3.4421    1.8311 C   0  0  0  0  0  0  0  0  0  0  0  0
   -1.0326    1.6046    3.8849 H   0  0  0  0  0  0  0  0  0  0  0  0
   -2.2668    1.6298    1.1471 H   0  0  0  0  0  0  0  0  0  0  0  0
   -0.5464    3.7697    2.4970 H   0  0  0  0  0  0  0  0  0  0  0  0
   -1.1347    3.8032    0.8209 H   0  0  0  0  0  0  0  0  0  0  0  0
   -2.2898    3.8936    2.1671 H   0  0  0  0  0  0  0  0  0  0  0  0
    0.0466    1.0576   -0.0061 N   0  0  0  0  0  0  0  0  0  0  0  0
    1.1112    0.2076   -0.5622 C   0  0  2  0  0  0  0  0  0  0  0  0
    1.5072    0.7723   -1.9420 C   0  0  0  0  0  0  0  0  0  0  0  0
    2.0116    1.8854   -2.0256 O   0  0  0  0  0  0  0  0  0  0  0  0
    0.6248   -1.2573   -0.6657 C   0  0  0  0  0  0  0  0  0  0  0  0
    0.3900   -1.9051    0.6781 C   0  0  0  0  0  0  0  0  0  0  0  0
    1.4636   -2.4273    1.4148 C   0  0  0  0  0  0  0  0  0  0  0  0
   -0.9089   -2.0108    1.2005 C   0  0  0  0  0  0  0  0  0  0  0  0
    1.2431   -3.0397    2.6537 C   0  0  0  0  0  0  0  0  0  0  0  0
   -1.1304   -2.6255    2.4367 C   0  0  0  0  0  0  0  0  0  0  0  0
   -0.0542   -3.1400    3.1653 C   0  0  0  0  0  0  0  0  0  0  0  0
   -0.7019    1.3440   -0.6386 H   0  0  0  0  0  0  0  0  0  0  0  0
    2.0042    0.2474    0.0710 H   0  0  0  0  0  0  0  0  0  0  0  0
    1.3728   -1.8489   -1.2038 H   0  0  0  0  0  0  0  0  0  0  0  0
   -0.3037   -1.2924   -1.2456 H   0  0  0  0  0  0  0  0  0  0  0  0
    2.4765   -2.3504    1.0316 H   0  0  0  0  0  0  0  0  0  0  0  0
   -1.7570   -1.6068    0.6547 H   0  0  0  0  0  0  0  0  0  0  0  0
    2.0814   -3.4340    3.2195 H   0  0  0  0  0  0  0  0  0  0  0  0
   -2.1420   -2.6951    2.8268 H   0  0  0  0  0  0  0  0  0  0  0  0
   -0.2245   -3.6150    4.1266 H   0  0  0  0  0  0  0  0  0  0  0  0
    1.1038    0.1448   -3.1091 N   0  0  0  0  0  0  0  0  0  0  0  0
    0.6666    0.9795   -4.2361 C   0  0  2  0  0  0  0  0  0  0  0  0
   -0.6534    1.7241   -3.9130 C   0  0  0  0  0  0  0  0  0  0  0  0
   -1.3774    1.3426   -2.9948 O   0  0  0  0  0  0  0  0  0  0  0  0
    0.4895    0.0693   -5.4527 C   0  0  0  0  0  0  0  0  0  0  0  0
    0.5385   -0.6826   -2.9441 H   0  0  0  0  0  0  0  0  0  0  0  0
    1.4359    1.7246   -4.4673 H   0  0  0  0  0  0  0  0  0  0  0  0
   -0.2839   -0.6814   -5.2616 H   0  0  0  0  0  0  0  0  0  0  0  0
    0.1962    0.6550   -6.3293 H   0  0  0  0  0  0  0  0  0  0  0  0
    1.4284   -0.4455   -5.6800 H   0  0  0  0  0  0  0  0  0  0  0  0
   -1.0330    2.8263   -4.6559 N   0  0  0  0  0  0  0  0  0  0  0  0
   -2.2295    3.6081   -4.3692 C   0  0  0  0  0  0  0  0  0  0  0  0
   -0.3745    3.1744   -5.3467 H   0  0  0  0  0  0  0  0  0  0  0  0
   -3.1244    2.9822   -4.4506 H   0  0  0  0  0  0  0  0  0  0  0  0
   -2.1819    4.0258   -3.3580 H   0  0  0  0  0  0  0  0  0  0  0  0
   -2.3209    4.4346   -5.0806 H   0  0  0  0  0  0  0  0  0  0  0  0
  1  2  2  0  0  0  0
  1  3  1  0  0  0  0
  1  7  1  0  0  0  0
  3  4  1  0  0  0  0
  3  5  1  0  0  0  0
  3  6  1  0  0  0  0
  7  8  1  0  0  0  0
  7 12  1  0  0  0  0
  8  9  1  0  0  0  0
  8 11  1  0  0  0  0
  8 13  1  0  0  0  0
  9 10  2  0  0  0  0
  9 17  1  0  0  0  0
 11 14  1  0  0  0  0
 11 15  1  0  0  0  0
 11 16  1  0  0  0  0
 17 18  1  0  0  0  0
 17 28  1  0  0  0  0
 18 19  1  0  0  0  0
 18 21  1  0  0  0  0
 18 29  1  0  0  0  0
 19 20  2  0  0  0  0
 19 37  1  0  0  0  0
 21 22  1  0  0  0  0
 21 30  1  0  0  0  0
 21 31  1  0  0  0  0
 22 23  1  0  0  0  0
 22 24  2  0  0  0  0
 23 25  2  0  0  0  0
 23 32  1  0  0  0  0
 24 26  1  0  0  0  0
 24 33  1  0  0  0  0
 25 27  1  0  0  0  0
 25 34  1  0  0  0  0
 26 27  2  0  0  0  0
 26 35  1  0  0  0  0
 27 36  1  0  0  0  0
 37 38  1  0  0  0  0
 37 42  1  0  0  0  0
 38 39  1  0  0  0  0
 38 41  1  0  0  0  0
 38 43  1  0  0  0  0
 39 40  2  0  0  0  0
 39 47  1  0  0  0  0
 41 44  1  0  0  0  0
 41 45  1  0  0  0  0
 41 46  1  0  0  0  0
 47 48  1  0  0  0  0
 47 49  1  0  0  0  0
 48 50  1  0  0  0  0
 48 51  1  0  0  0  0
 48 52  1  0  0  0  0
M  END
$$$$

  -OEChem-05262217163D

 52 52  0     1  0  0  0  0  0999 V2000
   -2.6276    0.5570    3.3659 C   0  0  0  0  0  0  0  0  0  0  0  0
   -3.3626    0.0993    2.5038 O   0  0  0  0  0  0  0  0  0  0  0  0
   -2.6363   -0.0433    4.7588 C   0  0  0  0  0  0  0  0  0  0  0  0
   -3.3822   -0.8403    4.8223 H   0  0  0  0  0  0  0  0  0  0  0  0
   -1.6531   -0.4617    4.9887 H   0  0  0  0  0  0  0  0  0  0  0  0
   -2.8792    0.7264    5.4952 H   0  0  0  0  0  0  0  0  0  0  0  0
   -1.7608    1.5917    3.0808 N   0  0  0  0  0  0  0  0  0  0  0  0
   -1.4198    1.9754    1.7037 C   0  0  2  0  0  0  0  0  0  0  0  0
   -0.1385    1.2606    1.2309 C   0  0  0  0  0  0  0  0  0  0  0  0
    0.7362    0.9734    2.0423 O   0  0  0  0  0  0  0  0  0  0  0  0
   -1.2330    3.4933    1.6626 C   0  0  0  0  0  0  0  0  0  0  0  0
   -1.0253    1.7294    3.7700 H   0  0  0  0  0  0  0  0  0  0  0  0
   -2.2304    1.7100    1.0164 H   0  0  0  0  0  0  0  0  0  0  0  0
   -0.4127    3.7975    2.3207 H   0  0  0  0  0  0  0  0  0  0  0  0
   -1.0005    3.8206    0.6441 H   0  0  0  0  0  0  0  0  0  0  0  0
   -2.1484    3.9969    1.9883 H   0  0  0  0  0  0  0  0  0  0  0  0
    0.0342    0.9675   -0.1069 N   0  0  0  0  0  0  0  0  0  0  0  0
    1.0805    0.0845   -0.6457 C   0  0  2  0  0  0  0  0  0  0  0  0
    1.4294    0.5844   -2.0599 C   0  0  0  0  0  0  0  0  0  0  0  0
    2.1271    1.5802   -2.2041 O   0  0  0  0  0  0  0  0  0  0  0  0
    0.5984   -1.3845   -0.6705 C   0  0  0  0  0  0  0  0  0  0  0  0
    0.3983   -1.9670    0.7081 C   0  0  0  0  0  0  0  0  0  0  0  0
    1.4898   -2.4499    1.4449 C   0  0  0  0  0  0  0  0  0  0  0  0
   -0.8879   -2.0479    1.2654 C   0  0  0  0  0  0  0  0  0  0  0  0
    1.2997   -2.9990    2.7181 C   0  0  0  0  0  0  0  0  0  0  0  0
   -1.0797   -2.6002    2.5352 C   0  0  0  0  0  0  0  0  0  0  0  0
    0.0143   -3.0758    3.2635 C   0  0  0  0  0  0  0  0  0  0  0  0
   -0.6991    1.2800   -0.7498 H   0  0  0  0  0  0  0  0  0  0  0  0
    1.9909    0.1563   -0.0404 H   0  0  0  0  0  0  0  0  0  0  0  0
    1.3355   -1.9953   -1.2024 H   0  0  0  0  0  0  0  0  0  0  0  0
   -0.3444   -1.4538   -1.2223 H   0  0  0  0  0  0  0  0  0  0  0  0
    2.4931   -2.3903    1.0350 H   0  0  0  0  0  0  0  0  0  0  0  0
   -1.7492   -1.6718    0.7204 H   0  0  0  0  0  0  0  0  0  0  0  0
    2.1523   -3.3618    3.2841 H   0  0  0  0  0  0  0  0  0  0  0  0
   -2.0820   -2.6515    2.9509 H   0  0  0  0  0  0  0  0  0  0  0  0
   -0.1331   -3.5013    4.2513 H   0  0  0  0  0  0  0  0  0  0  0  0
    0.7402    0.0932   -3.1563 N   0  0  0  0  0  0  0  0  0  0  0  0
    0.2900    1.0460   -4.1806 C   0  0  2  0  0  0  0  0  0  0  0  0
   -0.8175    1.9835   -3.6361 C   0  0  0  0  0  0  0  0  0  0  0  0
   -1.4495    1.6825   -2.6239 O   0  0  0  0  0  0  0  0  0  0  0  0
   -0.2266    0.2435   -5.3767 C   0  0  0  0  0  0  0  0  0  0  0  0
    0.0603   -0.6202   -2.9103 H   0  0  0  0  0  0  0  0  0  0  0  0
    1.1329    1.6627   -4.5121 H   0  0  0  0  0  0  0  0  0  0  0  0
   -1.0825   -0.3735   -5.0846 H   0  0  0  0  0  0  0  0  0  0  0  0
   -0.5417    0.9156   -6.1810 H   0  0  0  0  0  0  0  0  0  0  0  0
    0.5609   -0.4113   -5.7634 H   0  0  0  0  0  0  0  0  0  0  0  0
   -1.1088    3.1699   -4.2829 N   0  0  0  0  0  0  0  0  0  0  0  0
   -2.0825    4.1329   -3.7828 C   0  0  0  0  0  0  0  0  0  0  0  0
   -0.5051    3.4416   -5.0536 H   0  0  0  0  0  0  0  0  0  0  0  0
   -3.0590    3.6563   -3.6452 H   0  0  0  0  0  0  0  0  0  0  0  0
   -1.7533    4.5471   -2.8239 H   0  0  0  0  0  0  0  0  0  0  0  0
   -2.2002    4.9557   -4.4946 H   0  0  0  0  0  0  0  0  0  0  0  0
  1  2  2  0  0  0  0
  1  3  1  0  0  0  0
  1  7  1  0  0  0  0
  3  4  1  0  0  0  0
  3  5  1  0  0  0  0
  3  6  1  0  0  0  0
  7  8  1  0  0  0  0
  7 12  1  0  0  0  0
  8  9  1  0  0  0  0
  8 11  1  0  0  0  0
  8 13  1  0  0  0  0
  9 10  2  0  0  0  0
  9 17  1  0  0  0  0
 11 14  1  0  0  0  0
 11 15  1  0  0  0  0
 11 16  1  0  0  0  0
 17 18  1  0  0  0  0
 17 28  1  0  0  0  0
 18 19  1  0  0  0  0
 18 21  1  0  0  0  0
 18 29  1  0  0  0  0
 19 20  2  0  0  0  0
 19 37  1  0  0  0  0
 21 22  1  0  0  0  0
 21 30  1  0  0  0  0
 21 31  1  0  0  0  0
 22 23  1  0  0  0  0
 22 24  2  0  0  0  0
 23 25  2  0  0  0  0
 23 32  1  0  0  0  0
 24 26  1  0  0  0  0
 24 33  1  0  0  0  0
 25 27  1  0  0  0  0
 25 34  1  0  0  0  0
 26 27  2  0  0  0  0
 26 35  1  0  0  0  0
 27 36  1  0  0  0  0
 37 38  1  0  0  0  0
 37 42  1  0  0  0  0
 38 39  1  0  0  0  0
 38 41  1  0  0  0  0
 38 43  1  0  0  0  0
 39 40  2  0  0  0  0
 39 47  1  0  0  0  0
 41 44  1  0  0  0  0
 41 45  1  0  0  0  0
 41 46  1  0  0  0  0
 47 48  1  0  0  0  0
 47 49  1  0  0  0  0
 48 50  1  0  0  0  0
 48 51  1  0  0  0  0
 48 52  1  0  0  0  0
M  END
$$$$

  -OEChem-05262217163D

 52 52  0     1  0  0  0  0  0999 V2000
   -2.5612    0.6382    3.3875 C   0  0  0  0  0  0  0  0  0  0  0  0
   -3.2952    0.1365    2.5492 O   0  0  0  0  0  0  0  0  0  0  0  0
   -2.5370    0.0805    4.7980 C   0  0  0  0  0  0  0  0  0  0  0  0
   -3.2561   -0.7378    4.8934 H   0  0  0  0  0  0  0  0  0  0  0  0
   -1.5383   -0.2990    5.0291 H   0  0  0  0  0  0  0  0  0  0  0  0
   -2.7971    0.8636    5.5141 H   0  0  0  0  0  0  0  0  0  0  0  0
   -1.7205    1.6813    3.0576 N   0  0  0  0  0  0  0  0  0  0  0  0
   -1.4018    2.0138    1.6622 C   0  0  2  0  0  0  0  0  0  0  0  0
   -0.1671    1.2308    1.1731 C   0  0  0  0  0  0  0  0  0  0  0  0
    0.7281    0.9428    1.9610 O   0  0  0  0  0  0  0  0  0  0  0  0
   -1.1514    3.5198    1.5711 C   0  0  0  0  0  0  0  0  0  0  0  0
   -0.9806    1.8570    3.7329 H   0  0  0  0  0  0  0  0  0  0  0  0
   -2.2443    1.7679    1.0064 H   0  0  0  0  0  0  0  0  0  0  0  0
   -0.3003    3.8063    2.1972 H   0  0  0  0  0  0  0  0  0  0  0  0
   -0.9349    3.8062    0.5368 H   0  0  0  0  0  0  0  0  0  0  0  0
   -2.0349    4.0718    1.9057 H   0  0  0  0  0  0  0  0  0  0  0  0
   -0.0593    0.8844   -0.1583 N   0  0  0  0  0  0  0  0  0  0  0  0
    0.9625   -0.0135   -0.7216 C   0  0  2  0  0  0  0  0  0  0  0  0
    1.2317    0.4318   -2.1685 C   0  0  0  0  0  0  0  0  0  0  0  0
    2.1081    1.2508   -2.4111 O   0  0  0  0  0  0  0  0  0  0  0  0
    0.4916   -1.4847   -0.6851 C   0  0  0  0  0  0  0  0  0  0  0  0
    0.3632   -2.0270    0.7179 C   0  0  0  0  0  0  0  0  0  0  0  0
    1.4946   -2.4802    1.4119 C   0  0  0  0  0  0  0  0  0  0  0  0
   -0.8903   -2.0852    1.3478 C   0  0  0  0  0  0  0  0  0  0  0  0
    1.3760   -2.9809    2.7131 C   0  0  0  0  0  0  0  0  0  0  0  0
   -1.0103   -2.5864    2.6474 C   0  0  0  0  0  0  0  0  0  0  0  0
    0.1229   -3.0348    3.3317 C   0  0  0  0  0  0  0  0  0  0  0  0
   -0.7754    1.2577   -0.7888 H   0  0  0  0  0  0  0  0  0  0  0  0
    1.9020    0.0811   -0.1653 H   0  0  0  0  0  0  0  0  0  0  0  0
    1.2098   -2.1028   -1.2338 H   0  0  0  0  0  0  0  0  0  0  0  0
   -0.4736   -1.5794   -1.1921 H   0  0  0  0  0  0  0  0  0  0  0  0
    2.4738   -2.4341    0.9458 H   0  0  0  0  0  0  0  0  0  0  0  0
   -1.7806   -1.7265    0.8387 H   0  0  0  0  0  0  0  0  0  0  0  0
    2.2598   -3.3219    3.2437 H   0  0  0  0  0  0  0  0  0  0  0  0
   -1.9868   -2.6181    3.1213 H   0  0  0  0  0  0  0  0  0  0  0  0
    0.0308   -3.4202    4.3424 H   0  0  0  0  0  0  0  0  0  0  0  0
    0.2967    0.1387   -3.1467 N   0  0  0  0  0  0  0  0  0  0  0  0
   -0.0635    1.1795   -4.1184 C   0  0  2  0  0  0  0  0  0  0  0  0
   -0.9179    2.2878   -3.4558 C   0  0  0  0  0  0  0  0  0  0  0  0
   -1.5457    2.0526   -2.4240 O   0  0  0  0  0  0  0  0  0  0  0  0
   -0.8368    0.5148   -5.2585 C   0  0  0  0  0  0  0  0  0  0  0  0
   -0.4865   -0.4061   -2.7964 H   0  0  0  0  0  0  0  0  0  0  0  0
    0.8414    1.6373   -4.5331 H   0  0  0  0  0  0  0  0  0  0  0  0
   -1.7608    0.0626   -4.8841 H   0  0  0  0  0  0  0  0  0  0  0  0
   -1.0966    1.2520   -6.0245 H   0  0  0  0  0  0  0  0  0  0  0  0
   -0.2280   -0.2669   -5.7235 H   0  0  0  0  0  0  0  0  0  0  0  0
   -0.9834    3.5512   -4.0122 N   0  0  0  0  0  0  0  0  0  0  0  0
   -1.7061    4.6579   -3.3966 C   0  0  0  0  0  0  0  0  0  0  0  0
   -0.3720    3.7457   -4.8002 H   0  0  0  0  0  0  0  0  0  0  0  0
   -2.7575    4.3921   -3.2423 H   0  0  0  0  0  0  0  0  0  0  0  0
   -1.2613    4.9156   -2.4296 H   0  0  0  0  0  0  0  0  0  0  0  0
   -1.6670    5.5404   -4.0427 H   0  0  0  0  0  0  0  0  0  0  0  0
  1  2  2  0  0  0  0
  1  3  1  0  0  0  0
  1  7  1  0  0  0  0
  3  4  1  0  0  0  0
  3  5  1  0  0  0  0
  3  6  1  0  0  0  0
  7  8  1  0  0  0  0
  7 12  1  0  0  0  0
  8  9  1  0  0  0  0
  8 11  1  0  0  0  0
  8 13  1  0  0  0  0
  9 10  2  0  0  0  0
  9 17  1  0  0  0  0
 11 14  1  0  0  0  0
 11 15  1  0  0  0  0
 11 16  1  0  0  0  0
 17 18  1  0  0  0  0
 17 28  1  0  0  0  0
 18 19  1  0  0  0  0
 18 21  1  0  0  0  0
 18 29  1  0  0  0  0
 19 20  2  0  0  0  0
 19 37  1  0  0  0  0
 21 22  1  0  0  0  0
 21 30  1  0  0  0  0
 21 31  1  0  0  0  0
 22 23  1  0  0  0  0
 22 24  2  0  0  0  0
 23 25  2  0  0  0  0
 23 32  1  0  0  0  0
 24 26  1  0  0  0  0
 24 33  1  0  0  0  0
 25 27  1  0  0  0  0
 25 34  1  0  0  0  0
 26 27  2  0  0  0  0
 26 35  1  0  0  0  0
 27 36  1  0  0  0  0
 37 38  1  0  0  0  0
 37 42  1  0  0  0  0
 38 39  1  0  0  0  0
 38 41  1  0  0  0  0
 38 43  1  0  0  0  0
 39 40  2  0  0  0  0
 39 47  1  0  0  0  0
 41 44  1  0  0  0  0
 41 45  1  0  0  0  0
 41 46  1  0  0  0  0
 47 48  1  0  0  0  0
 47 49  1  0  0  0  0
 48 50  1  0  0  0  0
 48 51  1  0  0  0  0
 48 52  1  0  0  0  0
M  END
$$$$

  -OEChem-05262217163D

 52 52  0     1  0  0  0  0  0999 V2000
   -2.4499    0.7099    3.4619 C   0  0  0  0  0  0  0  0  0  0  0  0
   -3.2152    0.1956    2.6597 O   0  0  0  0  0  0  0  0  0  0  0  0
   -2.3645    0.1679    4.8760 C   0  0  0  0  0  0  0  0  0  0  0  0
   -3.0934   -0.6347    5.0179 H   0  0  0  0  0  0  0  0  0  0  0  0
   -1.3627   -0.2290    5.0595 H   0  0  0  0  0  0  0  0  0  0  0  0
   -2.5725    0.9636    5.5951 H   0  0  0  0  0  0  0  0  0  0  0  0
   -1.6247    1.7498    3.0850 N   0  0  0  0  0  0  0  0  0  0  0  0
   -1.3616    2.0544    1.6719 C   0  0  2  0  0  0  0  0  0  0  0  0
   -0.1795    1.2212    1.1384 C   0  0  0  0  0  0  0  0  0  0  0  0
    0.7468    0.9218    1.8847 O   0  0  0  0  0  0  0  0  0  0  0  0
   -1.0675    3.5498    1.5431 C   0  0  0  0  0  0  0  0  0  0  0  0
   -0.8571    1.9317    3.7266 H   0  0  0  0  0  0  0  0  0  0  0  0
   -2.2430    1.8280    1.0618 H   0  0  0  0  0  0  0  0  0  0  0  0
   -0.1757    3.8175    2.1186 H   0  0  0  0  0  0  0  0  0  0  0  0
   -0.8975    3.8133    0.4940 H   0  0  0  0  0  0  0  0  0  0  0  0
   -1.9139    4.1357    1.9142 H   0  0  0  0  0  0  0  0  0  0  0  0
   -0.1560    0.8398   -0.1876 N   0  0  0  0  0  0  0  0  0  0  0  0
    0.8407   -0.0637   -0.7898 C   0  0  2  0  0  0  0  0  0  0  0  0
    1.0229    0.3288   -2.2644 C   0  0  0  0  0  0  0  0  0  0  0  0
    2.0197    0.9385   -2.6264 O   0  0  0  0  0  0  0  0  0  0  0  0
    0.3736   -1.5331   -0.7059 C   0  0  0  0  0  0  0  0  0  0  0  0
    0.3164   -2.0537    0.7101 C   0  0  0  0  0  0  0  0  0  0  0  0
    1.4808   -2.4968    1.3546 C   0  0  0  0  0  0  0  0  0  0  0  0
   -0.9047   -2.1023    1.4012 C   0  0  0  0  0  0  0  0  0  0  0  0
    1.4256   -2.9779    2.6676 C   0  0  0  0  0  0  0  0  0  0  0  0
   -0.9615   -2.5843    2.7123 C   0  0  0  0  0  0  0  0  0  0  0  0
    0.2041   -3.0232    3.3468 C   0  0  0  0  0  0  0  0  0  0  0  0
   -0.8483    1.2850   -0.7971 H   0  0  0  0  0  0  0  0  0  0  0  0
    1.8096    0.0439   -0.2888 H   0  0  0  0  0  0  0  0  0  0  0  0
    1.0633   -2.1604   -1.2802 H   0  0  0  0  0  0  0  0  0  0  0  0
   -0.6148   -1.6344   -1.1649 H   0  0  0  0  0  0  0  0  0  0  0  0
    2.4359   -2.4590    0.8400 H   0  0  0  0  0  0  0  0  0  0  0  0
   -1.8183   -1.7518    0.9297 H   0  0  0  0  0  0  0  0  0  0  0  0
    2.3341   -3.3108    3.1600 H   0  0  0  0  0  0  0  0  0  0  0  0
   -1.9141   -2.6087    3.2335 H   0  0  0  0  0  0  0  0  0  0  0  0
    0.1616   -3.3946    4.3660 H   0  0  0  0  0  0  0  0  0  0  0  0
   -0.0790    0.2751   -3.1007 N   0  0  0  0  0  0  0  0  0  0  0  0
   -0.3418    1.3819   -4.0289 C   0  0  2  0  0  0  0  0  0  0  0  0
   -0.9527    2.5895   -3.2804 C   0  0  0  0  0  0  0  0  0  0  0  0
   -1.5599    2.4154   -2.2244 O   0  0  0  0  0  0  0  0  0  0  0  0
   -1.2993    0.8765   -5.1097 C   0  0  0  0  0  0  0  0  0  0  0  0
   -0.9047   -0.1076   -2.6474 H   0  0  0  0  0  0  0  0  0  0  0  0
    0.5873    1.7037   -4.5119 H   0  0  0  0  0  0  0  0  0  0  0  0
   -2.2483    0.5583   -4.6660 H   0  0  0  0  0  0  0  0  0  0  0  0
   -1.5046    1.6672   -5.8380 H   0  0  0  0  0  0  0  0  0  0  0  0
   -0.8581    0.0256   -5.6382 H   0  0  0  0  0  0  0  0  0  0  0  0
   -0.8155    3.8704   -3.7797 N   0  0  0  0  0  0  0  0  0  0  0  0
   -1.2906    5.0552   -3.0759 C   0  0  0  0  0  0  0  0  0  0  0  0
   -0.2199    3.9921   -4.5941 H   0  0  0  0  0  0  0  0  0  0  0  0
   -2.3717    4.9960   -2.9114 H   0  0  0  0  0  0  0  0  0  0  0  0
   -0.7904    5.1514   -2.1065 H   0  0  0  0  0  0  0  0  0  0  0  0
   -1.0809    5.9535   -3.6644 H   0  0  0  0  0  0  0  0  0  0  0  0
  1  2  2  0  0  0  0
  1  3  1  0  0  0  0
  1  7  1  0  0  0  0
  3  4  1  0  0  0  0
  3  5  1  0  0  0  0
  3  6  1  0  0  0  0
  7  8  1  0  0  0  0
  7 12  1  0  0  0  0
  8  9  1  0  0  0  0
  8 11  1  0  0  0  0
  8 13  1  0  0  0  0
  9 10  2  0  0  0  0
  9 17  1  0  0  0  0
 11 14  1  0  0  0  0
 11 15  1  0  0  0  0
 11 16  1  0  0  0  0
 17 18  1  0  0  0  0
 17 28  1  0  0  0  0
 18 19  1  0  0  0  0
 18 21  1  0  0  0  0
 18 29  1  0  0  0  0
 19 20  2  0  0  0  0
 19 37  1  0  0  0  0
 21 22  1  0  0  0  0
 21 30  1  0  0  0  0
 21 31  1  0  0  0  0
 22 23  1  0  0  0  0
 22 24  2  0  0  0  0
 23 25  2  0  0  0  0
 23 32  1  0  0  0  0
 24 26  1  0  0  0  0
 24 33  1  0  0  0  0
 25 27  1  0  0  0  0
 25 34  1  0  0  0  0
 26 27  2  0  0  0  0
 26 35  1  0  0  0  0
 27 36  1  0  0  0  0
 37 38  1  0  0  0  0
 37 42  1  0  0  0  0
 38 39  1  0  0  0  0
 38 41  1  0  0  0  0
 38 43  1  0  0  0  0
 39 40  2  0  0  0  0
 39 47  1  0  0  0  0
 41 44  1  0  0  0  0
 41 45  1  0  0  0  0
 41 46  1  0  0  0  0
 47 48  1  0  0  0  0
 47 49  1  0  0  0  0
 48 50  1  0  0  0  0
 48 51  1  0  0  0  0
 48 52  1  0  0  0  0
M  END
$$$$

  -OEChem-05262217163D

 52 52  0     1  0  0  0  0  0999 V2000
   -2.3825    0.2116    3.9257 C   0  0  0  0  0  0  0  0  0  0  0  0
   -3.1950   -0.2911    3.1633 O   0  0  0  0  0  0  0  0  0  0  0  0
   -2.0781   -0.4505    5.2561 C   0  0  0  0  0  0  0  0  0  0  0  0
   -2.6591   -1.3708    5.3607 H   0  0  0  0  0  0  0  0  0  0  0  0
   -1.0147   -0.6962    5.3155 H   0  0  0  0  0  0  0  0  0  0  0  0
   -2.3356    0.2242    6.0761 H   0  0  0  0  0  0  0  0  0  0  0  0
   -1.7136    1.3642    3.5710 N   0  0  0  0  0  0  0  0  0  0  0  0
   -1.7261    1.8987    2.2033 C   0  0  2  0  0  0  0  0  0  0  0  0
   -0.5133    1.3972    1.3943 C   0  0  0  0  0  0  0  0  0  0  0  0
    0.5807    1.3044    1.9378 O   0  0  0  0  0  0  0  0  0  0  0  0
   -1.7185    3.4260    2.2934 C   0  0  0  0  0  0  0  0  0  0  0  0
   -0.8910    1.5774    4.1310 H   0  0  0  0  0  0  0  0  0  0  0  0
   -2.6387    1.5933    1.6815 H   0  0  0  0  0  0  0  0  0  0  0  0
   -0.8113    3.7770    2.7961 H   0  0  0  0  0  0  0  0  0  0  0  0
   -1.7535    3.8678    1.2926 H   0  0  0  0  0  0  0  0  0  0  0  0
   -2.5886    3.7770    2.8569 H   0  0  0  0  0  0  0  0  0  0  0  0
   -0.6413    1.1308    0.0416 N   0  0  0  0  0  0  0  0  0  0  0  0
    0.3885    0.4177   -0.7427 C   0  0  2  0  0  0  0  0  0  0  0  0
    0.4030    0.8756   -2.2120 C   0  0  0  0  0  0  0  0  0  0  0  0
    1.4593    1.1761   -2.7524 O   0  0  0  0  0  0  0  0  0  0  0  0
    0.1285   -1.1028   -0.7325 C   0  0  0  0  0  0  0  0  0  0  0  0
    0.3087   -1.7206    0.6325 C   0  0  0  0  0  0  0  0  0  0  0  0
    1.5914   -2.0387    1.1021 C   0  0  0  0  0  0  0  0  0  0  0  0
   -0.8029   -2.0122    1.4382 C   0  0  0  0  0  0  0  0  0  0  0  0
    1.7617   -2.6248    2.3611 C   0  0  0  0  0  0  0  0  0  0  0  0
   -0.6343   -2.6050    2.6929 C   0  0  0  0  0  0  0  0  0  0  0  0
    0.6484   -2.9089    3.1576 C   0  0  0  0  0  0  0  0  0  0  0  0
   -1.5881    1.1666   -0.3204 H   0  0  0  0  0  0  0  0  0  0  0  0
    1.3852    0.6178   -0.3318 H   0  0  0  0  0  0  0  0  0  0  0  0
    0.8240   -1.5897   -1.4252 H   0  0  0  0  0  0  0  0  0  0  0  0
   -0.8834   -1.3074   -1.0968 H   0  0  0  0  0  0  0  0  0  0  0  0
    2.4633   -1.8208    0.4927 H   0  0  0  0  0  0  0  0  0  0  0  0
   -1.8080   -1.7776    1.0999 H   0  0  0  0  0  0  0  0  0  0  0  0
    2.7602   -2.8577    2.7185 H   0  0  0  0  0  0  0  0  0  0  0  0
   -1.5056   -2.8246    3.3028 H   0  0  0  0  0  0  0  0  0  0  0  0
    0.7803   -3.3659    4.1336 H   0  0  0  0  0  0  0  0  0  0  0  0
   -0.7728    1.0278   -2.9278 N   0  0  0  0  0  0  0  0  0  0  0  0
   -0.8389    1.6213   -4.2716 C   0  0  2  0  0  0  0  0  0  0  0  0
   -0.7094    3.1627   -4.2225 C   0  0  0  0  0  0  0  0  0  0  0  0
   -1.6574    3.8960   -4.4765 O   0  0  0  0  0  0  0  0  0  0  0  0
   -2.1437    1.1496   -4.9255 C   0  0  0  0  0  0  0  0  0  0  0  0
   -1.6442    0.8384   -2.4451 H   0  0  0  0  0  0  0  0  0  0  0  0
   -0.0096    1.2464   -4.8814 H   0  0  0  0  0  0  0  0  0  0  0  0
   -3.0113    1.4898   -4.3510 H   0  0  0  0  0  0  0  0  0  0  0  0
   -2.2235    1.5510   -5.9410 H   0  0  0  0  0  0  0  0  0  0  0  0
   -2.1674    0.0572   -4.9840 H   0  0  0  0  0  0  0  0  0  0  0  0
    0.4893    3.7203   -3.8245 N   0  0  0  0  0  0  0  0  0  0  0  0
    0.6942    5.1477   -3.6207 C   0  0  0  0  0  0  0  0  0  0  0  0
    1.2066    3.0623   -3.5079 H   0  0  0  0  0  0  0  0  0  0  0  0
    0.5033    5.6982   -4.5478 H   0  0  0  0  0  0  0  0  0  0  0  0
    0.0233    5.5240   -2.8415 H   0  0  0  0  0  0  0  0  0  0  0  0
    1.7265    5.3395   -3.3118 H   0  0  0  0  0  0  0  0  0  0  0  0
  1  2  2  0  0  0  0
  1  3  1  0  0  0  0
  1  7  1  0  0  0  0
  3  4  1  0  0  0  0
  3  5  1  0  0  0  0
  3  6  1  0  0  0  0
  7  8  1  0  0  0  0
  7 12  1  0  0  0  0
  8  9  1  0  0  0  0
  8 11  1  0  0  0  0
  8 13  1  0  0  0  0
  9 10  2  0  0  0  0
  9 17  1  0  0  0  0
 11 14  1  0  0  0  0
 11 15  1  0  0  0  0
 11 16  1  0  0  0  0
 17 18  1  0  0  0  0
 17 28  1  0  0  0  0
 18 19  1  0  0  0  0
 18 21  1  0  0  0  0
 18 29  1  0  0  0  0
 19 20  2  0  0  0  0
 19 37  1  0  0  0  0
 21 22  1  0  0  0  0
 21 30  1  0  0  0  0
 21 31  1  0  0  0  0
 22 23  1  0  0  0  0
 22 24  2  0  0  0  0
 23 25  2  0  0  0  0
 23 32  1  0  0  0  0
 24 26  1  0  0  0  0
 24 33  1  0  0  0  0
 25 27  1  0  0  0  0
 25 34  1  0  0  0  0
 26 27  2  0  0  0  0
 26 35  1  0  0  0  0
 27 36  1  0  0  0  0
 37 38  1  0  0  0  0
 37 42  1  0  0  0  0
 38 39  1  0  0  0  0
 38 41  1  0  0  0  0
 38 43  1  0  0  0  0
 39 40  2  0  0  0  0
 39 47  1  0  0  0  0
 41 44  1  0  0  0  0
 41 45  1  0  0  0  0
 41 46  1  0  0  0  0
 47 48  1  0  0  0  0
 47 49  1  0  0  0  0
 48 50  1  0  0  0  0
 48 51  1  0  0  0  0
 48 52  1  0  0  0  0
M  END
$$$$

  -OEChem-05262217163D

 52 52  0     1  0  0  0  0  0999 V2000
   -2.3321    0.0843    4.0508 C   0  0  0  0  0  0  0  0  0  0  0  0
   -3.1713   -0.4237    3.3217 O   0  0  0  0  0  0  0  0  0  0  0  0
   -1.9547   -0.5853    5.3583 C   0  0  0  0  0  0  0  0  0  0  0  0
   -2.5408   -1.4977    5.4983 H   0  0  0  0  0  0  0  0  0  0  0  0
   -0.8931   -0.8454    5.3508 H   0  0  0  0  0  0  0  0  0  0  0  0
   -2.1508    0.0911    6.1939 H   0  0  0  0  0  0  0  0  0  0  0  0
   -1.7031    1.2539    3.6799 N   0  0  0  0  0  0  0  0  0  0  0  0
   -1.8011    1.8199    2.3289 C   0  0  2  0  0  0  0  0  0  0  0  0
   -0.5882    1.4247    1.4631 C   0  0  0  0  0  0  0  0  0  0  0  0
    0.5304    1.4054    1.9622 O   0  0  0  0  0  0  0  0  0  0  0  0
   -1.8894    3.3414    2.4634 C   0  0  0  0  0  0  0  0  0  0  0  0
   -0.8631    1.4840    4.2065 H   0  0  0  0  0  0  0  0  0  0  0  0
   -2.7096    1.4680    1.8296 H   0  0  0  0  0  0  0  0  0  0  0  0
   -0.9927    3.7366    2.9520 H   0  0  0  0  0  0  0  0  0  0  0  0
   -1.9812    3.8074    1.4775 H   0  0  0  0  0  0  0  0  0  0  0  0
   -2.7635    3.6194    3.0603 H   0  0  0  0  0  0  0  0  0  0  0  0
   -0.7478    1.1950    0.1063 N   0  0  0  0  0  0  0  0  0  0  0  0
    0.2886    0.5282   -0.7111 C   0  0  2  0  0  0  0  0  0  0  0  0
    0.2823    1.0110   -2.1740 C   0  0  0  0  0  0  0  0  0  0  0  0
    1.3208    1.0076   -2.8223 O   0  0  0  0  0  0  0  0  0  0  0  0
    0.0674   -0.9988   -0.7278 C   0  0  0  0  0  0  0  0  0  0  0  0
    0.2861   -1.6434    0.6196 C   0  0  0  0  0  0  0  0  0  0  0  0
    1.5849   -1.9389    1.0588 C   0  0  0  0  0  0  0  0  0  0  0  0
   -0.8032   -1.9939    1.4325 C   0  0  0  0  0  0  0  0  0  0  0  0
    1.7933   -2.5611    2.2944 C   0  0  0  0  0  0  0  0  0  0  0  0
   -0.5965   -2.6234    2.6639 C   0  0  0  0  0  0  0  0  0  0  0  0
    0.7021   -2.9047    3.0978 C   0  0  0  0  0  0  0  0  0  0  0  0
   -1.7138    1.0859   -0.1837 H   0  0  0  0  0  0  0  0  0  0  0  0
    1.2860    0.7446   -0.3113 H   0  0  0  0  0  0  0  0  0  0  0  0
    0.7626   -1.4546   -1.4418 H   0  0  0  0  0  0  0  0  0  0  0  0
   -0.9447   -1.2197   -1.0815 H   0  0  0  0  0  0  0  0  0  0  0  0
    2.4398   -1.6786    0.4414 H   0  0  0  0  0  0  0  0  0  0  0  0
   -1.8203   -1.7820    1.1163 H   0  0  0  0  0  0  0  0  0  0  0  0
    2.8040   -2.7781    2.6265 H   0  0  0  0  0  0  0  0  0  0  0  0
   -1.4506   -2.8918    3.2790 H   0  0  0  0  0  0  0  0  0  0  0  0
    0.8636   -3.3925    4.0543 H   0  0  0  0  0  0  0  0  0  0  0  0
   -0.8793    1.4436   -2.7912 N   0  0  0  0  0  0  0  0  0  0  0  0
   -0.9142    2.0151   -4.1460 C   0  0  2  0  0  0  0  0  0  0  0  0
   -0.3997    3.4743   -4.1675 C   0  0  0  0  0  0  0  0  0  0  0  0
   -1.1527    4.4181   -4.3758 O   0  0  0  0  0  0  0  0  0  0  0  0
   -2.3493    1.8792   -4.6696 C   0  0  0  0  0  0  0  0  0  0  0  0
   -1.6854    1.5939   -2.1955 H   0  0  0  0  0  0  0  0  0  0  0  0
   -0.2641    1.4337   -4.8088 H   0  0  0  0  0  0  0  0  0  0  0  0
   -3.0462    2.4415   -4.0398 H   0  0  0  0  0  0  0  0  0  0  0  0
   -2.4172    2.2671   -5.6912 H   0  0  0  0  0  0  0  0  0  0  0  0
   -2.6539    0.8283   -4.6791 H   0  0  0  0  0  0  0  0  0  0  0  0
    0.9302    3.7180   -3.8879 N   0  0  0  0  0  0  0  0  0  0  0  0
    1.4989    5.0515   -3.7508 C   0  0  0  0  0  0  0  0  0  0  0  0
    1.4855    2.9059   -3.6058 H   0  0  0  0  0  0  0  0  0  0  0  0
    1.3447    5.6299   -4.6678 H   0  0  0  0  0  0  0  0  0  0  0  0
    1.0315    5.5824   -2.9151 H   0  0  0  0  0  0  0  0  0  0  0  0
    2.5747    4.9850   -3.5621 H   0  0  0  0  0  0  0  0  0  0  0  0
  1  2  2  0  0  0  0
  1  3  1  0  0  0  0
  1  7  1  0  0  0  0
  3  4  1  0  0  0  0
  3  5  1  0  0  0  0
  3  6  1  0  0  0  0
  7  8  1  0  0  0  0
  7 12  1  0  0  0  0
  8  9  1  0  0  0  0
  8 11  1  0  0  0  0
  8 13  1  0  0  0  0
  9 10  2  0  0  0  0
  9 17  1  0  0  0  0
 11 14  1  0  0  0  0
 11 15  1  0  0  0  0
 11 16  1  0  0  0  0
 17 18  1  0  0  0  0
 17 28  1  0  0  0  0
 18 19  1  0  0  0  0
 18 21  1  0  0  0  0
 18 29  1  0  0  0  0
 19 20  2  0  0  0  0
 19 37  1  0  0  0  0
 21 22  1  0  0  0  0
 21 30  1  0  0  0  0
 21 31  1  0  0  0  0
 22 23  1  0  0  0  0
 22 24  2  0  0  0  0
 23 25  2  0  0  0  0
 23 32  1  0  0  0  0
 24 26  1  0  0  0  0
 24 33  1  0  0  0  0
 25 27  1  0  0  0  0
 25 34  1  0  0  0  0
 26 27  2  0  0  0  0
 26 35  1  0  0  0  0
 27 36  1  0  0  0  0
 37 38  1  0  0  0  0
 37 42  1  0  0  0  0
 38 39  1  0  0  0  0
 38 41  1  0  0  0  0
 38 43  1  0  0  0  0
 39 40  2  0  0  0  0
 39 47  1  0  0  0  0
 41 44  1  0  0  0  0
 41 45  1  0  0  0  0
 41 46  1  0  0  0  0
 47 48  1  0  0  0  0
 47 49  1  0  0  0  0
 48 50  1  0  0  0  0
 48 51  1  0  0  0  0
 48 52  1  0  0  0  0
M  END
$$$$

  -OEChem-05262217163D

 52 52  0     1  0  0  0  0  0999 V2000
   -2.2624   -0.0030    4.1665 C   0  0  0  0  0  0  0  0  0  0  0  0
   -3.1411   -0.5318    3.5018 O   0  0  0  0  0  0  0  0  0  0  0  0
   -1.7724   -0.6638    5.4412 C   0  0  0  0  0  0  0  0  0  0  0  0
   -2.3361   -1.5812    5.6330 H   0  0  0  0  0  0  0  0  0  0  0  0
   -0.7127   -0.9145    5.3460 H   0  0  0  0  0  0  0  0  0  0  0  0
   -1.9046    0.0142    6.2880 H   0  0  0  0  0  0  0  0  0  0  0  0
   -1.6851    1.1774    3.7483 N   0  0  0  0  0  0  0  0  0  0  0  0
   -1.8675    1.7258    2.3984 C   0  0  2  0  0  0  0  0  0  0  0  0
   -0.6473    1.4255    1.5048 C   0  0  0  0  0  0  0  0  0  0  0  0
    0.4776    1.4498    1.9897 O   0  0  0  0  0  0  0  0  0  0  0  0
   -2.0758    3.2360    2.5301 C   0  0  0  0  0  0  0  0  0  0  0  0
   -0.8182    1.4270    4.2200 H   0  0  0  0  0  0  0  0  0  0  0  0
   -2.7558    1.2973    1.9233 H   0  0  0  0  0  0  0  0  0  0  0  0
   -1.2000    3.7060    2.9894 H   0  0  0  0  0  0  0  0  0  0  0  0
   -2.2357    3.6877    1.5463 H   0  0  0  0  0  0  0  0  0  0  0  0
   -2.9512    3.4456    3.1528 H   0  0  0  0  0  0  0  0  0  0  0  0
   -0.8077    1.2342    0.1420 N   0  0  0  0  0  0  0  0  0  0  0  0
    0.2405    0.6048   -0.6906 C   0  0  2  0  0  0  0  0  0  0  0  0
    0.2288    1.1301   -2.1401 C   0  0  0  0  0  0  0  0  0  0  0  0
    1.1743    0.9040   -2.8850 O   0  0  0  0  0  0  0  0  0  0  0  0
    0.0345   -0.9245   -0.7401 C   0  0  0  0  0  0  0  0  0  0  0  0
    0.2590   -1.5952    0.5942 C   0  0  0  0  0  0  0  0  0  0  0  0
    1.5610   -1.8861    1.0270 C   0  0  0  0  0  0  0  0  0  0  0  0
   -0.8260   -1.9768    1.3988 C   0  0  0  0  0  0  0  0  0  0  0  0
    1.7768   -2.5321    2.2491 C   0  0  0  0  0  0  0  0  0  0  0  0
   -0.6117   -2.6300    2.6166 C   0  0  0  0  0  0  0  0  0  0  0  0
    0.6899   -2.9049    3.0452 C   0  0  0  0  0  0  0  0  0  0  0  0
   -1.7701    1.0723   -0.1394 H   0  0  0  0  0  0  0  0  0  0  0  0
    1.2351    0.8233   -0.2852 H   0  0  0  0  0  0  0  0  0  0  0  0
    0.7336   -1.3600   -1.4625 H   0  0  0  0  0  0  0  0  0  0  0  0
   -0.9751   -1.1464   -1.1007 H   0  0  0  0  0  0  0  0  0  0  0  0
    2.4128   -1.6042    0.4152 H   0  0  0  0  0  0  0  0  0  0  0  0
   -1.8457   -1.7725    1.0864 H   0  0  0  0  0  0  0  0  0  0  0  0
    2.7896   -2.7456    2.5772 H   0  0  0  0  0  0  0  0  0  0  0  0
   -1.4623   -2.9211    3.2264 H   0  0  0  0  0  0  0  0  0  0  0  0
    0.8569   -3.4106    3.9915 H   0  0  0  0  0  0  0  0  0  0  0  0
   -0.8509    1.8392   -2.6382 N   0  0  0  0  0  0  0  0  0  0  0  0
   -0.8788    2.4374   -3.9821 C   0  0  2  0  0  0  0  0  0  0  0  0
   -0.0362    3.7335   -4.0577 C   0  0  0  0  0  0  0  0  0  0  0  0
   -0.5577    4.8306   -4.2163 O   0  0  0  0  0  0  0  0  0  0  0  0
   -2.3484    2.6573   -4.3615 C   0  0  0  0  0  0  0  0  0  0  0  0
   -1.5005    2.2013   -1.9478 H   0  0  0  0  0  0  0  0  0  0  0  0
   -0.4528    1.7346   -4.7064 H   0  0  0  0  0  0  0  0  0  0  0  0
   -2.8270    3.3563   -3.6683 H   0  0  0  0  0  0  0  0  0  0  0  0
   -2.4190    3.0713   -5.3725 H   0  0  0  0  0  0  0  0  0  0  0  0
   -2.8944    1.7094   -4.3378 H   0  0  0  0  0  0  0  0  0  0  0  0
    1.3328    3.6522   -3.8966 N   0  0  0  0  0  0  0  0  0  0  0  0
    2.2165    4.8090   -3.8491 C   0  0  0  0  0  0  0  0  0  0  0  0
    1.7053    2.7265   -3.6692 H   0  0  0  0  0  0  0  0  0  0  0  0
    2.1275    5.3974   -4.7683 H   0  0  0  0  0  0  0  0  0  0  0  0
    1.9665    5.4476   -2.9956 H   0  0  0  0  0  0  0  0  0  0  0  0
    3.2565    4.4844   -3.7470 H   0  0  0  0  0  0  0  0  0  0  0  0
  1  2  2  0  0  0  0
  1  3  1  0  0  0  0
  1  7  1  0  0  0  0
  3  4  1  0  0  0  0
  3  5  1  0  0  0  0
  3  6  1  0  0  0  0
  7  8  1  0  0  0  0
  7 12  1  0  0  0  0
  8  9  1  0  0  0  0
  8 11  1  0  0  0  0
  8 13  1  0  0  0  0
  9 10  2  0  0  0  0
  9 17  1  0  0  0  0
 11 14  1  0  0  0  0
 11 15  1  0  0  0  0
 11 16  1  0  0  0  0
 17 18  1  0  0  0  0
 17 28  1  0  0  0  0
 18 19  1  0  0  0  0
 18 21  1  0  0  0  0
 18 29  1  0  0  0  0
 19 20  2  0  0  0  0
 19 37  1  0  0  0  0
 21 22  1  0  0  0  0
 21 30  1  0  0  0  0
 21 31  1  0  0  0  0
 22 23  1  0  0  0  0
 22 24  2  0  0  0  0
 23 25  2  0  0  0  0
 23 32  1  0  0  0  0
 24 26  1  0  0  0  0
 24 33  1  0  0  0  0
 25 27  1  0  0  0  0
 25 34  1  0  0  0  0
 26 27  2  0  0  0  0
 26 35  1  0  0  0  0
 27 36  1  0  0  0  0
 37 38  1  0  0  0  0
 37 42  1  0  0  0  0
 38 39  1  0  0  0  0
 38 41  1  0  0  0  0
 38 43  1  0  0  0  0
 39 40  2  0  0  0  0
 39 47  1  0  0  0  0
 41 44  1  0  0  0  0
 41 45  1  0  0  0  0
 41 46  1  0  0  0  0
 47 48  1  0  0  0  0
 47 49  1  0  0  0  0
 48 50  1  0  0  0  0
 48 51  1  0  0  0  0
 48 52  1  0  0  0  0
M  END
$$$$

  -OEChem-05262217163D

 52 52  0     1  0  0  0  0  0999 V2000
   -2.2099   -0.0621    4.2495 C   0  0  0  0  0  0  0  0  0  0  0  0
   -3.1204   -0.6038    3.6404 O   0  0  0  0  0  0  0  0  0  0  0  0
   -1.6552   -0.6989    5.5099 C   0  0  0  0  0  0  0  0  0  0  0  0
   -2.2220   -1.5999    5.7597 H   0  0  0  0  0  0  0  0  0  0  0  0
   -0.6077   -0.9723    5.3586 H   0  0  0  0  0  0  0  0  0  0  0  0
   -1.7246    0.0027    6.3446 H   0  0  0  0  0  0  0  0  0  0  0  0
   -1.6550    1.1107    3.7815 N   0  0  0  0  0  0  0  0  0  0  0  0
   -1.8966    1.6350    2.4310 C   0  0  2  0  0  0  0  0  0  0  0  0
   -0.6699    1.4175    1.5228 C   0  0  0  0  0  0  0  0  0  0  0  0
    0.4564    1.4639    2.0031 O   0  0  0  0  0  0  0  0  0  0  0  0
   -2.2148    3.1262    2.5585 C   0  0  0  0  0  0  0  0  0  0  0  0
   -0.7677    1.3713    4.2082 H   0  0  0  0  0  0  0  0  0  0  0  0
   -2.7545    1.1366    1.9681 H   0  0  0  0  0  0  0  0  0  0  0  0
   -1.3698    3.6634    3.0020 H   0  0  0  0  0  0  0  0  0  0  0  0
   -2.4248    3.5587    1.5756 H   0  0  0  0  0  0  0  0  0  0  0  0
   -3.0935    3.2721    3.1948 H   0  0  0  0  0  0  0  0  0  0  0  0
   -0.8272    1.2614    0.1553 N   0  0  0  0  0  0  0  0  0  0  0  0
    0.2252    0.6564   -0.6907 C   0  0  2  0  0  0  0  0  0  0  0  0
    0.2063    1.2263   -2.1246 C   0  0  0  0  0  0  0  0  0  0  0  0
    1.0117    0.8403   -2.9629 O   0  0  0  0  0  0  0  0  0  0  0  0
    0.0204   -0.8738   -0.7681 C   0  0  0  0  0  0  0  0  0  0  0  0
    0.2465   -1.5651    0.5552 C   0  0  0  0  0  0  0  0  0  0  0  0
    1.5493   -1.8602    0.9821 C   0  0  0  0  0  0  0  0  0  0  0  0
   -0.8374   -1.9602    1.3553 C   0  0  0  0  0  0  0  0  0  0  0  0
    1.7676   -2.5221    2.1952 C   0  0  0  0  0  0  0  0  0  0  0  0
   -0.6206   -2.6293    2.5640 C   0  0  0  0  0  0  0  0  0  0  0  0
    0.6819   -2.9075    2.9873 C   0  0  0  0  0  0  0  0  0  0  0  0
   -1.7876    1.1032   -0.1370 H   0  0  0  0  0  0  0  0  0  0  0  0
    1.2194    0.8686   -0.2813 H   0  0  0  0  0  0  0  0  0  0  0  0
    0.7199   -1.2998   -1.4957 H   0  0  0  0  0  0  0  0  0  0  0  0
   -0.9888   -1.0899   -1.1332 H   0  0  0  0  0  0  0  0  0  0  0  0
    2.3996   -1.5690    0.3727 H   0  0  0  0  0  0  0  0  0  0  0  0
   -1.8579   -1.7544    1.0467 H   0  0  0  0  0  0  0  0  0  0  0  0
    2.7817   -2.7380    2.5184 H   0  0  0  0  0  0  0  0  0  0  0  0
   -1.4700   -2.9297    3.1713 H   0  0  0  0  0  0  0  0  0  0  0  0
    0.8502   -3.4262    3.9263 H   0  0  0  0  0  0  0  0  0  0  0  0
   -0.7184    2.1881   -2.4919 N   0  0  0  0  0  0  0  0  0  0  0  0
   -0.7401    2.8414   -3.8099 C   0  0  2  0  0  0  0  0  0  0  0  0
    0.3657    3.9157   -3.9473 C   0  0  0  0  0  0  0  0  0  0  0  0
    0.0958    5.1062   -4.0501 O   0  0  0  0  0  0  0  0  0  0  0  0
   -2.1507    3.4051   -4.0205 C   0  0  0  0  0  0  0  0  0  0  0  0
   -1.2095    2.6427   -1.7275 H   0  0  0  0  0  0  0  0  0  0  0  0
   -0.5615    2.0954   -4.5919 H   0  0  0  0  0  0  0  0  0  0  0  0
   -2.3817    4.1631   -3.2653 H   0  0  0  0  0  0  0  0  0  0  0  0
   -2.2291    3.8678   -5.0095 H   0  0  0  0  0  0  0  0  0  0  0  0
   -2.8946    2.6056   -3.9542 H   0  0  0  0  0  0  0  0  0  0  0  0
    1.6892    3.5236   -3.9149 N   0  0  0  0  0  0  0  0  0  0  0  0
    2.8122    4.4505   -3.9291 C   0  0  0  0  0  0  0  0  0  0  0  0
    1.8600    2.5305   -3.7367 H   0  0  0  0  0  0  0  0  0  0  0  0
    2.7892    5.0662   -4.8342 H   0  0  0  0  0  0  0  0  0  0  0  0
    2.7769    5.1075   -3.0540 H   0  0  0  0  0  0  0  0  0  0  0  0
    3.7569    3.8986   -3.9112 H   0  0  0  0  0  0  0  0  0  0  0  0
  1  2  2  0  0  0  0
  1  3  1  0  0  0  0
  1  7  1  0  0  0  0
  3  4  1  0  0  0  0
  3  5  1  0  0  0  0
  3  6  1  0  0  0  0
  7  8  1  0  0  0  0
  7 12  1  0  0  0  0
  8  9  1  0  0  0  0
  8 11  1  0  0  0  0
  8 13  1  0  0  0  0
  9 10  2  0  0  0  0
  9 17  1  0  0  0  0
 11 14  1  0  0  0  0
 11 15  1  0  0  0  0
 11 16  1  0  0  0  0
 17 18  1  0  0  0  0
 17 28  1  0  0  0  0
 18 19  1  0  0  0  0
 18 21  1  0  0  0  0
 18 29  1  0  0  0  0
 19 20  2  0  0  0  0
 19 37  1  0  0  0  0
 21 22  1  0  0  0  0
 21 30  1  0  0  0  0
 21 31  1  0  0  0  0
 22 23  1  0  0  0  0
 22 24  2  0  0  0  0
 23 25  2  0  0  0  0
 23 32  1  0  0  0  0
 24 26  1  0  0  0  0
 24 33  1  0  0  0  0
 25 27  1  0  0  0  0
 25 34  1  0  0  0  0
 26 27  2  0  0  0  0
 26 35  1  0  0  0  0
 27 36  1  0  0  0  0
 37 38  1  0  0  0  0
 37 42  1  0  0  0  0
 38 39  1  0  0  0  0
 38 41  1  0  0  0  0
 38 43  1  0  0  0  0
 39 40  2  0  0  0  0
 39 47  1  0  0  0  0
 41 44  1  0  0  0  0
 41 45  1  0  0  0  0
 41 46  1  0  0  0  0
 47 48  1  0  0  0  0
 47 49  1  0  0  0  0
 48 50  1  0  0  0  0
 48 51  1  0  0  0  0
 48 52  1  0  0  0  0
M  END
$$$$

  -OEChem-05262217163D

 52 52  0     1  0  0  0  0  0999 V2000
   -2.2115   -0.1288    4.2543 C   0  0  0  0  0  0  0  0  0  0  0  0
   -3.1234   -0.6660    3.6438 O   0  0  0  0  0  0  0  0  0  0  0  0
   -1.6267   -0.7941    5.4857 C   0  0  0  0  0  0  0  0  0  0  0  0
   -2.1681   -1.7173    5.7100 H   0  0  0  0  0  0  0  0  0  0  0  0
   -0.5748   -1.0357    5.3119 H   0  0  0  0  0  0  0  0  0  0  0  0
   -1.7026   -0.1232    6.3448 H   0  0  0  0  0  0  0  0  0  0  0  0
   -1.6763    1.0614    3.8085 N   0  0  0  0  0  0  0  0  0  0  0  0
   -1.9243    1.6021    2.4655 C   0  0  2  0  0  0  0  0  0  0  0  0
   -0.6905    1.4175    1.5601 C   0  0  0  0  0  0  0  0  0  0  0  0
    0.4328    1.4557    2.0482 O   0  0  0  0  0  0  0  0  0  0  0  0
   -2.2673    3.0860    2.6110 C   0  0  0  0  0  0  0  0  0  0  0  0
   -0.7871    1.3195    4.2325 H   0  0  0  0  0  0  0  0  0  0  0  0
   -2.7711    1.0952    1.9918 H   0  0  0  0  0  0  0  0  0  0  0  0
   -1.4313    3.6305    3.0620 H   0  0  0  0  0  0  0  0  0  0  0  0
   -2.4827    3.5271    1.6330 H   0  0  0  0  0  0  0  0  0  0  0  0
   -3.1487    3.2099    3.2482 H   0  0  0  0  0  0  0  0  0  0  0  0
   -0.8352    1.2998    0.1879 N   0  0  0  0  0  0  0  0  0  0  0  0
    0.2215    0.7158   -0.6668 C   0  0  2  0  0  0  0  0  0  0  0  0
    0.2019    1.3366   -2.0813 C   0  0  0  0  0  0  0  0  0  0  0  0
    0.8136    0.8266   -3.0122 O   0  0  0  0  0  0  0  0  0  0  0  0
    0.0238   -0.8153   -0.7729 C   0  0  0  0  0  0  0  0  0  0  0  0
    0.2495   -1.5346    0.5359 C   0  0  0  0  0  0  0  0  0  0  0  0
    1.5522   -1.8346    0.9605 C   0  0  0  0  0  0  0  0  0  0  0  0
   -0.8356   -1.9545    1.3215 C   0  0  0  0  0  0  0  0  0  0  0  0
    1.7684   -2.5277    2.1567 C   0  0  0  0  0  0  0  0  0  0  0  0
   -0.6208   -2.6548    2.5126 C   0  0  0  0  0  0  0  0  0  0  0  0
    0.6813   -2.9388    2.9336 C   0  0  0  0  0  0  0  0  0  0  0  0
   -1.7938    1.1750   -0.1272 H   0  0  0  0  0  0  0  0  0  0  0  0
    1.2129    0.9219   -0.2483 H   0  0  0  0  0  0  0  0  0  0  0  0
    0.7271   -1.2267   -1.5051 H   0  0  0  0  0  0  0  0  0  0  0  0
   -0.9833   -1.0280   -1.1450 H   0  0  0  0  0  0  0  0  0  0  0  0
    2.4040   -1.5237    0.3627 H   0  0  0  0  0  0  0  0  0  0  0  0
   -1.8557   -1.7447    1.0143 H   0  0  0  0  0  0  0  0  0  0  0  0
    2.7818   -2.7483    2.4790 H   0  0  0  0  0  0  0  0  0  0  0  0
   -1.4716   -2.9757    3.1075 H   0  0  0  0  0  0  0  0  0  0  0  0
    0.8482   -3.4815    3.8591 H   0  0  0  0  0  0  0  0  0  0  0  0
   -0.4994    2.5053   -2.3201 N   0  0  0  0  0  0  0  0  0  0  0  0
   -0.5077    3.2131   -3.6101 C   0  0  2  0  0  0  0  0  0  0  0  0
    0.8040    3.9967   -3.8609 C   0  0  0  0  0  0  0  0  0  0  0  0
    0.8238    5.2207   -3.9077 O   0  0  0  0  0  0  0  0  0  0  0  0
   -1.7517    4.1102   -3.6338 C   0  0  0  0  0  0  0  0  0  0  0  0
   -0.8252    3.0035   -1.4960 H   0  0  0  0  0  0  0  0  0  0  0  0
   -0.6071    2.4868   -4.4239 H   0  0  0  0  0  0  0  0  0  0  0  0
   -1.7016    4.8614   -2.8390 H   0  0  0  0  0  0  0  0  0  0  0  0
   -1.8246    4.6291   -4.5950 H   0  0  0  0  0  0  0  0  0  0  0  0
   -2.6573    3.5120   -3.4955 H   0  0  0  0  0  0  0  0  0  0  0  0
    1.9843    3.2963   -4.0125 N   0  0  0  0  0  0  0  0  0  0  0  0
    3.2903    3.9237   -4.1598 C   0  0  0  0  0  0  0  0  0  0  0  0
    1.9266    2.2839   -3.8747 H   0  0  0  0  0  0  0  0  0  0  0  0
    3.3054    4.5756   -5.0394 H   0  0  0  0  0  0  0  0  0  0  0  0
    3.5301    4.5197   -3.2733 H   0  0  0  0  0  0  0  0  0  0  0  0
    4.0635    3.1594   -4.2837 H   0  0  0  0  0  0  0  0  0  0  0  0
  1  2  2  0  0  0  0
  1  3  1  0  0  0  0
  1  7  1  0  0  0  0
  3  4  1  0  0  0  0
  3  5  1  0  0  0  0
  3  6  1  0  0  0  0
  7  8  1  0  0  0  0
  7 12  1  0  0  0  0
  8  9  1  0  0  0  0
  8 11  1  0  0  0  0
  8 13  1  0  0  0  0
  9 10  2  0  0  0  0
  9 17  1  0  0  0  0
 11 14  1  0  0  0  0
 11 15  1  0  0  0  0
 11 16  1  0  0  0  0
 17 18  1  0  0  0  0
 17 28  1  0  0  0  0
 18 19  1  0  0  0  0
 18 21  1  0  0  0  0
 18 29  1  0  0  0  0
 19 20  2  0  0  0  0
 19 37  1  0  0  0  0
 21 22  1  0  0  0  0
 21 30  1  0  0  0  0
 21 31  1  0  0  0  0
 22 23  1  0  0  0  0
 22 24  2  0  0  0  0
 23 25  2  0  0  0  0
 23 32  1  0  0  0  0
 24 26  1  0  0  0  0
 24 33  1  0  0  0  0
 25 27  1  0  0  0  0
 25 34  1  0  0  0  0
 26 27  2  0  0  0  0
 26 35  1  0  0  0  0
 27 36  1  0  0  0  0
 37 38  1  0  0  0  0
 37 42  1  0  0  0  0
 38 39  1  0  0  0  0
 38 41  1  0  0  0  0
 38 43  1  0  0  0  0
 39 40  2  0  0  0  0
 39 47  1  0  0  0  0
 41 44  1  0  0  0  0
 41 45  1  0  0  0  0
 41 46  1  0  0  0  0
 47 48  1  0  0  0  0
 47 49  1  0  0  0  0
 48 50  1  0  0  0  0
 48 51  1  0  0  0  0
 48 52  1  0  0  0  0
M  END
$$$$

  -OEChem-05262217163D

 52 52  0     1  0  0  0  0  0999 V2000
   -2.1967   -0.1625    4.2801 C   0  0  0  0  0  0  0  0  0  0  0  0
   -3.1321   -0.6838    3.6922 O   0  0  0  0  0  0  0  0  0  0  0  0
   -1.6070   -0.8289    5.5087 C   0  0  0  0  0  0  0  0  0  0  0  0
   -2.1436   -1.7556    5.7301 H   0  0  0  0  0  0  0  0  0  0  0  0
   -0.5542   -1.0646    5.3341 H   0  0  0  0  0  0  0  0  0  0  0  0
   -1.6861   -0.1611    6.3699 H   0  0  0  0  0  0  0  0  0  0  0  0
   -1.6449    1.0126    3.8147 N   0  0  0  0  0  0  0  0  0  0  0  0
   -1.9101    1.5555    2.4756 C   0  0  2  0  0  0  0  0  0  0  0  0
   -0.6713    1.4146    1.5689 C   0  0  0  0  0  0  0  0  0  0  0  0
    0.4507    1.4486    2.0607 O   0  0  0  0  0  0  0  0  0  0  0  0
   -2.3020    3.0260    2.6333 C   0  0  0  0  0  0  0  0  0  0  0  0
   -0.7430    1.2567    4.2201 H   0  0  0  0  0  0  0  0  0  0  0  0
   -2.7388    1.0242    1.9971 H   0  0  0  0  0  0  0  0  0  0  0  0
   -1.4881    3.5926    3.0970 H   0  0  0  0  0  0  0  0  0  0  0  0
   -2.5246    3.4710    1.6588 H   0  0  0  0  0  0  0  0  0  0  0  0
   -3.1917    3.1137    3.2646 H   0  0  0  0  0  0  0  0  0  0  0  0
   -0.8071    1.3331    0.1933 N   0  0  0  0  0  0  0  0  0  0  0  0
    0.2472    0.7546   -0.6670 C   0  0  2  0  0  0  0  0  0  0  0  0
    0.2300    1.4245   -2.0595 C   0  0  0  0  0  0  0  0  0  0  0  0
    0.6085    0.8428   -3.0693 O   0  0  0  0  0  0  0  0  0  0  0  0
    0.0271   -0.7716   -0.8071 C   0  0  0  0  0  0  0  0  0  0  0  0
    0.2323   -1.5232    0.4871 C   0  0  0  0  0  0  0  0  0  0  0  0
    1.5254   -1.8546    0.9175 C   0  0  0  0  0  0  0  0  0  0  0  0
   -0.8671   -1.9399    1.2545 C   0  0  0  0  0  0  0  0  0  0  0  0
    1.7176   -2.5738    2.1024 C   0  0  0  0  0  0  0  0  0  0  0  0
   -0.6765   -2.6647    2.4349 C   0  0  0  0  0  0  0  0  0  0  0  0
    0.6163   -2.9793    2.8624 C   0  0  0  0  0  0  0  0  0  0  0  0
   -1.7645    1.2345   -0.1351 H   0  0  0  0  0  0  0  0  0  0  0  0
    1.2401    0.9365   -0.2410 H   0  0  0  0  0  0  0  0  0  0  0  0
    0.7319   -1.1772   -1.5409 H   0  0  0  0  0  0  0  0  0  0  0  0
   -0.9795   -0.9616   -1.1940 H   0  0  0  0  0  0  0  0  0  0  0  0
    2.3880   -1.5489    0.3332 H   0  0  0  0  0  0  0  0  0  0  0  0
   -1.8805   -1.7088    0.9408 H   0  0  0  0  0  0  0  0  0  0  0  0
    2.7236   -2.8195    2.4292 H   0  0  0  0  0  0  0  0  0  0  0  0
   -1.5385   -2.9813    3.0160 H   0  0  0  0  0  0  0  0  0  0  0  0
    0.7644   -3.5425    3.7790 H   0  0  0  0  0  0  0  0  0  0  0  0
   -0.1857    2.7382   -2.1794 N   0  0  0  0  0  0  0  0  0  0  0  0
   -0.1752    3.5035   -3.4360 C   0  0  2  0  0  0  0  0  0  0  0  0
    1.2448    3.9859   -3.8205 C   0  0  0  0  0  0  0  0  0  0  0  0
    1.5275    5.1766   -3.8762 O   0  0  0  0  0  0  0  0  0  0  0  0
   -1.1735    4.6572   -3.2790 C   0  0  0  0  0  0  0  0  0  0  0  0
   -0.3432    3.2389   -1.3083 H   0  0  0  0  0  0  0  0  0  0  0  0
   -0.5293    2.8667   -4.2537 H   0  0  0  0  0  0  0  0  0  0  0  0
   -0.8581    5.3339   -2.4784 H   0  0  0  0  0  0  0  0  0  0  0  0
   -1.2381    5.2299   -4.2096 H   0  0  0  0  0  0  0  0  0  0  0  0
   -2.1693    4.2716   -3.0417 H   0  0  0  0  0  0  0  0  0  0  0  0
    2.2229    3.0488   -4.0877 N   0  0  0  0  0  0  0  0  0  0  0  0
    3.6114    3.3810   -4.3744 C   0  0  0  0  0  0  0  0  0  0  0  0
    1.9547    2.0693   -3.9622 H   0  0  0  0  0  0  0  0  0  0  0  0
    3.6770    4.0238   -5.2585 H   0  0  0  0  0  0  0  0  0  0  0  0
    4.0629    3.9027   -3.5242 H   0  0  0  0  0  0  0  0  0  0  0  0
    4.1851    2.4694   -4.5670 H   0  0  0  0  0  0  0  0  0  0  0  0
  1  2  2  0  0  0  0
  1  3  1  0  0  0  0
  1  7  1  0  0  0  0
  3  4  1  0  0  0  0
  3  5  1  0  0  0  0
  3  6  1  0  0  0  0
  7  8  1  0  0  0  0
  7 12  1  0  0  0  0
  8  9  1  0  0  0  0
  8 11  1  0  0  0  0
  8 13  1  0  0  0  0
  9 10  2  0  0  0  0
  9 17  1  0  0  0  0
 11 14  1  0  0  0  0
 11 15  1  0  0  0  0
 11 16  1  0  0  0  0
 17 18  1  0  0  0  0
 17 28  1  0  0  0  0
 18 19  1  0  0  0  0
 18 21  1  0  0  0  0
 18 29  1  0  0  0  0
 19 20  2  0  0  0  0
 19 37  1  0  0  0  0
 21 22  1  0  0  0  0
 21 30  1  0  0  0  0
 21 31  1  0  0  0  0
 22 23  1  0  0  0  0
 22 24  2  0  0  0  0
 23 25  2  0  0  0  0
 23 32  1  0  0  0  0
 24 26  1  0  0  0  0
 24 33  1  0  0  0  0
 25 27  1  0  0  0  0
 25 34  1  0  0  0  0
 26 27  2  0  0  0  0
 26 35  1  0  0  0  0
 27 36  1  0  0  0  0
 37 38  1  0  0  0  0
 37 42  1  0  0  0  0
 38 39  1  0  0  0  0
 38 41  1  0  0  0  0
 38 43  1  0  0  0  0
 39 40  2  0  0  0  0
 39 47  1  0  0  0  0
 41 44  1  0  0  0  0
 41 45  1  0  0  0  0
 41 46  1  0  0  0  0
 47 48  1  0  0  0  0
 47 49  1  0  0  0  0
 48 50  1  0  0  0  0
 48 51  1  0  0  0  0
 48 52  1  0  0  0  0
M  END
$$$$

  -OEChem-05262217163D

 52 52  0     1  0  0  0  0  0999 V2000
   -2.2185   -0.2120    4.2606 C   0  0  0  0  0  0  0  0  0  0  0  0
   -3.1357   -0.7352    3.6459 O   0  0  0  0  0  0  0  0  0  0  0  0
   -1.6483   -0.8883    5.4927 C   0  0  0  0  0  0  0  0  0  0  0  0
   -2.1600   -1.8375    5.6734 H   0  0  0  0  0  0  0  0  0  0  0  0
   -0.5828   -1.0853    5.3494 H   0  0  0  0  0  0  0  0  0  0  0  0
   -1.7797   -0.2444    6.3657 H   0  0  0  0  0  0  0  0  0  0  0  0
   -1.6720    0.9775    3.8265 N   0  0  0  0  0  0  0  0  0  0  0  0
   -1.9143    1.5353    2.4891 C   0  0  2  0  0  0  0  0  0  0  0  0
   -0.6627    1.4031    1.5986 C   0  0  0  0  0  0  0  0  0  0  0  0
    0.4526    1.4096    2.1074 O   0  0  0  0  0  0  0  0  0  0  0  0
   -2.3050    3.0045    2.6562 C   0  0  0  0  0  0  0  0  0  0  0  0
   -0.7822    1.2253    4.2558 H   0  0  0  0  0  0  0  0  0  0  0  0
   -2.7369    1.0112    1.9921 H   0  0  0  0  0  0  0  0  0  0  0  0
   -1.4935    3.5668    3.1298 H   0  0  0  0  0  0  0  0  0  0  0  0
   -2.5201    3.4555    1.6828 H   0  0  0  0  0  0  0  0  0  0  0  0
   -3.1991    3.0883    3.2820 H   0  0  0  0  0  0  0  0  0  0  0  0
   -0.7762    1.3684    0.2194 N   0  0  0  0  0  0  0  0  0  0  0  0
    0.2802    0.8004   -0.6424 C   0  0  2  0  0  0  0  0  0  0  0  0
    0.2850    1.5246   -2.0066 C   0  0  0  0  0  0  0  0  0  0  0  0
    0.3913    0.9287   -3.0723 O   0  0  0  0  0  0  0  0  0  0  0  0
    0.0469   -0.7181   -0.8307 C   0  0  0  0  0  0  0  0  0  0  0  0
    0.2279   -1.5068    0.4448 C   0  0  0  0  0  0  0  0  0  0  0  0
    1.5118   -1.8629    0.8829 C   0  0  0  0  0  0  0  0  0  0  0  0
   -0.8858   -1.9302    1.1873 C   0  0  0  0  0  0  0  0  0  0  0  0
    1.6812   -2.6155    2.0502 C   0  0  0  0  0  0  0  0  0  0  0  0
   -0.7181   -2.6886    2.3499 C   0  0  0  0  0  0  0  0  0  0  0  0
    0.5656   -3.0298    2.7842 C   0  0  0  0  0  0  0  0  0  0  0  0
   -1.7290    1.3077   -0.1311 H   0  0  0  0  0  0  0  0  0  0  0  0
    1.2694    0.9550   -0.1981 H   0  0  0  0  0  0  0  0  0  0  0  0
    0.7571   -1.1075   -1.5682 H   0  0  0  0  0  0  0  0  0  0  0  0
   -0.9566   -0.8868   -1.2348 H   0  0  0  0  0  0  0  0  0  0  0  0
    2.3853   -1.5497    0.3194 H   0  0  0  0  0  0  0  0  0  0  0  0
   -1.8921   -1.6764    0.8675 H   0  0  0  0  0  0  0  0  0  0  0  0
    2.6804   -2.8794    2.3836 H   0  0  0  0  0  0  0  0  0  0  0  0
   -1.5907   -3.0096    2.9124 H   0  0  0  0  0  0  0  0  0  0  0  0
    0.6954   -3.6193    3.6868 H   0  0  0  0  0  0  0  0  0  0  0  0
    0.1956    2.9040   -2.0344 N   0  0  0  0  0  0  0  0  0  0  0  0
    0.2413    3.7183   -3.2592 C   0  0  2  0  0  0  0  0  0  0  0  0
    1.6786    3.8691   -3.8149 C   0  0  0  0  0  0  0  0  0  0  0  0
    2.2303    4.9602   -3.8887 O   0  0  0  0  0  0  0  0  0  0  0  0
   -0.4194    5.0649   -2.9386 C   0  0  0  0  0  0  0  0  0  0  0  0
    0.2225    3.3773   -1.1343 H   0  0  0  0  0  0  0  0  0  0  0  0
   -0.3541    3.2346   -4.0410 H   0  0  0  0  0  0  0  0  0  0  0  0
    0.1404    5.5937   -2.1605 H   0  0  0  0  0  0  0  0  0  0  0  0
   -0.4470    5.6954   -3.8331 H   0  0  0  0  0  0  0  0  0  0  0  0
   -1.4462    4.9140   -2.5919 H   0  0  0  0  0  0  0  0  0  0  0  0
    2.3592    2.7411   -4.2284 N   0  0  0  0  0  0  0  0  0  0  0  0
    3.7309    2.7478   -4.7180 C   0  0  0  0  0  0  0  0  0  0  0  0
    1.8764    1.8491   -4.0938 H   0  0  0  0  0  0  0  0  0  0  0  0
    3.8186    3.3850   -5.6042 H   0  0  0  0  0  0  0  0  0  0  0  0
    4.4120    3.1206   -3.9460 H   0  0  0  0  0  0  0  0  0  0  0  0
    4.0383    1.7336   -4.9905 H   0  0  0  0  0  0  0  0  0  0  0  0
  1  2  2  0  0  0  0
  1  3  1  0  0  0  0
  1  7  1  0  0  0  0
  3  4  1  0  0  0  0
  3  5  1  0  0  0  0
  3  6  1  0  0  0  0
  7  8  1  0  0  0  0
  7 12  1  0  0  0  0
  8  9  1  0  0  0  0
  8 11  1  0  0  0  0
  8 13  1  0  0  0  0
  9 10  2  0  0  0  0
  9 17  1  0  0  0  0
 11 14  1  0  0  0  0
 11 15  1  0  0  0  0
 11 16  1  0  0  0  0
 17 18  1  0  0  0  0
 17 28  1  0  0  0  0
 18 19  1  0  0  0  0
 18 21  1  0  0  0  0
 18 29  1  0  0  0  0
 19 20  2  0  0  0  0
 19 37  1  0  0  0  0
 21 22  1  0  0  0  0
 21 30  1  0  0  0  0
 21 31  1  0  0  0  0
 22 23  1  0  0  0  0
 22 24  2  0  0  0  0
 23 25  2  0  0  0  0
 23 32  1  0  0  0  0
 24 26  1  0  0  0  0
 24 33  1  0  0  0  0
 25 27  1  0  0  0  0
 25 34  1  0  0  0  0
 26 27  2  0  0  0  0
 26 35  1  0  0  0  0
 27 36  1  0  0  0  0
 37 38  1  0  0  0  0
 37 42  1  0  0  0  0
 38 39  1  0  0  0  0
 38 41  1  0  0  0  0
 38 43  1  0  0  0  0
 39 40  2  0  0  0  0
 39 47  1  0  0  0  0
 41 44  1  0  0  0  0
 41 45  1  0  0  0  0
 41 46  1  0  0  0  0
 47 48  1  0  0  0  0
 47 49  1  0  0  0  0
 48 50  1  0  0  0  0
 48 51  1  0  0  0  0
 48 52  1  0  0  0  0
M  END
$$$$

  -OEChem-05262217163D

 52 52  0     1  0  0  0  0  0999 V2000
   -2.2925   -0.2544    4.2024 C   0  0  0  0  0  0  0  0  0  0  0  0
   -3.2064   -0.7392    3.5524 O   0  0  0  0  0  0  0  0  0  0  0  0
   -1.7573   -0.9865    5.4186 C   0  0  0  0  0  0  0  0  0  0  0  0
   -2.2398   -1.9631    5.5137 H   0  0  0  0  0  0  0  0  0  0  0  0
   -0.6792   -1.1363    5.3195 H   0  0  0  0  0  0  0  0  0  0  0  0
   -1.9562   -0.4046    6.3217 H   0  0  0  0  0  0  0  0  0  0  0  0
   -1.7152    0.9382    3.8188 N   0  0  0  0  0  0  0  0  0  0  0  0
   -1.9176    1.5433    2.4949 C   0  0  2  0  0  0  0  0  0  0  0  0
   -0.6469    1.4183    1.6304 C   0  0  0  0  0  0  0  0  0  0  0  0
    0.4561    1.3976    2.1655 O   0  0  0  0  0  0  0  0  0  0  0  0
   -2.2894    3.0131    2.6996 C   0  0  0  0  0  0  0  0  0  0  0  0
   -0.8292    1.1537    4.2727 H   0  0  0  0  0  0  0  0  0  0  0  0
   -2.7364    1.0488    1.9623 H   0  0  0  0  0  0  0  0  0  0  0  0
   -1.4832    3.5452    3.2149 H   0  0  0  0  0  0  0  0  0  0  0  0
   -2.4682    3.5006    1.7364 H   0  0  0  0  0  0  0  0  0  0  0  0
   -3.2002    3.0918    3.3018 H   0  0  0  0  0  0  0  0  0  0  0  0
   -0.7261    1.4162    0.2487 N   0  0  0  0  0  0  0  0  0  0  0  0
    0.3414    0.8514   -0.5988 C   0  0  2  0  0  0  0  0  0  0  0  0
    0.3885    1.6074   -1.9436 C   0  0  0  0  0  0  0  0  0  0  0  0
    0.2217    1.0508   -3.0230 O   0  0  0  0  0  0  0  0  0  0  0  0
    0.0969   -0.6594   -0.8258 C   0  0  0  0  0  0  0  0  0  0  0  0
    0.2395   -1.4781    0.4357 C   0  0  0  0  0  0  0  0  0  0  0  0
    1.5091   -1.8577    0.8955 C   0  0  0  0  0  0  0  0  0  0  0  0
   -0.8956   -1.9065    1.1418 C   0  0  0  0  0  0  0  0  0  0  0  0
    1.6429   -2.6370    2.0499 C   0  0  0  0  0  0  0  0  0  0  0  0
   -0.7632   -2.6915    2.2910 C   0  0  0  0  0  0  0  0  0  0  0  0
    0.5063   -3.0544    2.7488 C   0  0  0  0  0  0  0  0  0  0  0  0
   -1.6700    1.3806   -0.1282 H   0  0  0  0  0  0  0  0  0  0  0  0
    1.3219    0.9795   -0.1273 H   0  0  0  0  0  0  0  0  0  0  0  0
    0.8182   -1.0367   -1.5587 H   0  0  0  0  0  0  0  0  0  0  0  0
   -0.8999   -0.8081   -1.2538 H   0  0  0  0  0  0  0  0  0  0  0  0
    2.3991   -1.5428    0.3592 H   0  0  0  0  0  0  0  0  0  0  0  0
   -1.8913   -1.6357    0.8038 H   0  0  0  0  0  0  0  0  0  0  0  0
    2.6306   -2.9196    2.4012 H   0  0  0  0  0  0  0  0  0  0  0  0
   -1.6523   -3.0153    2.8253 H   0  0  0  0  0  0  0  0  0  0  0  0
    0.6088   -3.6631    3.6423 H   0  0  0  0  0  0  0  0  0  0  0  0
    0.6349    2.9676   -1.9368 N   0  0  0  0  0  0  0  0  0  0  0  0
    0.7161    3.8088   -3.1414 C   0  0  2  0  0  0  0  0  0  0  0  0
    2.0597    3.6432   -3.8935 C   0  0  0  0  0  0  0  0  0  0  0  0
    2.8377    4.5782   -4.0388 O   0  0  0  0  0  0  0  0  0  0  0  0
    0.4512    5.2556   -2.7058 C   0  0  0  0  0  0  0  0  0  0  0  0
    0.8309    3.3918   -1.0332 H   0  0  0  0  0  0  0  0  0  0  0  0
   -0.0777    3.5215   -3.8394 H   0  0  0  0  0  0  0  0  0  0  0  0
    1.2261    5.5978   -2.0122 H   0  0  0  0  0  0  0  0  0  0  0  0
    0.4501    5.9191   -3.5767 H   0  0  0  0  0  0  0  0  0  0  0  0
   -0.5220    5.3343   -2.2119 H   0  0  0  0  0  0  0  0  0  0  0  0
    2.3906    2.4074   -4.4129 N   0  0  0  0  0  0  0  0  0  0  0  0
    3.6395    2.1197   -5.1048 C   0  0  0  0  0  0  0  0  0  0  0  0
    1.7295    1.6486   -4.2280 H   0  0  0  0  0  0  0  0  0  0  0  0
    3.7396    2.7516   -5.9934 H   0  0  0  0  0  0  0  0  0  0  0  0
    4.4937    2.3015   -4.4443 H   0  0  0  0  0  0  0  0  0  0  0  0
    3.6629    1.0725   -5.4216 H   0  0  0  0  0  0  0  0  0  0  0  0
  1  2  2  0  0  0  0
  1  3  1  0  0  0  0
  1  7  1  0  0  0  0
  3  4  1  0  0  0  0
  3  5  1  0  0  0  0
  3  6  1  0  0  0  0
  7  8  1  0  0  0  0
  7 12  1  0  0  0  0
  8  9  1  0  0  0  0
  8 11  1  0  0  0  0
  8 13  1  0  0  0  0
  9 10  2  0  0  0  0
  9 17  1  0  0  0  0
 11 14  1  0  0  0  0
 11 15  1  0  0  0  0
 11 16  1  0  0  0  0
 17 18  1  0  0  0  0
 17 28  1  0  0  0  0
 18 19  1  0  0  0  0
 18 21  1  0  0  0  0
 18 29  1  0  0  0  0
 19 20  2  0  0  0  0
 19 37  1  0  0  0  0
 21 22  1  0  0  0  0
 21 30  1  0  0  0  0
 21 31  1  0  0  0  0
 22 23  1  0  0  0  0
 22 24  2  0  0  0  0
 23 25  2  0  0  0  0
 23 32  1  0  0  0  0
 24 26  1  0  0  0  0
 24 33  1  0  0  0  0
 25 27  1  0  0  0  0
 25 34  1  0  0  0  0
 26 27  2  0  0  0  0
 26 35  1  0  0  0  0
 27 36  1  0  0  0  0
 37 38  1  0  0  0  0
 37 42  1  0  0  0  0
 38 39  1  0  0  0  0
 38 41  1  0  0  0  0
 38 43  1  0  0  0  0
 39 40  2  0  0  0  0
 39 47  1  0  0  0  0
 41 44  1  0  0  0  0
 41 45  1  0  0  0  0
 41 46  1  0  0  0  0
 47 48  1  0  0  0  0
 47 49  1  0  0  0  0
 48 50  1  0  0  0  0
 48 51  1  0  0  0  0
 48 52  1  0  0  0  0
M  END
$$$$

  -OEChem-05262217163D

 52 52  0     1  0  0  0  0  0999 V2000
   -2.3773   -0.2700    4.1225 C   0  0  0  0  0  0  0  0  0  0  0  0
   -3.2778   -0.7114    3.4249 O   0  0  0  0  0  0  0  0  0  0  0  0
   -1.9032   -1.0523    5.3326 C   0  0  0  0  0  0  0  0  0  0  0  0
   -2.4824   -1.9738    5.4375 H   0  0  0  0  0  0  0  0  0  0  0  0
   -0.8476   -1.3110    5.2168 H   0  0  0  0  0  0  0  0  0  0  0  0
   -2.0277   -0.4522    6.2373 H   0  0  0  0  0  0  0  0  0  0  0  0
   -1.7581    0.9192    3.7993 N   0  0  0  0  0  0  0  0  0  0  0  0
   -1.9032    1.5757    2.4927 C   0  0  2  0  0  0  0  0  0  0  0  0
   -0.6154    1.4337    1.6573 C   0  0  0  0  0  0  0  0  0  0  0  0
    0.4739    1.3847    2.2189 O   0  0  0  0  0  0  0  0  0  0  0  0
   -2.2252    3.0504    2.7398 C   0  0  0  0  0  0  0  0  0  0  0  0
   -0.8845    1.0981    4.2910 H   0  0  0  0  0  0  0  0  0  0  0  0
   -2.7255    1.1311    1.9228 H   0  0  0  0  0  0  0  0  0  0  0  0
   -1.4082    3.5362    3.2832 H   0  0  0  0  0  0  0  0  0  0  0  0
   -2.3716    3.5737    1.7900 H   0  0  0  0  0  0  0  0  0  0  0  0
   -3.1417    3.1433    3.3309 H   0  0  0  0  0  0  0  0  0  0  0  0
   -0.6616    1.4470    0.2742 N   0  0  0  0  0  0  0  0  0  0  0  0
    0.4201    0.8855   -0.5545 C   0  0  2  0  0  0  0  0  0  0  0  0
    0.5009    1.6566   -1.8874 C   0  0  0  0  0  0  0  0  0  0  0  0
    0.0856    1.1901   -2.9425 O   0  0  0  0  0  0  0  0  0  0  0  0
    0.1690   -0.6181   -0.8141 C   0  0  0  0  0  0  0  0  0  0  0  0
    0.2723   -1.4600    0.4353 C   0  0  0  0  0  0  0  0  0  0  0  0
    1.5254   -1.8600    0.9219 C   0  0  0  0  0  0  0  0  0  0  0  0
   -0.8853   -1.8895    1.1028 C   0  0  0  0  0  0  0  0  0  0  0  0
    1.6207   -2.6641    2.0633 C   0  0  0  0  0  0  0  0  0  0  0  0
   -0.7916   -2.6990    2.2386 C   0  0  0  0  0  0  0  0  0  0  0  0
    0.4615   -3.0855    2.7218 C   0  0  0  0  0  0  0  0  0  0  0  0
   -1.5951    1.4369   -0.1300 H   0  0  0  0  0  0  0  0  0  0  0  0
    1.3897    0.9962   -0.0576 H   0  0  0  0  0  0  0  0  0  0  0  0
    0.9037   -0.9857   -1.5385 H   0  0  0  0  0  0  0  0  0  0  0  0
   -0.8194   -0.7519   -1.2666 H   0  0  0  0  0  0  0  0  0  0  0  0
    2.4323   -1.5435    0.4160 H   0  0  0  0  0  0  0  0  0  0  0  0
   -1.8687   -1.6008    0.7435 H   0  0  0  0  0  0  0  0  0  0  0  0
    2.5963   -2.9634    2.4347 H   0  0  0  0  0  0  0  0  0  0  0  0
   -1.6985   -3.0239    2.7413 H   0  0  0  0  0  0  0  0  0  0  0  0
    0.5339   -3.7150    3.6036 H   0  0  0  0  0  0  0  0  0  0  0  0
    1.0541    2.9231   -1.8977 N   0  0  0  0  0  0  0  0  0  0  0  0
    1.1732    3.7718   -3.0935 C   0  0  2  0  0  0  0  0  0  0  0  0
    2.3393    3.3387   -4.0160 C   0  0  0  0  0  0  0  0  0  0  0  0
    3.2900    4.0768   -4.2440 O   0  0  0  0  0  0  0  0  0  0  0  0
    1.3015    5.2226   -2.6117 C   0  0  0  0  0  0  0  0  0  0  0  0
    1.4073    3.2789   -1.0125 H   0  0  0  0  0  0  0  0  0  0  0  0
    0.2539    3.6977   -3.6844 H   0  0  0  0  0  0  0  0  0  0  0  0
    2.2126    5.3540   -2.0188 H   0  0  0  0  0  0  0  0  0  0  0  0
    1.3465    5.9030   -3.4682 H   0  0  0  0  0  0  0  0  0  0  0  0
    0.4396    5.4991   -1.9969 H   0  0  0  0  0  0  0  0  0  0  0  0
    2.3078    2.0854   -4.5949 N   0  0  0  0  0  0  0  0  0  0  0  0
    3.3636    1.5508   -5.4437 C   0  0  0  0  0  0  0  0  0  0  0  0
    1.5222    1.4858   -4.3296 H   0  0  0  0  0  0  0  0  0  0  0  0
    3.5325    2.2064   -6.3045 H   0  0  0  0  0  0  0  0  0  0  0  0
    4.2982    1.4593   -4.8807 H   0  0  0  0  0  0  0  0  0  0  0  0
    3.0833    0.5602   -5.8148 H   0  0  0  0  0  0  0  0  0  0  0  0
  1  2  2  0  0  0  0
  1  3  1  0  0  0  0
  1  7  1  0  0  0  0
  3  4  1  0  0  0  0
  3  5  1  0  0  0  0
  3  6  1  0  0  0  0
  7  8  1  0  0  0  0
  7 12  1  0  0  0  0
  8  9  1  0  0  0  0
  8 11  1  0  0  0  0
  8 13  1  0  0  0  0
  9 10  2  0  0  0  0
  9 17  1  0  0  0  0
 11 14  1  0  0  0  0
 11 15  1  0  0  0  0
 11 16  1  0  0  0  0
 17 18  1  0  0  0  0
 17 28  1  0  0  0  0
 18 19  1  0  0  0  0
 18 21  1  0  0  0  0
 18 29  1  0  0  0  0
 19 20  2  0  0  0  0
 19 37  1  0  0  0  0
 21 22  1  0  0  0  0
 21 30  1  0  0  0  0
 21 31  1  0  0  0  0
 22 23  1  0  0  0  0
 22 24  2  0  0  0  0
 23 25  2  0  0  0  0
 23 32  1  0  0  0  0
 24 26  1  0  0  0  0
 24 33  1  0  0  0  0
 25 27  1  0  0  0  0
 25 34  1  0  0  0  0
 26 27  2  0  0  0  0
 26 35  1  0  0  0  0
 27 36  1  0  0  0  0
 37 38  1  0  0  0  0
 37 42  1  0  0  0  0
 38 39  1  0  0  0  0
 38 41  1  0  0  0  0
 38 43  1  0  0  0  0
 39 40  2  0  0  0  0
 39 47  1  0  0  0  0
 41 44  1  0  0  0  0
 41 45  1  0  0  0  0
 41 46  1  0  0  0  0
 47 48  1  0  0  0  0
 47 49  1  0  0  0  0
 48 50  1  0  0  0  0
 48 51  1  0  0  0  0
 48 52  1  0  0  0  0
M  END
$$$$

  -OEChem-05262217163D

 52 52  0     1  0  0  0  0  0999 V2000
   -2.4141   -0.2646    4.0981 C   0  0  0  0  0  0  0  0  0  0  0  0
   -3.3150   -0.6896    3.3909 O   0  0  0  0  0  0  0  0  0  0  0  0
   -1.9629   -1.0586    5.3093 C   0  0  0  0  0  0  0  0  0  0  0  0
   -2.5195   -1.9974    5.3748 H   0  0  0  0  0  0  0  0  0  0  0  0
   -0.8970   -1.2867    5.2284 H   0  0  0  0  0  0  0  0  0  0  0  0
   -2.1372   -0.4805    6.2199 H   0  0  0  0  0  0  0  0  0  0  0  0
   -1.7761    0.9183    3.7889 N   0  0  0  0  0  0  0  0  0  0  0  0
   -1.8917    1.5795    2.4818 C   0  0  2  0  0  0  0  0  0  0  0  0
   -0.5867    1.4366    1.6735 C   0  0  0  0  0  0  0  0  0  0  0  0
    0.4881    1.3414    2.2572 O   0  0  0  0  0  0  0  0  0  0  0  0
   -2.2186    3.0533    2.7274 C   0  0  0  0  0  0  0  0  0  0  0  0
   -0.9056    1.0817    4.2912 H   0  0  0  0  0  0  0  0  0  0  0  0
   -2.7012    1.1375    1.8918 H   0  0  0  0  0  0  0  0  0  0  0  0
   -1.4183    3.5347    3.2988 H   0  0  0  0  0  0  0  0  0  0  0  0
   -2.3352    3.5827    1.7769 H   0  0  0  0  0  0  0  0  0  0  0  0
   -3.1527    3.1433    3.2909 H   0  0  0  0  0  0  0  0  0  0  0  0
   -0.6029    1.4784    0.2908 N   0  0  0  0  0  0  0  0  0  0  0  0
    0.4822    0.9141   -0.5293 C   0  0  2  0  0  0  0  0  0  0  0  0
    0.6073    1.7071   -1.8444 C   0  0  0  0  0  0  0  0  0  0  0  0
   -0.0333    1.4011   -2.8443 O   0  0  0  0  0  0  0  0  0  0  0  0
    0.2038   -0.5758   -0.8344 C   0  0  0  0  0  0  0  0  0  0  0  0
    0.2633   -1.4497    0.3967 C   0  0  0  0  0  0  0  0  0  0  0  0
    1.4974   -1.8888    0.8987 C   0  0  0  0  0  0  0  0  0  0  0  0
   -0.9160   -1.8587    1.0396 C   0  0  0  0  0  0  0  0  0  0  0  0
    1.5527   -2.7088    2.0316 C   0  0  0  0  0  0  0  0  0  0  0  0
   -0.8620   -2.6833    2.1673 C   0  0  0  0  0  0  0  0  0  0  0  0
    0.3724   -3.1068    2.6666 C   0  0  0  0  0  0  0  0  0  0  0  0
   -1.5248    1.5134   -0.1381 H   0  0  0  0  0  0  0  0  0  0  0  0
    1.4424    0.9892   -0.0083 H   0  0  0  0  0  0  0  0  0  0  0  0
    0.9429   -0.9396   -1.5564 H   0  0  0  0  0  0  0  0  0  0  0  0
   -0.7796   -0.6753   -1.3064 H   0  0  0  0  0  0  0  0  0  0  0  0
    2.4211   -1.5885    0.4135 H   0  0  0  0  0  0  0  0  0  0  0  0
   -1.8855   -1.5394    0.6689 H   0  0  0  0  0  0  0  0  0  0  0  0
    2.5133   -3.0371    2.4169 H   0  0  0  0  0  0  0  0  0  0  0  0
   -1.7847   -2.9896    2.6528 H   0  0  0  0  0  0  0  0  0  0  0  0
    0.4143   -3.7462    3.5432 H   0  0  0  0  0  0  0  0  0  0  0  0
    1.4467    2.8039   -1.9039 N   0  0  0  0  0  0  0  0  0  0  0  0
    1.6351    3.6436   -3.0972 C   0  0  2  0  0  0  0  0  0  0  0  0
    2.5525    2.9754   -4.1505 C   0  0  0  0  0  0  0  0  0  0  0  0
    3.6286    3.4639   -4.4734 O   0  0  0  0  0  0  0  0  0  0  0  0
    2.1652    5.0021   -2.6210 C   0  0  0  0  0  0  0  0  0  0  0  0
    1.9734    3.0316   -1.0641 H   0  0  0  0  0  0  0  0  0  0  0  0
    0.6663    3.8151   -3.5788 H   0  0  0  0  0  0  0  0  0  0  0  0
    3.1366    4.8865   -2.1293 H   0  0  0  0  0  0  0  0  0  0  0  0
    2.2876    5.6802   -3.4718 H   0  0  0  0  0  0  0  0  0  0  0  0
    1.4659    5.4591   -1.9142 H   0  0  0  0  0  0  0  0  0  0  0  0
    2.1509    1.7897   -4.7329 N   0  0  0  0  0  0  0  0  0  0  0  0
    2.9497    1.0404   -5.6929 C   0  0  0  0  0  0  0  0  0  0  0  0
    1.2718    1.3940   -4.3899 H   0  0  0  0  0  0  0  0  0  0  0  0
    3.1507    1.6485   -6.5811 H   0  0  0  0  0  0  0  0  0  0  0  0
    3.9038    0.7412   -5.2465 H   0  0  0  0  0  0  0  0  0  0  0  0
    2.4148    0.1383   -6.0052 H   0  0  0  0  0  0  0  0  0  0  0  0
  1  2  2  0  0  0  0
  1  3  1  0  0  0  0
  1  7  1  0  0  0  0
  3  4  1  0  0  0  0
  3  5  1  0  0  0  0
  3  6  1  0  0  0  0
  7  8  1  0  0  0  0
  7 12  1  0  0  0  0
  8  9  1  0  0  0  0
  8 11  1  0  0  0  0
  8 13  1  0  0  0  0
  9 10  2  0  0  0  0
  9 17  1  0  0  0  0
 11 14  1  0  0  0  0
 11 15  1  0  0  0  0
 11 16  1  0  0  0  0
 17 18  1  0  0  0  0
 17 28  1  0  0  0  0
 18 19  1  0  0  0  0
 18 21  1  0  0  0  0
 18 29  1  0  0  0  0
 19 20  2  0  0  0  0
 19 37  1  0  0  0  0
 21 22  1  0  0  0  0
 21 30  1  0  0  0  0
 21 31  1  0  0  0  0
 22 23  1  0  0  0  0
 22 24  2  0  0  0  0
 23 25  2  0  0  0  0
 23 32  1  0  0  0  0
 24 26  1  0  0  0  0
 24 33  1  0  0  0  0
 25 27  1  0  0  0  0
 25 34  1  0  0  0  0
 26 27  2  0  0  0  0
 26 35  1  0  0  0  0
 27 36  1  0  0  0  0
 37 38  1  0  0  0  0
 37 42  1  0  0  0  0
 38 39  1  0  0  0  0
 38 41  1  0  0  0  0
 38 43  1  0  0  0  0
 39 40  2  0  0  0  0
 39 47  1  0  0  0  0
 41 44  1  0  0  0  0
 41 45  1  0  0  0  0
 41 46  1  0  0  0  0
 47 48  1  0  0  0  0
 47 49  1  0  0  0  0
 48 50  1  0  0  0  0
 48 51  1  0  0  0  0
 48 52  1  0  0  0  0
M  END
$$$$

  -OEChem-05262217163D

 52 52  0     1  0  0  0  0  0999 V2000
   -2.5104   -0.2302    3.9638 C   0  0  0  0  0  0  0  0  0  0  0  0
   -3.3459   -0.6368    3.1705 O   0  0  0  0  0  0  0  0  0  0  0  0
   -2.1416   -1.0709    5.1715 C   0  0  0  0  0  0  0  0  0  0  0  0
   -2.7370   -1.9880    5.1893 H   0  0  0  0  0  0  0  0  0  0  0  0
   -1.0830   -1.3398    5.1276 H   0  0  0  0  0  0  0  0  0  0  0  0
   -2.3307   -0.5093    6.0897 H   0  0  0  0  0  0  0  0  0  0  0  0
   -1.8650    0.9702    3.7517 N   0  0  0  0  0  0  0  0  0  0  0  0
   -1.8813    1.6675    2.4586 C   0  0  2  0  0  0  0  0  0  0  0  0
   -0.5639    1.4383    1.6915 C   0  0  0  0  0  0  0  0  0  0  0  0
    0.4857    1.2895    2.3092 O   0  0  0  0  0  0  0  0  0  0  0  0
   -2.0957    3.1578    2.7285 C   0  0  0  0  0  0  0  0  0  0  0  0
   -1.0354    1.1168    4.3230 H   0  0  0  0  0  0  0  0  0  0  0  0
   -2.7049    1.3083    1.8330 H   0  0  0  0  0  0  0  0  0  0  0  0
   -1.2807    3.5585    3.3399 H   0  0  0  0  0  0  0  0  0  0  0  0
   -2.1313    3.7154    1.7875 H   0  0  0  0  0  0  0  0  0  0  0  0
   -3.0401    3.3137    3.2594 H   0  0  0  0  0  0  0  0  0  0  0  0
   -0.5376    1.4733    0.3092 N   0  0  0  0  0  0  0  0  0  0  0  0
    0.5626    0.9025   -0.4848 C   0  0  2  0  0  0  0  0  0  0  0  0
    0.7264    1.6890   -1.7975 C   0  0  0  0  0  0  0  0  0  0  0  0
   -0.0795    1.5645   -2.7135 O   0  0  0  0  0  0  0  0  0  0  0  0
    0.2862   -0.5815   -0.8107 C   0  0  0  0  0  0  0  0  0  0  0  0
    0.3073   -1.4636    0.4144 C   0  0  0  0  0  0  0  0  0  0  0  0
    1.5253   -1.9116    0.9467 C   0  0  0  0  0  0  0  0  0  0  0  0
   -0.8910   -1.8715    1.0202 C   0  0  0  0  0  0  0  0  0  0  0  0
    1.5459   -2.7416    2.0733 C   0  0  0  0  0  0  0  0  0  0  0  0
   -0.8719   -2.7082    2.1401 C   0  0  0  0  0  0  0  0  0  0  0  0
    0.3464   -3.1413    2.6703 C   0  0  0  0  0  0  0  0  0  0  0  0
   -1.4406    1.5537   -0.1533 H   0  0  0  0  0  0  0  0  0  0  0  0
    1.5076    0.9702    0.0641 H   0  0  0  0  0  0  0  0  0  0  0  0
    1.0431   -0.9429   -1.5144 H   0  0  0  0  0  0  0  0  0  0  0  0
   -0.6841   -0.6728   -1.3107 H   0  0  0  0  0  0  0  0  0  0  0  0
    2.4633   -1.6108    0.4905 H   0  0  0  0  0  0  0  0  0  0  0  0
   -1.8484   -1.5409    0.6278 H   0  0  0  0  0  0  0  0  0  0  0  0
    2.4945   -3.0759    2.4828 H   0  0  0  0  0  0  0  0  0  0  0  0
   -1.8093   -3.0152    2.5958 H   0  0  0  0  0  0  0  0  0  0  0  0
    0.3605   -3.7885    3.5420 H   0  0  0  0  0  0  0  0  0  0  0  0
    1.7806    2.5702   -1.9501 N   0  0  0  0  0  0  0  0  0  0  0  0
    2.0090    3.3925   -3.1482 C   0  0  2  0  0  0  0  0  0  0  0  0
    2.6145    2.5786   -4.3182 C   0  0  0  0  0  0  0  0  0  0  0  0
    3.7267    2.8258   -4.7685 O   0  0  0  0  0  0  0  0  0  0  0  0
    2.8903    4.5754   -2.7271 C   0  0  0  0  0  0  0  0  0  0  0  0
    2.4352    2.6525   -1.1764 H   0  0  0  0  0  0  0  0  0  0  0  0
    1.0541    3.7977   -3.4997 H   0  0  0  0  0  0  0  0  0  0  0  0
    3.8663    4.2239   -2.3767 H   0  0  0  0  0  0  0  0  0  0  0  0
    3.0505    5.2491   -3.5751 H   0  0  0  0  0  0  0  0  0  0  0  0
    2.4115    5.1419   -1.9226 H   0  0  0  0  0  0  0  0  0  0  0  0
    1.8862    1.5385   -4.8608 N   0  0  0  0  0  0  0  0  0  0  0  0
    2.3712    0.6721   -5.9263 C   0  0  0  0  0  0  0  0  0  0  0  0
    0.9904    1.3318   -4.4112 H   0  0  0  0  0  0  0  0  0  0  0  0
    2.6114    1.2596   -6.8187 H   0  0  0  0  0  0  0  0  0  0  0  0
    3.2698    0.1358   -5.6042 H   0  0  0  0  0  0  0  0  0  0  0  0
    1.6053   -0.0625   -6.1926 H   0  0  0  0  0  0  0  0  0  0  0  0
  1  2  2  0  0  0  0
  1  3  1  0  0  0  0
  1  7  1  0  0  0  0
  3  4  1  0  0  0  0
  3  5  1  0  0  0  0
  3  6  1  0  0  0  0
  7  8  1  0  0  0  0
  7 12  1  0  0  0  0
  8  9  1  0  0  0  0
  8 11  1  0  0  0  0
  8 13  1  0  0  0  0
  9 10  2  0  0  0  0
  9 17  1  0  0  0  0
 11 14  1  0  0  0  0
 11 15  1  0  0  0  0
 11 16  1  0  0  0  0
 17 18  1  0  0  0  0
 17 28  1  0  0  0  0
 18 19  1  0  0  0  0
 18 21  1  0  0  0  0
 18 29  1  0  0  0  0
 19 20  2  0  0  0  0
 19 37  1  0  0  0  0
 21 22  1  0  0  0  0
 21 30  1  0  0  0  0
 21 31  1  0  0  0  0
 22 23  1  0  0  0  0
 22 24  2  0  0  0  0
 23 25  2  0  0  0  0
 23 32  1  0  0  0  0
 24 26  1  0  0  0  0
 24 33  1  0  0  0  0
 25 27  1  0  0  0  0
 25 34  1  0  0  0  0
 26 27  2  0  0  0  0
 26 35  1  0  0  0  0
 27 36  1  0  0  0  0
 37 38  1  0  0  0  0
 37 42  1  0  0  0  0
 38 39  1  0  0  0  0
 38 41  1  0  0  0  0
 38 43  1  0  0  0  0
 39 40  2  0  0  0  0
 39 47  1  0  0  0  0
 41 44  1  0  0  0  0
 41 45  1  0  0  0  0
 41 46  1  0  0  0  0
 47 48  1  0  0  0  0
 47 49  1  0  0  0  0
 48 50  1  0  0  0  0
 48 51  1  0  0  0  0
 48 52  1  0  0  0  0
M  END
$$$$

  -OEChem-05262217163D

 52 52  0     1  0  0  0  0  0999 V2000
   -2.5746   -0.1934    3.8783 C   0  0  0  0  0  0  0  0  0  0  0  0
   -3.3929   -0.5523    3.0450 O   0  0  0  0  0  0  0  0  0  0  0  0
   -2.2814   -1.0743    5.0783 C   0  0  0  0  0  0  0  0  0  0  0  0
   -2.8722   -1.9930    5.0255 H   0  0  0  0  0  0  0  0  0  0  0  0
   -1.2208   -1.3385    5.0961 H   0  0  0  0  0  0  0  0  0  0  0  0
   -2.5336   -0.5455    6.0006 H   0  0  0  0  0  0  0  0  0  0  0  0
   -1.8819    0.9890    3.7190 N   0  0  0  0  0  0  0  0  0  0  0  0
   -1.8351    1.7218    2.4459 C   0  0  2  0  0  0  0  0  0  0  0  0
   -0.5099    1.4550    1.7043 C   0  0  0  0  0  0  0  0  0  0  0  0
    0.5208    1.2671    2.3430 O   0  0  0  0  0  0  0  0  0  0  0  0
   -1.9924    3.2126    2.7508 C   0  0  0  0  0  0  0  0  0  0  0  0
   -1.0671    1.0928    4.3203 H   0  0  0  0  0  0  0  0  0  0  0  0
   -2.6583    1.4165    1.7914 H   0  0  0  0  0  0  0  0  0  0  0  0
   -1.1802    3.5611    3.3967 H   0  0  0  0  0  0  0  0  0  0  0  0
   -1.9753    3.7955    1.8247 H   0  0  0  0  0  0  0  0  0  0  0  0
   -2.9447    3.3968    3.2576 H   0  0  0  0  0  0  0  0  0  0  0  0
   -0.4569    1.4829    0.3228 N   0  0  0  0  0  0  0  0  0  0  0  0
    0.6480    0.9007   -0.4549 C   0  0  2  0  0  0  0  0  0  0  0  0
    0.8390    1.6799   -1.7674 C   0  0  0  0  0  0  0  0  0  0  0  0
   -0.0774    1.7624   -2.5787 O   0  0  0  0  0  0  0  0  0  0  0  0
    0.3525   -0.5737   -0.8006 C   0  0  0  0  0  0  0  0  0  0  0  0
    0.3336   -1.4680    0.4157 C   0  0  0  0  0  0  0  0  0  0  0  0
    1.5315   -1.9437    0.9689 C   0  0  0  0  0  0  0  0  0  0  0  0
   -0.8847   -1.8591    0.9923 C   0  0  0  0  0  0  0  0  0  0  0  0
    1.5122   -2.7871    2.0855 C   0  0  0  0  0  0  0  0  0  0  0  0
   -0.9054   -2.7078    2.1030 C   0  0  0  0  0  0  0  0  0  0  0  0
    0.2932   -3.1707    2.6527 C   0  0  0  0  0  0  0  0  0  0  0  0
   -1.3408    1.6151   -0.1644 H   0  0  0  0  0  0  0  0  0  0  0  0
    1.5837    0.9545    0.1109 H   0  0  0  0  0  0  0  0  0  0  0  0
    1.1166   -0.9430   -1.4928 H   0  0  0  0  0  0  0  0  0  0  0  0
   -0.6090   -0.6415   -1.3208 H   0  0  0  0  0  0  0  0  0  0  0  0
    2.4844   -1.6544    0.5370 H   0  0  0  0  0  0  0  0  0  0  0  0
   -1.8272   -1.5061    0.5836 H   0  0  0  0  0  0  0  0  0  0  0  0
    2.4453   -3.1447    2.5105 H   0  0  0  0  0  0  0  0  0  0  0  0
   -1.8580   -3.0023    2.5345 H   0  0  0  0  0  0  0  0  0  0  0  0
    0.2775   -3.8289    3.5161 H   0  0  0  0  0  0  0  0  0  0  0  0
    2.0397    2.3056   -2.0469 N   0  0  0  0  0  0  0  0  0  0  0  0
    2.3035    3.0826   -3.2680 C   0  0  2  0  0  0  0  0  0  0  0  0
    2.5620    2.1813   -4.5005 C   0  0  0  0  0  0  0  0  0  0  0  0
    3.6425    2.1712   -5.0778 O   0  0  0  0  0  0  0  0  0  0  0  0
    3.4743    4.0249   -2.9633 C   0  0  0  0  0  0  0  0  0  0  0  0
    2.7865    2.2121   -1.3635 H   0  0  0  0  0  0  0  0  0  0  0  0
    1.4310    3.7020   -3.5018 H   0  0  0  0  0  0  0  0  0  0  0  0
    4.3789    3.4536   -2.7314 H   0  0  0  0  0  0  0  0  0  0  0  0
    3.6814    4.6631   -3.8282 H   0  0  0  0  0  0  0  0  0  0  0  0
    3.2362    4.6675   -2.1102 H   0  0  0  0  0  0  0  0  0  0  0  0
    1.5507    1.3574   -4.9534 N   0  0  0  0  0  0  0  0  0  0  0  0
    1.6952    0.4207   -6.0591 C   0  0  0  0  0  0  0  0  0  0  0  0
    0.6925    1.3500   -4.3962 H   0  0  0  0  0  0  0  0  0  0  0  0
    1.9924    0.9473   -6.9721 H   0  0  0  0  0  0  0  0  0  0  0  0
    2.4528   -0.3339   -5.8246 H   0  0  0  0  0  0  0  0  0  0  0  0
    0.7452   -0.0881   -6.2482 H   0  0  0  0  0  0  0  0  0  0  0  0
  1  2  2  0  0  0  0
  1  3  1  0  0  0  0
  1  7  1  0  0  0  0
  3  4  1  0  0  0  0
  3  5  1  0  0  0  0
  3  6  1  0  0  0  0
  7  8  1  0  0  0  0
  7 12  1  0  0  0  0
  8  9  1  0  0  0  0
  8 11  1  0  0  0  0
  8 13  1  0  0  0  0
  9 10  2  0  0  0  0
  9 17  1  0  0  0  0
 11 14  1  0  0  0  0
 11 15  1  0  0  0  0
 11 16  1  0  0  0  0
 17 18  1  0  0  0  0
 17 28  1  0  0  0  0
 18 19  1  0  0  0  0
 18 21  1  0  0  0  0
 18 29  1  0  0  0  0
 19 20  2  0  0  0  0
 19 37  1  0  0  0  0
 21 22  1  0  0  0  0
 21 30  1  0  0  0  0
 21 31  1  0  0  0  0
 22 23  1  0  0  0  0
 22 24  2  0  0  0  0
 23 25  2  0  0  0  0
 23 32  1  0  0  0  0
 24 26  1  0  0  0  0
 24 33  1  0  0  0  0
 25 27  1  0  0  0  0
 25 34  1  0  0  0  0
 26 27  2  0  0  0  0
 26 35  1  0  0  0  0
 27 36  1  0  0  0  0
 37 38  1  0  0  0  0
 37 42  1  0  0  0  0
 38 39  1  0  0  0  0
 38 41  1  0  0  0  0
 38 43  1  0  0  0  0
 39 40  2  0  0  0  0
 39 47  1  0  0  0  0
 41 44  1  0  0  0  0
 41 45  1  0  0  0  0
 41 46  1  0  0  0  0
 47 48  1  0  0  0  0
 47 49  1  0  0  0  0
 48 50  1  0  0  0  0
 48 51  1  0  0  0  0
 48 52  1  0  0  0  0
M  END
$$$$

  -OEChem-05262217163D

 52 52  0     1  0  0  0  0  0999 V2000
   -2.6217   -0.1399    3.7865 C   0  0  0  0  0  0  0  0  0  0  0  0
   -3.3970   -0.4797    2.9054 O   0  0  0  0  0  0  0  0  0  0  0  0
   -2.3970   -1.0405    4.9860 C   0  0  0  0  0  0  0  0  0  0  0  0
   -3.0205   -1.9353    4.9081 H   0  0  0  0  0  0  0  0  0  0  0  0
   -1.3482   -1.3447    5.0306 H   0  0  0  0  0  0  0  0  0  0  0  0
   -2.6550   -0.5095    5.9053 H   0  0  0  0  0  0  0  0  0  0  0  0
   -1.9138    1.0393    3.6833 N   0  0  0  0  0  0  0  0  0  0  0  0
   -1.7957    1.7867    2.4240 C   0  0  2  0  0  0  0  0  0  0  0  0
   -0.4718    1.4568    1.7065 C   0  0  0  0  0  0  0  0  0  0  0  0
    0.5385    1.2251    2.3629 O   0  0  0  0  0  0  0  0  0  0  0  0
   -1.8757    3.2788    2.7502 C   0  0  0  0  0  0  0  0  0  0  0  0
   -1.1311    1.1273    4.3278 H   0  0  0  0  0  0  0  0  0  0  0  0
   -2.6206    1.5386    1.7479 H   0  0  0  0  0  0  0  0  0  0  0  0
   -1.0644    3.5690    3.4256 H   0  0  0  0  0  0  0  0  0  0  0  0
   -1.7965    3.8739    1.8351 H   0  0  0  0  0  0  0  0  0  0  0  0
   -2.8310    3.5093    3.2317 H   0  0  0  0  0  0  0  0  0  0  0  0
   -0.3961    1.4767    0.3264 N   0  0  0  0  0  0  0  0  0  0  0  0
    0.7118    0.8852   -0.4395 C   0  0  2  0  0  0  0  0  0  0  0  0
    0.9236    1.6582   -1.7522 C   0  0  0  0  0  0  0  0  0  0  0  0
   -0.0354    1.9462   -2.4619 O   0  0  0  0  0  0  0  0  0  0  0  0
    0.3988   -0.5816   -0.7986 C   0  0  0  0  0  0  0  0  0  0  0  0
    0.3491   -1.4842    0.4110 C   0  0  0  0  0  0  0  0  0  0  0  0
    1.5310   -1.9836    0.9785 C   0  0  0  0  0  0  0  0  0  0  0  0
   -0.8836   -1.8547    0.9706 C   0  0  0  0  0  0  0  0  0  0  0  0
    1.4815   -2.8306    2.0916 C   0  0  0  0  0  0  0  0  0  0  0  0
   -0.9345   -2.7066    2.0778 C   0  0  0  0  0  0  0  0  0  0  0  0
    0.2482   -3.1931    2.6415 C   0  0  0  0  0  0  0  0  0  0  0  0
   -1.2576    1.6679   -0.1814 H   0  0  0  0  0  0  0  0  0  0  0  0
    1.6406    0.9300    0.1383 H   0  0  0  0  0  0  0  0  0  0  0  0
    1.1668   -0.9583   -1.4826 H   0  0  0  0  0  0  0  0  0  0  0  0
   -0.5561   -0.6296   -1.3332 H   0  0  0  0  0  0  0  0  0  0  0  0
    2.4949   -1.7111    0.5605 H   0  0  0  0  0  0  0  0  0  0  0  0
   -1.8138   -1.4798    0.5531 H   0  0  0  0  0  0  0  0  0  0  0  0
    2.4018   -3.2070    2.5280 H   0  0  0  0  0  0  0  0  0  0  0  0
   -1.8979   -2.9833    2.4972 H   0  0  0  0  0  0  0  0  0  0  0  0
    0.2083   -3.8521    3.5035 H   0  0  0  0  0  0  0  0  0  0  0  0
    2.1948    2.0077   -2.1684 N   0  0  0  0  0  0  0  0  0  0  0  0
    2.4846    2.7197   -3.4222 C   0  0  2  0  0  0  0  0  0  0  0  0
    2.4104    1.7893   -4.6574 C   0  0  0  0  0  0  0  0  0  0  0  0
    3.4014    1.5266   -5.3277 O   0  0  0  0  0  0  0  0  0  0  0  0
    3.8535    3.3926   -3.2627 C   0  0  0  0  0  0  0  0  0  0  0  0
    2.9763    1.7129   -1.5893 H   0  0  0  0  0  0  0  0  0  0  0  0
    1.7424    3.5112   -3.5717 H   0  0  0  0  0  0  0  0  0  0  0  0
    4.6380    2.6426   -3.1189 H   0  0  0  0  0  0  0  0  0  0  0  0
    4.0941    3.9766   -4.1569 H   0  0  0  0  0  0  0  0  0  0  0  0
    3.8502    4.0674   -2.4011 H   0  0  0  0  0  0  0  0  0  0  0  0
    1.1975    1.2245   -4.9985 N   0  0  0  0  0  0  0  0  0  0  0  0
    1.0183    0.2763   -6.0893 C   0  0  0  0  0  0  0  0  0  0  0  0
    0.4199    1.4085   -4.3593 H   0  0  0  0  0  0  0  0  0  0  0  0
    1.3336    0.7203   -7.0393 H   0  0  0  0  0  0  0  0  0  0  0  0
    1.6075   -0.6287   -5.9099 H   0  0  0  0  0  0  0  0  0  0  0  0
   -0.0355   -0.0063   -6.1731 H   0  0  0  0  0  0  0  0  0  0  0  0
  1  2  2  0  0  0  0
  1  3  1  0  0  0  0
  1  7  1  0  0  0  0
  3  4  1  0  0  0  0
  3  5  1  0  0  0  0
  3  6  1  0  0  0  0
  7  8  1  0  0  0  0
  7 12  1  0  0  0  0
  8  9  1  0  0  0  0
  8 11  1  0  0  0  0
  8 13  1  0  0  0  0
  9 10  2  0  0  0  0
  9 17  1  0  0  0  0
 11 14  1  0  0  0  0
 11 15  1  0  0  0  0
 11 16  1  0  0  0  0
 17 18  1  0  0  0  0
 17 28  1  0  0  0  0
 18 19  1  0  0  0  0
 18 21  1  0  0  0  0
 18 29  1  0  0  0  0
 19 20  2  0  0  0  0
 19 37  1  0  0  0  0
 21 22  1  0  0  0  0
 21 30  1  0  0  0  0
 21 31  1  0  0  0  0
 22 23  1  0  0  0  0
 22 24  2  0  0  0  0
 23 25  2  0  0  0  0
 23 32  1  0  0  0  0
 24 26  1  0  0  0  0
 24 33  1  0  0  0  0
 25 27  1  0  0  0  0
 25 34  1  0  0  0  0
 26 27  2  0  0  0  0
 26 35  1  0  0  0  0
 27 36  1  0  0  0  0
 37 38  1  0  0  0  0
 37 42  1  0  0  0  0
 38 39  1  0  0  0  0
 38 41  1  0  0  0  0
 38 43  1  0  0  0  0
 39 40  2  0  0  0  0
 39 47  1  0  0  0  0
 41 44  1  0  0  0  0
 41 45  1  0  0  0  0
 41 46  1  0  0  0  0
 47 48  1  0  0  0  0
 47 49  1  0  0  0  0
 48 50  1  0  0  0  0
 48 51  1  0  0  0  0
 48 52  1  0  0  0  0
M  END
$$$$

  -OEChem-05262217163D

 52 52  0     1  0  0  0  0  0999 V2000
   -2.7082   -0.0835    3.6442 C   0  0  0  0  0  0  0  0  0  0  0  0
   -3.4299   -0.3670    2.7001 O   0  0  0  0  0  0  0  0  0  0  0  0
   -2.6041   -1.0276    4.8267 C   0  0  0  0  0  0  0  0  0  0  0  0
   -3.2492   -1.8975    4.6740 H   0  0  0  0  0  0  0  0  0  0  0  0
   -1.5722   -1.3697    4.9395 H   0  0  0  0  0  0  0  0  0  0  0  0
   -2.9136   -0.5157    5.7411 H   0  0  0  0  0  0  0  0  0  0  0  0
   -1.9549    1.0718    3.6294 N   0  0  0  0  0  0  0  0  0  0  0  0
   -1.7406    1.8612    2.4094 C   0  0  2  0  0  0  0  0  0  0  0  0
   -0.4286    1.4563    1.7090 C   0  0  0  0  0  0  0  0  0  0  0  0
    0.5608    1.1769    2.3784 O   0  0  0  0  0  0  0  0  0  0  0  0
   -1.7069    3.3392    2.8018 C   0  0  0  0  0  0  0  0  0  0  0  0
   -1.2134    1.1112    4.3248 H   0  0  0  0  0  0  0  0  0  0  0  0
   -2.5654    1.7124    1.7046 H   0  0  0  0  0  0  0  0  0  0  0  0
   -0.8858    3.5330    3.4996 H   0  0  0  0  0  0  0  0  0  0  0  0
   -1.5647    3.9654    1.9156 H   0  0  0  0  0  0  0  0  0  0  0  0
   -2.6482    3.6255    3.2811 H   0  0  0  0  0  0  0  0  0  0  0  0
   -0.3384    1.4656    0.3298 N   0  0  0  0  0  0  0  0  0  0  0  0
    0.7712    0.8712   -0.4317 C   0  0  2  0  0  0  0  0  0  0  0  0
    0.9943    1.6336   -1.7498 C   0  0  0  0  0  0  0  0  0  0  0  0
    0.0438    2.1276   -2.3493 O   0  0  0  0  0  0  0  0  0  0  0  0
    0.4538   -0.5953   -0.7883 C   0  0  0  0  0  0  0  0  0  0  0  0
    0.3976   -1.4958    0.4221 C   0  0  0  0  0  0  0  0  0  0  0  0
    1.5767   -1.9980    0.9925 C   0  0  0  0  0  0  0  0  0  0  0  0
   -0.8374   -1.8635    0.9779 C   0  0  0  0  0  0  0  0  0  0  0  0
    1.5227   -2.8456    2.1047 C   0  0  0  0  0  0  0  0  0  0  0  0
   -0.8929   -2.7161    2.0843 C   0  0  0  0  0  0  0  0  0  0  0  0
    0.2871   -3.2061    2.6509 C   0  0  0  0  0  0  0  0  0  0  0  0
   -1.1730    1.7259   -0.1923 H   0  0  0  0  0  0  0  0  0  0  0  0
    1.6975    0.9191    0.1504 H   0  0  0  0  0  0  0  0  0  0  0  0
    1.2200   -0.9789   -1.4702 H   0  0  0  0  0  0  0  0  0  0  0  0
   -0.5006   -0.6394   -1.3241 H   0  0  0  0  0  0  0  0  0  0  0  0
    2.5422   -1.7272    0.5777 H   0  0  0  0  0  0  0  0  0  0  0  0
   -1.7651   -1.4856    0.5571 H   0  0  0  0  0  0  0  0  0  0  0  0
    2.4413   -3.2237    2.5433 H   0  0  0  0  0  0  0  0  0  0  0  0
   -1.8578   -2.9914    2.4998 H   0  0  0  0  0  0  0  0  0  0  0  0
    0.2446   -3.8659    3.5123 H   0  0  0  0  0  0  0  0  0  0  0  0
    2.2543    1.7070   -2.3149 N   0  0  0  0  0  0  0  0  0  0  0  0
    2.5411    2.3423   -3.6101 C   0  0  2  0  0  0  0  0  0  0  0  0
    2.1217    1.4522   -4.8054 C   0  0  0  0  0  0  0  0  0  0  0  0
    2.9471    0.9711   -5.5720 O   0  0  0  0  0  0  0  0  0  0  0  0
    4.0330    2.6981   -3.6267 C   0  0  0  0  0  0  0  0  0  0  0  0
    3.0095    1.2187   -1.8412 H   0  0  0  0  0  0  0  0  0  0  0  0
    1.9766    3.2774   -3.6921 H   0  0  0  0  0  0  0  0  0  0  0  0
    4.6465    1.7947   -3.5481 H   0  0  0  0  0  0  0  0  0  0  0  0
    4.2899    3.2096   -4.5601 H   0  0  0  0  0  0  0  0  0  0  0  0
    4.2767    3.3620   -2.7916 H   0  0  0  0  0  0  0  0  0  0  0  0
    0.7831    1.1702   -4.9933 N   0  0  0  0  0  0  0  0  0  0  0  0
    0.2767    0.2722   -6.0219 C   0  0  0  0  0  0  0  0  0  0  0  0
    0.1452    1.5201   -4.2738 H   0  0  0  0  0  0  0  0  0  0  0  0
    0.6034    0.6014   -7.0138 H   0  0  0  0  0  0  0  0  0  0  0  0
    0.6379   -0.7470   -5.8510 H   0  0  0  0  0  0  0  0  0  0  0  0
   -0.8174    0.2608   -6.0064 H   0  0  0  0  0  0  0  0  0  0  0  0
  1  2  2  0  0  0  0
  1  3  1  0  0  0  0
  1  7  1  0  0  0  0
  3  4  1  0  0  0  0
  3  5  1  0  0  0  0
  3  6  1  0  0  0  0
  7  8  1  0  0  0  0
  7 12  1  0  0  0  0
  8  9  1  0  0  0  0
  8 11  1  0  0  0  0
  8 13  1  0  0  0  0
  9 10  2  0  0  0  0
  9 17  1  0  0  0  0
 11 14  1  0  0  0  0
 11 15  1  0  0  0  0
 11 16  1  0  0  0  0
 17 18  1  0  0  0  0
 17 28  1  0  0  0  0
 18 19  1  0  0  0  0
 18 21  1  0  0  0  0
 18 29  1  0  0  0  0
 19 20  2  0  0  0  0
 19 37  1  0  0  0  0
 21 22  1  0  0  0  0
 21 30  1  0  0  0  0
 21 31  1  0  0  0  0
 22 23  1  0  0  0  0
 22 24  2  0  0  0  0
 23 25  2  0  0  0  0
 23 32  1  0  0  0  0
 24 26  1  0  0  0  0
 24 33  1  0  0  0  0
 25 27  1  0  0  0  0
 25 34  1  0  0  0  0
 26 27  2  0  0  0  0
 26 35  1  0  0  0  0
 27 36  1  0  0  0  0
 37 38  1  0  0  0  0
 37 42  1  0  0  0  0
 38 39  1  0  0  0  0
 38 41  1  0  0  0  0
 38 43  1  0  0  0  0
 39 40  2  0  0  0  0
 39 47  1  0  0  0  0
 41 44  1  0  0  0  0
 41 45  1  0  0  0  0
 41 46  1  0  0  0  0
 47 48  1  0  0  0  0
 47 49  1  0  0  0  0
 48 50  1  0  0  0  0
 48 51  1  0  0  0  0
 48 52  1  0  0  0  0
M  END
$$$$

  -OEChem-05262217163D

 52 52  0     1  0  0  0  0  0999 V2000
   -2.7140   -0.0020    3.6553 C   0  0  0  0  0  0  0  0  0  0  0  0
   -3.4502   -0.2914    2.7242 O   0  0  0  0  0  0  0  0  0  0  0  0
   -2.6200   -0.9211    4.8588 C   0  0  0  0  0  0  0  0  0  0  0  0
   -3.3305   -1.7464    4.7596 H   0  0  0  0  0  0  0  0  0  0  0  0
   -1.6102   -1.3322    4.9344 H   0  0  0  0  0  0  0  0  0  0  0  0
   -2.8498   -0.3669    5.7719 H   0  0  0  0  0  0  0  0  0  0  0  0
   -1.9343    1.1348    3.6060 N   0  0  0  0  0  0  0  0  0  0  0  0
   -1.7074    1.8874    2.3646 C   0  0  2  0  0  0  0  0  0  0  0  0
   -0.3985    1.4460    1.6798 C   0  0  0  0  0  0  0  0  0  0  0  0
    0.5718    1.1328    2.3621 O   0  0  0  0  0  0  0  0  0  0  0  0
   -1.6587    3.3746    2.7189 C   0  0  0  0  0  0  0  0  0  0  0  0
   -1.1844    1.1711    4.2927 H   0  0  0  0  0  0  0  0  0  0  0  0
   -2.5310    1.7289    1.6604 H   0  0  0  0  0  0  0  0  0  0  0  0
   -0.8390    3.5765    3.4160 H   0  0  0  0  0  0  0  0  0  0  0  0
   -1.5060    3.9774    1.8184 H   0  0  0  0  0  0  0  0  0  0  0  0
   -2.5991    3.6828    3.1862 H   0  0  0  0  0  0  0  0  0  0  0  0
   -0.2910    1.4466    0.3016 N   0  0  0  0  0  0  0  0  0  0  0  0
    0.8177    0.8313   -0.4459 C   0  0  2  0  0  0  0  0  0  0  0  0
    1.0749    1.5792   -1.7686 C   0  0  0  0  0  0  0  0  0  0  0  0
    0.1978    2.2734   -2.2747 O   0  0  0  0  0  0  0  0  0  0  0  0
    0.4598   -0.6288   -0.7981 C   0  0  0  0  0  0  0  0  0  0  0  0
    0.3651   -1.5228    0.4145 C   0  0  0  0  0  0  0  0  0  0  0  0
    1.5225   -2.0585    0.9985 C   0  0  0  0  0  0  0  0  0  0  0  0
   -0.8858   -1.8474    0.9620 C   0  0  0  0  0  0  0  0  0  0  0  0
    1.4313   -2.8980    2.1145 C   0  0  0  0  0  0  0  0  0  0  0  0
   -0.9785   -2.6908    2.0730 C   0  0  0  0  0  0  0  0  0  0  0  0
    0.1802   -3.2159    2.6517 C   0  0  0  0  0  0  0  0  0  0  0  0
   -1.0931    1.7719   -0.2346 H   0  0  0  0  0  0  0  0  0  0  0  0
    1.7390    0.8603    0.1456 H   0  0  0  0  0  0  0  0  0  0  0  0
    1.2190   -1.0423   -1.4697 H   0  0  0  0  0  0  0  0  0  0  0  0
   -0.4903   -0.6465   -1.3427 H   0  0  0  0  0  0  0  0  0  0  0  0
    2.5001   -1.8199    0.5924 H   0  0  0  0  0  0  0  0  0  0  0  0
   -1.7973   -1.4418    0.5320 H   0  0  0  0  0  0  0  0  0  0  0  0
    2.3334   -3.3027    2.5633 H   0  0  0  0  0  0  0  0  0  0  0  0
   -1.9556   -2.9310    2.4822 H   0  0  0  0  0  0  0  0  0  0  0  0
    0.1088   -3.8695    3.5157 H   0  0  0  0  0  0  0  0  0  0  0  0
    2.2481    1.3751   -2.4723 N   0  0  0  0  0  0  0  0  0  0  0  0
    2.5307    1.9558   -3.7938 C   0  0  2  0  0  0  0  0  0  0  0  0
    1.8167    1.1903   -4.9339 C   0  0  0  0  0  0  0  0  0  0  0  0
    2.4430    0.5743   -5.7876 O   0  0  0  0  0  0  0  0  0  0  0  0
    4.0546    1.9936   -3.9641 C   0  0  0  0  0  0  0  0  0  0  0  0
    2.9201    0.7205   -2.0817 H   0  0  0  0  0  0  0  0  0  0  0  0
    2.1686    2.9892   -3.8242 H   0  0  0  0  0  0  0  0  0  0  0  0
    4.4715    0.9812   -3.9516 H   0  0  0  0  0  0  0  0  0  0  0  0
    4.3163    2.4624   -4.9183 H   0  0  0  0  0  0  0  0  0  0  0  0
    4.5151    2.5726   -3.1578 H   0  0  0  0  0  0  0  0  0  0  0  0
    0.4366    1.1762   -4.9704 N   0  0  0  0  0  0  0  0  0  0  0  0
   -0.3435    0.4227   -5.9428 C   0  0  0  0  0  0  0  0  0  0  0  0
   -0.0392    1.6366   -4.1903 H   0  0  0  0  0  0  0  0  0  0  0  0
   -0.0547    0.6979   -6.9628 H   0  0  0  0  0  0  0  0  0  0  0  0
   -0.1848   -0.6523   -5.8093 H   0  0  0  0  0  0  0  0  0  0  0  0
   -1.4097    0.6354   -5.8183 H   0  0  0  0  0  0  0  0  0  0  0  0
  1  2  2  0  0  0  0
  1  3  1  0  0  0  0
  1  7  1  0  0  0  0
  3  4  1  0  0  0  0
  3  5  1  0  0  0  0
  3  6  1  0  0  0  0
  7  8  1  0  0  0  0
  7 12  1  0  0  0  0
  8  9  1  0  0  0  0
  8 11  1  0  0  0  0
  8 13  1  0  0  0  0
  9 10  2  0  0  0  0
  9 17  1  0  0  0  0
 11 14  1  0  0  0  0
 11 15  1  0  0  0  0
 11 16  1  0  0  0  0
 17 18  1  0  0  0  0
 17 28  1  0  0  0  0
 18 19  1  0  0  0  0
 18 21  1  0  0  0  0
 18 29  1  0  0  0  0
 19 20  2  0  0  0  0
 19 37  1  0  0  0  0
 21 22  1  0  0  0  0
 21 30  1  0  0  0  0
 21 31  1  0  0  0  0
 22 23  1  0  0  0  0
 22 24  2  0  0  0  0
 23 25  2  0  0  0  0
 23 32  1  0  0  0  0
 24 26  1  0  0  0  0
 24 33  1  0  0  0  0
 25 27  1  0  0  0  0
 25 34  1  0  0  0  0
 26 27  2  0  0  0  0
 26 35  1  0  0  0  0
 27 36  1  0  0  0  0
 37 38  1  0  0  0  0
 37 42  1  0  0  0  0
 38 39  1  0  0  0  0
 38 41  1  0  0  0  0
 38 43  1  0  0  0  0
 39 40  2  0  0  0  0
 39 47  1  0  0  0  0
 41 44  1  0  0  0  0
 41 45  1  0  0  0  0
 41 46  1  0  0  0  0
 47 48  1  0  0  0  0
 47 49  1  0  0  0  0
 48 50  1  0  0  0  0
 48 51  1  0  0  0  0
 48 52  1  0  0  0  0
M  END
$$$$

  -OEChem-05262217163D

 52 52  0     1  0  0  0  0  0999 V2000
   -2.8773    0.0555    3.3613 C   0  0  0  0  0  0  0  0  0  0  0  0
   -3.5371   -0.0315    2.3365 O   0  0  0  0  0  0  0  0  0  0  0  0
   -3.0070   -1.0053    4.4378 C   0  0  0  0  0  0  0  0  0  0  0  0
   -3.7638   -1.7416    4.1535 H   0  0  0  0  0  0  0  0  0  0  0  0
   -2.0504   -1.5167    4.5719 H   0  0  0  0  0  0  0  0  0  0  0  0
   -3.3023   -0.5440    5.3833 H   0  0  0  0  0  0  0  0  0  0  0  0
   -1.9831    1.0921    3.5328 N   0  0  0  0  0  0  0  0  0  0  0  0
   -1.5528    1.9493    2.4201 C   0  0  2  0  0  0  0  0  0  0  0  0
   -0.3112    1.3618    1.7203 C   0  0  0  0  0  0  0  0  0  0  0  0
    0.6079    0.9058    2.3931 O   0  0  0  0  0  0  0  0  0  0  0  0
   -1.2507    3.3411    2.9787 C   0  0  0  0  0  0  0  0  0  0  0  0
   -1.3126    0.9625    4.2866 H   0  0  0  0  0  0  0  0  0  0  0  0
   -2.3542    2.0456    1.6798 H   0  0  0  0  0  0  0  0  0  0  0  0
   -0.4457    3.2919    3.7192 H   0  0  0  0  0  0  0  0  0  0  0  0
   -0.9412    4.0154    2.1739 H   0  0  0  0  0  0  0  0  0  0  0  0
   -2.1419    3.7587    3.4574 H   0  0  0  0  0  0  0  0  0  0  0  0
   -0.2268    1.3510    0.3409 N   0  0  0  0  0  0  0  0  0  0  0  0
    0.8755    0.7449   -0.4238 C   0  0  2  0  0  0  0  0  0  0  0  0
    1.3551    1.6706   -1.5615 C   0  0  0  0  0  0  0  0  0  0  0  0
    0.7461    2.7022   -1.8306 O   0  0  0  0  0  0  0  0  0  0  0  0
    0.3721   -0.5861   -1.0195 C   0  0  0  0  0  0  0  0  0  0  0  0
    0.0900   -1.6109    0.0533 C   0  0  0  0  0  0  0  0  0  0  0  0
    1.1336   -2.3614    0.6151 C   0  0  0  0  0  0  0  0  0  0  0  0
   -1.2208   -1.8218    0.5079 C   0  0  0  0  0  0  0  0  0  0  0  0
    0.8709   -3.3068    1.6126 C   0  0  0  0  0  0  0  0  0  0  0  0
   -1.4851   -2.7678    1.5027 C   0  0  0  0  0  0  0  0  0  0  0  0
   -0.4391   -3.5114    2.0564 C   0  0  0  0  0  0  0  0  0  0  0  0
   -0.9528    1.8391   -0.1783 H   0  0  0  0  0  0  0  0  0  0  0  0
    1.7379    0.5544    0.2234 H   0  0  0  0  0  0  0  0  0  0  0  0
    1.1204   -0.9999   -1.7021 H   0  0  0  0  0  0  0  0  0  0  0  0
   -0.5328   -0.4036   -1.6091 H   0  0  0  0  0  0  0  0  0  0  0  0
    2.1557   -2.2094    0.2834 H   0  0  0  0  0  0  0  0  0  0  0  0
   -2.0447   -1.2433    0.0993 H   0  0  0  0  0  0  0  0  0  0  0  0
    1.6858   -3.8802    2.0441 H   0  0  0  0  0  0  0  0  0  0  0  0
   -2.5059   -2.9159    1.8431 H   0  0  0  0  0  0  0  0  0  0  0  0
   -0.6429   -4.2453    2.8299 H   0  0  0  0  0  0  0  0  0  0  0  0
    2.3883    1.2812   -2.3958 N   0  0  0  0  0  0  0  0  0  0  0  0
    2.8297    2.0373   -3.5779 C   0  0  2  0  0  0  0  0  0  0  0  0
    1.8910    1.8281   -4.7909 C   0  0  0  0  0  0  0  0  0  0  0  0
    2.2737    1.2759   -5.8151 O   0  0  0  0  0  0  0  0  0  0  0  0
    4.2795    1.6281   -3.8668 C   0  0  0  0  0  0  0  0  0  0  0  0
    2.8114    0.3737   -2.2227 H   0  0  0  0  0  0  0  0  0  0  0  0
    2.8268    3.1086   -3.3497 H   0  0  0  0  0  0  0  0  0  0  0  0
    4.3400    0.5615   -4.1064 H   0  0  0  0  0  0  0  0  0  0  0  0
    4.6706    2.1954   -4.7176 H   0  0  0  0  0  0  0  0  0  0  0  0
    4.9136    1.8291   -2.9979 H   0  0  0  0  0  0  0  0  0  0  0  0
    0.5783    2.2467   -4.7022 N   0  0  0  0  0  0  0  0  0  0  0  0
   -0.4191    2.0295   -5.7411 C   0  0  0  0  0  0  0  0  0  0  0  0
    0.2918    2.6429   -3.8034 H   0  0  0  0  0  0  0  0  0  0  0  0
   -0.1050    2.5000   -6.6785 H   0  0  0  0  0  0  0  0  0  0  0  0
   -0.5642    0.9583   -5.9152 H   0  0  0  0  0  0  0  0  0  0  0  0
   -1.3771    2.4646   -5.4409 H   0  0  0  0  0  0  0  0  0  0  0  0
  1  2  2  0  0  0  0
  1  3  1  0  0  0  0
  1  7  1  0  0  0  0
  3  4  1  0  0  0  0
  3  5  1  0  0  0  0
  3  6  1  0  0  0  0
  7  8  1  0  0  0  0
  7 12  1  0  0  0  0
  8  9  1  0  0  0  0
  8 11  1  0  0  0  0
  8 13  1  0  0  0  0
  9 10  2  0  0  0  0
  9 17  1  0  0  0  0
 11 14  1  0  0  0  0
 11 15  1  0  0  0  0
 11 16  1  0  0  0  0
 17 18  1  0  0  0  0
 17 28  1  0  0  0  0
 18 19  1  0  0  0  0
 18 21  1  0  0  0  0
 18 29  1  0  0  0  0
 19 20  2  0  0  0  0
 19 37  1  0  0  0  0
 21 22  1  0  0  0  0
 21 30  1  0  0  0  0
 21 31  1  0  0  0  0
 22 23  1  0  0  0  0
 22 24  2  0  0  0  0
 23 25  2  0  0  0  0
 23 32  1  0  0  0  0
 24 26  1  0  0  0  0
 24 33  1  0  0  0  0
 25 27  1  0  0  0  0
 25 34  1  0  0  0  0
 26 27  2  0  0  0  0
 26 35  1  0  0  0  0
 27 36  1  0  0  0  0
 37 38  1  0  0  0  0
 37 42  1  0  0  0  0
 38 39  1  0  0  0  0
 38 41  1  0  0  0  0
 38 43  1  0  0  0  0
 39 40  2  0  0  0  0
 39 47  1  0  0  0  0
 41 44  1  0  0  0  0
 41 45  1  0  0  0  0
 41 46  1  0  0  0  0
 47 48  1  0  0  0  0
 47 49  1  0  0  0  0
 48 50  1  0  0  0  0
 48 51  1  0  0  0  0
 48 52  1  0  0  0  0
M  END
$$$$

  -OEChem-05262217163D

 52 52  0     1  0  0  0  0  0999 V2000
   -2.8627    0.1438    3.3659 C   0  0  0  0  0  0  0  0  0  0  0  0
   -3.5256    0.0128    2.3477 O   0  0  0  0  0  0  0  0  0  0  0  0
   -2.9979   -0.8635    4.4919 C   0  0  0  0  0  0  0  0  0  0  0  0
   -3.7750   -1.5946    4.2528 H   0  0  0  0  0  0  0  0  0  0  0  0
   -2.0508   -1.3900    4.6351 H   0  0  0  0  0  0  0  0  0  0  0  0
   -3.2678   -0.3530    5.4196 H   0  0  0  0  0  0  0  0  0  0  0  0
   -1.9602    1.1809    3.4851 N   0  0  0  0  0  0  0  0  0  0  0  0
   -1.5234    1.9719    2.3271 C   0  0  2  0  0  0  0  0  0  0  0  0
   -0.3006    1.3232    1.6484 C   0  0  0  0  0  0  0  0  0  0  0  0
    0.6002    0.8545    2.3368 O   0  0  0  0  0  0  0  0  0  0  0  0
   -1.1919    3.3855    2.8090 C   0  0  0  0  0  0  0  0  0  0  0  0
   -1.2852    1.0783    4.2390 H   0  0  0  0  0  0  0  0  0  0  0  0
   -2.3294    2.0442    1.5891 H   0  0  0  0  0  0  0  0  0  0  0  0
   -0.3870    3.3616    3.5507 H   0  0  0  0  0  0  0  0  0  0  0  0
   -0.8705    4.0079    1.9681 H   0  0  0  0  0  0  0  0  0  0  0  0
   -2.0737    3.8465    3.2642 H   0  0  0  0  0  0  0  0  0  0  0  0
   -0.2166    1.2698    0.2700 N   0  0  0  0  0  0  0  0  0  0  0  0
    0.8815    0.6303   -0.4739 C   0  0  2  0  0  0  0  0  0  0  0  0
    1.3628    1.5265   -1.6381 C   0  0  0  0  0  0  0  0  0  0  0  0
    0.9375    2.6716   -1.7610 O   0  0  0  0  0  0  0  0  0  0  0  0
    0.3629   -0.7234   -1.0082 C   0  0  0  0  0  0  0  0  0  0  0  0
    0.0796   -1.7020    0.1073 C   0  0  0  0  0  0  0  0  0  0  0  0
    1.1201   -2.4384    0.6936 C   0  0  0  0  0  0  0  0  0  0  0  0
   -1.2304   -1.8833    0.5773 C   0  0  0  0  0  0  0  0  0  0  0  0
    0.8546   -3.3424    1.7282 C   0  0  0  0  0  0  0  0  0  0  0  0
   -1.4971   -2.7864    1.6107 C   0  0  0  0  0  0  0  0  0  0  0  0
   -0.4546   -3.5180    2.1865 C   0  0  0  0  0  0  0  0  0  0  0  0
   -0.9043    1.8002   -0.2591 H   0  0  0  0  0  0  0  0  0  0  0  0
    1.7458    0.4587    0.1762 H   0  0  0  0  0  0  0  0  0  0  0  0
    1.1037   -1.1775   -1.6723 H   0  0  0  0  0  0  0  0  0  0  0  0
   -0.5435   -0.5600   -1.6011 H   0  0  0  0  0  0  0  0  0  0  0  0
    2.1422   -2.3080    0.3533 H   0  0  0  0  0  0  0  0  0  0  0  0
   -2.0519   -1.3137    0.1518 H   0  0  0  0  0  0  0  0  0  0  0  0
    1.6662   -3.9060    2.1780 H   0  0  0  0  0  0  0  0  0  0  0  0
   -2.5167   -2.9103    1.9644 H   0  0  0  0  0  0  0  0  0  0  0  0
   -0.6605   -4.2187    2.9900 H   0  0  0  0  0  0  0  0  0  0  0  0
    2.1614    1.0220   -2.6499 N   0  0  0  0  0  0  0  0  0  0  0  0
    2.5760    1.7827   -3.8390 C   0  0  2  0  0  0  0  0  0  0  0  0
    1.4529    1.8736   -4.9007 C   0  0  0  0  0  0  0  0  0  0  0  0
    1.5634    1.3516   -6.0033 O   0  0  0  0  0  0  0  0  0  0  0  0
    3.8539    1.1270   -4.3766 C   0  0  0  0  0  0  0  0  0  0  0  0
    2.4290    0.0437   -2.5904 H   0  0  0  0  0  0  0  0  0  0  0  0
    2.8274    2.8085   -3.5482 H   0  0  0  0  0  0  0  0  0  0  0  0
    3.6578    0.0959   -4.6883 H   0  0  0  0  0  0  0  0  0  0  0  0
    4.2294    1.6834   -5.2415 H   0  0  0  0  0  0  0  0  0  0  0  0
    4.6320    1.1195   -3.6071 H   0  0  0  0  0  0  0  0  0  0  0  0
    0.2850    2.5386   -4.5847 N   0  0  0  0  0  0  0  0  0  0  0  0
   -0.8706    2.6237   -5.4669 C   0  0  0  0  0  0  0  0  0  0  0  0
    0.2179    2.8987   -3.6293 H   0  0  0  0  0  0  0  0  0  0  0  0
   -0.6001    3.1171   -6.4062 H   0  0  0  0  0  0  0  0  0  0  0  0
   -1.2558    1.6236   -5.6915 H   0  0  0  0  0  0  0  0  0  0  0  0
   -1.6670    3.2029   -4.9896 H   0  0  0  0  0  0  0  0  0  0  0  0
  1  2  2  0  0  0  0
  1  3  1  0  0  0  0
  1  7  1  0  0  0  0
  3  4  1  0  0  0  0
  3  5  1  0  0  0  0
  3  6  1  0  0  0  0
  7  8  1  0  0  0  0
  7 12  1  0  0  0  0
  8  9  1  0  0  0  0
  8 11  1  0  0  0  0
  8 13  1  0  0  0  0
  9 10  2  0  0  0  0
  9 17  1  0  0  0  0
 11 14  1  0  0  0  0
 11 15  1  0  0  0  0
 11 16  1  0  0  0  0
 17 18  1  0  0  0  0
 17 28  1  0  0  0  0
 18 19  1  0  0  0  0
 18 21  1  0  0  0  0
 18 29  1  0  0  0  0
 19 20  2  0  0  0  0
 19 37  1  0  0  0  0
 21 22  1  0  0  0  0
 21 30  1  0  0  0  0
 21 31  1  0  0  0  0
 22 23  1  0  0  0  0
 22 24  2  0  0  0  0
 23 25  2  0  0  0  0
 23 32  1  0  0  0  0
 24 26  1  0  0  0  0
 24 33  1  0  0  0  0
 25 27  1  0  0  0  0
 25 34  1  0  0  0  0
 26 27  2  0  0  0  0
 26 35  1  0  0  0  0
 27 36  1  0  0  0  0
 37 38  1  0  0  0  0
 37 42  1  0  0  0  0
 38 39  1  0  0  0  0
 38 41  1  0  0  0  0
 38 43  1  0  0  0  0
 39 40  2  0  0  0  0
 39 47  1  0  0  0  0
 41 44  1  0  0  0  0
 41 45  1  0  0  0  0
 41 46  1  0  0  0  0
 47 48  1  0  0  0  0
 47 49  1  0  0  0  0
 48 50  1  0  0  0  0
 48 51  1  0  0  0  0
 48 52  1  0  0  0  0
M  END
$$$$

  -OEChem-05262217163D

 52 52  0     1  0  0  0  0  0999 V2000
   -2.8840    0.2258    3.2745 C   0  0  0  0  0  0  0  0  0  0  0  0
   -3.5229    0.0990    2.2405 O   0  0  0  0  0  0  0  0  0  0  0  0
   -3.0656   -0.7703    4.4039 C   0  0  0  0  0  0  0  0  0  0  0  0
   -3.8802   -1.4613    4.1704 H   0  0  0  0  0  0  0  0  0  0  0  0
   -2.1454   -1.3431    4.5443 H   0  0  0  0  0  0  0  0  0  0  0  0
   -3.3056   -0.2455    5.3317 H   0  0  0  0  0  0  0  0  0  0  0  0
   -1.9620    1.2439    3.4061 N   0  0  0  0  0  0  0  0  0  0  0  0
   -1.4812    2.0123    2.2509 C   0  0  2  0  0  0  0  0  0  0  0  0
   -0.2788    1.3129    1.5879 C   0  0  0  0  0  0  0  0  0  0  0  0
    0.6196    0.8550    2.2867 O   0  0  0  0  0  0  0  0  0  0  0  0
   -1.0948    3.4132    2.7294 C   0  0  0  0  0  0  0  0  0  0  0  0
   -1.3105    1.1388    4.1798 H   0  0  0  0  0  0  0  0  0  0  0  0
   -2.2762    2.1159    1.5051 H   0  0  0  0  0  0  0  0  0  0  0  0
   -0.2926    3.3590    3.4726 H   0  0  0  0  0  0  0  0  0  0  0  0
   -0.7463    4.0197    1.8874 H   0  0  0  0  0  0  0  0  0  0  0  0
   -1.9581    3.9112    3.1813 H   0  0  0  0  0  0  0  0  0  0  0  0
   -0.2076    1.2126    0.2114 N   0  0  0  0  0  0  0  0  0  0  0  0
    0.8829    0.5431   -0.5169 C   0  0  2  0  0  0  0  0  0  0  0  0
    1.3519    1.4063   -1.7136 C   0  0  0  0  0  0  0  0  0  0  0  0
    1.1518    2.6171   -1.7159 O   0  0  0  0  0  0  0  0  0  0  0  0
    0.3645   -0.8368   -0.9823 C   0  0  0  0  0  0  0  0  0  0  0  0
    0.0993   -1.7650    0.1800 C   0  0  0  0  0  0  0  0  0  0  0  0
    1.1500   -2.4689    0.7870 C   0  0  0  0  0  0  0  0  0  0  0  0
   -1.2061   -1.9405    0.6651 C   0  0  0  0  0  0  0  0  0  0  0  0
    0.8997   -3.3309    1.8608 C   0  0  0  0  0  0  0  0  0  0  0  0
   -1.4581   -2.8040    1.7353 C   0  0  0  0  0  0  0  0  0  0  0  0
   -0.4048   -3.5000    2.3350 C   0  0  0  0  0  0  0  0  0  0  0  0
   -0.9131    1.7077   -0.3269 H   0  0  0  0  0  0  0  0  0  0  0  0
    1.7549    0.4013    0.1299 H   0  0  0  0  0  0  0  0  0  0  0  0
    1.1035   -1.3196   -1.6278 H   0  0  0  0  0  0  0  0  0  0  0  0
   -0.5484   -0.7058   -1.5735 H   0  0  0  0  0  0  0  0  0  0  0  0
    2.1683   -2.3427    0.4336 H   0  0  0  0  0  0  0  0  0  0  0  0
   -2.0357   -1.3985    0.2198 H   0  0  0  0  0  0  0  0  0  0  0  0
    1.7206   -3.8668    2.3280 H   0  0  0  0  0  0  0  0  0  0  0  0
   -2.4746   -2.9258    2.0976 H   0  0  0  0  0  0  0  0  0  0  0  0
   -0.5982   -4.1685    3.1686 H   0  0  0  0  0  0  0  0  0  0  0  0
    1.8719    0.8432   -2.8674 N   0  0  0  0  0  0  0  0  0  0  0  0
    2.2274    1.6052   -4.0752 C   0  0  2  0  0  0  0  0  0  0  0  0
    0.9846    1.9786   -4.9196 C   0  0  0  0  0  0  0  0  0  0  0  0
    0.8034    1.5168   -6.0395 O   0  0  0  0  0  0  0  0  0  0  0  0
    3.2525    0.7742   -4.8571 C   0  0  0  0  0  0  0  0  0  0  0  0
    1.9311   -0.1699   -2.9075 H   0  0  0  0  0  0  0  0  0  0  0  0
    2.7137    2.5434   -3.7867 H   0  0  0  0  0  0  0  0  0  0  0  0
    2.8166   -0.1785   -5.1750 H   0  0  0  0  0  0  0  0  0  0  0  0
    3.5792    1.3189   -5.7488 H   0  0  0  0  0  0  0  0  0  0  0  0
    4.1310    0.5693   -4.2377 H   0  0  0  0  0  0  0  0  0  0  0  0
    0.0428    2.8346   -4.3843 N   0  0  0  0  0  0  0  0  0  0  0  0
   -1.1968    3.2043   -5.0536 C   0  0  0  0  0  0  0  0  0  0  0  0
    0.2047    3.1331   -3.4190 H   0  0  0  0  0  0  0  0  0  0  0  0
   -0.9841    3.6838   -6.0148 H   0  0  0  0  0  0  0  0  0  0  0  0
   -1.8152    2.3181   -5.2299 H   0  0  0  0  0  0  0  0  0  0  0  0
   -1.7650    3.9068   -4.4363 H   0  0  0  0  0  0  0  0  0  0  0  0
  1  2  2  0  0  0  0
  1  3  1  0  0  0  0
  1  7  1  0  0  0  0
  3  4  1  0  0  0  0
  3  5  1  0  0  0  0
  3  6  1  0  0  0  0
  7  8  1  0  0  0  0
  7 12  1  0  0  0  0
  8  9  1  0  0  0  0
  8 11  1  0  0  0  0
  8 13  1  0  0  0  0
  9 10  2  0  0  0  0
  9 17  1  0  0  0  0
 11 14  1  0  0  0  0
 11 15  1  0  0  0  0
 11 16  1  0  0  0  0
 17 18  1  0  0  0  0
 17 28  1  0  0  0  0
 18 19  1  0  0  0  0
 18 21  1  0  0  0  0
 18 29  1  0  0  0  0
 19 20  2  0  0  0  0
 19 37  1  0  0  0  0
 21 22  1  0  0  0  0
 21 30  1  0  0  0  0
 21 31  1  0  0  0  0
 22 23  1  0  0  0  0
 22 24  2  0  0  0  0
 23 25  2  0  0  0  0
 23 32  1  0  0  0  0
 24 26  1  0  0  0  0
 24 33  1  0  0  0  0
 25 27  1  0  0  0  0
 25 34  1  0  0  0  0
 26 27  2  0  0  0  0
 26 35  1  0  0  0  0
 27 36  1  0  0  0  0
 37 38  1  0  0  0  0
 37 42  1  0  0  0  0
 38 39  1  0  0  0  0
 38 41  1  0  0  0  0
 38 43  1  0  0  0  0
 39 40  2  0  0  0  0
 39 47  1  0  0  0  0
 41 44  1  0  0  0  0
 41 45  1  0  0  0  0
 41 46  1  0  0  0  0
 47 48  1  0  0  0  0
 47 49  1  0  0  0  0
 48 50  1  0  0  0  0
 48 51  1  0  0  0  0
 48 52  1  0  0  0  0
M  END
$$$$

  -OEChem-05262217163D

 52 52  0     1  0  0  0  0  0999 V2000
   -2.8161    0.2640    3.3296 C   0  0  0  0  0  0  0  0  0  0  0  0
   -3.4876    0.0871    2.3238 O   0  0  0  0  0  0  0  0  0  0  0  0
   -2.9619   -0.6735    4.5131 C   0  0  0  0  0  0  0  0  0  0  0  0
   -3.7574   -1.3996    4.3242 H   0  0  0  0  0  0  0  0  0  0  0  0
   -2.0250   -1.2116    4.6778 H   0  0  0  0  0  0  0  0  0  0  0  0
   -3.2110   -0.1039    5.4118 H   0  0  0  0  0  0  0  0  0  0  0  0
   -1.8960    1.2905    3.3844 N   0  0  0  0  0  0  0  0  0  0  0  0
   -1.4655    2.0194    2.1849 C   0  0  2  0  0  0  0  0  0  0  0  0
   -0.2636    1.3224    1.5175 C   0  0  0  0  0  0  0  0  0  0  0  0
    0.6513    0.8940    2.2130 O   0  0  0  0  0  0  0  0  0  0  0  0
   -1.1009    3.4464    2.5982 C   0  0  0  0  0  0  0  0  0  0  0  0
   -1.2152    1.2208    4.1369 H   0  0  0  0  0  0  0  0  0  0  0  0
   -2.2832    2.0731    1.4585 H   0  0  0  0  0  0  0  0  0  0  0  0
   -0.2844    3.4393    3.3276 H   0  0  0  0  0  0  0  0  0  0  0  0
   -0.7811    4.0245    1.7256 H   0  0  0  0  0  0  0  0  0  0  0  0
   -1.9660    3.9447    3.0465 H   0  0  0  0  0  0  0  0  0  0  0  0
   -0.2133    1.1879    0.1422 N   0  0  0  0  0  0  0  0  0  0  0  0
    0.8580    0.4823   -0.5825 C   0  0  2  0  0  0  0  0  0  0  0  0
    1.3249    1.3083   -1.8056 C   0  0  0  0  0  0  0  0  0  0  0  0
    1.3895    2.5306   -1.7322 O   0  0  0  0  0  0  0  0  0  0  0  0
    0.3247   -0.9088   -0.9937 C   0  0  0  0  0  0  0  0  0  0  0  0
    0.0729   -1.7987    0.2000 C   0  0  0  0  0  0  0  0  0  0  0  0
    1.1298   -2.4896    0.8110 C   0  0  0  0  0  0  0  0  0  0  0  0
   -1.2247   -1.9477    0.7138 C   0  0  0  0  0  0  0  0  0  0  0  0
    0.8923   -3.3179    1.9136 C   0  0  0  0  0  0  0  0  0  0  0  0
   -1.4634   -2.7759    1.8143 C   0  0  0  0  0  0  0  0  0  0  0  0
   -0.4049   -3.4631    2.4148 C   0  0  0  0  0  0  0  0  0  0  0  0
   -0.9618    1.6180   -0.3933 H   0  0  0  0  0  0  0  0  0  0  0  0
    1.7384    0.3514    0.0557 H   0  0  0  0  0  0  0  0  0  0  0  0
    1.0555   -1.4148   -1.6318 H   0  0  0  0  0  0  0  0  0  0  0  0
   -0.5963   -0.7939   -1.5753 H   0  0  0  0  0  0  0  0  0  0  0  0
    2.1430   -2.3807    0.4370 H   0  0  0  0  0  0  0  0  0  0  0  0
   -2.0586   -1.4124    0.2683 H   0  0  0  0  0  0  0  0  0  0  0  0
    1.7174   -3.8456    2.3823 H   0  0  0  0  0  0  0  0  0  0  0  0
   -2.4739   -2.8779    2.1993 H   0  0  0  0  0  0  0  0  0  0  0  0
   -0.5889   -4.1066    3.2698 H   0  0  0  0  0  0  0  0  0  0  0  0
    1.5312    0.7327   -3.0487 N   0  0  0  0  0  0  0  0  0  0  0  0
    1.8328    1.4882   -4.2743 C   0  0  2  0  0  0  0  0  0  0  0  0
    0.5687    2.1468   -4.8779 C   0  0  0  0  0  0  0  0  0  0  0  0
    0.1084    1.7919   -5.9561 O   0  0  0  0  0  0  0  0  0  0  0  0
    2.5266    0.5265   -5.2473 C   0  0  0  0  0  0  0  0  0  0  0  0
    1.3426   -0.2611   -3.1377 H   0  0  0  0  0  0  0  0  0  0  0  0
    2.5385    2.2941   -4.0446 H   0  0  0  0  0  0  0  0  0  0  0  0
    1.8656   -0.3074   -5.5047 H   0  0  0  0  0  0  0  0  0  0  0  0
    2.7957    1.0510   -6.1697 H   0  0  0  0  0  0  0  0  0  0  0  0
    3.4409    0.1249   -4.7999 H   0  0  0  0  0  0  0  0  0  0  0  0
   -0.0787    3.1336   -4.1614 N   0  0  0  0  0  0  0  0  0  0  0  0
   -1.3196    3.7680   -4.5845 C   0  0  0  0  0  0  0  0  0  0  0  0
    0.3053    3.3413   -3.2357 H   0  0  0  0  0  0  0  0  0  0  0  0
   -1.1797    4.2832   -5.5406 H   0  0  0  0  0  0  0  0  0  0  0  0
   -2.1124    3.0214   -4.6990 H   0  0  0  0  0  0  0  0  0  0  0  0
   -1.6405    4.5021   -3.8392 H   0  0  0  0  0  0  0  0  0  0  0  0
  1  2  2  0  0  0  0
  1  3  1  0  0  0  0
  1  7  1  0  0  0  0
  3  4  1  0  0  0  0
  3  5  1  0  0  0  0
  3  6  1  0  0  0  0
  7  8  1  0  0  0  0
  7 12  1  0  0  0  0
  8  9  1  0  0  0  0
  8 11  1  0  0  0  0
  8 13  1  0  0  0  0
  9 10  2  0  0  0  0
  9 17  1  0  0  0  0
 11 14  1  0  0  0  0
 11 15  1  0  0  0  0
 11 16  1  0  0  0  0
 17 18  1  0  0  0  0
 17 28  1  0  0  0  0
 18 19  1  0  0  0  0
 18 21  1  0  0  0  0
 18 29  1  0  0  0  0
 19 20  2  0  0  0  0
 19 37  1  0  0  0  0
 21 22  1  0  0  0  0
 21 30  1  0  0  0  0
 21 31  1  0  0  0  0
 22 23  1  0  0  0  0
 22 24  2  0  0  0  0
 23 25  2  0  0  0  0
 23 32  1  0  0  0  0
 24 26  1  0  0  0  0
 24 33  1  0  0  0  0
 25 27  1  0  0  0  0
 25 34  1  0  0  0  0
 26 27  2  0  0  0  0
 26 35  1  0  0  0  0
 27 36  1  0  0  0  0
 37 38  1  0  0  0  0
 37 42  1  0  0  0  0
 38 39  1  0  0  0  0
 38 41  1  0  0  0  0
 38 43  1  0  0  0  0
 39 40  2  0  0  0  0
 39 47  1  0  0  0  0
 41 44  1  0  0  0  0
 41 45  1  0  0  0  0
 41 46  1  0  0  0  0
 47 48  1  0  0  0  0
 47 49  1  0  0  0  0
 48 50  1  0  0  0  0
 48 51  1  0  0  0  0
 48 52  1  0  0  0  0
M  END
$$$$

  -OEChem-05262217163D

 52 52  0     1  0  0  0  0  0999 V2000
   -2.8125    0.3161    3.2357 C   0  0  0  0  0  0  0  0  0  0  0  0
   -3.4523    0.1495    2.2077 O   0  0  0  0  0  0  0  0  0  0  0  0
   -3.0080   -0.6201    4.4132 C   0  0  0  0  0  0  0  0  0  0  0  0
   -3.7984   -1.3434    4.1942 H   0  0  0  0  0  0  0  0  0  0  0  0
   -2.0803   -1.1616    4.6152 H   0  0  0  0  0  0  0  0  0  0  0  0
   -3.2895   -0.0493    5.3013 H   0  0  0  0  0  0  0  0  0  0  0  0
   -1.8817    1.3304    3.3204 N   0  0  0  0  0  0  0  0  0  0  0  0
   -1.4188    2.0686    2.1390 C   0  0  2  0  0  0  0  0  0  0  0  0
   -0.2354    1.3476    1.4637 C   0  0  0  0  0  0  0  0  0  0  0  0
    0.7024    0.9531    2.1478 O   0  0  0  0  0  0  0  0  0  0  0  0
   -1.0129    3.4754    2.5845 C   0  0  0  0  0  0  0  0  0  0  0  0
   -1.2264    1.2560    4.0945 H   0  0  0  0  0  0  0  0  0  0  0  0
   -2.2296    2.1643    1.4093 H   0  0  0  0  0  0  0  0  0  0  0  0
   -0.2016    3.4281    3.3184 H   0  0  0  0  0  0  0  0  0  0  0  0
   -0.6688    4.0615    1.7266 H   0  0  0  0  0  0  0  0  0  0  0  0
   -1.8651    3.9911    3.0380 H   0  0  0  0  0  0  0  0  0  0  0  0
   -0.2266    1.1609    0.0933 N   0  0  0  0  0  0  0  0  0  0  0  0
    0.8230    0.4273   -0.6357 C   0  0  2  0  0  0  0  0  0  0  0  0
    1.2470    1.2109   -1.8987 C   0  0  0  0  0  0  0  0  0  0  0  0
    1.5785    2.3867   -1.8021 O   0  0  0  0  0  0  0  0  0  0  0  0
    0.3029   -0.9860   -0.9782 C   0  0  0  0  0  0  0  0  0  0  0  0
    0.1000   -1.8327    0.2552 C   0  0  0  0  0  0  0  0  0  0  0  0
    1.1859   -2.4816    0.8615 C   0  0  0  0  0  0  0  0  0  0  0  0
   -1.1810   -1.9906    0.8063 C   0  0  0  0  0  0  0  0  0  0  0  0
    0.9949   -3.2723    1.9999 C   0  0  0  0  0  0  0  0  0  0  0  0
   -1.3739   -2.7842    1.9409 C   0  0  0  0  0  0  0  0  0  0  0  0
   -0.2858   -3.4257    2.5395 C   0  0  0  0  0  0  0  0  0  0  0  0
   -1.0282    1.5100   -0.4241 H   0  0  0  0  0  0  0  0  0  0  0  0
    1.7245    0.3302   -0.0205 H   0  0  0  0  0  0  0  0  0  0  0  0
    1.0266   -1.4978   -1.6208 H   0  0  0  0  0  0  0  0  0  0  0  0
   -0.6375   -0.9107   -1.5345 H   0  0  0  0  0  0  0  0  0  0  0  0
    2.1862   -2.3667    0.4560 H   0  0  0  0  0  0  0  0  0  0  0  0
   -2.0372   -1.4912    0.3615 H   0  0  0  0  0  0  0  0  0  0  0  0
    1.8432   -3.7645    2.4659 H   0  0  0  0  0  0  0  0  0  0  0  0
   -2.3720   -2.8967    2.3536 H   0  0  0  0  0  0  0  0  0  0  0  0
   -0.4333   -4.0410    3.4219 H   0  0  0  0  0  0  0  0  0  0  0  0
    1.1240    0.6810   -3.1734 N   0  0  0  0  0  0  0  0  0  0  0  0
    1.3470    1.4471   -4.4096 C   0  0  2  0  0  0  0  0  0  0  0  0
    0.1537    2.3759   -4.7408 C   0  0  0  0  0  0  0  0  0  0  0  0
   -0.5655    2.1806   -5.7128 O   0  0  0  0  0  0  0  0  0  0  0  0
    1.6508    0.4426   -5.5281 C   0  0  0  0  0  0  0  0  0  0  0  0
    0.7076   -0.2422   -3.2540 H   0  0  0  0  0  0  0  0  0  0  0  0
    2.2286    2.0863   -4.2913 H   0  0  0  0  0  0  0  0  0  0  0  0
    0.8014   -0.2298   -5.6860 H   0  0  0  0  0  0  0  0  0  0  0  0
    1.8513    0.9708   -6.4659 H   0  0  0  0  0  0  0  0  0  0  0  0
    2.5306   -0.1567   -5.2745 H   0  0  0  0  0  0  0  0  0  0  0  0
   -0.1283    3.4303   -3.8952 N   0  0  0  0  0  0  0  0  0  0  0  0
   -1.2604    4.3303   -4.0629 C   0  0  0  0  0  0  0  0  0  0  0  0
    0.4523    3.5001   -3.0549 H   0  0  0  0  0  0  0  0  0  0  0  0
   -1.2112    4.8301   -5.0360 H   0  0  0  0  0  0  0  0  0  0  0  0
   -2.2025    3.7764   -3.9979 H   0  0  0  0  0  0  0  0  0  0  0  0
   -1.2527    5.0958   -3.2810 H   0  0  0  0  0  0  0  0  0  0  0  0
  1  2  2  0  0  0  0
  1  3  1  0  0  0  0
  1  7  1  0  0  0  0
  3  4  1  0  0  0  0
  3  5  1  0  0  0  0
  3  6  1  0  0  0  0
  7  8  1  0  0  0  0
  7 12  1  0  0  0  0
  8  9  1  0  0  0  0
  8 11  1  0  0  0  0
  8 13  1  0  0  0  0
  9 10  2  0  0  0  0
  9 17  1  0  0  0  0
 11 14  1  0  0  0  0
 11 15  1  0  0  0  0
 11 16  1  0  0  0  0
 17 18  1  0  0  0  0
 17 28  1  0  0  0  0
 18 19  1  0  0  0  0
 18 21  1  0  0  0  0
 18 29  1  0  0  0  0
 19 20  2  0  0  0  0
 19 37  1  0  0  0  0
 21 22  1  0  0  0  0
 21 30  1  0  0  0  0
 21 31  1  0  0  0  0
 22 23  1  0  0  0  0
 22 24  2  0  0  0  0
 23 25  2  0  0  0  0
 23 32  1  0  0  0  0
 24 26  1  0  0  0  0
 24 33  1  0  0  0  0
 25 27  1  0  0  0  0
 25 34  1  0  0  0  0
 26 27  2  0  0  0  0
 26 35  1  0  0  0  0
 27 36  1  0  0  0  0
 37 38  1  0  0  0  0
 37 42  1  0  0  0  0
 38 39  1  0  0  0  0
 38 41  1  0  0  0  0
 38 43  1  0  0  0  0
 39 40  2  0  0  0  0
 39 47  1  0  0  0  0
 41 44  1  0  0  0  0
 41 45  1  0  0  0  0
 41 46  1  0  0  0  0
 47 48  1  0  0  0  0
 47 49  1  0  0  0  0
 48 50  1  0  0  0  0
 48 51  1  0  0  0  0
 48 52  1  0  0  0  0
M  END
$$$$

  -OEChem-05262217163D

 52 52  0     1  0  0  0  0  0999 V2000
   -2.7014    0.2545    3.4556 C   0  0  0  0  0  0  0  0  0  0  0  0
   -3.4577    0.0102    2.5274 O   0  0  0  0  0  0  0  0  0  0  0  0
   -2.7249   -0.6150    4.6986 C   0  0  0  0  0  0  0  0  0  0  0  0
   -3.4968   -1.3843    4.6076 H   0  0  0  0  0  0  0  0  0  0  0  0
   -1.7556   -1.1027    4.8290 H   0  0  0  0  0  0  0  0  0  0  0  0
   -2.9389   -0.0034    5.5783 H   0  0  0  0  0  0  0  0  0  0  0  0
   -1.7975    1.2934    3.3705 N   0  0  0  0  0  0  0  0  0  0  0  0
   -1.4645    1.9432    2.0956 C   0  0  2  0  0  0  0  0  0  0  0  0
   -0.2447    1.2689    1.4363 C   0  0  0  0  0  0  0  0  0  0  0  0
    0.6900    0.8933    2.1362 O   0  0  0  0  0  0  0  0  0  0  0  0
   -1.1793    3.4203    2.3724 C   0  0  0  0  0  0  0  0  0  0  0  0
   -1.0566    1.2753    4.0676 H   0  0  0  0  0  0  0  0  0  0  0  0
   -2.3095    1.8828    1.4014 H   0  0  0  0  0  0  0  0  0  0  0  0
   -0.3265    3.5268    3.0507 H   0  0  0  0  0  0  0  0  0  0  0  0
   -0.9477    3.9443    1.4397 H   0  0  0  0  0  0  0  0  0  0  0  0
   -2.0523    3.8956    2.8303 H   0  0  0  0  0  0  0  0  0  0  0  0
   -0.2147    1.0751    0.0674 N   0  0  0  0  0  0  0  0  0  0  0  0
    0.8245    0.3050   -0.6372 C   0  0  2  0  0  0  0  0  0  0  0  0
    1.2977    1.0654   -1.8933 C   0  0  0  0  0  0  0  0  0  0  0  0
    1.9212    2.1131   -1.7760 O   0  0  0  0  0  0  0  0  0  0  0  0
    0.2702   -1.0949   -0.9776 C   0  0  0  0  0  0  0  0  0  0  0  0
    0.0247   -1.9213    0.2619 C   0  0  0  0  0  0  0  0  0  0  0  0
    1.0845   -2.5923    0.8895 C   0  0  0  0  0  0  0  0  0  0  0  0
   -1.2651   -2.0278    0.8051 C   0  0  0  0  0  0  0  0  0  0  0  0
    0.8593   -3.3561    2.0400 C   0  0  0  0  0  0  0  0  0  0  0  0
   -1.4920   -2.7932    1.9528 C   0  0  0  0  0  0  0  0  0  0  0  0
   -0.4297   -3.4577    2.5723 C   0  0  0  0  0  0  0  0  0  0  0  0
   -1.0109    1.4162   -0.4650 H   0  0  0  0  0  0  0  0  0  0  0  0
    1.7107    0.1856   -0.0042 H   0  0  0  0  0  0  0  0  0  0  0  0
    0.9874   -1.6276   -1.6109 H   0  0  0  0  0  0  0  0  0  0  0  0
   -0.6622   -0.9987   -1.5435 H   0  0  0  0  0  0  0  0  0  0  0  0
    2.0911   -2.5148    0.4903 H   0  0  0  0  0  0  0  0  0  0  0  0
   -2.1016   -1.5075    0.3474 H   0  0  0  0  0  0  0  0  0  0  0  0
    1.6884   -3.8663    2.5208 H   0  0  0  0  0  0  0  0  0  0  0  0
   -2.4963   -2.8604    2.3613 H   0  0  0  0  0  0  0  0  0  0  0  0
   -0.6049   -4.0494    3.4654 H   0  0  0  0  0  0  0  0  0  0  0  0
    0.9089    0.6743   -3.1637 N   0  0  0  0  0  0  0  0  0  0  0  0
    0.9496    1.6102   -4.2928 C   0  0  2  0  0  0  0  0  0  0  0  0
   -0.1999    2.6353   -4.1944 C   0  0  0  0  0  0  0  0  0  0  0  0
   -1.3526    2.2465   -4.0369 O   0  0  0  0  0  0  0  0  0  0  0  0
    0.8552    0.8006   -5.5879 C   0  0  0  0  0  0  0  0  0  0  0  0
    0.1897   -0.0429   -3.1960 H   0  0  0  0  0  0  0  0  0  0  0  0
    1.9021    2.1509   -4.2982 H   0  0  0  0  0  0  0  0  0  0  0  0
   -0.0851    0.2408   -5.6258 H   0  0  0  0  0  0  0  0  0  0  0  0
    0.8971    1.4666   -6.4554 H   0  0  0  0  0  0  0  0  0  0  0  0
    1.6868    0.0921   -5.6541 H   0  0  0  0  0  0  0  0  0  0  0  0
    0.0654    3.9905   -4.2426 N   0  0  0  0  0  0  0  0  0  0  0  0
   -0.9567    5.0025   -4.0079 C   0  0  0  0  0  0  0  0  0  0  0  0
    1.0419    4.2619   -4.1602 H   0  0  0  0  0  0  0  0  0  0  0  0
   -1.7773    4.8926   -4.7247 H   0  0  0  0  0  0  0  0  0  0  0  0
   -1.3594    4.9116   -2.9938 H   0  0  0  0  0  0  0  0  0  0  0  0
   -0.5311    6.0038   -4.1245 H   0  0  0  0  0  0  0  0  0  0  0  0
  1  2  2  0  0  0  0
  1  3  1  0  0  0  0
  1  7  1  0  0  0  0
  3  4  1  0  0  0  0
  3  5  1  0  0  0  0
  3  6  1  0  0  0  0
  7  8  1  0  0  0  0
  7 12  1  0  0  0  0
  8  9  1  0  0  0  0
  8 11  1  0  0  0  0
  8 13  1  0  0  0  0
  9 10  2  0  0  0  0
  9 17  1  0  0  0  0
 11 14  1  0  0  0  0
 11 15  1  0  0  0  0
 11 16  1  0  0  0  0
 17 18  1  0  0  0  0
 17 28  1  0  0  0  0
 18 19  1  0  0  0  0
 18 21  1  0  0  0  0
 18 29  1  0  0  0  0
 19 20  2  0  0  0  0
 19 37  1  0  0  0  0
 21 22  1  0  0  0  0
 21 30  1  0  0  0  0
 21 31  1  0  0  0  0
 22 23  1  0  0  0  0
 22 24  2  0  0  0  0
 23 25  2  0  0  0  0
 23 32  1  0  0  0  0
 24 26  1  0  0  0  0
 24 33  1  0  0  0  0
 25 27  1  0  0  0  0
 25 34  1  0  0  0  0
 26 27  2  0  0  0  0
 26 35  1  0  0  0  0
 27 36  1  0  0  0  0
 37 38  1  0  0  0  0
 37 42  1  0  0  0  0
 38 39  1  0  0  0  0
 38 41  1  0  0  0  0
 38 43  1  0  0  0  0
 39 40  2  0  0  0  0
 39 47  1  0  0  0  0
 41 44  1  0  0  0  0
 41 45  1  0  0  0  0
 41 46  1  0  0  0  0
 47 48  1  0  0  0  0
 47 49  1  0  0  0  0
 48 50  1  0  0  0  0
 48 51  1  0  0  0  0
 48 52  1  0  0  0  0
M  END
$$$$

  -OEChem-05262217163D

 52 52  0     1  0  0  0  0  0999 V2000
   -2.6577    0.5818    3.2140 C   0  0  0  0  0  0  0  0  0  0  0  0
   -3.3992    0.3356    2.2746 O   0  0  0  0  0  0  0  0  0  0  0  0
   -2.7909   -0.2043    4.5045 C   0  0  0  0  0  0  0  0  0  0  0  0
   -3.6440   -0.8858    4.4453 H   0  0  0  0  0  0  0  0  0  0  0  0
   -1.8837   -0.7890    4.6777 H   0  0  0  0  0  0  0  0  0  0  0  0
   -2.9434    0.4781    5.3441 H   0  0  0  0  0  0  0  0  0  0  0  0
   -1.6713    1.5401    3.1037 N   0  0  0  0  0  0  0  0  0  0  0  0
   -1.2251    2.0553    1.8022 C   0  0  2  0  0  0  0  0  0  0  0  0
   -0.0437    1.2275    1.2611 C   0  0  0  0  0  0  0  0  0  0  0  0
    0.7984    0.7868    2.0374 O   0  0  0  0  0  0  0  0  0  0  0  0
   -0.8205    3.5200    1.9756 C   0  0  0  0  0  0  0  0  0  0  0  0
   -0.9600    1.5020    3.8297 H   0  0  0  0  0  0  0  0  0  0  0  0
   -2.0388    2.0098    1.0704 H   0  0  0  0  0  0  0  0  0  0  0  0
    0.0029    3.6085    2.6918 H   0  0  0  0  0  0  0  0  0  0  0  0
   -0.4955    3.9395    1.0182 H   0  0  0  0  0  0  0  0  0  0  0  0
   -1.6683    4.1072    2.3415 H   0  0  0  0  0  0  0  0  0  0  0  0
    0.0478    0.9670   -0.0908 N   0  0  0  0  0  0  0  0  0  0  0  0
    1.0534    0.0949   -0.7152 C   0  0  2  0  0  0  0  0  0  0  0  0
    1.6003    0.8154   -1.9606 C   0  0  0  0  0  0  0  0  0  0  0  0
    2.3898    1.7436   -1.8389 O   0  0  0  0  0  0  0  0  0  0  0  0
    0.4092   -1.2666   -1.0472 C   0  0  0  0  0  0  0  0  0  0  0  0
    0.0366   -2.0267    0.2042 C   0  0  0  0  0  0  0  0  0  0  0  0
    1.0030   -2.7568    0.9119 C   0  0  0  0  0  0  0  0  0  0  0  0
   -1.2804   -1.9928    0.6898 C   0  0  0  0  0  0  0  0  0  0  0  0
    0.6576   -3.4455    2.0803 C   0  0  0  0  0  0  0  0  0  0  0  0
   -1.6266   -2.6790    1.8577 C   0  0  0  0  0  0  0  0  0  0  0  0
   -0.6576   -3.4076    2.5534 C   0  0  0  0  0  0  0  0  0  0  0  0
   -0.6358    1.4223   -0.7022 H   0  0  0  0  0  0  0  0  0  0  0  0
    1.9032   -0.0664   -0.0425 H   0  0  0  0  0  0  0  0  0  0  0  0
    1.1116   -1.8695   -1.6321 H   0  0  0  0  0  0  0  0  0  0  0  0
   -0.4866   -1.1169   -1.6582 H   0  0  0  0  0  0  0  0  0  0  0  0
    2.0299   -2.7836    0.5610 H   0  0  0  0  0  0  0  0  0  0  0  0
   -2.0430   -1.4175    0.1724 H   0  0  0  0  0  0  0  0  0  0  0  0
    1.4138   -4.0042    2.6234 H   0  0  0  0  0  0  0  0  0  0  0  0
   -2.6490   -2.6342    2.2223 H   0  0  0  0  0  0  0  0  0  0  0  0
   -0.9244   -3.9385    3.4620 H   0  0  0  0  0  0  0  0  0  0  0  0
    0.9811    0.6272   -3.1848 N   0  0  0  0  0  0  0  0  0  0  0  0
    0.6974    1.8128   -4.0051 C   0  0  2  0  0  0  0  0  0  0  0  0
   -0.3807    2.7095   -3.3448 C   0  0  0  0  0  0  0  0  0  0  0  0
   -1.1598    2.2395   -2.5164 O   0  0  0  0  0  0  0  0  0  0  0  0
    0.2308    1.3354   -5.3814 C   0  0  0  0  0  0  0  0  0  0  0  0
    0.2257   -0.0507   -3.1452 H   0  0  0  0  0  0  0  0  0  0  0  0
    1.6107    2.4042   -4.1331 H   0  0  0  0  0  0  0  0  0  0  0  0
   -0.6904    0.7504   -5.2936 H   0  0  0  0  0  0  0  0  0  0  0  0
    0.0385    2.1901   -6.0373 H   0  0  0  0  0  0  0  0  0  0  0  0
    0.9996    0.7101   -5.8463 H   0  0  0  0  0  0  0  0  0  0  0  0
   -0.4724    4.0506   -3.6672 N   0  0  0  0  0  0  0  0  0  0  0  0
   -1.4008    4.9654   -3.0130 C   0  0  0  0  0  0  0  0  0  0  0  0
    0.2528    4.4363   -4.2654 H   0  0  0  0  0  0  0  0  0  0  0  0
   -2.4337    4.6290   -3.1522 H   0  0  0  0  0  0  0  0  0  0  0  0
   -1.1903    5.0231   -1.9397 H   0  0  0  0  0  0  0  0  0  0  0  0
   -1.3063    5.9689   -3.4390 H   0  0  0  0  0  0  0  0  0  0  0  0
  1  2  2  0  0  0  0
  1  3  1  0  0  0  0
  1  7  1  0  0  0  0
  3  4  1  0  0  0  0
  3  5  1  0  0  0  0
  3  6  1  0  0  0  0
  7  8  1  0  0  0  0
  7 12  1  0  0  0  0
  8  9  1  0  0  0  0
  8 11  1  0  0  0  0
  8 13  1  0  0  0  0
  9 10  2  0  0  0  0
  9 17  1  0  0  0  0
 11 14  1  0  0  0  0
 11 15  1  0  0  0  0
 11 16  1  0  0  0  0
 17 18  1  0  0  0  0
 17 28  1  0  0  0  0
 18 19  1  0  0  0  0
 18 21  1  0  0  0  0
 18 29  1  0  0  0  0
 19 20  2  0  0  0  0
 19 37  1  0  0  0  0
 21 22  1  0  0  0  0
 21 30  1  0  0  0  0
 21 31  1  0  0  0  0
 22 23  1  0  0  0  0
 22 24  2  0  0  0  0
 23 25  2  0  0  0  0
 23 32  1  0  0  0  0
 24 26  1  0  0  0  0
 24 33  1  0  0  0  0
 25 27  1  0  0  0  0
 25 34  1  0  0  0  0
 26 27  2  0  0  0  0
 26 35  1  0  0  0  0
 27 36  1  0  0  0  0
 37 38  1  0  0  0  0
 37 42  1  0  0  0  0
 38 39  1  0  0  0  0
 38 41  1  0  0  0  0
 38 43  1  0  0  0  0
 39 40  2  0  0  0  0
 39 47  1  0  0  0  0
 41 44  1  0  0  0  0
 41 45  1  0  0  0  0
 41 46  1  0  0  0  0
 47 48  1  0  0  0  0
 47 49  1  0  0  0  0
 48 50  1  0  0  0  0
 48 51  1  0  0  0  0
 48 52  1  0  0  0  0
M  END
$$$$

  -OEChem-05262217163D

 52 52  0     1  0  0  0  0  0999 V2000
   -2.5714    0.6152    3.2504 C   0  0  0  0  0  0  0  0  0  0  0  0
   -3.3306    0.3506    2.3302 O   0  0  0  0  0  0  0  0  0  0  0  0
   -2.6593   -0.1678    4.5466 C   0  0  0  0  0  0  0  0  0  0  0  0
   -3.5282   -0.8315    4.5287 H   0  0  0  0  0  0  0  0  0  0  0  0
   -1.7571   -0.7712    4.6758 H   0  0  0  0  0  0  0  0  0  0  0  0
   -2.7571    0.5173    5.3921 H   0  0  0  0  0  0  0  0  0  0  0  0
   -1.6020    1.5873    3.1092 N   0  0  0  0  0  0  0  0  0  0  0  0
   -1.1949    2.0895    1.7899 C   0  0  2  0  0  0  0  0  0  0  0  0
   -0.0587    1.2267    1.2078 C   0  0  0  0  0  0  0  0  0  0  0  0
    0.8153    0.7877    1.9485 O   0  0  0  0  0  0  0  0  0  0  0  0
   -0.7469    3.5439    1.9394 C   0  0  0  0  0  0  0  0  0  0  0  0
   -0.8710    1.5615    3.8158 H   0  0  0  0  0  0  0  0  0  0  0  0
   -2.0388    2.0642    1.0919 H   0  0  0  0  0  0  0  0  0  0  0  0
    0.1107    3.6146    2.6160 H   0  0  0  0  0  0  0  0  0  0  0  0
   -0.4573    3.9524    0.9659 H   0  0  0  0  0  0  0  0  0  0  0  0
   -1.5628    4.1519    2.3421 H   0  0  0  0  0  0  0  0  0  0  0  0
   -0.0518    0.9250   -0.1385 N   0  0  0  0  0  0  0  0  0  0  0  0
    0.9277    0.0482   -0.8000 C   0  0  2  0  0  0  0  0  0  0  0  0
    1.3847    0.7277   -2.1005 C   0  0  0  0  0  0  0  0  0  0  0  0
    2.3479    1.4826   -2.1019 O   0  0  0  0  0  0  0  0  0  0  0  0
    0.2906   -1.3303   -1.0646 C   0  0  0  0  0  0  0  0  0  0  0  0
    0.0037   -2.0654    0.2230 C   0  0  0  0  0  0  0  0  0  0  0  0
    1.0232   -2.7611    0.8891 C   0  0  0  0  0  0  0  0  0  0  0  0
   -1.2825   -2.0399    0.7850 C   0  0  0  0  0  0  0  0  0  0  0  0
    0.7591   -3.4273    2.0910 C   0  0  0  0  0  0  0  0  0  0  0  0
   -1.5481   -2.7057    1.9851 C   0  0  0  0  0  0  0  0  0  0  0  0
   -0.5272   -3.4014    2.6391 C   0  0  0  0  0  0  0  0  0  0  0  0
   -0.7163    1.4392   -0.7242 H   0  0  0  0  0  0  0  0  0  0  0  0
    1.8186   -0.0829   -0.1753 H   0  0  0  0  0  0  0  0  0  0  0  0
    0.9701   -1.9344   -1.6748 H   0  0  0  0  0  0  0  0  0  0  0  0
   -0.6398   -1.2125   -1.6288 H   0  0  0  0  0  0  0  0  0  0  0  0
    2.0283   -2.7786    0.4790 H   0  0  0  0  0  0  0  0  0  0  0  0
   -2.0827   -1.4859    0.3025 H   0  0  0  0  0  0  0  0  0  0  0  0
    1.5566   -3.9587    2.6012 H   0  0  0  0  0  0  0  0  0  0  0  0
   -2.5483   -2.6701    2.4069 H   0  0  0  0  0  0  0  0  0  0  0  0
   -0.7312   -3.9160    3.5731 H   0  0  0  0  0  0  0  0  0  0  0  0
    0.5230    0.7354   -3.1837 N   0  0  0  0  0  0  0  0  0  0  0  0
    0.3432    1.9825   -3.9378 C   0  0  2  0  0  0  0  0  0  0  0  0
   -0.4752    3.0111   -3.1203 C   0  0  0  0  0  0  0  0  0  0  0  0
   -1.2349    2.6300   -2.2306 O   0  0  0  0  0  0  0  0  0  0  0  0
   -0.3714    1.6442   -5.2473 C   0  0  0  0  0  0  0  0  0  0  0  0
   -0.3331    0.2157   -3.0116 H   0  0  0  0  0  0  0  0  0  0  0  0
    1.3176    2.4224   -4.1769 H   0  0  0  0  0  0  0  0  0  0  0  0
   -1.3591    1.2162   -5.0474 H   0  0  0  0  0  0  0  0  0  0  0  0
   -0.5000    2.5450   -5.8550 H   0  0  0  0  0  0  0  0  0  0  0  0
    0.2136    0.9195   -5.8224 H   0  0  0  0  0  0  0  0  0  0  0  0
   -0.3553    4.3649   -3.3709 N   0  0  0  0  0  0  0  0  0  0  0  0
   -1.0254    5.3850   -2.5731 C   0  0  0  0  0  0  0  0  0  0  0  0
    0.3612    4.6544   -4.0310 H   0  0  0  0  0  0  0  0  0  0  0  0
   -2.1074    5.2152   -2.5619 H   0  0  0  0  0  0  0  0  0  0  0  0
   -0.6555    5.3690   -1.5425 H   0  0  0  0  0  0  0  0  0  0  0  0
   -0.8384    6.3778   -2.9940 H   0  0  0  0  0  0  0  0  0  0  0  0
  1  2  2  0  0  0  0
  1  3  1  0  0  0  0
  1  7  1  0  0  0  0
  3  4  1  0  0  0  0
  3  5  1  0  0  0  0
  3  6  1  0  0  0  0
  7  8  1  0  0  0  0
  7 12  1  0  0  0  0
  8  9  1  0  0  0  0
  8 11  1  0  0  0  0
  8 13  1  0  0  0  0
  9 10  2  0  0  0  0
  9 17  1  0  0  0  0
 11 14  1  0  0  0  0
 11 15  1  0  0  0  0
 11 16  1  0  0  0  0
 17 18  1  0  0  0  0
 17 28  1  0  0  0  0
 18 19  1  0  0  0  0
 18 21  1  0  0  0  0
 18 29  1  0  0  0  0
 19 20  2  0  0  0  0
 19 37  1  0  0  0  0
 21 22  1  0  0  0  0
 21 30  1  0  0  0  0
 21 31  1  0  0  0  0
 22 23  1  0  0  0  0
 22 24  2  0  0  0  0
 23 25  2  0  0  0  0
 23 32  1  0  0  0  0
 24 26  1  0  0  0  0
 24 33  1  0  0  0  0
 25 27  1  0  0  0  0
 25 34  1  0  0  0  0
 26 27  2  0  0  0  0
 26 35  1  0  0  0  0
 27 36  1  0  0  0  0
 37 38  1  0  0  0  0
 37 42  1  0  0  0  0
 38 39  1  0  0  0  0
 38 41  1  0  0  0  0
 38 43  1  0  0  0  0
 39 40  2  0  0  0  0
 39 47  1  0  0  0  0
 41 44  1  0  0  0  0
 41 45  1  0  0  0  0
 41 46  1  0  0  0  0
 47 48  1  0  0  0  0
 47 49  1  0  0  0  0
 48 50  1  0  0  0  0
 48 51  1  0  0  0  0
 48 52  1  0  0  0  0
M  END
$$$$

  -OEChem-05262217163D

 52 52  0     1  0  0  0  0  0999 V2000
   -2.5477    0.2081    3.5423 C   0  0  0  0  0  0  0  0  0  0  0  0
   -3.3124   -0.0957    2.6382 O   0  0  0  0  0  0  0  0  0  0  0  0
   -2.4482   -0.6629    4.7801 C   0  0  0  0  0  0  0  0  0  0  0  0
   -3.2001   -1.4560    4.7458 H   0  0  0  0  0  0  0  0  0  0  0  0
   -1.4562   -1.1187    4.8344 H   0  0  0  0  0  0  0  0  0  0  0  0
   -2.6138   -0.0598    5.6760 H   0  0  0  0  0  0  0  0  0  0  0  0
   -1.7403    1.3205    3.4260 N   0  0  0  0  0  0  0  0  0  0  0  0
   -1.5443    2.0157    2.1481 C   0  0  2  0  0  0  0  0  0  0  0  0
   -0.3658    1.4058    1.3634 C   0  0  0  0  0  0  0  0  0  0  0  0
    0.6951    1.1905    1.9373 O   0  0  0  0  0  0  0  0  0  0  0  0
   -1.2923    3.4969    2.4395 C   0  0  0  0  0  0  0  0  0  0  0  0
   -0.9746    1.3739    4.0936 H   0  0  0  0  0  0  0  0  0  0  0  0
   -2.4470    1.9430    1.5326 H   0  0  0  0  0  0  0  0  0  0  0  0
   -0.3896    3.6221    3.0459 H   0  0  0  0  0  0  0  0  0  0  0  0
   -1.1613    4.0509    1.5047 H   0  0  0  0  0  0  0  0  0  0  0  0
   -2.1400    3.9276    2.9815 H   0  0  0  0  0  0  0  0  0  0  0  0
   -0.4965    1.1384    0.0121 N   0  0  0  0  0  0  0  0  0  0  0  0
    0.5203    0.4239   -0.7838 C   0  0  2  0  0  0  0  0  0  0  0  0
    0.7659    1.1376   -2.1240 C   0  0  0  0  0  0  0  0  0  0  0  0
    1.8481    1.6579   -2.3615 O   0  0  0  0  0  0  0  0  0  0  0  0
    0.0682   -1.0258   -1.0394 C   0  0  0  0  0  0  0  0  0  0  0  0
    0.0288   -1.8343    0.2354 C   0  0  0  0  0  0  0  0  0  0  0  0
    1.2049   -2.3874    0.7628 C   0  0  0  0  0  0  0  0  0  0  0  0
   -1.1850   -2.0529    0.9053 C   0  0  0  0  0  0  0  0  0  0  0  0
    1.1696   -3.1398    1.9422 C   0  0  0  0  0  0  0  0  0  0  0  0
   -1.2225   -2.8095    2.0805 C   0  0  0  0  0  0  0  0  0  0  0  0
   -0.0448   -3.3518    2.6020 C   0  0  0  0  0  0  0  0  0  0  0  0
   -1.4263    1.2597   -0.3767 H   0  0  0  0  0  0  0  0  0  0  0  0
    1.4816    0.4043   -0.2568 H   0  0  0  0  0  0  0  0  0  0  0  0
    0.7642   -1.5033   -1.7373 H   0  0  0  0  0  0  0  0  0  0  0  0
   -0.9191   -1.0327   -1.5119 H   0  0  0  0  0  0  0  0  0  0  0  0
    2.1550   -2.2263    0.2624 H   0  0  0  0  0  0  0  0  0  0  0  0
   -2.1107   -1.6321    0.5236 H   0  0  0  0  0  0  0  0  0  0  0  0
    2.0875   -3.5573    2.3454 H   0  0  0  0  0  0  0  0  0  0  0  0
   -2.1706   -2.9684    2.5859 H   0  0  0  0  0  0  0  0  0  0  0  0
   -0.0721   -3.9357    3.5171 H   0  0  0  0  0  0  0  0  0  0  0  0
   -0.2662    1.3115   -3.0305 N   0  0  0  0  0  0  0  0  0  0  0  0
   -0.1755    2.1864   -4.2091 C   0  0  2  0  0  0  0  0  0  0  0  0
   -0.2900    3.6806   -3.8216 C   0  0  0  0  0  0  0  0  0  0  0  0
   -1.2735    4.3482   -4.1176 O   0  0  0  0  0  0  0  0  0  0  0  0
   -1.2553    1.7419   -5.2031 C   0  0  0  0  0  0  0  0  0  0  0  0
   -1.1810    0.9624   -2.7636 H   0  0  0  0  0  0  0  0  0  0  0  0
    0.7969    2.0514   -4.6952 H   0  0  0  0  0  0  0  0  0  0  0  0
   -2.2530    1.8534   -4.7669 H   0  0  0  0  0  0  0  0  0  0  0  0
   -1.2061    2.3506   -6.1118 H   0  0  0  0  0  0  0  0  0  0  0  0
   -1.1090    0.6939   -5.4820 H   0  0  0  0  0  0  0  0  0  0  0  0
    0.7161    4.2585   -3.0730 N   0  0  0  0  0  0  0  0  0  0  0  0
    0.6753    5.6245   -2.5699 C   0  0  0  0  0  0  0  0  0  0  0  0
    1.4583    3.6291   -2.7547 H   0  0  0  0  0  0  0  0  0  0  0  0
    0.5781    6.3343   -3.3979 H   0  0  0  0  0  0  0  0  0  0  0  0
   -0.1717    5.7575   -1.8890 H   0  0  0  0  0  0  0  0  0  0  0  0
    1.5972    5.8531   -2.0265 H   0  0  0  0  0  0  0  0  0  0  0  0
  1  2  2  0  0  0  0
  1  3  1  0  0  0  0
  1  7  1  0  0  0  0
  3  4  1  0  0  0  0
  3  5  1  0  0  0  0
  3  6  1  0  0  0  0
  7  8  1  0  0  0  0
  7 12  1  0  0  0  0
  8  9  1  0  0  0  0
  8 11  1  0  0  0  0
  8 13  1  0  0  0  0
  9 10  2  0  0  0  0
  9 17  1  0  0  0  0
 11 14  1  0  0  0  0
 11 15  1  0  0  0  0
 11 16  1  0  0  0  0
 17 18  1  0  0  0  0
 17 28  1  0  0  0  0
 18 19  1  0  0  0  0
 18 21  1  0  0  0  0
 18 29  1  0  0  0  0
 19 20  2  0  0  0  0
 19 37  1  0  0  0  0
 21 22  1  0  0  0  0
 21 30  1  0  0  0  0
 21 31  1  0  0  0  0
 22 23  1  0  0  0  0
 22 24  2  0  0  0  0
 23 25  2  0  0  0  0
 23 32  1  0  0  0  0
 24 26  1  0  0  0  0
 24 33  1  0  0  0  0
 25 27  1  0  0  0  0
 25 34  1  0  0  0  0
 26 27  2  0  0  0  0
 26 35  1  0  0  0  0
 27 36  1  0  0  0  0
 37 38  1  0  0  0  0
 37 42  1  0  0  0  0
 38 39  1  0  0  0  0
 38 41  1  0  0  0  0
 38 43  1  0  0  0  0
 39 40  2  0  0  0  0
 39 47  1  0  0  0  0
 41 44  1  0  0  0  0
 41 45  1  0  0  0  0
 41 46  1  0  0  0  0
 47 48  1  0  0  0  0
 47 49  1  0  0  0  0
 48 50  1  0  0  0  0
 48 51  1  0  0  0  0
 48 52  1  0  0  0  0
M  END
$$$$

  -OEChem-05262217163D

 52 52  0     1  0  0  0  0  0999 V2000
   -2.6226    0.0032    3.5617 C   0  0  0  0  0  0  0  0  0  0  0  0
   -3.3600   -0.2226    2.6130 O   0  0  0  0  0  0  0  0  0  0  0  0
   -2.5644   -0.9628    4.7301 C   0  0  0  0  0  0  0  0  0  0  0  0
   -3.2746   -1.7805    4.5797 H   0  0  0  0  0  0  0  0  0  0  0  0
   -1.5586   -1.3811    4.8179 H   0  0  0  0  0  0  0  0  0  0  0  0
   -2.8180   -0.4437    5.6575 H   0  0  0  0  0  0  0  0  0  0  0  0
   -1.8187    1.1239    3.5599 N   0  0  0  0  0  0  0  0  0  0  0  0
   -1.6368    1.9674    2.3726 C   0  0  2  0  0  0  0  0  0  0  0  0
   -0.4496    1.4817    1.5172 C   0  0  0  0  0  0  0  0  0  0  0  0
    0.6549    1.3601    2.0323 O   0  0  0  0  0  0  0  0  0  0  0  0
   -1.4162    3.4074    2.8428 C   0  0  0  0  0  0  0  0  0  0  0  0
   -1.0761    1.1399    4.2551 H   0  0  0  0  0  0  0  0  0  0  0  0
   -2.5398    1.9525    1.7537 H   0  0  0  0  0  0  0  0  0  0  0  0
   -0.5188    3.4766    3.4663 H   0  0  0  0  0  0  0  0  0  0  0  0
   -1.2924    4.0731    1.9829 H   0  0  0  0  0  0  0  0  0  0  0  0
   -2.2751    3.7522    3.4269 H   0  0  0  0  0  0  0  0  0  0  0  0
   -0.6211    1.2420    0.1640 N   0  0  0  0  0  0  0  0  0  0  0  0
    0.4102    0.6030   -0.6799 C   0  0  2  0  0  0  0  0  0  0  0  0
    0.5969    1.3374   -2.0195 C   0  0  0  0  0  0  0  0  0  0  0  0
    1.7205    1.5464   -2.4590 O   0  0  0  0  0  0  0  0  0  0  0  0
    0.0308   -0.8594   -0.9718 C   0  0  0  0  0  0  0  0  0  0  0  0
    0.0657   -1.7123    0.2728 C   0  0  0  0  0  0  0  0  0  0  0  0
    1.2835   -2.2171    0.7513 C   0  0  0  0  0  0  0  0  0  0  0  0
   -1.1196   -2.0424    0.9473 C   0  0  0  0  0  0  0  0  0  0  0  0
    1.3181   -3.0245    1.8935 C   0  0  0  0  0  0  0  0  0  0  0  0
   -1.0877   -2.8589    2.0821 C   0  0  0  0  0  0  0  0  0  0  0  0
    0.1318   -3.3470    2.5593 C   0  0  0  0  0  0  0  0  0  0  0  0
   -1.5884    1.1901   -0.1396 H   0  0  0  0  0  0  0  0  0  0  0  0
    1.3844    0.6198   -0.1779 H   0  0  0  0  0  0  0  0  0  0  0  0
    0.7344   -1.2769   -1.7004 H   0  0  0  0  0  0  0  0  0  0  0  0
   -0.9650   -0.9024   -1.4242 H   0  0  0  0  0  0  0  0  0  0  0  0
    2.2109   -1.9753    0.2403 H   0  0  0  0  0  0  0  0  0  0  0  0
   -2.0770   -1.6686    0.5957 H   0  0  0  0  0  0  0  0  0  0  0  0
    2.2679   -3.4017    2.2607 H   0  0  0  0  0  0  0  0  0  0  0  0
   -2.0149   -3.1107    2.5886 H   0  0  0  0  0  0  0  0  0  0  0  0
    0.1589   -3.9781    3.4424 H   0  0  0  0  0  0  0  0  0  0  0  0
   -0.4932    1.7459   -2.7686 N   0  0  0  0  0  0  0  0  0  0  0  0
   -0.3856    2.4981   -4.0278 C   0  0  2  0  0  0  0  0  0  0  0  0
   -0.0329    3.9856   -3.7878 C   0  0  0  0  0  0  0  0  0  0  0  0
   -0.8403    4.8814   -4.0036 O   0  0  0  0  0  0  0  0  0  0  0  0
   -1.7028    2.3122   -4.7909 C   0  0  0  0  0  0  0  0  0  0  0  0
   -1.4085    1.6575   -2.3408 H   0  0  0  0  0  0  0  0  0  0  0  0
    0.4155    2.0728   -4.6420 H   0  0  0  0  0  0  0  0  0  0  0  0
   -2.5422    2.7216   -4.2196 H   0  0  0  0  0  0  0  0  0  0  0  0
   -1.6568    2.8287   -5.7551 H   0  0  0  0  0  0  0  0  0  0  0  0
   -1.8894    1.2501   -4.9771 H   0  0  0  0  0  0  0  0  0  0  0  0
    1.2115    4.3029   -3.2810 N   0  0  0  0  0  0  0  0  0  0  0  0
    1.6175    5.6507   -2.9084 C   0  0  0  0  0  0  0  0  0  0  0  0
    1.7950    3.5098   -3.0005 H   0  0  0  0  0  0  0  0  0  0  0  0
    1.5006    6.3352   -3.7552 H   0  0  0  0  0  0  0  0  0  0  0  0
    1.0114    6.0156   -2.0728 H   0  0  0  0  0  0  0  0  0  0  0  0
    2.6688    5.6561   -2.6046 H   0  0  0  0  0  0  0  0  0  0  0  0
  1  2  2  0  0  0  0
  1  3  1  0  0  0  0
  1  7  1  0  0  0  0
  3  4  1  0  0  0  0
  3  5  1  0  0  0  0
  3  6  1  0  0  0  0
  7  8  1  0  0  0  0
  7 12  1  0  0  0  0
  8  9  1  0  0  0  0
  8 11  1  0  0  0  0
  8 13  1  0  0  0  0
  9 10  2  0  0  0  0
  9 17  1  0  0  0  0
 11 14  1  0  0  0  0
 11 15  1  0  0  0  0
 11 16  1  0  0  0  0
 17 18  1  0  0  0  0
 17 28  1  0  0  0  0
 18 19  1  0  0  0  0
 18 21  1  0  0  0  0
 18 29  1  0  0  0  0
 19 20  2  0  0  0  0
 19 37  1  0  0  0  0
 21 22  1  0  0  0  0
 21 30  1  0  0  0  0
 21 31  1  0  0  0  0
 22 23  1  0  0  0  0
 22 24  2  0  0  0  0
 23 25  2  0  0  0  0
 23 32  1  0  0  0  0
 24 26  1  0  0  0  0
 24 33  1  0  0  0  0
 25 27  1  0  0  0  0
 25 34  1  0  0  0  0
 26 27  2  0  0  0  0
 26 35  1  0  0  0  0
 27 36  1  0  0  0  0
 37 38  1  0  0  0  0
 37 42  1  0  0  0  0
 38 39  1  0  0  0  0
 38 41  1  0  0  0  0
 38 43  1  0  0  0  0
 39 40  2  0  0  0  0
 39 47  1  0  0  0  0
 41 44  1  0  0  0  0
 41 45  1  0  0  0  0
 41 46  1  0  0  0  0
 47 48  1  0  0  0  0
 47 49  1  0  0  0  0
 48 50  1  0  0  0  0
 48 51  1  0  0  0  0
 48 52  1  0  0  0  0
M  END
$$$$

  -OEChem-05262217163D

 52 52  0     1  0  0  0  0  0999 V2000
   -2.5326   -0.1412    3.7649 C   0  0  0  0  0  0  0  0  0  0  0  0
   -3.3617   -0.4403    2.9180 O   0  0  0  0  0  0  0  0  0  0  0  0
   -2.2813   -1.0627    4.9435 C   0  0  0  0  0  0  0  0  0  0  0  0
   -2.9942   -1.8919    4.9339 H   0  0  0  0  0  0  0  0  0  0  0  0
   -1.2677   -1.4682    4.8894 H   0  0  0  0  0  0  0  0  0  0  0  0
   -2.3962   -0.5117    5.8801 H   0  0  0  0  0  0  0  0  0  0  0  0
   -1.7998    1.0203    3.6390 N   0  0  0  0  0  0  0  0  0  0  0  0
   -1.7818    1.8268    2.4127 C   0  0  2  0  0  0  0  0  0  0  0  0
   -0.5592    1.4822    1.5389 C   0  0  0  0  0  0  0  0  0  0  0  0
    0.5542    1.4458    2.0480 O   0  0  0  0  0  0  0  0  0  0  0  0
   -1.7620    3.3021    2.8197 C   0  0  0  0  0  0  0  0  0  0  0  0
   -0.9890    1.1000    4.2490 H   0  0  0  0  0  0  0  0  0  0  0  0
   -2.6876    1.6524    1.8232 H   0  0  0  0  0  0  0  0  0  0  0  0
   -0.8693    3.5262    3.4130 H   0  0  0  0  0  0  0  0  0  0  0  0
   -1.7580    3.9423    1.9319 H   0  0  0  0  0  0  0  0  0  0  0  0
   -2.6472    3.5431    3.4169 H   0  0  0  0  0  0  0  0  0  0  0  0
   -0.7122    1.2718    0.1783 N   0  0  0  0  0  0  0  0  0  0  0  0
    0.3512    0.6802   -0.6617 C   0  0  2  0  0  0  0  0  0  0  0  0
    0.5441    1.4457   -1.9836 C   0  0  0  0  0  0  0  0  0  0  0  0
    1.6253    1.4215   -2.5581 O   0  0  0  0  0  0  0  0  0  0  0  0
    0.0043   -0.7834   -0.9874 C   0  0  0  0  0  0  0  0  0  0  0  0
    0.0373   -1.6571    0.2439 C   0  0  0  0  0  0  0  0  0  0  0  0
    1.2583   -2.1460    0.7311 C   0  0  0  0  0  0  0  0  0  0  0  0
   -1.1497   -2.0138    0.9024 C   0  0  0  0  0  0  0  0  0  0  0  0
    1.2939   -2.9704    1.8611 C   0  0  0  0  0  0  0  0  0  0  0  0
   -1.1159   -2.8432    2.0276 C   0  0  0  0  0  0  0  0  0  0  0  0
    0.1059   -3.3204    2.5098 C   0  0  0  0  0  0  0  0  0  0  0  0
   -1.6728    1.1200   -0.1141 H   0  0  0  0  0  0  0  0  0  0  0  0
    1.3173    0.7067   -0.1448 H   0  0  0  0  0  0  0  0  0  0  0  0
    0.7282   -1.1741   -1.7114 H   0  0  0  0  0  0  0  0  0  0  0  0
   -0.9821   -0.8362   -1.4590 H   0  0  0  0  0  0  0  0  0  0  0  0
    2.1873   -1.8799    0.2349 H   0  0  0  0  0  0  0  0  0  0  0  0
   -2.1099   -1.6512    0.5480 H   0  0  0  0  0  0  0  0  0  0  0  0
    2.2456   -3.3386    2.2325 H   0  0  0  0  0  0  0  0  0  0  0  0
   -2.0439   -3.1113    2.5245 H   0  0  0  0  0  0  0  0  0  0  0  0
    0.1327   -3.9633    3.3846 H   0  0  0  0  0  0  0  0  0  0  0  0
   -0.5129    2.1050   -2.5866 N   0  0  0  0  0  0  0  0  0  0  0  0
   -0.3896    2.8814   -3.8297 C   0  0  2  0  0  0  0  0  0  0  0  0
    0.3016    4.2465   -3.5971 C   0  0  0  0  0  0  0  0  0  0  0  0
   -0.3145    5.3019   -3.6851 O   0  0  0  0  0  0  0  0  0  0  0  0
   -1.7947    3.0174   -4.4294 C   0  0  0  0  0  0  0  0  0  0  0  0
   -1.3365    2.2541   -2.0133 H   0  0  0  0  0  0  0  0  0  0  0  0
    0.2245    2.3278   -4.5482 H   0  0  0  0  0  0  0  0  0  0  0  0
   -2.4556    3.5632   -3.7484 H   0  0  0  0  0  0  0  0  0  0  0  0
   -1.7502    3.5627   -5.3777 H   0  0  0  0  0  0  0  0  0  0  0  0
   -2.2257    2.0297   -4.6196 H   0  0  0  0  0  0  0  0  0  0  0  0
    1.6356    4.2688   -3.2419 N   0  0  0  0  0  0  0  0  0  0  0  0
    2.3572    5.4797   -2.8755 C   0  0  0  0  0  0  0  0  0  0  0  0
    2.0647    3.3576   -3.0593 H   0  0  0  0  0  0  0  0  0  0  0  0
    2.2689    6.2337   -3.6648 H   0  0  0  0  0  0  0  0  0  0  0  0
    1.9588    5.8950   -1.9442 H   0  0  0  0  0  0  0  0  0  0  0  0
    3.4187    5.2563   -2.7314 H   0  0  0  0  0  0  0  0  0  0  0  0
  1  2  2  0  0  0  0
  1  3  1  0  0  0  0
  1  7  1  0  0  0  0
  3  4  1  0  0  0  0
  3  5  1  0  0  0  0
  3  6  1  0  0  0  0
  7  8  1  0  0  0  0
  7 12  1  0  0  0  0
  8  9  1  0  0  0  0
  8 11  1  0  0  0  0
  8 13  1  0  0  0  0
  9 10  2  0  0  0  0
  9 17  1  0  0  0  0
 11 14  1  0  0  0  0
 11 15  1  0  0  0  0
 11 16  1  0  0  0  0
 17 18  1  0  0  0  0
 17 28  1  0  0  0  0
 18 19  1  0  0  0  0
 18 21  1  0  0  0  0
 18 29  1  0  0  0  0
 19 20  2  0  0  0  0
 19 37  1  0  0  0  0
 21 22  1  0  0  0  0
 21 30  1  0  0  0  0
 21 31  1  0  0  0  0
 22 23  1  0  0  0  0
 22 24  2  0  0  0  0
 23 25  2  0  0  0  0
 23 32  1  0  0  0  0
 24 26  1  0  0  0  0
 24 33  1  0  0  0  0
 25 27  1  0  0  0  0
 25 34  1  0  0  0  0
 26 27  2  0  0  0  0
 26 35  1  0  0  0  0
 27 36  1  0  0  0  0
 37 38  1  0  0  0  0
 37 42  1  0  0  0  0
 38 39  1  0  0  0  0
 38 41  1  0  0  0  0
 38 43  1  0  0  0  0
 39 40  2  0  0  0  0
 39 47  1  0  0  0  0
 41 44  1  0  0  0  0
 41 45  1  0  0  0  0
 41 46  1  0  0  0  0
 47 48  1  0  0  0  0
 47 49  1  0  0  0  0
 48 50  1  0  0  0  0
 48 51  1  0  0  0  0
 48 52  1  0  0  0  0
M  END
$$$$

  -OEChem-05262217163D

 52 52  0     1  0  0  0  0  0999 V2000
   -2.5184   -0.2250    3.8361 C   0  0  0  0  0  0  0  0  0  0  0  0
   -3.3691   -0.5427    3.0180 O   0  0  0  0  0  0  0  0  0  0  0  0
   -2.2043   -1.1433    5.0023 C   0  0  0  0  0  0  0  0  0  0  0  0
   -2.8669   -2.0131    4.9871 H   0  0  0  0  0  0  0  0  0  0  0  0
   -1.1690   -1.4877    4.9368 H   0  0  0  0  0  0  0  0  0  0  0  0
   -2.3444   -0.6102    5.9458 H   0  0  0  0  0  0  0  0  0  0  0  0
   -1.8155    0.9522    3.6866 N   0  0  0  0  0  0  0  0  0  0  0  0
   -1.8481    1.7553    2.4580 C   0  0  2  0  0  0  0  0  0  0  0  0
   -0.6146    1.4733    1.5774 C   0  0  0  0  0  0  0  0  0  0  0  0
    0.4996    1.4650    2.0858 O   0  0  0  0  0  0  0  0  0  0  0  0
   -1.9010    3.2307    2.8603 C   0  0  0  0  0  0  0  0  0  0  0  0
   -0.9871    1.0481    4.2703 H   0  0  0  0  0  0  0  0  0  0  0  0
   -2.7465    1.5318    1.8739 H   0  0  0  0  0  0  0  0  0  0  0  0
   -1.0168    3.5017    3.4466 H   0  0  0  0  0  0  0  0  0  0  0  0
   -1.9362    3.8675    1.9710 H   0  0  0  0  0  0  0  0  0  0  0  0
   -2.7933    3.4279    3.4627 H   0  0  0  0  0  0  0  0  0  0  0  0
   -0.7585    1.2917    0.2116 N   0  0  0  0  0  0  0  0  0  0  0  0
    0.3182    0.7355   -0.6370 C   0  0  2  0  0  0  0  0  0  0  0  0
    0.5062    1.5329   -1.9414 C   0  0  0  0  0  0  0  0  0  0  0  0
    1.4834    1.3364   -2.6531 O   0  0  0  0  0  0  0  0  0  0  0  0
   -0.0062   -0.7295   -0.9843 C   0  0  0  0  0  0  0  0  0  0  0  0
    0.0411   -1.6189    0.2349 C   0  0  0  0  0  0  0  0  0  0  0  0
    1.2702   -2.0949    0.7145 C   0  0  0  0  0  0  0  0  0  0  0  0
   -1.1391   -2.0005    0.8909 C   0  0  0  0  0  0  0  0  0  0  0  0
    1.3206   -2.9293    1.8364 C   0  0  0  0  0  0  0  0  0  0  0  0
   -1.0905   -2.8404    2.0076 C   0  0  0  0  0  0  0  0  0  0  0  0
    0.1393   -3.3034    2.4836 C   0  0  0  0  0  0  0  0  0  0  0  0
   -1.7142    1.1244   -0.0912 H   0  0  0  0  0  0  0  0  0  0  0  0
    1.2819    0.7694   -0.1166 H   0  0  0  0  0  0  0  0  0  0  0  0
    0.7226   -1.1013   -1.7132 H   0  0  0  0  0  0  0  0  0  0  0  0
   -0.9920   -0.7905   -1.4567 H   0  0  0  0  0  0  0  0  0  0  0  0
    2.1938   -1.8117    0.2181 H   0  0  0  0  0  0  0  0  0  0  0  0
   -2.1053   -1.6494    0.5409 H   0  0  0  0  0  0  0  0  0  0  0  0
    2.2785   -3.2874    2.2023 H   0  0  0  0  0  0  0  0  0  0  0  0
   -2.0135   -3.1280    2.5030 H   0  0  0  0  0  0  0  0  0  0  0  0
    0.1773   -3.9552    3.3513 H   0  0  0  0  0  0  0  0  0  0  0  0
   -0.4561    2.4300   -2.3688 N   0  0  0  0  0  0  0  0  0  0  0  0
   -0.3329    3.2475   -3.5848 C   0  0  2  0  0  0  0  0  0  0  0  0
    0.6601    4.4215   -3.4060 C   0  0  0  0  0  0  0  0  0  0  0  0
    0.2802    5.5861   -3.3792 O   0  0  0  0  0  0  0  0  0  0  0  0
   -1.7431    3.7137   -3.9679 C   0  0  0  0  0  0  0  0  0  0  0  0
   -1.1440    2.7068   -1.6756 H   0  0  0  0  0  0  0  0  0  0  0  0
    0.0466    2.6279   -4.4046 H   0  0  0  0  0  0  0  0  0  0  0  0
   -2.1722    4.3389   -3.1781 H   0  0  0  0  0  0  0  0  0  0  0  0
   -1.7091    4.2997   -4.8918 H   0  0  0  0  0  0  0  0  0  0  0  0
   -2.3988    2.8530   -4.1296 H   0  0  0  0  0  0  0  0  0  0  0  0
    2.0031    4.1437   -3.2468 N   0  0  0  0  0  0  0  0  0  0  0  0
    3.0132    5.1540   -2.9646 C   0  0  0  0  0  0  0  0  0  0  0  0
    2.2462    3.1539   -3.1516 H   0  0  0  0  0  0  0  0  0  0  0  0
    2.9884    5.9450   -3.7215 H   0  0  0  0  0  0  0  0  0  0  0  0
    2.8414    5.6014   -1.9805 H   0  0  0  0  0  0  0  0  0  0  0  0
    4.0097    4.7024   -2.9728 H   0  0  0  0  0  0  0  0  0  0  0  0
  1  2  2  0  0  0  0
  1  3  1  0  0  0  0
  1  7  1  0  0  0  0
  3  4  1  0  0  0  0
  3  5  1  0  0  0  0
  3  6  1  0  0  0  0
  7  8  1  0  0  0  0
  7 12  1  0  0  0  0
  8  9  1  0  0  0  0
  8 11  1  0  0  0  0
  8 13  1  0  0  0  0
  9 10  2  0  0  0  0
  9 17  1  0  0  0  0
 11 14  1  0  0  0  0
 11 15  1  0  0  0  0
 11 16  1  0  0  0  0
 17 18  1  0  0  0  0
 17 28  1  0  0  0  0
 18 19  1  0  0  0  0
 18 21  1  0  0  0  0
 18 29  1  0  0  0  0
 19 20  2  0  0  0  0
 19 37  1  0  0  0  0
 21 22  1  0  0  0  0
 21 30  1  0  0  0  0
 21 31  1  0  0  0  0
 22 23  1  0  0  0  0
 22 24  2  0  0  0  0
 23 25  2  0  0  0  0
 23 32  1  0  0  0  0
 24 26  1  0  0  0  0
 24 33  1  0  0  0  0
 25 27  1  0  0  0  0
 25 34  1  0  0  0  0
 26 27  2  0  0  0  0
 26 35  1  0  0  0  0
 27 36  1  0  0  0  0
 37 38  1  0  0  0  0
 37 42  1  0  0  0  0
 38 39  1  0  0  0  0
 38 41  1  0  0  0  0
 38 43  1  0  0  0  0
 39 40  2  0  0  0  0
 39 47  1  0  0  0  0
 41 44  1  0  0  0  0
 41 45  1  0  0  0  0
 41 46  1  0  0  0  0
 47 48  1  0  0  0  0
 47 49  1  0  0  0  0
 48 50  1  0  0  0  0
 48 51  1  0  0  0  0
 48 52  1  0  0  0  0
M  END
$$$$

  -OEChem-05262217163D

 52 52  0     1  0  0  0  0  0999 V2000
   -2.4361   -0.2838    3.9420 C   0  0  0  0  0  0  0  0  0  0  0  0
   -3.3238   -0.6491    3.1858 O   0  0  0  0  0  0  0  0  0  0  0  0
   -2.0317   -1.1568    5.1149 C   0  0  0  0  0  0  0  0  0  0  0  0
   -2.6857   -2.0310    5.1782 H   0  0  0  0  0  0  0  0  0  0  0  0
   -1.0003   -1.4955    4.9880 H   0  0  0  0  0  0  0  0  0  0  0  0
   -2.1095   -0.5912    6.0466 H   0  0  0  0  0  0  0  0  0  0  0  0
   -1.7770    0.9074    3.7193 N   0  0  0  0  0  0  0  0  0  0  0  0
   -1.8918    1.6685    2.4687 C   0  0  2  0  0  0  0  0  0  0  0  0
   -0.6531    1.4551    1.5763 C   0  0  0  0  0  0  0  0  0  0  0  0
    0.4641    1.4694    2.0784 O   0  0  0  0  0  0  0  0  0  0  0  0
   -2.0537    3.1470    2.8280 C   0  0  0  0  0  0  0  0  0  0  0  0
   -0.9208    1.0426    4.2535 H   0  0  0  0  0  0  0  0  0  0  0  0
   -2.7774    1.3571    1.9055 H   0  0  0  0  0  0  0  0  0  0  0  0
   -1.1760    3.5098    3.3732 H   0  0  0  0  0  0  0  0  0  0  0  0
   -2.1741    3.7490    1.9220 H   0  0  0  0  0  0  0  0  0  0  0  0
   -2.9380    3.2885    3.4572 H   0  0  0  0  0  0  0  0  0  0  0  0
   -0.7949    1.3058    0.2069 N   0  0  0  0  0  0  0  0  0  0  0  0
    0.2833    0.7692   -0.6517 C   0  0  2  0  0  0  0  0  0  0  0  0
    0.4720    1.5998   -1.9372 C   0  0  0  0  0  0  0  0  0  0  0  0
    1.3101    1.2806   -2.7716 O   0  0  0  0  0  0  0  0  0  0  0  0
   -0.0425   -0.6938   -1.0146 C   0  0  0  0  0  0  0  0  0  0  0  0
    0.0102   -1.5987    0.1942 C   0  0  0  0  0  0  0  0  0  0  0  0
    1.2427   -2.0788    0.6609 C   0  0  0  0  0  0  0  0  0  0  0  0
   -1.1657   -1.9907    0.8531 C   0  0  0  0  0  0  0  0  0  0  0  0
    1.3010   -2.9287    1.7708 C   0  0  0  0  0  0  0  0  0  0  0  0
   -1.1088   -2.8445    1.9593 C   0  0  0  0  0  0  0  0  0  0  0  0
    0.1245   -3.3127    2.4209 C   0  0  0  0  0  0  0  0  0  0  0  0
   -1.7492    1.1492   -0.1062 H   0  0  0  0  0  0  0  0  0  0  0  0
    1.2469    0.7950   -0.1309 H   0  0  0  0  0  0  0  0  0  0  0  0
    0.6823   -1.0599   -1.7497 H   0  0  0  0  0  0  0  0  0  0  0  0
   -1.0297   -0.7492   -1.4842 H   0  0  0  0  0  0  0  0  0  0  0  0
    2.1629   -1.7879    0.1627 H   0  0  0  0  0  0  0  0  0  0  0  0
   -2.1348   -1.6381    0.5132 H   0  0  0  0  0  0  0  0  0  0  0  0
    2.2613   -3.2908    2.1252 H   0  0  0  0  0  0  0  0  0  0  0  0
   -2.0285   -3.1383    2.4577 H   0  0  0  0  0  0  0  0  0  0  0  0
    0.1682   -3.9757    3.2799 H   0  0  0  0  0  0  0  0  0  0  0  0
   -0.3181    2.7084   -2.1837 N   0  0  0  0  0  0  0  0  0  0  0  0
   -0.1564    3.5914   -3.3492 C   0  0  2  0  0  0  0  0  0  0  0  0
    1.0691    4.5277   -3.2123 C   0  0  0  0  0  0  0  0  0  0  0  0
    0.9424    5.7398   -3.0864 O   0  0  0  0  0  0  0  0  0  0  0  0
   -1.4730    4.3564   -3.5328 C   0  0  0  0  0  0  0  0  0  0  0  0
   -0.8555    3.0522   -1.3929 H   0  0  0  0  0  0  0  0  0  0  0  0
    0.0025    2.9850   -4.2473 H   0  0  0  0  0  0  0  0  0  0  0  0
   -1.6784    4.9871   -2.6621 H   0  0  0  0  0  0  0  0  0  0  0  0
   -1.4175    4.9982   -4.4180 H   0  0  0  0  0  0  0  0  0  0  0  0
   -2.3050    3.6582   -3.6647 H   0  0  0  0  0  0  0  0  0  0  0  0
    2.3352    3.9766   -3.2071 N   0  0  0  0  0  0  0  0  0  0  0  0
    3.5533    4.7405   -2.9738 C   0  0  0  0  0  0  0  0  0  0  0  0
    2.3783    2.9540   -3.2043 H   0  0  0  0  0  0  0  0  0  0  0  0
    3.6288    5.5707   -3.6841 H   0  0  0  0  0  0  0  0  0  0  0  0
    3.5627    5.1443   -1.9561 H   0  0  0  0  0  0  0  0  0  0  0  0
    4.4300    4.0981   -3.1016 H   0  0  0  0  0  0  0  0  0  0  0  0
  1  2  2  0  0  0  0
  1  3  1  0  0  0  0
  1  7  1  0  0  0  0
  3  4  1  0  0  0  0
  3  5  1  0  0  0  0
  3  6  1  0  0  0  0
  7  8  1  0  0  0  0
  7 12  1  0  0  0  0
  8  9  1  0  0  0  0
  8 11  1  0  0  0  0
  8 13  1  0  0  0  0
  9 10  2  0  0  0  0
  9 17  1  0  0  0  0
 11 14  1  0  0  0  0
 11 15  1  0  0  0  0
 11 16  1  0  0  0  0
 17 18  1  0  0  0  0
 17 28  1  0  0  0  0
 18 19  1  0  0  0  0
 18 21  1  0  0  0  0
 18 29  1  0  0  0  0
 19 20  2  0  0  0  0
 19 37  1  0  0  0  0
 21 22  1  0  0  0  0
 21 30  1  0  0  0  0
 21 31  1  0  0  0  0
 22 23  1  0  0  0  0
 22 24  2  0  0  0  0
 23 25  2  0  0  0  0
 23 32  1  0  0  0  0
 24 26  1  0  0  0  0
 24 33  1  0  0  0  0
 25 27  1  0  0  0  0
 25 34  1  0  0  0  0
 26 27  2  0  0  0  0
 26 35  1  0  0  0  0
 27 36  1  0  0  0  0
 37 38  1  0  0  0  0
 37 42  1  0  0  0  0
 38 39  1  0  0  0  0
 38 41  1  0  0  0  0
 38 43  1  0  0  0  0
 39 40  2  0  0  0  0
 39 47  1  0  0  0  0
 41 44  1  0  0  0  0
 41 45  1  0  0  0  0
 41 46  1  0  0  0  0
 47 48  1  0  0  0  0
 47 49  1  0  0  0  0
 48 50  1  0  0  0  0
 48 51  1  0  0  0  0
 48 52  1  0  0  0  0
M  END
$$$$

  -OEChem-05262217163D

 52 52  0     1  0  0  0  0  0999 V2000
   -2.4718   -0.3501    3.9155 C   0  0  0  0  0  0  0  0  0  0  0  0
   -3.3533   -0.6878    3.1393 O   0  0  0  0  0  0  0  0  0  0  0  0
   -2.0848   -1.2584    5.0674 C   0  0  0  0  0  0  0  0  0  0  0  0
   -2.7177   -2.1500    5.0744 H   0  0  0  0  0  0  0  0  0  0  0  0
   -1.0419   -1.5679    4.9629 H   0  0  0  0  0  0  0  0  0  0  0  0
   -2.2079   -0.7317    6.0168 H   0  0  0  0  0  0  0  0  0  0  0  0
   -1.8028    0.8426    3.7341 N   0  0  0  0  0  0  0  0  0  0  0  0
   -1.8954    1.6381    2.5031 C   0  0  2  0  0  0  0  0  0  0  0  0
   -0.6481    1.4365    1.6202 C   0  0  0  0  0  0  0  0  0  0  0  0
    0.4636    1.4328    2.1345 O   0  0  0  0  0  0  0  0  0  0  0  0
   -2.0447    3.1076    2.9026 C   0  0  0  0  0  0  0  0  0  0  0  0
   -0.9529    0.9569    4.2829 H   0  0  0  0  0  0  0  0  0  0  0  0
   -2.7774    1.3512    1.9214 H   0  0  0  0  0  0  0  0  0  0  0  0
   -1.1713    3.4421    3.4722 H   0  0  0  0  0  0  0  0  0  0  0  0
   -2.1416    3.7373    2.0131 H   0  0  0  0  0  0  0  0  0  0  0  0
   -2.9375    3.2429    3.5213 H   0  0  0  0  0  0  0  0  0  0  0  0
   -0.7716    1.3240    0.2456 N   0  0  0  0  0  0  0  0  0  0  0  0
    0.3142    0.8090   -0.6166 C   0  0  2  0  0  0  0  0  0  0  0  0
    0.5058    1.6852   -1.8733 C   0  0  0  0  0  0  0  0  0  0  0  0
    1.1528    1.2881   -2.8349 O   0  0  0  0  0  0  0  0  0  0  0  0
   -0.0127   -0.6464   -1.0113 C   0  0  0  0  0  0  0  0  0  0  0  0
    0.0302   -1.5755    0.1794 C   0  0  0  0  0  0  0  0  0  0  0  0
    1.2566   -2.0703    0.6477 C   0  0  0  0  0  0  0  0  0  0  0  0
   -1.1528   -1.9763    0.8191 C   0  0  0  0  0  0  0  0  0  0  0  0
    1.3007   -2.9449    1.7395 C   0  0  0  0  0  0  0  0  0  0  0  0
   -1.1106   -2.8550    1.9058 C   0  0  0  0  0  0  0  0  0  0  0  0
    0.1161   -3.3385    2.3691 C   0  0  0  0  0  0  0  0  0  0  0  0
   -1.7228    1.2039   -0.0930 H   0  0  0  0  0  0  0  0  0  0  0  0
    1.2737    0.8219   -0.0885 H   0  0  0  0  0  0  0  0  0  0  0  0
    0.7157   -1.0025   -1.7481 H   0  0  0  0  0  0  0  0  0  0  0  0
   -0.9970   -0.6890   -1.4882 H   0  0  0  0  0  0  0  0  0  0  0  0
    2.1826   -1.7733    0.1642 H   0  0  0  0  0  0  0  0  0  0  0  0
   -2.1166   -1.6106    0.4787 H   0  0  0  0  0  0  0  0  0  0  0  0
    2.2558   -3.3205    2.0950 H   0  0  0  0  0  0  0  0  0  0  0  0
   -2.0368   -3.1563    2.3874 H   0  0  0  0  0  0  0  0  0  0  0  0
    0.1487   -4.0211    3.2132 H   0  0  0  0  0  0  0  0  0  0  0  0
   -0.0567    2.9473   -1.9370 N   0  0  0  0  0  0  0  0  0  0  0  0
    0.0902    3.8652   -3.0774 C   0  0  2  0  0  0  0  0  0  0  0  0
    1.4770    4.5526   -3.1094 C   0  0  0  0  0  0  0  0  0  0  0  0
    1.5982    5.7631   -2.9654 O   0  0  0  0  0  0  0  0  0  0  0  0
   -1.0711    4.8655   -3.0134 C   0  0  0  0  0  0  0  0  0  0  0  0
   -0.4392    3.3104   -1.0679 H   0  0  0  0  0  0  0  0  0  0  0  0
   -0.0090    3.3024   -4.0119 H   0  0  0  0  0  0  0  0  0  0  0  0
   -1.0160    5.4628   -2.0976 H   0  0  0  0  0  0  0  0  0  0  0  0
   -1.0330    5.5444   -3.8713 H   0  0  0  0  0  0  0  0  0  0  0  0
   -2.0305    4.3396   -3.0328 H   0  0  0  0  0  0  0  0  0  0  0  0
    2.6060    3.7788   -3.2915 N   0  0  0  0  0  0  0  0  0  0  0  0
    3.9653    4.3002   -3.2505 C   0  0  0  0  0  0  0  0  0  0  0  0
    2.4568    2.7669   -3.3237 H   0  0  0  0  0  0  0  0  0  0  0  0
    4.0896    5.1069   -3.9805 H   0  0  0  0  0  0  0  0  0  0  0  0
    4.1957    4.6881   -2.2530 H   0  0  0  0  0  0  0  0  0  0  0  0
    4.6809    3.5075   -3.4891 H   0  0  0  0  0  0  0  0  0  0  0  0
  1  2  2  0  0  0  0
  1  3  1  0  0  0  0
  1  7  1  0  0  0  0
  3  4  1  0  0  0  0
  3  5  1  0  0  0  0
  3  6  1  0  0  0  0
  7  8  1  0  0  0  0
  7 12  1  0  0  0  0
  8  9  1  0  0  0  0
  8 11  1  0  0  0  0
  8 13  1  0  0  0  0
  9 10  2  0  0  0  0
  9 17  1  0  0  0  0
 11 14  1  0  0  0  0
 11 15  1  0  0  0  0
 11 16  1  0  0  0  0
 17 18  1  0  0  0  0
 17 28  1  0  0  0  0
 18 19  1  0  0  0  0
 18 21  1  0  0  0  0
 18 29  1  0  0  0  0
 19 20  2  0  0  0  0
 19 37  1  0  0  0  0
 21 22  1  0  0  0  0
 21 30  1  0  0  0  0
 21 31  1  0  0  0  0
 22 23  1  0  0  0  0
 22 24  2  0  0  0  0
 23 25  2  0  0  0  0
 23 32  1  0  0  0  0
 24 26  1  0  0  0  0
 24 33  1  0  0  0  0
 25 27  1  0  0  0  0
 25 34  1  0  0  0  0
 26 27  2  0  0  0  0
 26 35  1  0  0  0  0
 27 36  1  0  0  0  0
 37 38  1  0  0  0  0
 37 42  1  0  0  0  0
 38 39  1  0  0  0  0
 38 41  1  0  0  0  0
 38 43  1  0  0  0  0
 39 40  2  0  0  0  0
 39 47  1  0  0  0  0
 41 44  1  0  0  0  0
 41 45  1  0  0  0  0
 41 46  1  0  0  0  0
 47 48  1  0  0  0  0
 47 49  1  0  0  0  0
 48 50  1  0  0  0  0
 48 51  1  0  0  0  0
 48 52  1  0  0  0  0
M  END
$$$$

  -OEChem-05262217163D

 52 52  0     1  0  0  0  0  0999 V2000
   -2.4767   -0.3951    3.9431 C   0  0  0  0  0  0  0  0  0  0  0  0
   -3.3897   -0.7234    3.2004 O   0  0  0  0  0  0  0  0  0  0  0  0
   -2.0590   -1.3081    5.0805 C   0  0  0  0  0  0  0  0  0  0  0  0
   -2.7392   -2.1614    5.1485 H   0  0  0  0  0  0  0  0  0  0  0  0
   -1.0452   -1.6773    4.9063 H   0  0  0  0  0  0  0  0  0  0  0  0
   -2.0835   -0.7630    6.0272 H   0  0  0  0  0  0  0  0  0  0  0  0
   -1.7964    0.7865    3.7337 N   0  0  0  0  0  0  0  0  0  0  0  0
   -1.9129    1.5772    2.5013 C   0  0  2  0  0  0  0  0  0  0  0  0
   -0.6536    1.4212    1.6266 C   0  0  0  0  0  0  0  0  0  0  0  0
    0.4529    1.4136    2.1525 O   0  0  0  0  0  0  0  0  0  0  0  0
   -2.1207    3.0408    2.8956 C   0  0  0  0  0  0  0  0  0  0  0  0
   -0.9263    0.8888    4.2528 H   0  0  0  0  0  0  0  0  0  0  0  0
   -2.7776    1.2546    1.9126 H   0  0  0  0  0  0  0  0  0  0  0  0
   -1.2688    3.4073    3.4777 H   0  0  0  0  0  0  0  0  0  0  0  0
   -2.2270    3.6655    2.0034 H   0  0  0  0  0  0  0  0  0  0  0  0
   -3.0269    3.1437    3.5009 H   0  0  0  0  0  0  0  0  0  0  0  0
   -0.7583    1.3452    0.2484 N   0  0  0  0  0  0  0  0  0  0  0  0
    0.3336    0.8392   -0.6099 C   0  0  2  0  0  0  0  0  0  0  0  0
    0.5415    1.7550   -1.8356 C   0  0  0  0  0  0  0  0  0  0  0  0
    0.9665    1.3261   -2.9019 O   0  0  0  0  0  0  0  0  0  0  0  0
    0.0004   -0.6073   -1.0343 C   0  0  0  0  0  0  0  0  0  0  0  0
    0.0237   -1.5537    0.1432 C   0  0  0  0  0  0  0  0  0  0  0  0
    1.2407   -2.0644    0.6185 C   0  0  0  0  0  0  0  0  0  0  0  0
   -1.1694   -1.9480    0.7683 C   0  0  0  0  0  0  0  0  0  0  0  0
    1.2657   -2.9475    1.7036 C   0  0  0  0  0  0  0  0  0  0  0  0
   -1.1460   -2.8348    1.8491 C   0  0  0  0  0  0  0  0  0  0  0  0
    0.0717   -3.3338    2.3196 C   0  0  0  0  0  0  0  0  0  0  0  0
   -1.7054    1.2537   -0.1107 H   0  0  0  0  0  0  0  0  0  0  0  0
    1.2873    0.8328   -0.0708 H   0  0  0  0  0  0  0  0  0  0  0  0
    0.7350   -0.9569   -1.7676 H   0  0  0  0  0  0  0  0  0  0  0  0
   -0.9788   -0.6342   -1.5233 H   0  0  0  0  0  0  0  0  0  0  0  0
    2.1743   -1.7726    0.1468 H   0  0  0  0  0  0  0  0  0  0  0  0
   -2.1262   -1.5701    0.4211 H   0  0  0  0  0  0  0  0  0  0  0  0
    2.2138   -3.3343    2.0653 H   0  0  0  0  0  0  0  0  0  0  0  0
   -2.0791   -3.1304    2.3211 H   0  0  0  0  0  0  0  0  0  0  0  0
    0.0897   -4.0226    3.1589 H   0  0  0  0  0  0  0  0  0  0  0  0
    0.2610    3.1054   -1.7371 N   0  0  0  0  0  0  0  0  0  0  0  0
    0.4397    4.0769   -2.8272 C   0  0  2  0  0  0  0  0  0  0  0  0
    1.9209    4.4811   -3.0255 C   0  0  0  0  0  0  0  0  0  0  0  0
    2.3022    5.6335   -2.8597 O   0  0  0  0  0  0  0  0  0  0  0  0
   -0.4713    5.2739   -2.5269 C   0  0  0  0  0  0  0  0  0  0  0  0
    0.0432    3.4523   -0.8063 H   0  0  0  0  0  0  0  0  0  0  0  0
    0.1022    3.6321   -3.7695 H   0  0  0  0  0  0  0  0  0  0  0  0
   -0.1724    5.7621   -1.5938 H   0  0  0  0  0  0  0  0  0  0  0  0
   -0.4099    6.0087   -3.3360 H   0  0  0  0  0  0  0  0  0  0  0  0
   -1.5119    4.9483   -2.4356 H   0  0  0  0  0  0  0  0  0  0  0  0
    2.8351    3.5159   -3.3985 N   0  0  0  0  0  0  0  0  0  0  0  0
    4.2603    3.7642   -3.5657 C   0  0  0  0  0  0  0  0  0  0  0  0
    2.4793    2.5587   -3.4634 H   0  0  0  0  0  0  0  0  0  0  0  0
    4.4274    4.5613   -4.2978 H   0  0  0  0  0  0  0  0  0  0  0  0
    4.7117    4.0590   -2.6128 H   0  0  0  0  0  0  0  0  0  0  0  0
    4.7612    2.8591   -3.9221 H   0  0  0  0  0  0  0  0  0  0  0  0
  1  2  2  0  0  0  0
  1  3  1  0  0  0  0
  1  7  1  0  0  0  0
  3  4  1  0  0  0  0
  3  5  1  0  0  0  0
  3  6  1  0  0  0  0
  7  8  1  0  0  0  0
  7 12  1  0  0  0  0
  8  9  1  0  0  0  0
  8 11  1  0  0  0  0
  8 13  1  0  0  0  0
  9 10  2  0  0  0  0
  9 17  1  0  0  0  0
 11 14  1  0  0  0  0
 11 15  1  0  0  0  0
 11 16  1  0  0  0  0
 17 18  1  0  0  0  0
 17 28  1  0  0  0  0
 18 19  1  0  0  0  0
 18 21  1  0  0  0  0
 18 29  1  0  0  0  0
 19 20  2  0  0  0  0
 19 37  1  0  0  0  0
 21 22  1  0  0  0  0
 21 30  1  0  0  0  0
 21 31  1  0  0  0  0
 22 23  1  0  0  0  0
 22 24  2  0  0  0  0
 23 25  2  0  0  0  0
 23 32  1  0  0  0  0
 24 26  1  0  0  0  0
 24 33  1  0  0  0  0
 25 27  1  0  0  0  0
 25 34  1  0  0  0  0
 26 27  2  0  0  0  0
 26 35  1  0  0  0  0
 27 36  1  0  0  0  0
 37 38  1  0  0  0  0
 37 42  1  0  0  0  0
 38 39  1  0  0  0  0
 38 41  1  0  0  0  0
 38 43  1  0  0  0  0
 39 40  2  0  0  0  0
 39 47  1  0  0  0  0
 41 44  1  0  0  0  0
 41 45  1  0  0  0  0
 41 46  1  0  0  0  0
 47 48  1  0  0  0  0
 47 49  1  0  0  0  0
 48 50  1  0  0  0  0
 48 51  1  0  0  0  0
 48 52  1  0  0  0  0
M  END
$$$$

  -OEChem-05262217163D

 52 52  0     1  0  0  0  0  0999 V2000
   -2.5353   -0.4279    3.8799 C   0  0  0  0  0  0  0  0  0  0  0  0
   -3.4223   -0.7386    3.0990 O   0  0  0  0  0  0  0  0  0  0  0  0
   -2.1546   -1.3684    5.0077 C   0  0  0  0  0  0  0  0  0  0  0  0
   -2.8073   -2.2458    5.0040 H   0  0  0  0  0  0  0  0  0  0  0  0
   -1.1200   -1.6986    4.8837 H   0  0  0  0  0  0  0  0  0  0  0  0
   -2.2550   -0.8590    5.9690 H   0  0  0  0  0  0  0  0  0  0  0  0
   -1.8508    0.7596    3.7233 N   0  0  0  0  0  0  0  0  0  0  0  0
   -1.9218    1.5753    2.5040 C   0  0  2  0  0  0  0  0  0  0  0  0
   -0.6415    1.4164    1.6602 C   0  0  0  0  0  0  0  0  0  0  0  0
    0.4522    1.3907    2.2122 O   0  0  0  0  0  0  0  0  0  0  0  0
   -2.1186    3.0338    2.9220 C   0  0  0  0  0  0  0  0  0  0  0  0
   -1.0009    0.8512    4.2765 H   0  0  0  0  0  0  0  0  0  0  0  0
   -2.7758    1.2777    1.8868 H   0  0  0  0  0  0  0  0  0  0  0  0
   -1.2747    3.3773    3.5292 H   0  0  0  0  0  0  0  0  0  0  0  0
   -2.1973    3.6768    2.0400 H   0  0  0  0  0  0  0  0  0  0  0  0
   -3.0363    3.1381    3.5094 H   0  0  0  0  0  0  0  0  0  0  0  0
   -0.7099    1.3696    0.2792 N   0  0  0  0  0  0  0  0  0  0  0  0
    0.3938    0.8658   -0.5622 C   0  0  2  0  0  0  0  0  0  0  0  0
    0.6309    1.8151   -1.7557 C   0  0  0  0  0  0  0  0  0  0  0  0
    0.7899    1.4061   -2.9001 O   0  0  0  0  0  0  0  0  0  0  0  0
    0.0616   -0.5702   -1.0211 C   0  0  0  0  0  0  0  0  0  0  0  0
    0.0506   -1.5402    0.1375 C   0  0  0  0  0  0  0  0  0  0  0  0
    1.2526   -2.0689    0.6311 C   0  0  0  0  0  0  0  0  0  0  0  0
   -1.1598   -1.9403    0.7245 C   0  0  0  0  0  0  0  0  0  0  0  0
    1.2455   -2.9763    1.6964 C   0  0  0  0  0  0  0  0  0  0  0  0
   -1.1682   -2.8513    1.7853 C   0  0  0  0  0  0  0  0  0  0  0  0
    0.0344   -3.3695    2.2736 C   0  0  0  0  0  0  0  0  0  0  0  0
   -1.6479    1.3093   -0.1088 H   0  0  0  0  0  0  0  0  0  0  0  0
    1.3347    0.8388   -0.0025 H   0  0  0  0  0  0  0  0  0  0  0  0
    0.8112   -0.9083   -1.7445 H   0  0  0  0  0  0  0  0  0  0  0  0
   -0.9059   -0.5820   -1.5335 H   0  0  0  0  0  0  0  0  0  0  0  0
    2.1996   -1.7728    0.1897 H   0  0  0  0  0  0  0  0  0  0  0  0
   -2.1054   -1.5478    0.3623 H   0  0  0  0  0  0  0  0  0  0  0  0
    2.1821   -3.3770    2.0726 H   0  0  0  0  0  0  0  0  0  0  0  0
   -2.1146   -3.1504    2.2276 H   0  0  0  0  0  0  0  0  0  0  0  0
    0.0274   -4.0780    3.0965 H   0  0  0  0  0  0  0  0  0  0  0  0
    0.6622    3.1793   -1.5347 N   0  0  0  0  0  0  0  0  0  0  0  0
    0.8490    4.1935   -2.5837 C   0  0  2  0  0  0  0  0  0  0  0  0
    2.3235    4.3194   -3.0384 C   0  0  0  0  0  0  0  0  0  0  0  0
    2.9584    5.3566   -2.8901 O   0  0  0  0  0  0  0  0  0  0  0  0
    0.2754    5.5110   -2.0479 C   0  0  0  0  0  0  0  0  0  0  0  0
    0.6208    3.4822   -0.5642 H   0  0  0  0  0  0  0  0  0  0  0  0
    0.2665    3.9130   -3.4677 H   0  0  0  0  0  0  0  0  0  0  0  0
    0.8295    5.8417   -1.1634 H   0  0  0  0  0  0  0  0  0  0  0  0
    0.3451    6.2925   -2.8113 H   0  0  0  0  0  0  0  0  0  0  0  0
   -0.7774    5.3870   -1.7772 H   0  0  0  0  0  0  0  0  0  0  0  0
    2.9350    3.2351   -3.6355 N   0  0  0  0  0  0  0  0  0  0  0  0
    4.3248    3.2181   -4.0703 C   0  0  0  0  0  0  0  0  0  0  0  0
    2.3821    2.3753   -3.6819 H   0  0  0  0  0  0  0  0  0  0  0  0
    4.5240    4.0502   -4.7538 H   0  0  0  0  0  0  0  0  0  0  0  0
    4.9957    3.3001   -3.2091 H   0  0  0  0  0  0  0  0  0  0  0  0
    4.5439    2.2828   -4.5943 H   0  0  0  0  0  0  0  0  0  0  0  0
  1  2  2  0  0  0  0
  1  3  1  0  0  0  0
  1  7  1  0  0  0  0
  3  4  1  0  0  0  0
  3  5  1  0  0  0  0
  3  6  1  0  0  0  0
  7  8  1  0  0  0  0
  7 12  1  0  0  0  0
  8  9  1  0  0  0  0
  8 11  1  0  0  0  0
  8 13  1  0  0  0  0
  9 10  2  0  0  0  0
  9 17  1  0  0  0  0
 11 14  1  0  0  0  0
 11 15  1  0  0  0  0
 11 16  1  0  0  0  0
 17 18  1  0  0  0  0
 17 28  1  0  0  0  0
 18 19  1  0  0  0  0
 18 21  1  0  0  0  0
 18 29  1  0  0  0  0
 19 20  2  0  0  0  0
 19 37  1  0  0  0  0
 21 22  1  0  0  0  0
 21 30  1  0  0  0  0
 21 31  1  0  0  0  0
 22 23  1  0  0  0  0
 22 24  2  0  0  0  0
 23 25  2  0  0  0  0
 23 32  1  0  0  0  0
 24 26  1  0  0  0  0
 24 33  1  0  0  0  0
 25 27  1  0  0  0  0
 25 34  1  0  0  0  0
 26 27  2  0  0  0  0
 26 35  1  0  0  0  0
 27 36  1  0  0  0  0
 37 38  1  0  0  0  0
 37 42  1  0  0  0  0
 38 39  1  0  0  0  0
 38 41  1  0  0  0  0
 38 43  1  0  0  0  0
 39 40  2  0  0  0  0
 39 47  1  0  0  0  0
 41 44  1  0  0  0  0
 41 45  1  0  0  0  0
 41 46  1  0  0  0  0
 47 48  1  0  0  0  0
 47 49  1  0  0  0  0
 48 50  1  0  0  0  0
 48 51  1  0  0  0  0
 48 52  1  0  0  0  0
M  END
$$$$

  -OEChem-05262217163D

 52 52  0     1  0  0  0  0  0999 V2000
   -2.5316   -0.4485    3.8873 C   0  0  0  0  0  0  0  0  0  0  0  0
   -3.4345   -0.7534    3.1230 O   0  0  0  0  0  0  0  0  0  0  0  0
   -2.1328   -1.3941    5.0043 C   0  0  0  0  0  0  0  0  0  0  0  0
   -2.7765   -2.2782    4.9991 H   0  0  0  0  0  0  0  0  0  0  0  0
   -1.0962   -1.7128    4.8691 H   0  0  0  0  0  0  0  0  0  0  0  0
   -2.2299   -0.8934    5.9706 H   0  0  0  0  0  0  0  0  0  0  0  0
   -1.8440    0.7358    3.7218 N   0  0  0  0  0  0  0  0  0  0  0  0
   -1.9231    1.5502    2.5020 C   0  0  2  0  0  0  0  0  0  0  0  0
   -0.6367    1.4115    1.6644 C   0  0  0  0  0  0  0  0  0  0  0  0
    0.4528    1.3644    2.2244 O   0  0  0  0  0  0  0  0  0  0  0  0
   -2.1445    3.0051    2.9195 C   0  0  0  0  0  0  0  0  0  0  0  0
   -0.9853    0.8208    4.2620 H   0  0  0  0  0  0  0  0  0  0  0  0
   -2.7681    1.2385    1.8798 H   0  0  0  0  0  0  0  0  0  0  0  0
   -1.3105    3.3610    3.5330 H   0  0  0  0  0  0  0  0  0  0  0  0
   -2.2268    3.6471    2.0372 H   0  0  0  0  0  0  0  0  0  0  0  0
   -3.0676    3.0947    3.5008 H   0  0  0  0  0  0  0  0  0  0  0  0
   -0.6920    1.4014    0.2823 N   0  0  0  0  0  0  0  0  0  0  0  0
    0.4105    0.8982   -0.5581 C   0  0  2  0  0  0  0  0  0  0  0  0
    0.6736    1.8754   -1.7203 C   0  0  0  0  0  0  0  0  0  0  0  0
    0.5877    1.5397   -2.8960 O   0  0  0  0  0  0  0  0  0  0  0  0
    0.0606   -0.5193   -1.0576 C   0  0  0  0  0  0  0  0  0  0  0  0
    0.0212   -1.5134    0.0792 C   0  0  0  0  0  0  0  0  0  0  0  0
    1.2098   -2.0706    0.5735 C   0  0  0  0  0  0  0  0  0  0  0  0
   -1.2012   -1.9063    0.6454 C   0  0  0  0  0  0  0  0  0  0  0  0
    1.1785   -2.9948    1.6234 C   0  0  0  0  0  0  0  0  0  0  0  0
   -1.2341   -2.8346    1.6904 C   0  0  0  0  0  0  0  0  0  0  0  0
   -0.0442   -3.3778    2.1827 C   0  0  0  0  0  0  0  0  0  0  0  0
   -1.6257    1.3738   -0.1195 H   0  0  0  0  0  0  0  0  0  0  0  0
    1.3448    0.8370    0.0100 H   0  0  0  0  0  0  0  0  0  0  0  0
    0.8121   -0.8493   -1.7831 H   0  0  0  0  0  0  0  0  0  0  0  0
   -0.9025   -0.5024   -1.5784 H   0  0  0  0  0  0  0  0  0  0  0  0
    2.1655   -1.7818    0.1463 H   0  0  0  0  0  0  0  0  0  0  0  0
   -2.1370   -1.4948    0.2795 H   0  0  0  0  0  0  0  0  0  0  0  0
    2.1053   -3.4157    2.0017 H   0  0  0  0  0  0  0  0  0  0  0  0
   -2.1895   -3.1275    2.1178 H   0  0  0  0  0  0  0  0  0  0  0  0
   -0.0703   -4.0984    2.9946 H   0  0  0  0  0  0  0  0  0  0  0  0
    1.0334    3.1767   -1.4265 N   0  0  0  0  0  0  0  0  0  0  0  0
    1.3012    4.2175   -2.4306 C   0  0  2  0  0  0  0  0  0  0  0  0
    2.6966    4.0697   -3.0853 C   0  0  0  0  0  0  0  0  0  0  0  0
    3.5477    4.9461   -2.9934 O   0  0  0  0  0  0  0  0  0  0  0  0
    1.1074    5.5739   -1.7411 C   0  0  0  0  0  0  0  0  0  0  0  0
    1.1520    3.4059   -0.4421 H   0  0  0  0  0  0  0  0  0  0  0  0
    0.5623    4.1446   -3.2357 H   0  0  0  0  0  0  0  0  0  0  0  0
    1.8314    5.7010   -0.9295 H   0  0  0  0  0  0  0  0  0  0  0  0
    1.2482    6.3877   -2.4598 H   0  0  0  0  0  0  0  0  0  0  0  0
    0.0977    5.6508   -1.3266 H   0  0  0  0  0  0  0  0  0  0  0  0
    2.9881    2.9227   -3.7968 N   0  0  0  0  0  0  0  0  0  0  0  0
    4.2723    2.6606   -4.4315 C   0  0  0  0  0  0  0  0  0  0  0  0
    2.2609    2.2029   -3.8117 H   0  0  0  0  0  0  0  0  0  0  0  0
    4.5181    3.4571   -5.1413 H   0  0  0  0  0  0  0  0  0  0  0  0
    5.0653    2.6006   -3.6792 H   0  0  0  0  0  0  0  0  0  0  0  0
    4.2375    1.7123   -4.9760 H   0  0  0  0  0  0  0  0  0  0  0  0
  1  2  2  0  0  0  0
  1  3  1  0  0  0  0
  1  7  1  0  0  0  0
  3  4  1  0  0  0  0
  3  5  1  0  0  0  0
  3  6  1  0  0  0  0
  7  8  1  0  0  0  0
  7 12  1  0  0  0  0
  8  9  1  0  0  0  0
  8 11  1  0  0  0  0
  8 13  1  0  0  0  0
  9 10  2  0  0  0  0
  9 17  1  0  0  0  0
 11 14  1  0  0  0  0
 11 15  1  0  0  0  0
 11 16  1  0  0  0  0
 17 18  1  0  0  0  0
 17 28  1  0  0  0  0
 18 19  1  0  0  0  0
 18 21  1  0  0  0  0
 18 29  1  0  0  0  0
 19 20  2  0  0  0  0
 19 37  1  0  0  0  0
 21 22  1  0  0  0  0
 21 30  1  0  0  0  0
 21 31  1  0  0  0  0
 22 23  1  0  0  0  0
 22 24  2  0  0  0  0
 23 25  2  0  0  0  0
 23 32  1  0  0  0  0
 24 26  1  0  0  0  0
 24 33  1  0  0  0  0
 25 27  1  0  0  0  0
 25 34  1  0  0  0  0
 26 27  2  0  0  0  0
 26 35  1  0  0  0  0
 27 36  1  0  0  0  0
 37 38  1  0  0  0  0
 37 42  1  0  0  0  0
 38 39  1  0  0  0  0
 38 41  1  0  0  0  0
 38 43  1  0  0  0  0
 39 40  2  0  0  0  0
 39 47  1  0  0  0  0
 41 44  1  0  0  0  0
 41 45  1  0  0  0  0
 41 46  1  0  0  0  0
 47 48  1  0  0  0  0
 47 49  1  0  0  0  0
 48 50  1  0  0  0  0
 48 51  1  0  0  0  0
 48 52  1  0  0  0  0
M  END
$$$$

  -OEChem-05262217163D

 52 52  0     1  0  0  0  0  0999 V2000
   -2.6043   -0.4458    3.8090 C   0  0  0  0  0  0  0  0  0  0  0  0
   -3.4797   -0.7058    2.9975 O   0  0  0  0  0  0  0  0  0  0  0  0
   -2.2857   -1.4268    4.9213 C   0  0  0  0  0  0  0  0  0  0  0  0
   -2.9790   -2.2719    4.8897 H   0  0  0  0  0  0  0  0  0  0  0  0
   -1.2658   -1.8023    4.8044 H   0  0  0  0  0  0  0  0  0  0  0  0
   -2.3764   -0.9328    5.8919 H   0  0  0  0  0  0  0  0  0  0  0  0
   -1.8792    0.7230    3.7061 N   0  0  0  0  0  0  0  0  0  0  0  0
   -1.8955    1.5814    2.5143 C   0  0  2  0  0  0  0  0  0  0  0  0
   -0.5982    1.4149    1.6990 C   0  0  0  0  0  0  0  0  0  0  0  0
    0.4791    1.3280    2.2785 O   0  0  0  0  0  0  0  0  0  0  0  0
   -2.0622    3.0297    2.9779 C   0  0  0  0  0  0  0  0  0  0  0  0
   -1.0411    0.7695    4.2820 H   0  0  0  0  0  0  0  0  0  0  0  0
   -2.7403    1.3296    1.8650 H   0  0  0  0  0  0  0  0  0  0  0  0
   -1.2252    3.3276    3.6178 H   0  0  0  0  0  0  0  0  0  0  0  0
   -2.0992    3.7040    2.1167 H   0  0  0  0  0  0  0  0  0  0  0  0
   -2.9920    3.1403    3.5448 H   0  0  0  0  0  0  0  0  0  0  0  0
   -0.6292    1.4203    0.3162 N   0  0  0  0  0  0  0  0  0  0  0  0
    0.4811    0.9153   -0.5103 C   0  0  2  0  0  0  0  0  0  0  0  0
    0.7739    1.9021   -1.6566 C   0  0  0  0  0  0  0  0  0  0  0  0
    0.4498    1.6731   -2.8167 O   0  0  0  0  0  0  0  0  0  0  0  0
    0.1195   -0.4873   -1.0406 C   0  0  0  0  0  0  0  0  0  0  0  0
    0.0415   -1.5028    0.0755 C   0  0  0  0  0  0  0  0  0  0  0  0
    1.2097   -2.0900    0.5834 C   0  0  0  0  0  0  0  0  0  0  0  0
   -1.1990   -1.8824    0.6114 C   0  0  0  0  0  0  0  0  0  0  0  0
    1.1402   -3.0352    1.6127 C   0  0  0  0  0  0  0  0  0  0  0  0
   -1.2697   -2.8313    1.6357 C   0  0  0  0  0  0  0  0  0  0  0  0
   -0.1003   -3.4076    2.1388 C   0  0  0  0  0  0  0  0  0  0  0  0
   -1.5546    1.4224   -0.1055 H   0  0  0  0  0  0  0  0  0  0  0  0
    1.4037    0.8299    0.0733 H   0  0  0  0  0  0  0  0  0  0  0  0
    0.8798   -0.8122   -1.7588 H   0  0  0  0  0  0  0  0  0  0  0  0
   -0.8335   -0.4474   -1.5787 H   0  0  0  0  0  0  0  0  0  0  0  0
    2.1788   -1.8100    0.1820 H   0  0  0  0  0  0  0  0  0  0  0  0
   -2.1197   -1.4438    0.2377 H   0  0  0  0  0  0  0  0  0  0  0  0
    2.0510   -3.4814    2.0008 H   0  0  0  0  0  0  0  0  0  0  0  0
   -2.2382   -3.1141    2.0390 H   0  0  0  0  0  0  0  0  0  0  0  0
   -0.1561   -4.1451    2.9338 H   0  0  0  0  0  0  0  0  0  0  0  0
    1.4346    3.0819   -1.3721 N   0  0  0  0  0  0  0  0  0  0  0  0
    1.7439    4.1243   -2.3627 C   0  0  2  0  0  0  0  0  0  0  0  0
    2.9661    3.7646   -3.2424 C   0  0  0  0  0  0  0  0  0  0  0  0
    3.9914    4.4354   -3.2282 O   0  0  0  0  0  0  0  0  0  0  0  0
    1.9283    5.4404   -1.5967 C   0  0  0  0  0  0  0  0  0  0  0  0
    1.7097    3.2329   -0.4040 H   0  0  0  0  0  0  0  0  0  0  0  0
    0.8906    4.2495   -3.0380 H   0  0  0  0  0  0  0  0  0  0  0  0
    2.7788    5.3711   -0.9106 H   0  0  0  0  0  0  0  0  0  0  0  0
    2.1145    6.2623   -2.2955 H   0  0  0  0  0  0  0  0  0  0  0  0
    1.0293    5.6760   -1.0191 H   0  0  0  0  0  0  0  0  0  0  0  0
    2.8981    2.6590   -4.0669 N   0  0  0  0  0  0  0  0  0  0  0  0
    3.9983    2.1983   -4.9029 C   0  0  0  0  0  0  0  0  0  0  0  0
    2.0478    2.0941   -3.9946 H   0  0  0  0  0  0  0  0  0  0  0  0
    4.3294    2.9968   -5.5753 H   0  0  0  0  0  0  0  0  0  0  0  0
    4.8448    1.8860   -4.2826 H   0  0  0  0  0  0  0  0  0  0  0  0
    3.6796    1.3465   -5.5110 H   0  0  0  0  0  0  0  0  0  0  0  0
  1  2  2  0  0  0  0
  1  3  1  0  0  0  0
  1  7  1  0  0  0  0
  3  4  1  0  0  0  0
  3  5  1  0  0  0  0
  3  6  1  0  0  0  0
  7  8  1  0  0  0  0
  7 12  1  0  0  0  0
  8  9  1  0  0  0  0
  8 11  1  0  0  0  0
  8 13  1  0  0  0  0
  9 10  2  0  0  0  0
  9 17  1  0  0  0  0
 11 14  1  0  0  0  0
 11 15  1  0  0  0  0
 11 16  1  0  0  0  0
 17 18  1  0  0  0  0
 17 28  1  0  0  0  0
 18 19  1  0  0  0  0
 18 21  1  0  0  0  0
 18 29  1  0  0  0  0
 19 20  2  0  0  0  0
 19 37  1  0  0  0  0
 21 22  1  0  0  0  0
 21 30  1  0  0  0  0
 21 31  1  0  0  0  0
 22 23  1  0  0  0  0
 22 24  2  0  0  0  0
 23 25  2  0  0  0  0
 23 32  1  0  0  0  0
 24 26  1  0  0  0  0
 24 33  1  0  0  0  0
 25 27  1  0  0  0  0
 25 34  1  0  0  0  0
 26 27  2  0  0  0  0
 26 35  1  0  0  0  0
 27 36  1  0  0  0  0
 37 38  1  0  0  0  0
 37 42  1  0  0  0  0
 38 39  1  0  0  0  0
 38 41  1  0  0  0  0
 38 43  1  0  0  0  0
 39 40  2  0  0  0  0
 39 47  1  0  0  0  0
 41 44  1  0  0  0  0
 41 45  1  0  0  0  0
 41 46  1  0  0  0  0
 47 48  1  0  0  0  0
 47 49  1  0  0  0  0
 48 50  1  0  0  0  0
 48 51  1  0  0  0  0
 48 52  1  0  0  0  0
M  END
$$$$

  -OEChem-05262217163D

 52 52  0     1  0  0  0  0  0999 V2000
   -2.6377   -0.4353    3.7698 C   0  0  0  0  0  0  0  0  0  0  0  0
   -3.4983   -0.6762    2.9367 O   0  0  0  0  0  0  0  0  0  0  0  0
   -2.3432   -1.4387    4.8689 C   0  0  0  0  0  0  0  0  0  0  0  0
   -3.0157   -2.2973    4.7874 H   0  0  0  0  0  0  0  0  0  0  0  0
   -1.3112   -1.7895    4.7846 H   0  0  0  0  0  0  0  0  0  0  0  0
   -2.4839   -0.9729    5.8475 H   0  0  0  0  0  0  0  0  0  0  0  0
   -1.9050    0.7315    3.7037 N   0  0  0  0  0  0  0  0  0  0  0  0
   -1.8842    1.6043    2.5222 C   0  0  2  0  0  0  0  0  0  0  0  0
   -0.5765    1.4216    1.7267 C   0  0  0  0  0  0  0  0  0  0  0  0
    0.4870    1.2954    2.3251 O   0  0  0  0  0  0  0  0  0  0  0  0
   -2.0272    3.0503    3.0012 C   0  0  0  0  0  0  0  0  0  0  0  0
   -1.0795    0.7619    4.2985 H   0  0  0  0  0  0  0  0  0  0  0  0
   -2.7236    1.3775    1.8565 H   0  0  0  0  0  0  0  0  0  0  0  0
   -1.1951    3.3219    3.6592 H   0  0  0  0  0  0  0  0  0  0  0  0
   -2.0339    3.7356    2.1479 H   0  0  0  0  0  0  0  0  0  0  0  0
   -2.9638    3.1752    3.5536 H   0  0  0  0  0  0  0  0  0  0  0  0
   -0.5810    1.4464    0.3437 N   0  0  0  0  0  0  0  0  0  0  0  0
    0.5364    0.9396   -0.4706 C   0  0  2  0  0  0  0  0  0  0  0  0
    0.8666    1.9336   -1.5989 C   0  0  0  0  0  0  0  0  0  0  0  0
    0.3357    1.8534   -2.7014 O   0  0  0  0  0  0  0  0  0  0  0  0
    0.1645   -0.4432   -1.0418 C   0  0  0  0  0  0  0  0  0  0  0  0
    0.0455   -1.4837    0.0470 C   0  0  0  0  0  0  0  0  0  0  0  0
    1.1914   -2.1035    0.5671 C   0  0  0  0  0  0  0  0  0  0  0  0
   -1.2129   -1.8499    0.5489 C   0  0  0  0  0  0  0  0  0  0  0  0
    1.0818   -3.0674    1.5756 C   0  0  0  0  0  0  0  0  0  0  0  0
   -1.3237   -2.8162    1.5530 C   0  0  0  0  0  0  0  0  0  0  0  0
   -0.1765   -3.4246    2.0693 C   0  0  0  0  0  0  0  0  0  0  0  0
   -1.4946    1.4924   -0.1011 H   0  0  0  0  0  0  0  0  0  0  0  0
    1.4444    0.8252    0.1304 H   0  0  0  0  0  0  0  0  0  0  0  0
    0.9347   -0.7612   -1.7527 H   0  0  0  0  0  0  0  0  0  0  0  0
   -0.7765   -0.3748   -1.5979 H   0  0  0  0  0  0  0  0  0  0  0  0
    2.1742   -1.8350    0.1921 H   0  0  0  0  0  0  0  0  0  0  0  0
   -2.1164   -1.3851    0.1651 H   0  0  0  0  0  0  0  0  0  0  0  0
    1.9753   -3.5390    1.9735 H   0  0  0  0  0  0  0  0  0  0  0  0
   -2.3061   -3.0859    1.9309 H   0  0  0  0  0  0  0  0  0  0  0  0
   -0.2639   -4.1743    2.8500 H   0  0  0  0  0  0  0  0  0  0  0  0
    1.7933    2.9346   -1.3763 N   0  0  0  0  0  0  0  0  0  0  0  0
    2.1711    3.9538   -2.3679 C   0  0  2  0  0  0  0  0  0  0  0  0
    3.1459    3.4076   -3.4402 C   0  0  0  0  0  0  0  0  0  0  0  0
    4.2790    3.8550   -3.5704 O   0  0  0  0  0  0  0  0  0  0  0  0
    2.7428    5.1511   -1.5977 C   0  0  0  0  0  0  0  0  0  0  0  0
    2.2172    2.9753   -0.4523 H   0  0  0  0  0  0  0  0  0  0  0  0
    1.2751    4.2964   -2.8966 H   0  0  0  0  0  0  0  0  0  0  0  0
    3.6508    4.8646   -1.0571 H   0  0  0  0  0  0  0  0  0  0  0  0
    2.9944    5.9611   -2.2898 H   0  0  0  0  0  0  0  0  0  0  0  0
    2.0101    5.5282   -0.8779 H   0  0  0  0  0  0  0  0  0  0  0  0
    2.7258    2.3899   -4.2737 N   0  0  0  0  0  0  0  0  0  0  0  0
    3.5632    1.7709   -5.2921 C   0  0  0  0  0  0  0  0  0  0  0  0
    1.7937    2.0106   -4.0876 H   0  0  0  0  0  0  0  0  0  0  0  0
    3.9527    2.5280   -5.9809 H   0  0  0  0  0  0  0  0  0  0  0  0
    4.4062    1.2484   -4.8281 H   0  0  0  0  0  0  0  0  0  0  0  0
    2.9804    1.0474   -5.8702 H   0  0  0  0  0  0  0  0  0  0  0  0
  1  2  2  0  0  0  0
  1  3  1  0  0  0  0
  1  7  1  0  0  0  0
  3  4  1  0  0  0  0
  3  5  1  0  0  0  0
  3  6  1  0  0  0  0
  7  8  1  0  0  0  0
  7 12  1  0  0  0  0
  8  9  1  0  0  0  0
  8 11  1  0  0  0  0
  8 13  1  0  0  0  0
  9 10  2  0  0  0  0
  9 17  1  0  0  0  0
 11 14  1  0  0  0  0
 11 15  1  0  0  0  0
 11 16  1  0  0  0  0
 17 18  1  0  0  0  0
 17 28  1  0  0  0  0
 18 19  1  0  0  0  0
 18 21  1  0  0  0  0
 18 29  1  0  0  0  0
 19 20  2  0  0  0  0
 19 37  1  0  0  0  0
 21 22  1  0  0  0  0
 21 30  1  0  0  0  0
 21 31  1  0  0  0  0
 22 23  1  0  0  0  0
 22 24  2  0  0  0  0
 23 25  2  0  0  0  0
 23 32  1  0  0  0  0
 24 26  1  0  0  0  0
 24 33  1  0  0  0  0
 25 27  1  0  0  0  0
 25 34  1  0  0  0  0
 26 27  2  0  0  0  0
 26 35  1  0  0  0  0
 27 36  1  0  0  0  0
 37 38  1  0  0  0  0
 37 42  1  0  0  0  0
 38 39  1  0  0  0  0
 38 41  1  0  0  0  0
 38 43  1  0  0  0  0
 39 40  2  0  0  0  0
 39 47  1  0  0  0  0
 41 44  1  0  0  0  0
 41 45  1  0  0  0  0
 41 46  1  0  0  0  0
 47 48  1  0  0  0  0
 47 49  1  0  0  0  0
 48 50  1  0  0  0  0
 48 51  1  0  0  0  0
 48 52  1  0  0  0  0
M  END
$$$$

  -OEChem-05262217163D

 52 52  0     1  0  0  0  0  0999 V2000
   -2.7363   -0.3639    3.6531 C   0  0  0  0  0  0  0  0  0  0  0  0
   -3.5314   -0.5593    2.7465 O   0  0  0  0  0  0  0  0  0  0  0  0
   -2.5679   -1.3993    4.7488 C   0  0  0  0  0  0  0  0  0  0  0  0
   -3.2489   -2.2387    4.5833 H   0  0  0  0  0  0  0  0  0  0  0  0
   -1.5412   -1.7742    4.7511 H   0  0  0  0  0  0  0  0  0  0  0  0
   -2.7892   -0.9535    5.7215 H   0  0  0  0  0  0  0  0  0  0  0  0
   -1.9651    0.7798    3.6735 N   0  0  0  0  0  0  0  0  0  0  0  0
   -1.8321    1.6773    2.5180 C   0  0  2  0  0  0  0  0  0  0  0  0
   -0.5182    1.4099    1.7574 C   0  0  0  0  0  0  0  0  0  0  0  0
    0.5191    1.2113    2.3815 O   0  0  0  0  0  0  0  0  0  0  0  0
   -1.8781    3.1180    3.0297 C   0  0  0  0  0  0  0  0  0  0  0  0
   -1.1863    0.7694    4.3285 H   0  0  0  0  0  0  0  0  0  0  0  0
   -2.6648    1.5367    1.8209 H   0  0  0  0  0  0  0  0  0  0  0  0
   -1.0499    3.3082    3.7198 H   0  0  0  0  0  0  0  0  0  0  0  0
   -1.8038    3.8210    2.1944 H   0  0  0  0  0  0  0  0  0  0  0  0
   -2.8202    3.3024    3.5551 H   0  0  0  0  0  0  0  0  0  0  0  0
   -0.4914    1.4329    0.3752 N   0  0  0  0  0  0  0  0  0  0  0  0
    0.6285    0.9140   -0.4254 C   0  0  2  0  0  0  0  0  0  0  0  0
    0.9878    1.9051   -1.5468 C   0  0  0  0  0  0  0  0  0  0  0  0
    0.2778    2.0149   -2.5407 O   0  0  0  0  0  0  0  0  0  0  0  0
    0.2418   -0.4554   -1.0170 C   0  0  0  0  0  0  0  0  0  0  0  0
    0.0868   -1.5044    0.0594 C   0  0  0  0  0  0  0  0  0  0  0  0
    1.2125   -2.1503    0.5922 C   0  0  0  0  0  0  0  0  0  0  0  0
   -1.1861   -1.8498    0.5395 C   0  0  0  0  0  0  0  0  0  0  0  0
    1.0681   -3.1226    1.5886 C   0  0  0  0  0  0  0  0  0  0  0  0
   -1.3319   -2.8239    1.5318 C   0  0  0  0  0  0  0  0  0  0  0  0
   -0.2048   -3.4606    2.0584 C   0  0  0  0  0  0  0  0  0  0  0  0
   -1.3853    1.5506   -0.0960 H   0  0  0  0  0  0  0  0  0  0  0  0
    1.5229    0.7804    0.1916 H   0  0  0  0  0  0  0  0  0  0  0  0
    1.0161   -0.7802   -1.7199 H   0  0  0  0  0  0  0  0  0  0  0  0
   -0.6899   -0.3649   -1.5859 H   0  0  0  0  0  0  0  0  0  0  0  0
    2.2062   -1.8967    0.2359 H   0  0  0  0  0  0  0  0  0  0  0  0
   -2.0744   -1.3616    0.1490 H   0  0  0  0  0  0  0  0  0  0  0  0
    1.9454   -3.6162    1.9962 H   0  0  0  0  0  0  0  0  0  0  0  0
   -2.3253   -3.0785    1.8910 H   0  0  0  0  0  0  0  0  0  0  0  0
   -0.3179   -4.2176    2.8285 H   0  0  0  0  0  0  0  0  0  0  0  0
    2.1216    2.6899   -1.4474 N   0  0  0  0  0  0  0  0  0  0  0  0
    2.5266    3.6938   -2.4444 C   0  0  2  0  0  0  0  0  0  0  0  0
    3.1777    3.0574   -3.6971 C   0  0  0  0  0  0  0  0  0  0  0  0
    4.3470    3.2695   -3.9950 O   0  0  0  0  0  0  0  0  0  0  0  0
    3.4504    4.6946   -1.7384 C   0  0  0  0  0  0  0  0  0  0  0  0
    2.6894    2.5832   -0.6105 H   0  0  0  0  0  0  0  0  0  0  0  0
    1.6433    4.2431   -2.7874 H   0  0  0  0  0  0  0  0  0  0  0  0
    4.3594    4.1974   -1.3845 H   0  0  0  0  0  0  0  0  0  0  0  0
    3.7405    5.4937   -2.4283 H   0  0  0  0  0  0  0  0  0  0  0  0
    2.9419    5.1475   -0.8818 H   0  0  0  0  0  0  0  0  0  0  0  0
    2.4223    2.2216   -4.4956 N   0  0  0  0  0  0  0  0  0  0  0  0
    2.9442    1.5110   -5.6551 C   0  0  0  0  0  0  0  0  0  0  0  0
    1.4758    2.0179   -4.1641 H   0  0  0  0  0  0  0  0  0  0  0  0
    3.3816    2.2137   -6.3720 H   0  0  0  0  0  0  0  0  0  0  0  0
    3.7135    0.7944   -5.3499 H   0  0  0  0  0  0  0  0  0  0  0  0
    2.1392    0.9653   -6.1563 H   0  0  0  0  0  0  0  0  0  0  0  0
  1  2  2  0  0  0  0
  1  3  1  0  0  0  0
  1  7  1  0  0  0  0
  3  4  1  0  0  0  0
  3  5  1  0  0  0  0
  3  6  1  0  0  0  0
  7  8  1  0  0  0  0
  7 12  1  0  0  0  0
  8  9  1  0  0  0  0
  8 11  1  0  0  0  0
  8 13  1  0  0  0  0
  9 10  2  0  0  0  0
  9 17  1  0  0  0  0
 11 14  1  0  0  0  0
 11 15  1  0  0  0  0
 11 16  1  0  0  0  0
 17 18  1  0  0  0  0
 17 28  1  0  0  0  0
 18 19  1  0  0  0  0
 18 21  1  0  0  0  0
 18 29  1  0  0  0  0
 19 20  2  0  0  0  0
 19 37  1  0  0  0  0
 21 22  1  0  0  0  0
 21 30  1  0  0  0  0
 21 31  1  0  0  0  0
 22 23  1  0  0  0  0
 22 24  2  0  0  0  0
 23 25  2  0  0  0  0
 23 32  1  0  0  0  0
 24 26  1  0  0  0  0
 24 33  1  0  0  0  0
 25 27  1  0  0  0  0
 25 34  1  0  0  0  0
 26 27  2  0  0  0  0
 26 35  1  0  0  0  0
 27 36  1  0  0  0  0
 37 38  1  0  0  0  0
 37 42  1  0  0  0  0
 38 39  1  0  0  0  0
 38 41  1  0  0  0  0
 38 43  1  0  0  0  0
 39 40  2  0  0  0  0
 39 47  1  0  0  0  0
 41 44  1  0  0  0  0
 41 45  1  0  0  0  0
 41 46  1  0  0  0  0
 47 48  1  0  0  0  0
 47 49  1  0  0  0  0
 48 50  1  0  0  0  0
 48 51  1  0  0  0  0
 48 52  1  0  0  0  0
M  END
$$$$

  -OEChem-05262217163D

 52 52  0     1  0  0  0  0  0999 V2000
   -2.7547   -0.3220    3.6077 C   0  0  0  0  0  0  0  0  0  0  0  0
   -3.5437   -0.4932    2.6908 O   0  0  0  0  0  0  0  0  0  0  0  0
   -2.5954   -1.3853    4.6779 C   0  0  0  0  0  0  0  0  0  0  0  0
   -3.2856   -2.2133    4.4937 H   0  0  0  0  0  0  0  0  0  0  0  0
   -1.5728   -1.7713    4.6688 H   0  0  0  0  0  0  0  0  0  0  0  0
   -2.8093   -0.9605    5.6616 H   0  0  0  0  0  0  0  0  0  0  0  0
   -1.9760    0.8155    3.6592 N   0  0  0  0  0  0  0  0  0  0  0  0
   -1.8092    1.7203    2.5138 C   0  0  2  0  0  0  0  0  0  0  0  0
   -0.4929    1.4242    1.7684 C   0  0  0  0  0  0  0  0  0  0  0  0
    0.5260    1.1771    2.4056 O   0  0  0  0  0  0  0  0  0  0  0  0
   -1.8235    3.1577    3.0373 C   0  0  0  0  0  0  0  0  0  0  0  0
   -1.2022    0.7811    4.3192 H   0  0  0  0  0  0  0  0  0  0  0  0
   -2.6371    1.6067    1.8061 H   0  0  0  0  0  0  0  0  0  0  0  0
   -1.0014    3.3188    3.7421 H   0  0  0  0  0  0  0  0  0  0  0  0
   -1.7161    3.8657    2.2096 H   0  0  0  0  0  0  0  0  0  0  0  0
   -2.7684    3.3644    3.5494 H   0  0  0  0  0  0  0  0  0  0  0  0
   -0.4448    1.4566    0.3873 N   0  0  0  0  0  0  0  0  0  0  0  0
    0.6762    0.9282   -0.4052 C   0  0  2  0  0  0  0  0  0  0  0  0
    1.0687    1.9174   -1.5157 C   0  0  0  0  0  0  0  0  0  0  0  0
    0.2628    2.2222   -2.3889 O   0  0  0  0  0  0  0  0  0  0  0  0
    0.2712   -0.4212   -1.0268 C   0  0  0  0  0  0  0  0  0  0  0  0
    0.0779   -1.4853    0.0282 C   0  0  0  0  0  0  0  0  0  0  0  0
    1.1812   -2.1643    0.5668 C   0  0  0  0  0  0  0  0  0  0  0  0
   -1.2083   -1.8060    0.4889 C   0  0  0  0  0  0  0  0  0  0  0  0
    1.0017   -3.1457    1.5483 C   0  0  0  0  0  0  0  0  0  0  0  0
   -1.3892   -2.7877    1.4678 C   0  0  0  0  0  0  0  0  0  0  0  0
   -0.2843   -3.4582    1.9994 C   0  0  0  0  0  0  0  0  0  0  0  0
   -1.3192    1.6350   -0.1012 H   0  0  0  0  0  0  0  0  0  0  0  0
    1.5581    0.7721    0.2243 H   0  0  0  0  0  0  0  0  0  0  0  0
    1.0502   -0.7500   -1.7227 H   0  0  0  0  0  0  0  0  0  0  0  0
   -0.6488   -0.3001   -1.6087 H   0  0  0  0  0  0  0  0  0  0  0  0
    2.1851   -1.9301    0.2264 H   0  0  0  0  0  0  0  0  0  0  0  0
   -2.0795   -1.2899    0.0955 H   0  0  0  0  0  0  0  0  0  0  0  0
    1.8624   -3.6644    1.9599 H   0  0  0  0  0  0  0  0  0  0  0  0
   -2.3927   -3.0200    1.8140 H   0  0  0  0  0  0  0  0  0  0  0  0
   -0.4253   -4.2204    2.7597 H   0  0  0  0  0  0  0  0  0  0  0  0
    2.3433    2.4511   -1.5638 N   0  0  0  0  0  0  0  0  0  0  0  0
    2.8100    3.3903   -2.5954 C   0  0  2  0  0  0  0  0  0  0  0  0
    3.1336    2.6833   -3.9344 C   0  0  0  0  0  0  0  0  0  0  0  0
    4.2675    2.6646   -4.3978 O   0  0  0  0  0  0  0  0  0  0  0  0
    4.0119    4.1469   -2.0153 C   0  0  0  0  0  0  0  0  0  0  0  0
    2.9969    2.1666   -0.8390 H   0  0  0  0  0  0  0  0  0  0  0  0
    2.0239    4.1243   -2.8027 H   0  0  0  0  0  0  0  0  0  0  0  0
    4.8289    3.4550   -1.7861 H   0  0  0  0  0  0  0  0  0  0  0  0
    4.3775    4.8867   -2.7347 H   0  0  0  0  0  0  0  0  0  0  0  0
    3.7276    4.6712   -1.0978 H   0  0  0  0  0  0  0  0  0  0  0  0
    2.1184    2.0420   -4.6159 N   0  0  0  0  0  0  0  0  0  0  0  0
    2.3117    1.2830   -5.8436 C   0  0  0  0  0  0  0  0  0  0  0  0
    1.2038    2.0325   -4.1568 H   0  0  0  0  0  0  0  0  0  0  0  0
    2.7415    1.9190   -6.6244 H   0  0  0  0  0  0  0  0  0  0  0  0
    2.9837    0.4366   -5.6680 H   0  0  0  0  0  0  0  0  0  0  0  0
    1.3528    0.8971   -6.2024 H   0  0  0  0  0  0  0  0  0  0  0  0
  1  2  2  0  0  0  0
  1  3  1  0  0  0  0
  1  7  1  0  0  0  0
  3  4  1  0  0  0  0
  3  5  1  0  0  0  0
  3  6  1  0  0  0  0
  7  8  1  0  0  0  0
  7 12  1  0  0  0  0
  8  9  1  0  0  0  0
  8 11  1  0  0  0  0
  8 13  1  0  0  0  0
  9 10  2  0  0  0  0
  9 17  1  0  0  0  0
 11 14  1  0  0  0  0
 11 15  1  0  0  0  0
 11 16  1  0  0  0  0
 17 18  1  0  0  0  0
 17 28  1  0  0  0  0
 18 19  1  0  0  0  0
 18 21  1  0  0  0  0
 18 29  1  0  0  0  0
 19 20  2  0  0  0  0
 19 37  1  0  0  0  0
 21 22  1  0  0  0  0
 21 30  1  0  0  0  0
 21 31  1  0  0  0  0
 22 23  1  0  0  0  0
 22 24  2  0  0  0  0
 23 25  2  0  0  0  0
 23 32  1  0  0  0  0
 24 26  1  0  0  0  0
 24 33  1  0  0  0  0
 25 27  1  0  0  0  0
 25 34  1  0  0  0  0
 26 27  2  0  0  0  0
 26 35  1  0  0  0  0
 27 36  1  0  0  0  0
 37 38  1  0  0  0  0
 37 42  1  0  0  0  0
 38 39  1  0  0  0  0
 38 41  1  0  0  0  0
 38 43  1  0  0  0  0
 39 40  2  0  0  0  0
 39 47  1  0  0  0  0
 41 44  1  0  0  0  0
 41 45  1  0  0  0  0
 41 46  1  0  0  0  0
 47 48  1  0  0  0  0
 47 49  1  0  0  0  0
 48 50  1  0  0  0  0
 48 51  1  0  0  0  0
 48 52  1  0  0  0  0
M  END
$$$$

  -OEChem-05262217163D

 52 52  0     1  0  0  0  0  0999 V2000
   -2.8096   -0.2306    3.5079 C   0  0  0  0  0  0  0  0  0  0  0  0
   -3.5378   -0.3581    2.5352 O   0  0  0  0  0  0  0  0  0  0  0  0
   -2.7653   -1.3156    4.5674 C   0  0  0  0  0  0  0  0  0  0  0  0
   -3.4732   -2.1123    4.3218 H   0  0  0  0  0  0  0  0  0  0  0  0
   -1.7603   -1.7418    4.6211 H   0  0  0  0  0  0  0  0  0  0  0  0
   -3.0294   -0.8978    5.5420 H   0  0  0  0  0  0  0  0  0  0  0  0
   -2.0002    0.8794    3.6353 N   0  0  0  0  0  0  0  0  0  0  0  0
   -1.7348    1.7985    2.5207 C   0  0  2  0  0  0  0  0  0  0  0  0
   -0.4350    1.4138    1.7866 C   0  0  0  0  0  0  0  0  0  0  0  0
    0.5587    1.0968    2.4326 O   0  0  0  0  0  0  0  0  0  0  0  0
   -1.6383    3.2165    3.0871 C   0  0  0  0  0  0  0  0  0  0  0  0
   -1.2723    0.8072    4.3422 H   0  0  0  0  0  0  0  0  0  0  0  0
   -2.5577    1.7758    1.7985 H   0  0  0  0  0  0  0  0  0  0  0  0
   -0.8149    3.2890    3.8051 H   0  0  0  0  0  0  0  0  0  0  0  0
   -1.4618    3.9369    2.2821 H   0  0  0  0  0  0  0  0  0  0  0  0
   -2.5697    3.4853    3.5952 H   0  0  0  0  0  0  0  0  0  0  0  0
   -0.3742    1.4424    0.4061 N   0  0  0  0  0  0  0  0  0  0  0  0
    0.7410    0.8989   -0.3842 C   0  0  2  0  0  0  0  0  0  0  0  0
    1.1544    1.8793   -1.4945 C   0  0  0  0  0  0  0  0  0  0  0  0
    0.3052    2.3876   -2.2198 O   0  0  0  0  0  0  0  0  0  0  0  0
    0.3160   -0.4381   -1.0184 C   0  0  0  0  0  0  0  0  0  0  0  0
    0.0973   -1.5066    0.0268 C   0  0  0  0  0  0  0  0  0  0  0  0
    1.1846   -2.2095    0.5671 C   0  0  0  0  0  0  0  0  0  0  0  0
   -1.1977   -1.8074    0.4761 C   0  0  0  0  0  0  0  0  0  0  0  0
    0.9809   -3.1934    1.5411 C   0  0  0  0  0  0  0  0  0  0  0  0
   -1.4029   -2.7928    1.4461 C   0  0  0  0  0  0  0  0  0  0  0  0
   -0.3137   -3.4864    1.9807 C   0  0  0  0  0  0  0  0  0  0  0  0
   -1.2197    1.7079   -0.0941 H   0  0  0  0  0  0  0  0  0  0  0  0
    1.6165    0.7291    0.2505 H   0  0  0  0  0  0  0  0  0  0  0  0
    1.0920   -0.7767   -1.7131 H   0  0  0  0  0  0  0  0  0  0  0  0
   -0.5989   -0.2949   -1.6035 H   0  0  0  0  0  0  0  0  0  0  0  0
    2.1947   -1.9909    0.2355 H   0  0  0  0  0  0  0  0  0  0  0  0
   -2.0563   -1.2714    0.0815 H   0  0  0  0  0  0  0  0  0  0  0  0
    1.8297   -3.7286    1.9560 H   0  0  0  0  0  0  0  0  0  0  0  0
   -2.4129   -3.0095    1.7829 H   0  0  0  0  0  0  0  0  0  0  0  0
   -0.4735   -4.2506    2.7353 H   0  0  0  0  0  0  0  0  0  0  0  0
    2.4888    2.1533   -1.7308 N   0  0  0  0  0  0  0  0  0  0  0  0
    2.9726    3.0358   -2.8033 C   0  0  2  0  0  0  0  0  0  0  0  0
    2.9435    2.3462   -4.1889 C   0  0  0  0  0  0  0  0  0  0  0  0
    3.9714    2.0913   -4.8046 O   0  0  0  0  0  0  0  0  0  0  0  0
    4.3736    3.5163   -2.4052 C   0  0  0  0  0  0  0  0  0  0  0  0
    3.1751    1.6806   -1.1488 H   0  0  0  0  0  0  0  0  0  0  0  0
    2.3262    3.9175   -2.8704 H   0  0  0  0  0  0  0  0  0  0  0  0
    5.0629    2.6697   -2.3226 H   0  0  0  0  0  0  0  0  0  0  0  0
    4.7645    4.2079   -3.1585 H   0  0  0  0  0  0  0  0  0  0  0  0
    4.3400    4.0373   -1.4434 H   0  0  0  0  0  0  0  0  0  0  0  0
    1.7256    1.9910   -4.7342 N   0  0  0  0  0  0  0  0  0  0  0  0
    1.5744    1.2726   -5.9921 C   0  0  0  0  0  0  0  0  0  0  0  0
    0.9057    2.1453   -4.1415 H   0  0  0  0  0  0  0  0  0  0  0  0
    2.0688    1.8139   -6.8056 H   0  0  0  0  0  0  0  0  0  0  0  0
    2.0128    0.2723   -5.9161 H   0  0  0  0  0  0  0  0  0  0  0  0
    0.5140    1.1702   -6.2418 H   0  0  0  0  0  0  0  0  0  0  0  0
  1  2  2  0  0  0  0
  1  3  1  0  0  0  0
  1  7  1  0  0  0  0
  3  4  1  0  0  0  0
  3  5  1  0  0  0  0
  3  6  1  0  0  0  0
  7  8  1  0  0  0  0
  7 12  1  0  0  0  0
  8  9  1  0  0  0  0
  8 11  1  0  0  0  0
  8 13  1  0  0  0  0
  9 10  2  0  0  0  0
  9 17  1  0  0  0  0
 11 14  1  0  0  0  0
 11 15  1  0  0  0  0
 11 16  1  0  0  0  0
 17 18  1  0  0  0  0
 17 28  1  0  0  0  0
 18 19  1  0  0  0  0
 18 21  1  0  0  0  0
 18 29  1  0  0  0  0
 19 20  2  0  0  0  0
 19 37  1  0  0  0  0
 21 22  1  0  0  0  0
 21 30  1  0  0  0  0
 21 31  1  0  0  0  0
 22 23  1  0  0  0  0
 22 24  2  0  0  0  0
 23 25  2  0  0  0  0
 23 32  1  0  0  0  0
 24 26  1  0  0  0  0
 24 33  1  0  0  0  0
 25 27  1  0  0  0  0
 25 34  1  0  0  0  0
 26 27  2  0  0  0  0
 26 35  1  0  0  0  0
 27 36  1  0  0  0  0
 37 38  1  0  0  0  0
 37 42  1  0  0  0  0
 38 39  1  0  0  0  0
 38 41  1  0  0  0  0
 38 43  1  0  0  0  0
 39 40  2  0  0  0  0
 39 47  1  0  0  0  0
 41 44  1  0  0  0  0
 41 45  1  0  0  0  0
 41 46  1  0  0  0  0
 47 48  1  0  0  0  0
 47 49  1  0  0  0  0
 48 50  1  0  0  0  0
 48 51  1  0  0  0  0
 48 52  1  0  0  0  0
M  END
$$$$

  -OEChem-05262217163D

 52 52  0     1  0  0  0  0  0999 V2000
   -2.8151   -0.1524    3.4964 C   0  0  0  0  0  0  0  0  0  0  0  0
   -3.5454   -0.2704    2.5240 O   0  0  0  0  0  0  0  0  0  0  0  0
   -2.7772   -1.2418    4.5512 C   0  0  0  0  0  0  0  0  0  0  0  0
   -3.5178   -2.0135    4.3241 H   0  0  0  0  0  0  0  0  0  0  0  0
   -1.7857   -1.7011    4.5747 H   0  0  0  0  0  0  0  0  0  0  0  0
   -2.9991   -0.8187    5.5338 H   0  0  0  0  0  0  0  0  0  0  0  0
   -1.9880    0.9447    3.6231 N   0  0  0  0  0  0  0  0  0  0  0  0
   -1.6939    1.8440    2.4993 C   0  0  2  0  0  0  0  0  0  0  0  0
   -0.4053    1.4098    1.7733 C   0  0  0  0  0  0  0  0  0  0  0  0
    0.5644    1.0367    2.4262 O   0  0  0  0  0  0  0  0  0  0  0  0
   -1.5516    3.2648    3.0473 C   0  0  0  0  0  0  0  0  0  0  0  0
   -1.2590    0.8547    4.3269 H   0  0  0  0  0  0  0  0  0  0  0  0
   -2.5165    1.8379    1.7764 H   0  0  0  0  0  0  0  0  0  0  0  0
   -0.7280    3.3192    3.7666 H   0  0  0  0  0  0  0  0  0  0  0  0
   -1.3483    3.9673    2.2331 H   0  0  0  0  0  0  0  0  0  0  0  0
   -2.4749    3.5722    3.5482 H   0  0  0  0  0  0  0  0  0  0  0  0
   -0.3310    1.4438    0.3937 N   0  0  0  0  0  0  0  0  0  0  0  0
    0.7801    0.8832   -0.3908 C   0  0  2  0  0  0  0  0  0  0  0  0
    1.2311    1.8519   -1.4969 C   0  0  0  0  0  0  0  0  0  0  0  0
    0.4110    2.5527   -2.0820 O   0  0  0  0  0  0  0  0  0  0  0  0
    0.3240   -0.4379   -1.0356 C   0  0  0  0  0  0  0  0  0  0  0  0
    0.0712   -1.5045    0.0036 C   0  0  0  0  0  0  0  0  0  0  0  0
    1.1361   -2.2385    0.5474 C   0  0  0  0  0  0  0  0  0  0  0  0
   -1.2337   -1.7699    0.4464 C   0  0  0  0  0  0  0  0  0  0  0  0
    0.8999   -3.2197    1.5170 C   0  0  0  0  0  0  0  0  0  0  0  0
   -1.4711   -2.7515    1.4131 C   0  0  0  0  0  0  0  0  0  0  0  0
   -0.4043   -3.4771    1.9502 C   0  0  0  0  0  0  0  0  0  0  0  0
   -1.1398    1.7945   -0.1147 H   0  0  0  0  0  0  0  0  0  0  0  0
    1.6462    0.6921    0.2508 H   0  0  0  0  0  0  0  0  0  0  0  0
    1.0931   -0.7951   -1.7283 H   0  0  0  0  0  0  0  0  0  0  0  0
   -0.5836   -0.2659   -1.6243 H   0  0  0  0  0  0  0  0  0  0  0  0
    2.1540   -2.0466    0.2232 H   0  0  0  0  0  0  0  0  0  0  0  0
   -2.0748   -1.2076    0.0505 H   0  0  0  0  0  0  0  0  0  0  0  0
    1.7307   -3.7811    1.9340 H   0  0  0  0  0  0  0  0  0  0  0  0
   -2.4880   -2.9401    1.7460 H   0  0  0  0  0  0  0  0  0  0  0  0
   -0.5883   -4.2385    2.7020 H   0  0  0  0  0  0  0  0  0  0  0  0
    2.5464    1.8619   -1.9234 N   0  0  0  0  0  0  0  0  0  0  0  0
    3.0472    2.6785   -3.0392 C   0  0  2  0  0  0  0  0  0  0  0  0
    2.6902    2.0688   -4.4170 C   0  0  0  0  0  0  0  0  0  0  0  0
    3.5531    1.6796   -5.1943 O   0  0  0  0  0  0  0  0  0  0  0  0
    4.5573    2.8543   -2.8357 C   0  0  0  0  0  0  0  0  0  0  0  0
    3.1886    1.2135   -1.4763 H   0  0  0  0  0  0  0  0  0  0  0  0
    2.5887    3.6725   -2.9991 H   0  0  0  0  0  0  0  0  0  0  0  0
    5.0679    1.8866   -2.8749 H   0  0  0  0  0  0  0  0  0  0  0  0
    4.9727    3.4960   -3.6193 H   0  0  0  0  0  0  0  0  0  0  0  0
    4.7602    3.3192   -1.8661 H   0  0  0  0  0  0  0  0  0  0  0  0
    1.3610    1.9373   -4.7668 N   0  0  0  0  0  0  0  0  0  0  0  0
    0.8995    1.3280   -6.0063 C   0  0  0  0  0  0  0  0  0  0  0  0
    0.6783    2.2216   -4.0596 H   0  0  0  0  0  0  0  0  0  0  0  0
    1.3003    1.8676   -6.8707 H   0  0  0  0  0  0  0  0  0  0  0  0
    1.2216    0.2831   -6.0613 H   0  0  0  0  0  0  0  0  0  0  0  0
   -0.1930    1.3580   -6.0569 H   0  0  0  0  0  0  0  0  0  0  0  0
  1  2  2  0  0  0  0
  1  3  1  0  0  0  0
  1  7  1  0  0  0  0
  3  4  1  0  0  0  0
  3  5  1  0  0  0  0
  3  6  1  0  0  0  0
  7  8  1  0  0  0  0
  7 12  1  0  0  0  0
  8  9  1  0  0  0  0
  8 11  1  0  0  0  0
  8 13  1  0  0  0  0
  9 10  2  0  0  0  0
  9 17  1  0  0  0  0
 11 14  1  0  0  0  0
 11 15  1  0  0  0  0
 11 16  1  0  0  0  0
 17 18  1  0  0  0  0
 17 28  1  0  0  0  0
 18 19  1  0  0  0  0
 18 21  1  0  0  0  0
 18 29  1  0  0  0  0
 19 20  2  0  0  0  0
 19 37  1  0  0  0  0
 21 22  1  0  0  0  0
 21 30  1  0  0  0  0
 21 31  1  0  0  0  0
 22 23  1  0  0  0  0
 22 24  2  0  0  0  0
 23 25  2  0  0  0  0
 23 32  1  0  0  0  0
 24 26  1  0  0  0  0
 24 33  1  0  0  0  0
 25 27  1  0  0  0  0
 25 34  1  0  0  0  0
 26 27  2  0  0  0  0
 26 35  1  0  0  0  0
 27 36  1  0  0  0  0
 37 38  1  0  0  0  0
 37 42  1  0  0  0  0
 38 39  1  0  0  0  0
 38 41  1  0  0  0  0
 38 43  1  0  0  0  0
 39 40  2  0  0  0  0
 39 47  1  0  0  0  0
 41 44  1  0  0  0  0
 41 45  1  0  0  0  0
 41 46  1  0  0  0  0
 47 48  1  0  0  0  0
 47 49  1  0  0  0  0
 48 50  1  0  0  0  0
 48 51  1  0  0  0  0
 48 52  1  0  0  0  0
M  END
$$$$

  -OEChem-05262217163D

 52 52  0     1  0  0  0  0  0999 V2000
   -2.8663   -0.0378    3.3936 C   0  0  0  0  0  0  0  0  0  0  0  0
   -3.5478   -0.1313    2.3837 O   0  0  0  0  0  0  0  0  0  0  0  0
   -2.9307   -1.1213    4.4534 C   0  0  0  0  0  0  0  0  0  0  0  0
   -3.6677   -1.8793    4.1739 H   0  0  0  0  0  0  0  0  0  0  0  0
   -1.9534   -1.6002    4.5549 H   0  0  0  0  0  0  0  0  0  0  0  0
   -3.2188   -0.6881    5.4142 H   0  0  0  0  0  0  0  0  0  0  0  0
   -2.0047    1.0267    3.5612 N   0  0  0  0  0  0  0  0  0  0  0  0
   -1.6277    1.9148    2.4539 C   0  0  2  0  0  0  0  0  0  0  0  0
   -0.3552    1.4034    1.7502 C   0  0  0  0  0  0  0  0  0  0  0  0
    0.5912    1.0017    2.4195 O   0  0  0  0  0  0  0  0  0  0  0  0
   -1.4090    3.3188    3.0206 C   0  0  0  0  0  0  0  0  0  0  0  0
   -1.3142    0.9110    4.2991 H   0  0  0  0  0  0  0  0  0  0  0  0
   -2.4331    1.9687    1.7139 H   0  0  0  0  0  0  0  0  0  0  0  0
   -0.6067    3.3132    3.7655 H   0  0  0  0  0  0  0  0  0  0  0  0
   -1.1352    4.0136    2.2206 H   0  0  0  0  0  0  0  0  0  0  0  0
   -2.3253    3.6818    3.4963 H   0  0  0  0  0  0  0  0  0  0  0  0
   -0.2745    1.3948    0.3709 N   0  0  0  0  0  0  0  0  0  0  0  0
    0.8340    0.8066   -0.3980 C   0  0  2  0  0  0  0  0  0  0  0  0
    1.2934    1.7404   -1.5338 C   0  0  0  0  0  0  0  0  0  0  0  0
    0.5528    2.6228   -1.9577 O   0  0  0  0  0  0  0  0  0  0  0  0
    0.3655   -0.5300   -1.0037 C   0  0  0  0  0  0  0  0  0  0  0  0
    0.1039   -1.5700    0.0608 C   0  0  0  0  0  0  0  0  0  0  0  0
    1.1610   -2.3018    0.6233 C   0  0  0  0  0  0  0  0  0  0  0  0
   -1.2043   -1.8163    0.5047 C   0  0  0  0  0  0  0  0  0  0  0  0
    0.9135   -3.2646    1.6088 C   0  0  0  0  0  0  0  0  0  0  0  0
   -1.4531   -2.7790    1.4875 C   0  0  0  0  0  0  0  0  0  0  0  0
   -0.3945   -3.5046    2.0406 C   0  0  0  0  0  0  0  0  0  0  0  0
   -1.0455    1.8079   -0.1490 H   0  0  0  0  0  0  0  0  0  0  0  0
    1.6994    0.6305    0.2490 H   0  0  0  0  0  0  0  0  0  0  0  0
    1.1297   -0.9144   -1.6868 H   0  0  0  0  0  0  0  0  0  0  0  0
   -0.5407   -0.3662   -1.5971 H   0  0  0  0  0  0  0  0  0  0  0  0
    2.1818   -2.1235    0.3012 H   0  0  0  0  0  0  0  0  0  0  0  0
   -2.0392   -1.2541    0.0960 H   0  0  0  0  0  0  0  0  0  0  0  0
    1.7378   -3.8250    2.0399 H   0  0  0  0  0  0  0  0  0  0  0  0
   -2.4723   -2.9549    1.8194 H   0  0  0  0  0  0  0  0  0  0  0  0
   -0.5878   -4.2518    2.8044 H   0  0  0  0  0  0  0  0  0  0  0  0
    2.5035    1.5256   -2.1692 N   0  0  0  0  0  0  0  0  0  0  0  0
    2.9906    2.3136   -3.3122 C   0  0  2  0  0  0  0  0  0  0  0  0
    2.3108    1.9068   -4.6428 C   0  0  0  0  0  0  0  0  0  0  0  0
    2.9460    1.4178   -5.5690 O   0  0  0  0  0  0  0  0  0  0  0  0
    4.5168    2.1656   -3.3537 C   0  0  0  0  0  0  0  0  0  0  0  0
    3.0646    0.7393   -1.8538 H   0  0  0  0  0  0  0  0  0  0  0  0
    2.7643    3.3725   -3.1476 H   0  0  0  0  0  0  0  0  0  0  0  0
    4.7994    1.1221   -3.5265 H   0  0  0  0  0  0  0  0  0  0  0  0
    4.9343    2.7742   -4.1623 H   0  0  0  0  0  0  0  0  0  0  0  0
    4.9587    2.4976   -2.4094 H   0  0  0  0  0  0  0  0  0  0  0  0
    0.9488    2.0850   -4.7820 N   0  0  0  0  0  0  0  0  0  0  0  0
    0.1905    1.6951   -5.9624 C   0  0  0  0  0  0  0  0  0  0  0  0
    0.4542    2.4388   -3.9589 H   0  0  0  0  0  0  0  0  0  0  0  0
    0.5738    2.2088   -6.8501 H   0  0  0  0  0  0  0  0  0  0  0  0
    0.2596    0.6143   -6.1222 H   0  0  0  0  0  0  0  0  0  0  0  0
   -0.8634    1.9610   -5.8378 H   0  0  0  0  0  0  0  0  0  0  0  0
  1  2  2  0  0  0  0
  1  3  1  0  0  0  0
  1  7  1  0  0  0  0
  3  4  1  0  0  0  0
  3  5  1  0  0  0  0
  3  6  1  0  0  0  0
  7  8  1  0  0  0  0
  7 12  1  0  0  0  0
  8  9  1  0  0  0  0
  8 11  1  0  0  0  0
  8 13  1  0  0  0  0
  9 10  2  0  0  0  0
  9 17  1  0  0  0  0
 11 14  1  0  0  0  0
 11 15  1  0  0  0  0
 11 16  1  0  0  0  0
 17 18  1  0  0  0  0
 17 28  1  0  0  0  0
 18 19  1  0  0  0  0
 18 21  1  0  0  0  0
 18 29  1  0  0  0  0
 19 20  2  0  0  0  0
 19 37  1  0  0  0  0
 21 22  1  0  0  0  0
 21 30  1  0  0  0  0
 21 31  1  0  0  0  0
 22 23  1  0  0  0  0
 22 24  2  0  0  0  0
 23 25  2  0  0  0  0
 23 32  1  0  0  0  0
 24 26  1  0  0  0  0
 24 33  1  0  0  0  0
 25 27  1  0  0  0  0
 25 34  1  0  0  0  0
 26 27  2  0  0  0  0
 26 35  1  0  0  0  0
 27 36  1  0  0  0  0
 37 38  1  0  0  0  0
 37 42  1  0  0  0  0
 38 39  1  0  0  0  0
 38 41  1  0  0  0  0
 38 43  1  0  0  0  0
 39 40  2  0  0  0  0
 39 47  1  0  0  0  0
 41 44  1  0  0  0  0
 41 45  1  0  0  0  0
 41 46  1  0  0  0  0
 47 48  1  0  0  0  0
 47 49  1  0  0  0  0
 48 50  1  0  0  0  0
 48 51  1  0  0  0  0
 48 52  1  0  0  0  0
M  END
$$$$

  -OEChem-05262217163D

 52 52  0     1  0  0  0  0  0999 V2000
   -2.9806    0.4351    4.1016 C   0  0  0  0  0  0  0  0  0  0  0  0
   -3.9872    0.5071    3.4142 O   0  0  0  0  0  0  0  0  0  0  0  0
   -2.9975   -0.3735    5.3852 C   0  0  0  0  0  0  0  0  0  0  0  0
   -4.0011   -0.7663    5.5711 H   0  0  0  0  0  0  0  0  0  0  0  0
   -2.2999   -1.2110    5.3063 H   0  0  0  0  0  0  0  0  0  0  0  0
   -2.7053    0.2573    6.2282 H   0  0  0  0  0  0  0  0  0  0  0  0
   -1.8199    1.0727    3.7153 N   0  0  0  0  0  0  0  0  0  0  0  0
   -1.6056    1.6419    2.3765 C   0  0  2  0  0  0  0  0  0  0  0  0
   -0.4197    0.9666    1.6578 C   0  0  0  0  0  0  0  0  0  0  0  0
    0.4312    0.3665    2.3075 O   0  0  0  0  0  0  0  0  0  0  0  0
   -1.3565    3.1435    2.5336 C   0  0  0  0  0  0  0  0  0  0  0  0
   -0.9793    0.8031    4.2235 H   0  0  0  0  0  0  0  0  0  0  0  0
   -2.4909    1.4965    1.7486 H   0  0  0  0  0  0  0  0  0  0  0  0
   -0.4606    3.3233    3.1364 H   0  0  0  0  0  0  0  0  0  0  0  0
   -1.2174    3.6140    1.5552 H   0  0  0  0  0  0  0  0  0  0  0  0
   -2.2108    3.6180    3.0268 H   0  0  0  0  0  0  0  0  0  0  0  0
   -0.3083    1.0506    0.2824 N   0  0  0  0  0  0  0  0  0  0  0  0
    0.8350    0.5331   -0.4894 C   0  0  2  0  0  0  0  0  0  0  0  0
    1.5366    1.6580   -1.2794 C   0  0  0  0  0  0  0  0  0  0  0  0
    1.0597    2.7892   -1.3125 O   0  0  0  0  0  0  0  0  0  0  0  0
    0.3076   -0.5495   -1.4516 C   0  0  0  0  0  0  0  0  0  0  0  0
   -0.1871   -1.7578   -0.6912 C   0  0  0  0  0  0  0  0  0  0  0  0
    0.7149   -2.7262   -0.2249 C   0  0  0  0  0  0  0  0  0  0  0  0
   -1.5550   -1.9150   -0.4185 C   0  0  0  0  0  0  0  0  0  0  0  0
    0.2576   -3.8306    0.5025 C   0  0  0  0  0  0  0  0  0  0  0  0
   -2.0133   -3.0172    0.3105 C   0  0  0  0  0  0  0  0  0  0  0  0
   -1.1066   -3.9759    0.7716 C   0  0  0  0  0  0  0  0  0  0  0  0
   -0.9139    1.7246   -0.1801 H   0  0  0  0  0  0  0  0  0  0  0  0
    1.5864    0.0892    0.1719 H   0  0  0  0  0  0  0  0  0  0  0  0
    1.1022   -0.8685   -2.1332 H   0  0  0  0  0  0  0  0  0  0  0  0
   -0.4978   -0.1357   -2.0678 H   0  0  0  0  0  0  0  0  0  0  0  0
    1.7778   -2.6222   -0.4178 H   0  0  0  0  0  0  0  0  0  0  0  0
   -2.2690   -1.1734   -0.7629 H   0  0  0  0  0  0  0  0  0  0  0  0
    0.9631   -4.5727    0.8643 H   0  0  0  0  0  0  0  0  0  0  0  0
   -3.0731   -3.1243    0.5231 H   0  0  0  0  0  0  0  0  0  0  0  0
   -1.4616   -4.8302    1.3405 H   0  0  0  0  0  0  0  0  0  0  0  0
    2.6388    1.3856   -2.0705 N   0  0  0  0  0  0  0  0  0  0  0  0
    3.3201    2.3800   -2.9138 C   0  0  2  0  0  0  0  0  0  0  0  0
    2.5545    2.6621   -4.2290 C   0  0  0  0  0  0  0  0  0  0  0  0
    3.0146    2.3559   -5.3220 O   0  0  0  0  0  0  0  0  0  0  0  0
    4.7483    1.8748   -3.1550 C   0  0  0  0  0  0  0  0  0  0  0  0
    2.9768    0.4275   -2.0902 H   0  0  0  0  0  0  0  0  0  0  0  0
    3.3905    3.3305   -2.3735 H   0  0  0  0  0  0  0  0  0  0  0  0
    4.7350    0.9199   -3.6904 H   0  0  0  0  0  0  0  0  0  0  0  0
    5.3097    2.5983   -3.7549 H   0  0  0  0  0  0  0  0  0  0  0  0
    5.2712    1.7367   -2.2037 H   0  0  0  0  0  0  0  0  0  0  0  0
    1.3128    3.2620   -4.1656 N   0  0  0  0  0  0  0  0  0  0  0  0
    0.4763    3.5300   -5.3271 C   0  0  0  0  0  0  0  0  0  0  0  0
    0.9392    3.4230   -3.2267 H   0  0  0  0  0  0  0  0  0  0  0  0
    1.0101    4.1587   -6.0474 H   0  0  0  0  0  0  0  0  0  0  0  0
    0.1925    2.5938   -5.8186 H   0  0  0  0  0  0  0  0  0  0  0  0
   -0.4349    4.0534   -5.0225 H   0  0  0  0  0  0  0  0  0  0  0  0
  1  2  2  0  0  0  0
  1  3  1  0  0  0  0
  1  7  1  0  0  0  0
  3  4  1  0  0  0  0
  3  5  1  0  0  0  0
  3  6  1  0  0  0  0
  7  8  1  0  0  0  0
  7 12  1  0  0  0  0
  8  9  1  0  0  0  0
  8 11  1  0  0  0  0
  8 13  1  0  0  0  0
  9 10  2  0  0  0  0
  9 17  1  0  0  0  0
 11 14  1  0  0  0  0
 11 15  1  0  0  0  0
 11 16  1  0  0  0  0
 17 18  1  0  0  0  0
 17 28  1  0  0  0  0
 18 19  1  0  0  0  0
 18 21  1  0  0  0  0
 18 29  1  0  0  0  0
 19 20  2  0  0  0  0
 19 37  1  0  0  0  0
 21 22  1  0  0  0  0
 21 30  1  0  0  0  0
 21 31  1  0  0  0  0
 22 23  1  0  0  0  0
 22 24  2  0  0  0  0
 23 25  2  0  0  0  0
 23 32  1  0  0  0  0
 24 26  1  0  0  0  0
 24 33  1  0  0  0  0
 25 27  1  0  0  0  0
 25 34  1  0  0  0  0
 26 27  2  0  0  0  0
 26 35  1  0  0  0  0
 27 36  1  0  0  0  0
 37 38  1  0  0  0  0
 37 42  1  0  0  0  0
 38 39  1  0  0  0  0
 38 41  1  0  0  0  0
 38 43  1  0  0  0  0
 39 40  2  0  0  0  0
 39 47  1  0  0  0  0
 41 44  1  0  0  0  0
 41 45  1  0  0  0  0
 41 46  1  0  0  0  0
 47 48  1  0  0  0  0
 47 49  1  0  0  0  0
 48 50  1  0  0  0  0
 48 51  1  0  0  0  0
 48 52  1  0  0  0  0
M  END
$$$$

  -OEChem-05262217163D

 52 52  0     1  0  0  0  0  0999 V2000
   -2.9219    0.1614    3.1324 C   0  0  0  0  0  0  0  0  0  0  0  0
   -3.5117    0.2855    2.0693 O   0  0  0  0  0  0  0  0  0  0  0  0
   -3.2518   -1.0000    4.0508 C   0  0  0  0  0  0  0  0  0  0  0  0
   -4.1305   -1.5357    3.6812 H   0  0  0  0  0  0  0  0  0  0  0  0
   -2.4070   -1.6922    4.0910 H   0  0  0  0  0  0  0  0  0  0  0  0
   -3.4622   -0.6330    5.0582 H   0  0  0  0  0  0  0  0  0  0  0  0
   -1.9234    1.0472    3.4832 N   0  0  0  0  0  0  0  0  0  0  0  0
   -1.3245    1.9719    2.5126 C   0  0  2  0  0  0  0  0  0  0  0  0
   -0.1754    1.2862    1.7482 C   0  0  0  0  0  0  0  0  0  0  0  0
    0.7310    0.7449    2.3729 O   0  0  0  0  0  0  0  0  0  0  0  0
   -0.8213    3.2058    3.2655 C   0  0  0  0  0  0  0  0  0  0  0  0
   -1.3314    0.7538    4.2562 H   0  0  0  0  0  0  0  0  0  0  0  0
   -2.0759    2.3028    1.7879 H   0  0  0  0  0  0  0  0  0  0  0  0
   -0.0686    2.9245    4.0093 H   0  0  0  0  0  0  0  0  0  0  0  0
   -0.3693    3.9173    2.5672 H   0  0  0  0  0  0  0  0  0  0  0  0
   -1.6510    3.7024    3.7778 H   0  0  0  0  0  0  0  0  0  0  0  0
   -0.1828    1.2506    0.3671 N   0  0  0  0  0  0  0  0  0  0  0  0
    0.8703    0.6268   -0.4524 C   0  0  2  0  0  0  0  0  0  0  0  0
    1.5405    1.6499   -1.3990 C   0  0  0  0  0  0  0  0  0  0  0  0
    1.2968    2.8490   -1.3033 O   0  0  0  0  0  0  0  0  0  0  0  0
    0.2160   -0.5274   -1.2397 C   0  0  0  0  0  0  0  0  0  0  0  0
   -0.2317   -1.6376   -0.3169 C   0  0  0  0  0  0  0  0  0  0  0  0
    0.6847   -2.5907    0.1532 C   0  0  0  0  0  0  0  0  0  0  0  0
   -1.5698   -1.7193    0.0988 C   0  0  0  0  0  0  0  0  0  0  0  0
    0.2686   -3.6088    1.0188 C   0  0  0  0  0  0  0  0  0  0  0  0
   -1.9867   -2.7356    0.9635 C   0  0  0  0  0  0  0  0  0  0  0  0
   -1.0676   -3.6820    1.4240 C   0  0  0  0  0  0  0  0  0  0  0  0
   -0.9021    1.7925   -0.1042 H   0  0  0  0  0  0  0  0  0  0  0  0
    1.6662    0.2171    0.1784 H   0  0  0  0  0  0  0  0  0  0  0  0
    0.9262   -0.9484   -1.9568 H   0  0  0  0  0  0  0  0  0  0  0  0
   -0.6358   -0.1479   -1.8137 H   0  0  0  0  0  0  0  0  0  0  0  0
    1.7267   -2.5424   -0.1467 H   0  0  0  0  0  0  0  0  0  0  0  0
   -2.2955   -0.9832   -0.2360 H   0  0  0  0  0  0  0  0  0  0  0  0
    0.9851   -4.3413    1.3787 H   0  0  0  0  0  0  0  0  0  0  0  0
   -3.0257   -2.7800    1.2771 H   0  0  0  0  0  0  0  0  0  0  0  0
   -1.3903   -4.4711    2.0963 H   0  0  0  0  0  0  0  0  0  0  0  0
    2.3294    1.2363   -2.4589 N   0  0  0  0  0  0  0  0  0  0  0  0
    2.9743    2.1466   -3.4186 C   0  0  2  0  0  0  0  0  0  0  0  0
    1.9948    2.6517   -4.5056 C   0  0  0  0  0  0  0  0  0  0  0  0
    2.1473    2.3762   -5.6895 O   0  0  0  0  0  0  0  0  0  0  0  0
    4.1878    1.4131   -4.0032 C   0  0  0  0  0  0  0  0  0  0  0  0
    2.4647    0.2370   -2.5803 H   0  0  0  0  0  0  0  0  0  0  0  0
    3.3472    3.0301   -2.8891 H   0  0  0  0  0  0  0  0  0  0  0  0
    3.8727    0.5192   -4.5510 H   0  0  0  0  0  0  0  0  0  0  0  0
    4.7285    2.0685   -4.6938 H   0  0  0  0  0  0  0  0  0  0  0  0
    4.8738    1.1129   -3.2053 H   0  0  0  0  0  0  0  0  0  0  0  0
    0.9172    3.4282   -4.1287 N   0  0  0  0  0  0  0  0  0  0  0  0
   -0.0833    3.9419   -5.0541 C   0  0  0  0  0  0  0  0  0  0  0  0
    0.8020    3.5807   -3.1234 H   0  0  0  0  0  0  0  0  0  0  0  0
    0.3877    4.5714   -5.8163 H   0  0  0  0  0  0  0  0  0  0  0  0
   -0.6058    3.1175   -5.5504 H   0  0  0  0  0  0  0  0  0  0  0  0
   -0.8202    4.5455   -4.5156 H   0  0  0  0  0  0  0  0  0  0  0  0
  1  2  2  0  0  0  0
  1  3  1  0  0  0  0
  1  7  1  0  0  0  0
  3  4  1  0  0  0  0
  3  5  1  0  0  0  0
  3  6  1  0  0  0  0
  7  8  1  0  0  0  0
  7 12  1  0  0  0  0
  8  9  1  0  0  0  0
  8 11  1  0  0  0  0
  8 13  1  0  0  0  0
  9 10  2  0  0  0  0
  9 17  1  0  0  0  0
 11 14  1  0  0  0  0
 11 15  1  0  0  0  0
 11 16  1  0  0  0  0
 17 18  1  0  0  0  0
 17 28  1  0  0  0  0
 18 19  1  0  0  0  0
 18 21  1  0  0  0  0
 18 29  1  0  0  0  0
 19 20  2  0  0  0  0
 19 37  1  0  0  0  0
 21 22  1  0  0  0  0
 21 30  1  0  0  0  0
 21 31  1  0  0  0  0
 22 23  1  0  0  0  0
 22 24  2  0  0  0  0
 23 25  2  0  0  0  0
 23 32  1  0  0  0  0
 24 26  1  0  0  0  0
 24 33  1  0  0  0  0
 25 27  1  0  0  0  0
 25 34  1  0  0  0  0
 26 27  2  0  0  0  0
 26 35  1  0  0  0  0
 27 36  1  0  0  0  0
 37 38  1  0  0  0  0
 37 42  1  0  0  0  0
 38 39  1  0  0  0  0
 38 41  1  0  0  0  0
 38 43  1  0  0  0  0
 39 40  2  0  0  0  0
 39 47  1  0  0  0  0
 41 44  1  0  0  0  0
 41 45  1  0  0  0  0
 41 46  1  0  0  0  0
 47 48  1  0  0  0  0
 47 49  1  0  0  0  0
 48 50  1  0  0  0  0
 48 51  1  0  0  0  0
 48 52  1  0  0  0  0
M  END
$$$$

  -OEChem-05262217163D

 52 52  0     1  0  0  0  0  0999 V2000
   -2.9075    0.2473    3.0272 C   0  0  0  0  0  0  0  0  0  0  0  0
   -3.4687    0.3922    1.9511 O   0  0  0  0  0  0  0  0  0  0  0  0
   -3.2932   -0.9050    3.9358 C   0  0  0  0  0  0  0  0  0  0  0  0
   -4.1236   -1.4674    3.4998 H   0  0  0  0  0  0  0  0  0  0  0  0
   -2.4411   -1.5771    4.0652 H   0  0  0  0  0  0  0  0  0  0  0  0
   -3.6006   -0.5244    4.9129 H   0  0  0  0  0  0  0  0  0  0  0  0
   -1.8921    1.1027    3.4025 N   0  0  0  0  0  0  0  0  0  0  0  0
   -1.2551    2.0230    2.4528 C   0  0  2  0  0  0  0  0  0  0  0  0
   -0.1171    1.3146    1.6923 C   0  0  0  0  0  0  0  0  0  0  0  0
    0.7976    0.7907    2.3195 O   0  0  0  0  0  0  0  0  0  0  0  0
   -0.7293    3.2316    3.2309 C   0  0  0  0  0  0  0  0  0  0  0  0
   -1.3231    0.7903    4.1853 H   0  0  0  0  0  0  0  0  0  0  0  0
   -1.9876    2.3860    1.7242 H   0  0  0  0  0  0  0  0  0  0  0  0
    0.0071    2.9194    3.9785 H   0  0  0  0  0  0  0  0  0  0  0  0
   -0.2507    3.9419    2.5494 H   0  0  0  0  0  0  0  0  0  0  0  0
   -1.5519    3.7412    3.7419 H   0  0  0  0  0  0  0  0  0  0  0  0
   -0.1514    1.2322    0.3135 N   0  0  0  0  0  0  0  0  0  0  0  0
    0.8811    0.5704   -0.5024 C   0  0  2  0  0  0  0  0  0  0  0  0
    1.5369    1.5644   -1.4922 C   0  0  0  0  0  0  0  0  0  0  0  0
    1.5298    2.7696   -1.2621 O   0  0  0  0  0  0  0  0  0  0  0  0
    0.2099   -0.6172   -1.2246 C   0  0  0  0  0  0  0  0  0  0  0  0
   -0.2196   -1.6887   -0.2492 C   0  0  0  0  0  0  0  0  0  0  0  0
    0.7040   -2.6239    0.2424 C   0  0  0  0  0  0  0  0  0  0  0  0
   -1.5540   -1.7628    0.1783 C   0  0  0  0  0  0  0  0  0  0  0  0
    0.2992   -3.6152    1.1439 C   0  0  0  0  0  0  0  0  0  0  0  0
   -1.9603   -2.7544    1.0760 C   0  0  0  0  0  0  0  0  0  0  0  0
   -1.0337   -3.6817    1.5605 C   0  0  0  0  0  0  0  0  0  0  0  0
   -0.9085    1.7180   -0.1586 H   0  0  0  0  0  0  0  0  0  0  0  0
    1.6901    0.1843    0.1265 H   0  0  0  0  0  0  0  0  0  0  0  0
    0.9076   -1.0731   -1.9325 H   0  0  0  0  0  0  0  0  0  0  0  0
   -0.6523   -0.2625   -1.7993 H   0  0  0  0  0  0  0  0  0  0  0  0
    1.7432   -2.5821   -0.0689 H   0  0  0  0  0  0  0  0  0  0  0  0
   -2.2856   -1.0429   -0.1779 H   0  0  0  0  0  0  0  0  0  0  0  0
    1.0219   -4.3325    1.5208 H   0  0  0  0  0  0  0  0  0  0  0  0
   -2.9978   -2.7967    1.3945 H   0  0  0  0  0  0  0  0  0  0  0  0
   -1.3482   -4.4515    2.2590 H   0  0  0  0  0  0  0  0  0  0  0  0
    2.0411    1.1525   -2.7150 N   0  0  0  0  0  0  0  0  0  0  0  0
    2.6175    2.0564   -3.7233 C   0  0  2  0  0  0  0  0  0  0  0  0
    1.5316    2.8064   -4.5323 C   0  0  0  0  0  0  0  0  0  0  0  0
    1.3641    2.6057   -5.7291 O   0  0  0  0  0  0  0  0  0  0  0  0
    3.5503    1.2221   -4.6096 C   0  0  0  0  0  0  0  0  0  0  0  0
    1.9540    0.1685   -2.9500 H   0  0  0  0  0  0  0  0  0  0  0  0
    3.2285    2.8170   -3.2251 H   0  0  0  0  0  0  0  0  0  0  0  0
    2.9898    0.4415   -5.1339 H   0  0  0  0  0  0  0  0  0  0  0  0
    4.0335    1.8606   -5.3562 H   0  0  0  0  0  0  0  0  0  0  0  0
    4.3299    0.7491   -4.0048 H   0  0  0  0  0  0  0  0  0  0  0  0
    0.7196    3.7135   -3.8814 N   0  0  0  0  0  0  0  0  0  0  0  0
   -0.3743    4.4334   -4.5186 C   0  0  0  0  0  0  0  0  0  0  0  0
    0.8446    3.7795   -2.8676 H   0  0  0  0  0  0  0  0  0  0  0  0
   -0.0108    4.9962   -5.3848 H   0  0  0  0  0  0  0  0  0  0  0  0
   -1.1489    3.7349   -4.8512 H   0  0  0  0  0  0  0  0  0  0  0  0
   -0.8217    5.1399   -3.8130 H   0  0  0  0  0  0  0  0  0  0  0  0
  1  2  2  0  0  0  0
  1  3  1  0  0  0  0
  1  7  1  0  0  0  0
  3  4  1  0  0  0  0
  3  5  1  0  0  0  0
  3  6  1  0  0  0  0
  7  8  1  0  0  0  0
  7 12  1  0  0  0  0
  8  9  1  0  0  0  0
  8 11  1  0  0  0  0
  8 13  1  0  0  0  0
  9 10  2  0  0  0  0
  9 17  1  0  0  0  0
 11 14  1  0  0  0  0
 11 15  1  0  0  0  0
 11 16  1  0  0  0  0
 17 18  1  0  0  0  0
 17 28  1  0  0  0  0
 18 19  1  0  0  0  0
 18 21  1  0  0  0  0
 18 29  1  0  0  0  0
 19 20  2  0  0  0  0
 19 37  1  0  0  0  0
 21 22  1  0  0  0  0
 21 30  1  0  0  0  0
 21 31  1  0  0  0  0
 22 23  1  0  0  0  0
 22 24  2  0  0  0  0
 23 25  2  0  0  0  0
 23 32  1  0  0  0  0
 24 26  1  0  0  0  0
 24 33  1  0  0  0  0
 25 27  1  0  0  0  0
 25 34  1  0  0  0  0
 26 27  2  0  0  0  0
 26 35  1  0  0  0  0
 27 36  1  0  0  0  0
 37 38  1  0  0  0  0
 37 42  1  0  0  0  0
 38 39  1  0  0  0  0
 38 41  1  0  0  0  0
 38 43  1  0  0  0  0
 39 40  2  0  0  0  0
 39 47  1  0  0  0  0
 41 44  1  0  0  0  0
 41 45  1  0  0  0  0
 41 46  1  0  0  0  0
 47 48  1  0  0  0  0
 47 49  1  0  0  0  0
 48 50  1  0  0  0  0
 48 51  1  0  0  0  0
 48 52  1  0  0  0  0
M  END
$$$$

  -OEChem-05262217163D

 52 52  0     1  0  0  0  0  0999 V2000
   -2.8884    0.3195    2.9824 C   0  0  0  0  0  0  0  0  0  0  0  0
   -3.4271    0.4236    1.8899 O   0  0  0  0  0  0  0  0  0  0  0  0
   -3.2900   -0.7989    3.9252 C   0  0  0  0  0  0  0  0  0  0  0  0
   -4.1386   -1.3524    3.5139 H   0  0  0  0  0  0  0  0  0  0  0  0
   -2.4521   -1.4873    4.0626 H   0  0  0  0  0  0  0  0  0  0  0  0
   -3.5764   -0.3857    4.8953 H   0  0  0  0  0  0  0  0  0  0  0  0
   -1.8808    1.1887    3.3460 N   0  0  0  0  0  0  0  0  0  0  0  0
   -1.2293    2.0742    2.3740 C   0  0  2  0  0  0  0  0  0  0  0  0
   -0.1072    1.3295    1.6246 C   0  0  0  0  0  0  0  0  0  0  0  0
    0.8170    0.8288    2.2561 O   0  0  0  0  0  0  0  0  0  0  0  0
   -0.6792    3.2917    3.1207 C   0  0  0  0  0  0  0  0  0  0  0  0
   -1.3287    0.9093    4.1531 H   0  0  0  0  0  0  0  0  0  0  0  0
   -1.9586    2.4336    1.6404 H   0  0  0  0  0  0  0  0  0  0  0  0
    0.0553    2.9850    3.8723 H   0  0  0  0  0  0  0  0  0  0  0  0
   -0.1913    3.9762    2.4196 H   0  0  0  0  0  0  0  0  0  0  0  0
   -1.4903    3.8281    3.6226 H   0  0  0  0  0  0  0  0  0  0  0  0
   -0.1630    1.2021    0.2496 N   0  0  0  0  0  0  0  0  0  0  0  0
    0.8560    0.5143   -0.5614 C   0  0  2  0  0  0  0  0  0  0  0  0
    1.4863    1.4861   -1.5877 C   0  0  0  0  0  0  0  0  0  0  0  0
    1.7238    2.6468   -1.2715 O   0  0  0  0  0  0  0  0  0  0  0  0
    0.1923   -0.7079   -1.2300 C   0  0  0  0  0  0  0  0  0  0  0  0
   -0.2069   -1.7475   -0.2092 C   0  0  0  0  0  0  0  0  0  0  0  0
    0.7391   -2.6489    0.3018 C   0  0  0  0  0  0  0  0  0  0  0  0
   -1.5347   -1.8299    0.2371 C   0  0  0  0  0  0  0  0  0  0  0  0
    0.3645   -3.6120    1.2457 C   0  0  0  0  0  0  0  0  0  0  0  0
   -1.9116   -2.7950    1.1756 C   0  0  0  0  0  0  0  0  0  0  0  0
   -0.9617   -3.6860    1.6825 C   0  0  0  0  0  0  0  0  0  0  0  0
   -0.9593    1.6249   -0.2184 H   0  0  0  0  0  0  0  0  0  0  0  0
    1.6806    0.1585    0.0655 H   0  0  0  0  0  0  0  0  0  0  0  0
    0.8905   -1.1778   -1.9292 H   0  0  0  0  0  0  0  0  0  0  0  0
   -0.6835   -0.3874   -1.8042 H   0  0  0  0  0  0  0  0  0  0  0  0
    1.7732   -2.5993   -0.0250 H   0  0  0  0  0  0  0  0  0  0  0  0
   -2.2840   -1.1380   -0.1372 H   0  0  0  0  0  0  0  0  0  0  0  0
    1.1057   -4.3006    1.6406 H   0  0  0  0  0  0  0  0  0  0  0  0
   -2.9440   -2.8458    1.5086 H   0  0  0  0  0  0  0  0  0  0  0  0
   -1.2522   -4.4339    2.4141 H   0  0  0  0  0  0  0  0  0  0  0  0
    1.6932    1.1314   -2.9110 N   0  0  0  0  0  0  0  0  0  0  0  0
    2.2094    2.0463   -3.9418 C   0  0  2  0  0  0  0  0  0  0  0  0
    1.1232    3.0184   -4.4628 C   0  0  0  0  0  0  0  0  0  0  0  0
    0.7206    2.9765   -5.6190 O   0  0  0  0  0  0  0  0  0  0  0  0
    2.8234    1.1877   -5.0541 C   0  0  0  0  0  0  0  0  0  0  0  0
    1.3803    0.2103   -3.2027 H   0  0  0  0  0  0  0  0  0  0  0  0
    3.0119    2.6593   -3.5169 H   0  0  0  0  0  0  0  0  0  0  0  0
    2.0609    0.5560   -5.5213 H   0  0  0  0  0  0  0  0  0  0  0  0
    3.2624    1.8277   -5.8264 H   0  0  0  0  0  0  0  0  0  0  0  0
    3.6120    0.5462   -4.6494 H   0  0  0  0  0  0  0  0  0  0  0  0
    0.5766    3.9402   -3.5925 N   0  0  0  0  0  0  0  0  0  0  0  0
   -0.4919    4.8640   -3.9469 C   0  0  0  0  0  0  0  0  0  0  0  0
    0.8967    3.8855   -2.6216 H   0  0  0  0  0  0  0  0  0  0  0  0
   -0.1947    5.4841   -4.7990 H   0  0  0  0  0  0  0  0  0  0  0  0
   -1.4013    4.3142   -4.2105 H   0  0  0  0  0  0  0  0  0  0  0  0
   -0.7160    5.5230   -3.1027 H   0  0  0  0  0  0  0  0  0  0  0  0
  1  2  2  0  0  0  0
  1  3  1  0  0  0  0
  1  7  1  0  0  0  0
  3  4  1  0  0  0  0
  3  5  1  0  0  0  0
  3  6  1  0  0  0  0
  7  8  1  0  0  0  0
  7 12  1  0  0  0  0
  8  9  1  0  0  0  0
  8 11  1  0  0  0  0
  8 13  1  0  0  0  0
  9 10  2  0  0  0  0
  9 17  1  0  0  0  0
 11 14  1  0  0  0  0
 11 15  1  0  0  0  0
 11 16  1  0  0  0  0
 17 18  1  0  0  0  0
 17 28  1  0  0  0  0
 18 19  1  0  0  0  0
 18 21  1  0  0  0  0
 18 29  1  0  0  0  0
 19 20  2  0  0  0  0
 19 37  1  0  0  0  0
 21 22  1  0  0  0  0
 21 30  1  0  0  0  0
 21 31  1  0  0  0  0
 22 23  1  0  0  0  0
 22 24  2  0  0  0  0
 23 25  2  0  0  0  0
 23 32  1  0  0  0  0
 24 26  1  0  0  0  0
 24 33  1  0  0  0  0
 25 27  1  0  0  0  0
 25 34  1  0  0  0  0
 26 27  2  0  0  0  0
 26 35  1  0  0  0  0
 27 36  1  0  0  0  0
 37 38  1  0  0  0  0
 37 42  1  0  0  0  0
 38 39  1  0  0  0  0
 38 41  1  0  0  0  0
 38 43  1  0  0  0  0
 39 40  2  0  0  0  0
 39 47  1  0  0  0  0
 41 44  1  0  0  0  0
 41 45  1  0  0  0  0
 41 46  1  0  0  0  0
 47 48  1  0  0  0  0
 47 49  1  0  0  0  0
 48 50  1  0  0  0  0
 48 51  1  0  0  0  0
 48 52  1  0  0  0  0
M  END
$$$$

  -OEChem-05262217163D

 52 52  0     1  0  0  0  0  0999 V2000
   -2.8565    0.3293    2.9913 C   0  0  0  0  0  0  0  0  0  0  0  0
   -3.4088    0.4031    1.9031 O   0  0  0  0  0  0  0  0  0  0  0  0
   -3.2511   -0.7573    3.9732 C   0  0  0  0  0  0  0  0  0  0  0  0
   -4.0950   -1.3318    3.5813 H   0  0  0  0  0  0  0  0  0  0  0  0
   -2.4085   -1.4338    4.1375 H   0  0  0  0  0  0  0  0  0  0  0  0
   -3.5422   -0.3109    4.9271 H   0  0  0  0  0  0  0  0  0  0  0  0
   -1.8462    1.2104    3.3169 N   0  0  0  0  0  0  0  0  0  0  0  0
   -1.2264    2.0919    2.3209 C   0  0  2  0  0  0  0  0  0  0  0  0
   -0.1026    1.3577    1.5626 C   0  0  0  0  0  0  0  0  0  0  0  0
    0.8492    0.8983    2.1837 O   0  0  0  0  0  0  0  0  0  0  0  0
   -0.6892    3.3312    3.0417 C   0  0  0  0  0  0  0  0  0  0  0  0
   -1.2786    0.9551    4.1212 H   0  0  0  0  0  0  0  0  0  0  0  0
   -1.9745    2.4264    1.5946 H   0  0  0  0  0  0  0  0  0  0  0  0
    0.0619    3.0498    3.7869 H   0  0  0  0  0  0  0  0  0  0  0  0
   -0.2249    4.0155    2.3243 H   0  0  0  0  0  0  0  0  0  0  0  0
   -1.5034    3.8589    3.5479 H   0  0  0  0  0  0  0  0  0  0  0  0
   -0.1879    1.1941    0.1923 N   0  0  0  0  0  0  0  0  0  0  0  0
    0.8176    0.4921   -0.6245 C   0  0  2  0  0  0  0  0  0  0  0  0
    1.4175    1.4394   -1.6884 C   0  0  0  0  0  0  0  0  0  0  0  0
    1.8987    2.5141   -1.3498 O   0  0  0  0  0  0  0  0  0  0  0  0
    0.1597   -0.7574   -1.2452 C   0  0  0  0  0  0  0  0  0  0  0  0
   -0.2004   -1.7746   -0.1889 C   0  0  0  0  0  0  0  0  0  0  0  0
    0.7717   -2.6465    0.3238 C   0  0  0  0  0  0  0  0  0  0  0  0
   -1.5139   -1.8599    0.2966 C   0  0  0  0  0  0  0  0  0  0  0  0
    0.4362   -3.5856    1.3054 C   0  0  0  0  0  0  0  0  0  0  0  0
   -1.8514   -2.8000    1.2746 C   0  0  0  0  0  0  0  0  0  0  0  0
   -0.8763   -3.6635    1.7812 C   0  0  0  0  0  0  0  0  0  0  0  0
   -1.0308    1.5395   -0.2575 H   0  0  0  0  0  0  0  0  0  0  0  0
    1.6597    0.1630   -0.0059 H   0  0  0  0  0  0  0  0  0  0  0  0
    0.8527   -1.2297   -1.9489 H   0  0  0  0  0  0  0  0  0  0  0  0
   -0.7353   -0.4687   -1.8063 H   0  0  0  0  0  0  0  0  0  0  0  0
    1.7958   -2.5939   -0.0327 H   0  0  0  0  0  0  0  0  0  0  0  0
   -2.2822   -1.1884   -0.0761 H   0  0  0  0  0  0  0  0  0  0  0  0
    1.1971   -4.2525    1.6998 H   0  0  0  0  0  0  0  0  0  0  0  0
   -2.8729   -2.8518    1.6388 H   0  0  0  0  0  0  0  0  0  0  0  0
   -1.1366   -4.3921    2.5431 H   0  0  0  0  0  0  0  0  0  0  0  0
    1.3204    1.1787   -3.0461 N   0  0  0  0  0  0  0  0  0  0  0  0
    1.7687    2.1036   -4.0994 C   0  0  2  0  0  0  0  0  0  0  0  0
    0.7698    3.2646   -4.3228 C   0  0  0  0  0  0  0  0  0  0  0  0
    0.1481    3.3884   -5.3709 O   0  0  0  0  0  0  0  0  0  0  0  0
    2.0143    1.2760   -5.3672 C   0  0  0  0  0  0  0  0  0  0  0  0
    0.8044    0.3497   -3.3259 H   0  0  0  0  0  0  0  0  0  0  0  0
    2.7242    2.5535   -3.8086 H   0  0  0  0  0  0  0  0  0  0  0  0
    1.0873    0.8016   -5.7050 H   0  0  0  0  0  0  0  0  0  0  0  0
    2.3861    1.9186   -6.1718 H   0  0  0  0  0  0  0  0  0  0  0  0
    2.7590    0.4971   -5.1769 H   0  0  0  0  0  0  0  0  0  0  0  0
    0.5547    4.1681   -3.3013 N   0  0  0  0  0  0  0  0  0  0  0  0
   -0.4009    5.2647   -3.3681 C   0  0  0  0  0  0  0  0  0  0  0  0
    1.0419    3.9753   -2.4215 H   0  0  0  0  0  0  0  0  0  0  0  0
   -0.1727    5.9208   -4.2147 H   0  0  0  0  0  0  0  0  0  0  0  0
   -1.4189    4.8790   -3.4851 H   0  0  0  0  0  0  0  0  0  0  0  0
   -0.3574    5.8589   -2.4502 H   0  0  0  0  0  0  0  0  0  0  0  0
  1  2  2  0  0  0  0
  1  3  1  0  0  0  0
  1  7  1  0  0  0  0
  3  4  1  0  0  0  0
  3  5  1  0  0  0  0
  3  6  1  0  0  0  0
  7  8  1  0  0  0  0
  7 12  1  0  0  0  0
  8  9  1  0  0  0  0
  8 11  1  0  0  0  0
  8 13  1  0  0  0  0
  9 10  2  0  0  0  0
  9 17  1  0  0  0  0
 11 14  1  0  0  0  0
 11 15  1  0  0  0  0
 11 16  1  0  0  0  0
 17 18  1  0  0  0  0
 17 28  1  0  0  0  0
 18 19  1  0  0  0  0
 18 21  1  0  0  0  0
 18 29  1  0  0  0  0
 19 20  2  0  0  0  0
 19 37  1  0  0  0  0
 21 22  1  0  0  0  0
 21 30  1  0  0  0  0
 21 31  1  0  0  0  0
 22 23  1  0  0  0  0
 22 24  2  0  0  0  0
 23 25  2  0  0  0  0
 23 32  1  0  0  0  0
 24 26  1  0  0  0  0
 24 33  1  0  0  0  0
 25 27  1  0  0  0  0
 25 34  1  0  0  0  0
 26 27  2  0  0  0  0
 26 35  1  0  0  0  0
 27 36  1  0  0  0  0
 37 38  1  0  0  0  0
 37 42  1  0  0  0  0
 38 39  1  0  0  0  0
 38 41  1  0  0  0  0
 38 43  1  0  0  0  0
 39 40  2  0  0  0  0
 39 47  1  0  0  0  0
 41 44  1  0  0  0  0
 41 45  1  0  0  0  0
 41 46  1  0  0  0  0
 47 48  1  0  0  0  0
 47 49  1  0  0  0  0
 48 50  1  0  0  0  0
 48 51  1  0  0  0  0
 48 52  1  0  0  0  0
M  END
$$$$

  -OEChem-05262217163D

 52 52  0     1  0  0  0  0  0999 V2000
   -2.9110    0.9742    1.9506 C   0  0  0  0  0  0  0  0  0  0  0  0
   -2.8345    1.3893    0.8030 O   0  0  0  0  0  0  0  0  0  0  0  0
   -4.0541    0.0639    2.3577 C   0  0  0  0  0  0  0  0  0  0  0  0
   -4.7033   -0.1329    1.4998 H   0  0  0  0  0  0  0  0  0  0  0  0
   -3.6632   -0.8865    2.7285 H   0  0  0  0  0  0  0  0  0  0  0  0
   -4.6458    0.5381    3.1446 H   0  0  0  0  0  0  0  0  0  0  0  0
   -1.9229    1.2889    2.8600 N   0  0  0  0  0  0  0  0  0  0  0  0
   -0.7696    2.1494    2.5573 C   0  0  2  0  0  0  0  0  0  0  0  0
    0.2953    1.4375    1.6885 C   0  0  0  0  0  0  0  0  0  0  0  0
    1.3804    1.1074    2.1512 O   0  0  0  0  0  0  0  0  0  0  0  0
   -0.2074    2.6499    3.8934 C   0  0  0  0  0  0  0  0  0  0  0  0
   -1.9607    0.8338    3.7678 H   0  0  0  0  0  0  0  0  0  0  0  0
   -1.1092    3.0250    1.9934 H   0  0  0  0  0  0  0  0  0  0  0  0
    0.1439    1.8115    4.5037 H   0  0  0  0  0  0  0  0  0  0  0  0
    0.6355    3.3261    3.7183 H   0  0  0  0  0  0  0  0  0  0  0  0
   -0.9755    3.1939    4.4514 H   0  0  0  0  0  0  0  0  0  0  0  0
    0.0002    1.1827    0.3625 N   0  0  0  0  0  0  0  0  0  0  0  0
    0.8890    0.4805   -0.5773 C   0  0  2  0  0  0  0  0  0  0  0  0
    1.2426    1.3942   -1.7708 C   0  0  0  0  0  0  0  0  0  0  0  0
    1.9972    2.3463   -1.6154 O   0  0  0  0  0  0  0  0  0  0  0  0
    0.2208   -0.8307   -1.0354 C   0  0  0  0  0  0  0  0  0  0  0  0
    0.0916   -1.8165    0.1008 C   0  0  0  0  0  0  0  0  0  0  0  0
    1.1820   -2.6091    0.4873 C   0  0  0  0  0  0  0  0  0  0  0  0
   -1.1364   -1.9792    0.7591 C   0  0  0  0  0  0  0  0  0  0  0  0
    1.0526   -3.5344    1.5288 C   0  0  0  0  0  0  0  0  0  0  0  0
   -1.2701   -2.9087    1.7963 C   0  0  0  0  0  0  0  0  0  0  0  0
   -0.1736   -3.6848    2.1838 C   0  0  0  0  0  0  0  0  0  0  0  0
   -0.9635    1.3835    0.0836 H   0  0  0  0  0  0  0  0  0  0  0  0
    1.8398    0.2286   -0.0947 H   0  0  0  0  0  0  0  0  0  0  0  0
    0.8223   -1.2906   -1.8266 H   0  0  0  0  0  0  0  0  0  0  0  0
   -0.7682   -0.6178   -1.4544 H   0  0  0  0  0  0  0  0  0  0  0  0
    2.1398   -2.5000   -0.0120 H   0  0  0  0  0  0  0  0  0  0  0  0
   -1.9926   -1.3845    0.4564 H   0  0  0  0  0  0  0  0  0  0  0  0
    1.9066   -4.1348    1.8289 H   0  0  0  0  0  0  0  0  0  0  0  0
   -2.2248   -3.0338    2.2972 H   0  0  0  0  0  0  0  0  0  0  0  0
   -0.2724   -4.4058    2.9902 H   0  0  0  0  0  0  0  0  0  0  0  0
    0.6744    1.2170   -3.0224 N   0  0  0  0  0  0  0  0  0  0  0  0
    0.9118    2.1061   -4.1708 C   0  0  2  0  0  0  0  0  0  0  0  0
    0.1162    3.4305   -4.0689 C   0  0  0  0  0  0  0  0  0  0  0  0
   -0.7512    3.7260   -4.8823 O   0  0  0  0  0  0  0  0  0  0  0  0
    0.5862    1.3114   -5.4419 C   0  0  0  0  0  0  0  0  0  0  0  0
   -0.0637    0.5238   -3.0995 H   0  0  0  0  0  0  0  0  0  0  0  0
    1.9733    2.3736   -4.2106 H   0  0  0  0  0  0  0  0  0  0  0  0
   -0.4679    1.0160   -5.4546 H   0  0  0  0  0  0  0  0  0  0  0  0
    0.7845    1.9206   -6.3296 H   0  0  0  0  0  0  0  0  0  0  0  0
    1.2044    0.4102   -5.4978 H   0  0  0  0  0  0  0  0  0  0  0  0
    0.3871    4.2982   -3.0301 N   0  0  0  0  0  0  0  0  0  0  0  0
   -0.3214    5.5505   -2.8064 C   0  0  0  0  0  0  0  0  0  0  0  0
    1.0711    3.9746   -2.3401 H   0  0  0  0  0  0  0  0  0  0  0  0
   -0.2132    6.2111   -3.6730 H   0  0  0  0  0  0  0  0  0  0  0  0
   -1.3866    5.3632   -2.6360 H   0  0  0  0  0  0  0  0  0  0  0  0
    0.0860    6.0620   -1.9291 H   0  0  0  0  0  0  0  0  0  0  0  0
  1  2  2  0  0  0  0
  1  3  1  0  0  0  0
  1  7  1  0  0  0  0
  3  4  1  0  0  0  0
  3  5  1  0  0  0  0
  3  6  1  0  0  0  0
  7  8  1  0  0  0  0
  7 12  1  0  0  0  0
  8  9  1  0  0  0  0
  8 11  1  0  0  0  0
  8 13  1  0  0  0  0
  9 10  2  0  0  0  0
  9 17  1  0  0  0  0
 11 14  1  0  0  0  0
 11 15  1  0  0  0  0
 11 16  1  0  0  0  0
 17 18  1  0  0  0  0
 17 28  1  0  0  0  0
 18 19  1  0  0  0  0
 18 21  1  0  0  0  0
 18 29  1  0  0  0  0
 19 20  2  0  0  0  0
 19 37  1  0  0  0  0
 21 22  1  0  0  0  0
 21 30  1  0  0  0  0
 21 31  1  0  0  0  0
 22 23  1  0  0  0  0
 22 24  2  0  0  0  0
 23 25  2  0  0  0  0
 23 32  1  0  0  0  0
 24 26  1  0  0  0  0
 24 33  1  0  0  0  0
 25 27  1  0  0  0  0
 25 34  1  0  0  0  0
 26 27  2  0  0  0  0
 26 35  1  0  0  0  0
 27 36  1  0  0  0  0
 37 38  1  0  0  0  0
 37 42  1  0  0  0  0
 38 39  1  0  0  0  0
 38 41  1  0  0  0  0
 38 43  1  0  0  0  0
 39 40  2  0  0  0  0
 39 47  1  0  0  0  0
 41 44  1  0  0  0  0
 41 45  1  0  0  0  0
 41 46  1  0  0  0  0
 47 48  1  0  0  0  0
 47 49  1  0  0  0  0
 48 50  1  0  0  0  0
 48 51  1  0  0  0  0
 48 52  1  0  0  0  0
M  END
$$$$

  -OEChem-05262217163D

 52 52  0     1  0  0  0  0  0999 V2000
   -2.9161    0.8888    2.0207 C   0  0  0  0  0  0  0  0  0  0  0  0
   -2.8838    1.2631    0.8568 O   0  0  0  0  0  0  0  0  0  0  0  0
   -4.0207   -0.0356    2.4968 C   0  0  0  0  0  0  0  0  0  0  0  0
   -4.6872   -0.2866    1.6669 H   0  0  0  0  0  0  0  0  0  0  0  0
   -3.5919   -0.9579    2.8956 H   0  0  0  0  0  0  0  0  0  0  0  0
   -4.6041    0.4543    3.2803 H   0  0  0  0  0  0  0  0  0  0  0  0
   -1.9137    1.2663    2.8896 N   0  0  0  0  0  0  0  0  0  0  0  0
   -0.8087    2.1689    2.5344 C   0  0  2  0  0  0  0  0  0  0  0  0
    0.2603    1.4884    1.6456 C   0  0  0  0  0  0  0  0  0  0  0  0
    1.3752    1.2238    2.0776 O   0  0  0  0  0  0  0  0  0  0  0  0
   -0.2282    2.7176    3.8441 C   0  0  0  0  0  0  0  0  0  0  0  0
   -1.9175    0.8498    3.8164 H   0  0  0  0  0  0  0  0  0  0  0  0
   -1.2035    3.0179    1.9659 H   0  0  0  0  0  0  0  0  0  0  0  0
    0.1775    1.9059    4.4568 H   0  0  0  0  0  0  0  0  0  0  0  0
    0.5790    3.4263    3.6324 H   0  0  0  0  0  0  0  0  0  0  0  0
   -1.0017    3.2375    4.4174 H   0  0  0  0  0  0  0  0  0  0  0  0
   -0.0590    1.2044    0.3311 N   0  0  0  0  0  0  0  0  0  0  0  0
    0.8242    0.5018   -0.6137 C   0  0  2  0  0  0  0  0  0  0  0  0
    1.1349    1.3989   -1.8280 C   0  0  0  0  0  0  0  0  0  0  0  0
    2.0734    2.1845   -1.7917 O   0  0  0  0  0  0  0  0  0  0  0  0
    0.1755   -0.8253   -1.0516 C   0  0  0  0  0  0  0  0  0  0  0  0
    0.0794   -1.8020    0.0951 C   0  0  0  0  0  0  0  0  0  0  0  0
    1.1918   -2.5678    0.4718 C   0  0  0  0  0  0  0  0  0  0  0  0
   -1.1352   -1.9850    0.7726 C   0  0  0  0  0  0  0  0  0  0  0  0
    1.0985   -3.4846    1.5243 C   0  0  0  0  0  0  0  0  0  0  0  0
   -1.2324   -2.9059    1.8215 C   0  0  0  0  0  0  0  0  0  0  0  0
   -0.1135   -3.6535    2.2003 C   0  0  0  0  0  0  0  0  0  0  0  0
   -1.0444    1.3345    0.0884 H   0  0  0  0  0  0  0  0  0  0  0  0
    1.7875    0.2727   -0.1445 H   0  0  0  0  0  0  0  0  0  0  0  0
    0.7744   -1.2776   -1.8494 H   0  0  0  0  0  0  0  0  0  0  0  0
   -0.8234   -0.6367   -1.4581 H   0  0  0  0  0  0  0  0  0  0  0  0
    2.1392   -2.4433   -0.0443 H   0  0  0  0  0  0  0  0  0  0  0  0
   -2.0101   -1.4148    0.4761 H   0  0  0  0  0  0  0  0  0  0  0  0
    1.9698   -4.0637    1.8157 H   0  0  0  0  0  0  0  0  0  0  0  0
   -2.1764   -3.0472    2.3381 H   0  0  0  0  0  0  0  0  0  0  0  0
   -0.1843   -4.3674    3.0156 H   0  0  0  0  0  0  0  0  0  0  0  0
    0.3354    1.3885   -2.9590 N   0  0  0  0  0  0  0  0  0  0  0  0
    0.5256    2.2881   -4.1077 C   0  0  2  0  0  0  0  0  0  0  0  0
    0.0036    3.7190   -3.8291 C   0  0  0  0  0  0  0  0  0  0  0  0
   -0.9075    4.2115   -4.4839 O   0  0  0  0  0  0  0  0  0  0  0  0
   -0.1463    1.6327   -5.3205 C   0  0  0  0  0  0  0  0  0  0  0  0
   -0.5262    0.8530   -2.9080 H   0  0  0  0  0  0  0  0  0  0  0  0
    1.5947    2.3759   -4.3289 H   0  0  0  0  0  0  0  0  0  0  0  0
   -1.2241    1.5319   -5.1573 H   0  0  0  0  0  0  0  0  0  0  0  0
    0.0120    2.2427   -6.2157 H   0  0  0  0  0  0  0  0  0  0  0  0
    0.2765    0.6397   -5.5009 H   0  0  0  0  0  0  0  0  0  0  0  0
    0.5692    4.4534   -2.8058 N   0  0  0  0  0  0  0  0  0  0  0  0
    0.1247    5.7826   -2.4119 C   0  0  0  0  0  0  0  0  0  0  0  0
    1.2894    3.9781   -2.2543 H   0  0  0  0  0  0  0  0  0  0  0  0
    0.1907    6.4751   -3.2576 H   0  0  0  0  0  0  0  0  0  0  0  0
   -0.9118    5.7509   -2.0606 H   0  0  0  0  0  0  0  0  0  0  0  0
    0.7539    6.1654   -1.6027 H   0  0  0  0  0  0  0  0  0  0  0  0
  1  2  2  0  0  0  0
  1  3  1  0  0  0  0
  1  7  1  0  0  0  0
  3  4  1  0  0  0  0
  3  5  1  0  0  0  0
  3  6  1  0  0  0  0
  7  8  1  0  0  0  0
  7 12  1  0  0  0  0
  8  9  1  0  0  0  0
  8 11  1  0  0  0  0
  8 13  1  0  0  0  0
  9 10  2  0  0  0  0
  9 17  1  0  0  0  0
 11 14  1  0  0  0  0
 11 15  1  0  0  0  0
 11 16  1  0  0  0  0
 17 18  1  0  0  0  0
 17 28  1  0  0  0  0
 18 19  1  0  0  0  0
 18 21  1  0  0  0  0
 18 29  1  0  0  0  0
 19 20  2  0  0  0  0
 19 37  1  0  0  0  0
 21 22  1  0  0  0  0
 21 30  1  0  0  0  0
 21 31  1  0  0  0  0
 22 23  1  0  0  0  0
 22 24  2  0  0  0  0
 23 25  2  0  0  0  0
 23 32  1  0  0  0  0
 24 26  1  0  0  0  0
 24 33  1  0  0  0  0
 25 27  1  0  0  0  0
 25 34  1  0  0  0  0
 26 27  2  0  0  0  0
 26 35  1  0  0  0  0
 27 36  1  0  0  0  0
 37 38  1  0  0  0  0
 37 42  1  0  0  0  0
 38 39  1  0  0  0  0
 38 41  1  0  0  0  0
 38 43  1  0  0  0  0
 39 40  2  0  0  0  0
 39 47  1  0  0  0  0
 41 44  1  0  0  0  0
 41 45  1  0  0  0  0
 41 46  1  0  0  0  0
 47 48  1  0  0  0  0
 47 49  1  0  0  0  0
 48 50  1  0  0  0  0
 48 51  1  0  0  0  0
 48 52  1  0  0  0  0
M  END
$$$$

  -OEChem-05262217163D

 52 52  0     1  0  0  0  0  0999 V2000
   -2.9353    0.8284    2.0802 C   0  0  0  0  0  0  0  0  0  0  0  0
   -2.9304    1.2433    0.9296 O   0  0  0  0  0  0  0  0  0  0  0  0
   -4.0233   -0.1210    2.5447 C   0  0  0  0  0  0  0  0  0  0  0  0
   -4.7095   -0.3413    1.7220 H   0  0  0  0  0  0  0  0  0  0  0  0
   -3.5813   -1.0568    2.8946 H   0  0  0  0  0  0  0  0  0  0  0  0
   -4.5892    0.3331    3.3620 H   0  0  0  0  0  0  0  0  0  0  0  0
   -1.9170    1.1820    2.9407 N   0  0  0  0  0  0  0  0  0  0  0  0
   -0.8408    2.1283    2.6093 C   0  0  2  0  0  0  0  0  0  0  0  0
    0.2288    1.5219    1.6677 C   0  0  0  0  0  0  0  0  0  0  0  0
    1.3764    1.3250    2.0464 O   0  0  0  0  0  0  0  0  0  0  0  0
   -0.2512    2.6260    3.9354 C   0  0  0  0  0  0  0  0  0  0  0  0
   -1.9057    0.7414    3.8563 H   0  0  0  0  0  0  0  0  0  0  0  0
   -1.2680    2.9938    2.0915 H   0  0  0  0  0  0  0  0  0  0  0  0
    0.1971    1.7978    4.4941 H   0  0  0  0  0  0  0  0  0  0  0  0
    0.5246    3.3753    3.7473 H   0  0  0  0  0  0  0  0  0  0  0  0
   -1.0297    3.0847    4.5525 H   0  0  0  0  0  0  0  0  0  0  0  0
   -0.1291    1.2287    0.3652 N   0  0  0  0  0  0  0  0  0  0  0  0
    0.7377    0.5509   -0.6133 C   0  0  2  0  0  0  0  0  0  0  0  0
    0.9796    1.4537   -1.8369 C   0  0  0  0  0  0  0  0  0  0  0  0
    2.0544    2.0193   -1.9909 O   0  0  0  0  0  0  0  0  0  0  0  0
    0.1107   -0.7872   -1.0464 C   0  0  0  0  0  0  0  0  0  0  0  0
    0.0738   -1.7762    0.0937 C   0  0  0  0  0  0  0  0  0  0  0  0
    1.2163   -2.5164    0.4307 C   0  0  0  0  0  0  0  0  0  0  0  0
   -1.1153   -1.9966    0.8049 C   0  0  0  0  0  0  0  0  0  0  0  0
    1.1779   -3.4431    1.4780 C   0  0  0  0  0  0  0  0  0  0  0  0
   -1.1576   -2.9282    1.8481 C   0  0  0  0  0  0  0  0  0  0  0  0
   -0.0088   -3.6487    2.1880 C   0  0  0  0  0  0  0  0  0  0  0  0
   -1.1306    1.3057    0.1704 H   0  0  0  0  0  0  0  0  0  0  0  0
    1.7214    0.3432   -0.1770 H   0  0  0  0  0  0  0  0  0  0  0  0
    0.6980   -1.2147   -1.8664 H   0  0  0  0  0  0  0  0  0  0  0  0
   -0.9030   -0.6210   -1.4246 H   0  0  0  0  0  0  0  0  0  0  0  0
    2.1442   -2.3640   -0.1128 H   0  0  0  0  0  0  0  0  0  0  0  0
   -2.0124   -1.4469    0.5387 H   0  0  0  0  0  0  0  0  0  0  0  0
    2.0720   -4.0016    1.7391 H   0  0  0  0  0  0  0  0  0  0  0  0
   -2.0818   -3.0989    2.3911 H   0  0  0  0  0  0  0  0  0  0  0  0
   -0.0367   -4.3706    2.9990 H   0  0  0  0  0  0  0  0  0  0  0  0
   -0.0091    1.6471   -2.7869 N   0  0  0  0  0  0  0  0  0  0  0  0
    0.1331    2.5325   -3.9538 C   0  0  2  0  0  0  0  0  0  0  0  0
   -0.0103    4.0297   -3.5838 C   0  0  0  0  0  0  0  0  0  0  0  0
   -0.8896    4.7323   -4.0682 O   0  0  0  0  0  0  0  0  0  0  0  0
   -0.8891    2.0750   -5.0020 C   0  0  0  0  0  0  0  0  0  0  0  0
   -0.9351    1.2945   -2.5626 H   0  0  0  0  0  0  0  0  0  0  0  0
    1.1313    2.4064   -4.3869 H   0  0  0  0  0  0  0  0  0  0  0  0
   -1.9094    2.1935   -4.6235 H   0  0  0  0  0  0  0  0  0  0  0  0
   -0.7876    2.6706   -5.9150 H   0  0  0  0  0  0  0  0  0  0  0  0
   -0.7289    1.0232   -5.2573 H   0  0  0  0  0  0  0  0  0  0  0  0
    0.8729    4.5869   -2.6805 N   0  0  0  0  0  0  0  0  0  0  0  0
    0.8230    5.9721   -2.2351 C   0  0  0  0  0  0  0  0  0  0  0  0
    1.5683    3.9519   -2.2782 H   0  0  0  0  0  0  0  0  0  0  0  0
    0.9504    6.6516   -3.0842 H   0  0  0  0  0  0  0  0  0  0  0  0
   -0.1364    6.1848   -1.7526 H   0  0  0  0  0  0  0  0  0  0  0  0
    1.6237    6.1648   -1.5147 H   0  0  0  0  0  0  0  0  0  0  0  0
  1  2  2  0  0  0  0
  1  3  1  0  0  0  0
  1  7  1  0  0  0  0
  3  4  1  0  0  0  0
  3  5  1  0  0  0  0
  3  6  1  0  0  0  0
  7  8  1  0  0  0  0
  7 12  1  0  0  0  0
  8  9  1  0  0  0  0
  8 11  1  0  0  0  0
  8 13  1  0  0  0  0
  9 10  2  0  0  0  0
  9 17  1  0  0  0  0
 11 14  1  0  0  0  0
 11 15  1  0  0  0  0
 11 16  1  0  0  0  0
 17 18  1  0  0  0  0
 17 28  1  0  0  0  0
 18 19  1  0  0  0  0
 18 21  1  0  0  0  0
 18 29  1  0  0  0  0
 19 20  2  0  0  0  0
 19 37  1  0  0  0  0
 21 22  1  0  0  0  0
 21 30  1  0  0  0  0
 21 31  1  0  0  0  0
 22 23  1  0  0  0  0
 22 24  2  0  0  0  0
 23 25  2  0  0  0  0
 23 32  1  0  0  0  0
 24 26  1  0  0  0  0
 24 33  1  0  0  0  0
 25 27  1  0  0  0  0
 25 34  1  0  0  0  0
 26 27  2  0  0  0  0
 26 35  1  0  0  0  0
 27 36  1  0  0  0  0
 37 38  1  0  0  0  0
 37 42  1  0  0  0  0
 38 39  1  0  0  0  0
 38 41  1  0  0  0  0
 38 43  1  0  0  0  0
 39 40  2  0  0  0  0
 39 47  1  0  0  0  0
 41 44  1  0  0  0  0
 41 45  1  0  0  0  0
 41 46  1  0  0  0  0
 47 48  1  0  0  0  0
 47 49  1  0  0  0  0
 48 50  1  0  0  0  0
 48 51  1  0  0  0  0
 48 52  1  0  0  0  0
M  END
$$$$

  -OEChem-05262217163D

 52 52  0     1  0  0  0  0  0999 V2000
   -3.0049    0.7329    2.1197 C   0  0  0  0  0  0  0  0  0  0  0  0
   -3.0069    1.1904    0.9853 O   0  0  0  0  0  0  0  0  0  0  0  0
   -4.0743   -0.2545    2.5463 C   0  0  0  0  0  0  0  0  0  0  0  0
   -4.6927   -0.5357    1.6892 H   0  0  0  0  0  0  0  0  0  0  0  0
   -3.6124   -1.1555    2.9569 H   0  0  0  0  0  0  0  0  0  0  0  0
   -4.7137    0.1975    3.3087 H   0  0  0  0  0  0  0  0  0  0  0  0
   -1.9954    1.0751    2.9952 N   0  0  0  0  0  0  0  0  0  0  0  0
   -0.9515    2.0737    2.7149 C   0  0  2  0  0  0  0  0  0  0  0  0
    0.1430    1.5565    1.7484 C   0  0  0  0  0  0  0  0  0  0  0  0
    1.3096    1.4439    2.1019 O   0  0  0  0  0  0  0  0  0  0  0  0
   -0.3839    2.5245    4.0672 C   0  0  0  0  0  0  0  0  0  0  0  0
   -1.9840    0.6078    3.8975 H   0  0  0  0  0  0  0  0  0  0  0  0
   -1.4084    2.9484    2.2394 H   0  0  0  0  0  0  0  0  0  0  0  0
    0.0929    1.6854    4.5844 H   0  0  0  0  0  0  0  0  0  0  0  0
    0.3650    3.3097    3.9204 H   0  0  0  0  0  0  0  0  0  0  0  0
   -1.1796    2.9233    4.7039 H   0  0  0  0  0  0  0  0  0  0  0  0
   -0.2135    1.2597    0.4467 N   0  0  0  0  0  0  0  0  0  0  0  0
    0.6760    0.6385   -0.5491 C   0  0  2  0  0  0  0  0  0  0  0  0
    0.8614    1.5600   -1.7659 C   0  0  0  0  0  0  0  0  0  0  0  0
    1.9804    1.9030   -2.1257 O   0  0  0  0  0  0  0  0  0  0  0  0
    0.1082   -0.7150   -1.0084 C   0  0  0  0  0  0  0  0  0  0  0  0
    0.1207   -1.7266    0.1116 C   0  0  0  0  0  0  0  0  0  0  0  0
    1.2977   -2.4195    0.4278 C   0  0  0  0  0  0  0  0  0  0  0  0
   -1.0528   -2.0149    0.8239 C   0  0  0  0  0  0  0  0  0  0  0  0
    1.3084   -3.3686    1.4551 C   0  0  0  0  0  0  0  0  0  0  0  0
   -1.0454   -2.9669    1.8495 C   0  0  0  0  0  0  0  0  0  0  0  0
    0.1371   -3.6417    2.1680 C   0  0  0  0  0  0  0  0  0  0  0  0
   -1.2215    1.2652    0.2726 H   0  0  0  0  0  0  0  0  0  0  0  0
    1.6717    0.4696   -0.1231 H   0  0  0  0  0  0  0  0  0  0  0  0
    0.7117   -1.0986   -1.8383 H   0  0  0  0  0  0  0  0  0  0  0  0
   -0.9121   -0.5850   -1.3829 H   0  0  0  0  0  0  0  0  0  0  0  0
    2.2134   -2.2124   -0.1181 H   0  0  0  0  0  0  0  0  0  0  0  0
   -1.9764   -1.5039    0.5710 H   0  0  0  0  0  0  0  0  0  0  0  0
    2.2280   -3.8930    1.6979 H   0  0  0  0  0  0  0  0  0  0  0  0
   -1.9573   -3.1892    2.3943 H   0  0  0  0  0  0  0  0  0  0  0  0
    0.1476   -4.3813    2.9634 H   0  0  0  0  0  0  0  0  0  0  0  0
   -0.2293    1.9500   -2.5239 N   0  0  0  0  0  0  0  0  0  0  0  0
   -0.1414    2.8127   -3.7121 C   0  0  2  0  0  0  0  0  0  0  0  0
    0.0922    4.3009   -3.3528 C   0  0  0  0  0  0  0  0  0  0  0  0
   -0.7141    5.1717   -3.6579 O   0  0  0  0  0  0  0  0  0  0  0  0
   -1.4181    2.5894   -4.5323 C   0  0  0  0  0  0  0  0  0  0  0  0
   -1.1486    1.7553   -2.1369 H   0  0  0  0  0  0  0  0  0  0  0  0
    0.7079    2.4972   -4.3273 H   0  0  0  0  0  0  0  0  0  0  0  0
   -2.3012    2.8997   -3.9644 H   0  0  0  0  0  0  0  0  0  0  0  0
   -1.3804    3.1725   -5.4580 H   0  0  0  0  0  0  0  0  0  0  0  0
   -1.5225    1.5325   -4.7949 H   0  0  0  0  0  0  0  0  0  0  0  0
    1.2418    4.6576   -2.6761 N   0  0  0  0  0  0  0  0  0  0  0  0
    1.5595    6.0171   -2.2637 C   0  0  0  0  0  0  0  0  0  0  0  0
    1.8602    3.8898   -2.3995 H   0  0  0  0  0  0  0  0  0  0  0  0
    1.6100    6.6787   -3.1346 H   0  0  0  0  0  0  0  0  0  0  0  0
    0.7977    6.3960   -1.5748 H   0  0  0  0  0  0  0  0  0  0  0  0
    2.5285    6.0399   -1.7561 H   0  0  0  0  0  0  0  0  0  0  0  0
  1  2  2  0  0  0  0
  1  3  1  0  0  0  0
  1  7  1  0  0  0  0
  3  4  1  0  0  0  0
  3  5  1  0  0  0  0
  3  6  1  0  0  0  0
  7  8  1  0  0  0  0
  7 12  1  0  0  0  0
  8  9  1  0  0  0  0
  8 11  1  0  0  0  0
  8 13  1  0  0  0  0
  9 10  2  0  0  0  0
  9 17  1  0  0  0  0
 11 14  1  0  0  0  0
 11 15  1  0  0  0  0
 11 16  1  0  0  0  0
 17 18  1  0  0  0  0
 17 28  1  0  0  0  0
 18 19  1  0  0  0  0
 18 21  1  0  0  0  0
 18 29  1  0  0  0  0
 19 20  2  0  0  0  0
 19 37  1  0  0  0  0
 21 22  1  0  0  0  0
 21 30  1  0  0  0  0
 21 31  1  0  0  0  0
 22 23  1  0  0  0  0
 22 24  2  0  0  0  0
 23 25  2  0  0  0  0
 23 32  1  0  0  0  0
 24 26  1  0  0  0  0
 24 33  1  0  0  0  0
 25 27  1  0  0  0  0
 25 34  1  0  0  0  0
 26 27  2  0  0  0  0
 26 35  1  0  0  0  0
 27 36  1  0  0  0  0
 37 38  1  0  0  0  0
 37 42  1  0  0  0  0
 38 39  1  0  0  0  0
 38 41  1  0  0  0  0
 38 43  1  0  0  0  0
 39 40  2  0  0  0  0
 39 47  1  0  0  0  0
 41 44  1  0  0  0  0
 41 45  1  0  0  0  0
 41 46  1  0  0  0  0
 47 48  1  0  0  0  0
 47 49  1  0  0  0  0
 48 50  1  0  0  0  0
 48 51  1  0  0  0  0
 48 52  1  0  0  0  0
M  END
$$$$

  -OEChem-05262217163D

 52 52  0     1  0  0  0  0  0999 V2000
   -3.0600    0.6096    2.1752 C   0  0  0  0  0  0  0  0  0  0  0  0
   -3.0843    1.0717    1.0428 O   0  0  0  0  0  0  0  0  0  0  0  0
   -4.0727   -0.4395    2.5934 C   0  0  0  0  0  0  0  0  0  0  0  0
   -4.6579   -0.7653    1.7289 H   0  0  0  0  0  0  0  0  0  0  0  0
   -3.5628   -1.3071    3.0186 H   0  0  0  0  0  0  0  0  0  0  0  0
   -4.7519   -0.0232    3.3414 H   0  0  0  0  0  0  0  0  0  0  0  0
   -2.0717    1.0042    3.0529 N   0  0  0  0  0  0  0  0  0  0  0  0
   -1.0840    2.0583    2.7736 C   0  0  2  0  0  0  0  0  0  0  0  0
    0.0388    1.6028    1.8085 C   0  0  0  0  0  0  0  0  0  0  0  0
    1.2101    1.5617    2.1619 O   0  0  0  0  0  0  0  0  0  0  0  0
   -0.5441    2.5410    4.1261 C   0  0  0  0  0  0  0  0  0  0  0  0
   -2.0365    0.5393    3.9560 H   0  0  0  0  0  0  0  0  0  0  0  0
   -1.5878    2.9061    2.2968 H   0  0  0  0  0  0  0  0  0  0  0  0
   -0.0241    1.7297    4.6460 H   0  0  0  0  0  0  0  0  0  0  0  0
    0.1618    3.3651    3.9797 H   0  0  0  0  0  0  0  0  0  0  0  0
   -1.3621    2.8973    4.7595 H   0  0  0  0  0  0  0  0  0  0  0  0
   -0.2948    1.2968    0.5025 N   0  0  0  0  0  0  0  0  0  0  0  0
    0.6330    0.7083   -0.4803 C   0  0  2  0  0  0  0  0  0  0  0  0
    0.8119    1.6285   -1.6988 C   0  0  0  0  0  0  0  0  0  0  0  0
    1.9137    1.7669   -2.2156 O   0  0  0  0  0  0  0  0  0  0  0  0
    0.1125   -0.6558   -0.9610 C   0  0  0  0  0  0  0  0  0  0  0  0
    0.1290   -1.6774    0.1497 C   0  0  0  0  0  0  0  0  0  0  0  0
    1.3179   -2.3415    0.4844 C   0  0  0  0  0  0  0  0  0  0  0  0
   -1.0520   -2.0081    0.8303 C   0  0  0  0  0  0  0  0  0  0  0  0
    1.3318   -3.3006    1.5027 C   0  0  0  0  0  0  0  0  0  0  0  0
   -1.0413   -2.9709    1.8456 C   0  0  0  0  0  0  0  0  0  0  0  0
    0.1525   -3.6145    2.1849 C   0  0  0  0  0  0  0  0  0  0  0  0
   -1.3009    1.2128    0.3370 H   0  0  0  0  0  0  0  0  0  0  0  0
    1.6261    0.5662   -0.0393 H   0  0  0  0  0  0  0  0  0  0  0  0
    0.7442   -1.0155   -1.7806 H   0  0  0  0  0  0  0  0  0  0  0  0
   -0.9022   -0.5477   -1.3578 H   0  0  0  0  0  0  0  0  0  0  0  0
    2.2396   -2.1054   -0.0402 H   0  0  0  0  0  0  0  0  0  0  0  0
   -1.9839   -1.5223    0.5597 H   0  0  0  0  0  0  0  0  0  0  0  0
    2.2602   -3.8012    1.7615 H   0  0  0  0  0  0  0  0  0  0  0  0
   -1.9592   -3.2271    2.3654 H   0  0  0  0  0  0  0  0  0  0  0  0
    0.1644   -4.3625    2.9722 H   0  0  0  0  0  0  0  0  0  0  0  0
   -0.2836    2.2282   -2.2951 N   0  0  0  0  0  0  0  0  0  0  0  0
   -0.2048    3.0998   -3.4775 C   0  0  2  0  0  0  0  0  0  0  0  0
    0.3450    4.5085   -3.1421 C   0  0  0  0  0  0  0  0  0  0  0  0
   -0.3274    5.5195   -3.3076 O   0  0  0  0  0  0  0  0  0  0  0  0
   -1.6021    3.1394   -4.1089 C   0  0  0  0  0  0  0  0  0  0  0  0
   -1.1607    2.1864   -1.7833 H   0  0  0  0  0  0  0  0  0  0  0  0
    0.4781    2.6564   -4.2100 H   0  0  0  0  0  0  0  0  0  0  0  0
   -2.3253    3.5851   -3.4182 H   0  0  0  0  0  0  0  0  0  0  0  0
   -1.5863    3.7374   -5.0257 H   0  0  0  0  0  0  0  0  0  0  0  0
   -1.9356    2.1285   -4.3626 H   0  0  0  0  0  0  0  0  0  0  0  0
    1.6245    4.6281   -2.6368 N   0  0  0  0  0  0  0  0  0  0  0  0
    2.2262    5.8883   -2.2246 C   0  0  0  0  0  0  0  0  0  0  0  0
    2.1220    3.7515   -2.4578 H   0  0  0  0  0  0  0  0  0  0  0  0
    2.2848    6.5794   -3.0717 H   0  0  0  0  0  0  0  0  0  0  0  0
    1.6348    6.3531   -1.4289 H   0  0  0  0  0  0  0  0  0  0  0  0
    3.2391    5.7163   -1.8479 H   0  0  0  0  0  0  0  0  0  0  0  0
  1  2  2  0  0  0  0
  1  3  1  0  0  0  0
  1  7  1  0  0  0  0
  3  4  1  0  0  0  0
  3  5  1  0  0  0  0
  3  6  1  0  0  0  0
  7  8  1  0  0  0  0
  7 12  1  0  0  0  0
  8  9  1  0  0  0  0
  8 11  1  0  0  0  0
  8 13  1  0  0  0  0
  9 10  2  0  0  0  0
  9 17  1  0  0  0  0
 11 14  1  0  0  0  0
 11 15  1  0  0  0  0
 11 16  1  0  0  0  0
 17 18  1  0  0  0  0
 17 28  1  0  0  0  0
 18 19  1  0  0  0  0
 18 21  1  0  0  0  0
 18 29  1  0  0  0  0
 19 20  2  0  0  0  0
 19 37  1  0  0  0  0
 21 22  1  0  0  0  0
 21 30  1  0  0  0  0
 21 31  1  0  0  0  0
 22 23  1  0  0  0  0
 22 24  2  0  0  0  0
 23 25  2  0  0  0  0
 23 32  1  0  0  0  0
 24 26  1  0  0  0  0
 24 33  1  0  0  0  0
 25 27  1  0  0  0  0
 25 34  1  0  0  0  0
 26 27  2  0  0  0  0
 26 35  1  0  0  0  0
 27 36  1  0  0  0  0
 37 38  1  0  0  0  0
 37 42  1  0  0  0  0
 38 39  1  0  0  0  0
 38 41  1  0  0  0  0
 38 43  1  0  0  0  0
 39 40  2  0  0  0  0
 39 47  1  0  0  0  0
 41 44  1  0  0  0  0
 41 45  1  0  0  0  0
 41 46  1  0  0  0  0
 47 48  1  0  0  0  0
 47 49  1  0  0  0  0
 48 50  1  0  0  0  0
 48 51  1  0  0  0  0
 48 52  1  0  0  0  0
M  END
$$$$

  -OEChem-05262217163D

 52 52  0     1  0  0  0  0  0999 V2000
   -3.0965    0.5392    2.2102 C   0  0  0  0  0  0  0  0  0  0  0  0
   -3.1289    1.0312    1.0909 O   0  0  0  0  0  0  0  0  0  0  0  0
   -4.0903   -0.5383    2.6005 C   0  0  0  0  0  0  0  0  0  0  0  0
   -4.6433   -0.8781    1.7202 H   0  0  0  0  0  0  0  0  0  0  0  0
   -3.5678   -1.3924    3.0377 H   0  0  0  0  0  0  0  0  0  0  0  0
   -4.7998   -0.1424    3.3314 H   0  0  0  0  0  0  0  0  0  0  0  0
   -2.1146    0.9290    3.0968 N   0  0  0  0  0  0  0  0  0  0  0  0
   -1.1545    2.0159    2.8484 C   0  0  2  0  0  0  0  0  0  0  0  0
   -0.0201    1.6210    1.8698 C   0  0  0  0  0  0  0  0  0  0  0  0
    1.1547    1.6386    2.2138 O   0  0  0  0  0  0  0  0  0  0  0  0
   -0.6242    2.4704    4.2145 C   0  0  0  0  0  0  0  0  0  0  0  0
   -2.0753    0.4466    3.9905 H   0  0  0  0  0  0  0  0  0  0  0  0
   -1.6811    2.8645    2.3986 H   0  0  0  0  0  0  0  0  0  0  0  0
   -0.0768    1.6588    4.7050 H   0  0  0  0  0  0  0  0  0  0  0  0
    0.0554    3.3204    4.0932 H   0  0  0  0  0  0  0  0  0  0  0  0
   -1.4494    2.7804    4.8627 H   0  0  0  0  0  0  0  0  0  0  0  0
   -0.3422    1.3140    0.5604 N   0  0  0  0  0  0  0  0  0  0  0  0
    0.6145    0.7604   -0.4165 C   0  0  2  0  0  0  0  0  0  0  0  0
    0.7812    1.6871   -1.6329 C   0  0  0  0  0  0  0  0  0  0  0  0
    1.8166    1.6705   -2.2873 O   0  0  0  0  0  0  0  0  0  0  0  0
    0.1274   -0.6120   -0.9105 C   0  0  0  0  0  0  0  0  0  0  0  0
    0.1529   -1.6436    0.1914 C   0  0  0  0  0  0  0  0  0  0  0  0
    1.3506   -2.2868    0.5337 C   0  0  0  0  0  0  0  0  0  0  0  0
   -1.0302   -2.0119    0.8489 C   0  0  0  0  0  0  0  0  0  0  0  0
    1.3714   -3.2612    1.5374 C   0  0  0  0  0  0  0  0  0  0  0  0
   -1.0133   -2.9900    1.8496 C   0  0  0  0  0  0  0  0  0  0  0  0
    0.1895   -3.6122    2.1970 C   0  0  0  0  0  0  0  0  0  0  0  0
   -1.3426    1.1744    0.3961 H   0  0  0  0  0  0  0  0  0  0  0  0
    1.6071    0.6399    0.0316 H   0  0  0  0  0  0  0  0  0  0  0  0
    0.7735   -0.9538   -1.7264 H   0  0  0  0  0  0  0  0  0  0  0  0
   -0.8849   -0.5211   -1.3180 H   0  0  0  0  0  0  0  0  0  0  0  0
    2.2732   -2.0219    0.0254 H   0  0  0  0  0  0  0  0  0  0  0  0
   -1.9692   -1.5455    0.5688 H   0  0  0  0  0  0  0  0  0  0  0  0
    2.3068   -3.7461    1.8013 H   0  0  0  0  0  0  0  0  0  0  0  0
   -1.9334   -3.2758    2.3497 H   0  0  0  0  0  0  0  0  0  0  0  0
    0.2071   -4.3732    2.9718 H   0  0  0  0  0  0  0  0  0  0  0  0
   -0.2614    2.4927   -2.0550 N   0  0  0  0  0  0  0  0  0  0  0  0
   -0.1956    3.3878   -3.2198 C   0  0  2  0  0  0  0  0  0  0  0  0
    0.6104    4.6775   -2.9298 C   0  0  0  0  0  0  0  0  0  0  0  0
    0.0914    5.7867   -2.9749 O   0  0  0  0  0  0  0  0  0  0  0  0
   -1.6371    3.6686   -3.6623 C   0  0  0  0  0  0  0  0  0  0  0  0
   -1.0557    2.5721   -1.4257 H   0  0  0  0  0  0  0  0  0  0  0  0
    0.3110    2.8742   -4.0440 H   0  0  0  0  0  0  0  0  0  0  0  0
   -2.1866    4.1955   -2.8756 H   0  0  0  0  0  0  0  0  0  0  0  0
   -1.6420    4.2901   -4.5635 H   0  0  0  0  0  0  0  0  0  0  0  0
   -2.1569    2.7321   -3.8865 H   0  0  0  0  0  0  0  0  0  0  0  0
    1.9485    4.5732   -2.6057 N   0  0  0  0  0  0  0  0  0  0  0  0
    2.7892    5.7045   -2.2397 C   0  0  0  0  0  0  0  0  0  0  0  0
    2.3154    3.6223   -2.5107 H   0  0  0  0  0  0  0  0  0  0  0  0
    2.8233    6.4352   -3.0547 H   0  0  0  0  0  0  0  0  0  0  0  0
    2.4007    6.1946   -1.3409 H   0  0  0  0  0  0  0  0  0  0  0  0
    3.8097    5.3653   -2.0368 H   0  0  0  0  0  0  0  0  0  0  0  0
  1  2  2  0  0  0  0
  1  3  1  0  0  0  0
  1  7  1  0  0  0  0
  3  4  1  0  0  0  0
  3  5  1  0  0  0  0
  3  6  1  0  0  0  0
  7  8  1  0  0  0  0
  7 12  1  0  0  0  0
  8  9  1  0  0  0  0
  8 11  1  0  0  0  0
  8 13  1  0  0  0  0
  9 10  2  0  0  0  0
  9 17  1  0  0  0  0
 11 14  1  0  0  0  0
 11 15  1  0  0  0  0
 11 16  1  0  0  0  0
 17 18  1  0  0  0  0
 17 28  1  0  0  0  0
 18 19  1  0  0  0  0
 18 21  1  0  0  0  0
 18 29  1  0  0  0  0
 19 20  2  0  0  0  0
 19 37  1  0  0  0  0
 21 22  1  0  0  0  0
 21 30  1  0  0  0  0
 21 31  1  0  0  0  0
 22 23  1  0  0  0  0
 22 24  2  0  0  0  0
 23 25  2  0  0  0  0
 23 32  1  0  0  0  0
 24 26  1  0  0  0  0
 24 33  1  0  0  0  0
 25 27  1  0  0  0  0
 25 34  1  0  0  0  0
 26 27  2  0  0  0  0
 26 35  1  0  0  0  0
 27 36  1  0  0  0  0
 37 38  1  0  0  0  0
 37 42  1  0  0  0  0
 38 39  1  0  0  0  0
 38 41  1  0  0  0  0
 38 43  1  0  0  0  0
 39 40  2  0  0  0  0
 39 47  1  0  0  0  0
 41 44  1  0  0  0  0
 41 45  1  0  0  0  0
 41 46  1  0  0  0  0
 47 48  1  0  0  0  0
 47 49  1  0  0  0  0
 48 50  1  0  0  0  0
 48 51  1  0  0  0  0
 48 52  1  0  0  0  0
M  END
$$$$

  -OEChem-05262217163D

 52 52  0     1  0  0  0  0  0999 V2000
   -3.1408    0.5041    2.2227 C   0  0  0  0  0  0  0  0  0  0  0  0
   -3.1705    1.0374    1.1229 O   0  0  0  0  0  0  0  0  0  0  0  0
   -4.1417   -0.5795    2.5753 C   0  0  0  0  0  0  0  0  0  0  0  0
   -4.7514   -0.8284    1.7021 H   0  0  0  0  0  0  0  0  0  0  0  0
   -3.6206   -1.4802    2.9081 H   0  0  0  0  0  0  0  0  0  0  0  0
   -4.7992   -0.2319    3.3760 H   0  0  0  0  0  0  0  0  0  0  0  0
   -2.1561    0.8552    3.1217 N   0  0  0  0  0  0  0  0  0  0  0  0
   -1.1993    1.9539    2.9170 C   0  0  2  0  0  0  0  0  0  0  0  0
   -0.0591    1.5991    1.9294 C   0  0  0  0  0  0  0  0  0  0  0  0
    1.1159    1.6425    2.2699 O   0  0  0  0  0  0  0  0  0  0  0  0
   -0.6788    2.3599    4.3024 C   0  0  0  0  0  0  0  0  0  0  0  0
   -2.1197    0.3412    3.9977 H   0  0  0  0  0  0  0  0  0  0  0  0
   -1.7271    2.8162    2.4953 H   0  0  0  0  0  0  0  0  0  0  0  0
   -0.1257    1.5349    4.7632 H   0  0  0  0  0  0  0  0  0  0  0  0
   -0.0071    3.2205    4.2185 H   0  0  0  0  0  0  0  0  0  0  0  0
   -1.5096    2.6362    4.9585 H   0  0  0  0  0  0  0  0  0  0  0  0
   -0.3739    1.3058    0.6146 N   0  0  0  0  0  0  0  0  0  0  0  0
    0.5956    0.7849   -0.3694 C   0  0  2  0  0  0  0  0  0  0  0  0
    0.7512    1.7289   -1.5757 C   0  0  0  0  0  0  0  0  0  0  0  0
    1.6748    1.5795   -2.3669 O   0  0  0  0  0  0  0  0  0  0  0  0
    0.1300   -0.5923   -0.8740 C   0  0  0  0  0  0  0  0  0  0  0  0
    0.1781   -1.6288    0.2219 C   0  0  0  0  0  0  0  0  0  0  0  0
    1.3891   -2.2515    0.5547 C   0  0  0  0  0  0  0  0  0  0  0  0
   -0.9937   -2.0161    0.8879 C   0  0  0  0  0  0  0  0  0  0  0  0
    1.4339   -3.2253    1.5576 C   0  0  0  0  0  0  0  0  0  0  0  0
   -0.9528   -2.9938    1.8881 C   0  0  0  0  0  0  0  0  0  0  0  0
    0.2631   -3.5958    2.2259 C   0  0  0  0  0  0  0  0  0  0  0  0
   -1.3719    1.1585    0.4404 H   0  0  0  0  0  0  0  0  0  0  0  0
    1.5895    0.6769    0.0781 H   0  0  0  0  0  0  0  0  0  0  0  0
    0.7786   -0.9199   -1.6938 H   0  0  0  0  0  0  0  0  0  0  0  0
   -0.8850   -0.5154   -1.2778 H   0  0  0  0  0  0  0  0  0  0  0  0
    2.3034   -1.9712    0.0394 H   0  0  0  0  0  0  0  0  0  0  0  0
   -1.9416   -1.5633    0.6159 H   0  0  0  0  0  0  0  0  0  0  0  0
    2.3798   -3.6936    1.8137 H   0  0  0  0  0  0  0  0  0  0  0  0
   -1.8638   -3.2948    2.3957 H   0  0  0  0  0  0  0  0  0  0  0  0
    0.2992   -4.3563    3.0002 H   0  0  0  0  0  0  0  0  0  0  0  0
   -0.1696    2.7336   -1.8116 N   0  0  0  0  0  0  0  0  0  0  0  0
   -0.1119    3.6673   -2.9461 C   0  0  2  0  0  0  0  0  0  0  0  0
    0.9386    4.7859   -2.7410 C   0  0  0  0  0  0  0  0  0  0  0  0
    0.6241    5.9702   -2.7215 O   0  0  0  0  0  0  0  0  0  0  0  0
   -1.5305    4.2096   -3.1629 C   0  0  0  0  0  0  0  0  0  0  0  0
   -0.8547    2.8978   -1.0789 H   0  0  0  0  0  0  0  0  0  0  0  0
    0.1772    3.1214   -3.8504 H   0  0  0  0  0  0  0  0  0  0  0  0
   -1.8655    4.7752   -2.2875 H   0  0  0  0  0  0  0  0  0  0  0  0
   -1.5532    4.8739   -4.0328 H   0  0  0  0  0  0  0  0  0  0  0  0
   -2.2311    3.3875   -3.3388 H   0  0  0  0  0  0  0  0  0  0  0  0
    2.2655    4.4399   -2.5794 N   0  0  0  0  0  0  0  0  0  0  0  0
    3.3350    5.3982   -2.3378 C   0  0  0  0  0  0  0  0  0  0  0  0
    2.4713    3.4377   -2.5563 H   0  0  0  0  0  0  0  0  0  0  0  0
    3.4066    6.1093   -3.1675 H   0  0  0  0  0  0  0  0  0  0  0  0
    3.1497    5.9529   -1.4121 H   0  0  0  0  0  0  0  0  0  0  0  0
    4.2933    4.8782   -2.2449 H   0  0  0  0  0  0  0  0  0  0  0  0
  1  2  2  0  0  0  0
  1  3  1  0  0  0  0
  1  7  1  0  0  0  0
  3  4  1  0  0  0  0
  3  5  1  0  0  0  0
  3  6  1  0  0  0  0
  7  8  1  0  0  0  0
  7 12  1  0  0  0  0
  8  9  1  0  0  0  0
  8 11  1  0  0  0  0
  8 13  1  0  0  0  0
  9 10  2  0  0  0  0
  9 17  1  0  0  0  0
 11 14  1  0  0  0  0
 11 15  1  0  0  0  0
 11 16  1  0  0  0  0
 17 18  1  0  0  0  0
 17 28  1  0  0  0  0
 18 19  1  0  0  0  0
 18 21  1  0  0  0  0
 18 29  1  0  0  0  0
 19 20  2  0  0  0  0
 19 37  1  0  0  0  0
 21 22  1  0  0  0  0
 21 30  1  0  0  0  0
 21 31  1  0  0  0  0
 22 23  1  0  0  0  0
 22 24  2  0  0  0  0
 23 25  2  0  0  0  0
 23 32  1  0  0  0  0
 24 26  1  0  0  0  0
 24 33  1  0  0  0  0
 25 27  1  0  0  0  0
 25 34  1  0  0  0  0
 26 27  2  0  0  0  0
 26 35  1  0  0  0  0
 27 36  1  0  0  0  0
 37 38  1  0  0  0  0
 37 42  1  0  0  0  0
 38 39  1  0  0  0  0
 38 41  1  0  0  0  0
 38 43  1  0  0  0  0
 39 40  2  0  0  0  0
 39 47  1  0  0  0  0
 41 44  1  0  0  0  0
 41 45  1  0  0  0  0
 41 46  1  0  0  0  0
 47 48  1  0  0  0  0
 47 49  1  0  0  0  0
 48 50  1  0  0  0  0
 48 51  1  0  0  0  0
 48 52  1  0  0  0  0
M  END
$$$$

  -OEChem-05262217163D

 52 52  0     1  0  0  0  0  0999 V2000
   -3.1538    0.4624    2.2611 C   0  0  0  0  0  0  0  0  0  0  0  0
   -3.1962    1.0279    1.1781 O   0  0  0  0  0  0  0  0  0  0  0  0
   -4.1517   -0.6304    2.5945 C   0  0  0  0  0  0  0  0  0  0  0  0
   -4.7753   -0.8506    1.7234 H   0  0  0  0  0  0  0  0  0  0  0  0
   -3.6269   -1.5415    2.8903 H   0  0  0  0  0  0  0  0  0  0  0  0
   -4.7964   -0.3079    3.4156 H   0  0  0  0  0  0  0  0  0  0  0  0
   -2.1567    0.7869    3.1569 N   0  0  0  0  0  0  0  0  0  0  0  0
   -1.2052    1.8940    2.9727 C   0  0  2  0  0  0  0  0  0  0  0  0
   -0.0740    1.5713    1.9638 C   0  0  0  0  0  0  0  0  0  0  0  0
    1.1047    1.6301    2.2892 O   0  0  0  0  0  0  0  0  0  0  0  0
   -0.6714    2.2617    4.3639 C   0  0  0  0  0  0  0  0  0  0  0  0
   -2.1072    0.2460    4.0160 H   0  0  0  0  0  0  0  0  0  0  0  0
   -1.7400    2.7661    2.5814 H   0  0  0  0  0  0  0  0  0  0  0  0
   -0.1053    1.4282    4.7927 H   0  0  0  0  0  0  0  0  0  0  0  0
   -0.0088    3.1308    4.2986 H   0  0  0  0  0  0  0  0  0  0  0  0
   -1.4964    2.5100    5.0383 H   0  0  0  0  0  0  0  0  0  0  0  0
   -0.3965    1.2990    0.6462 N   0  0  0  0  0  0  0  0  0  0  0  0
    0.5714    0.8012   -0.3524 C   0  0  2  0  0  0  0  0  0  0  0  0
    0.7129    1.7692   -1.5438 C   0  0  0  0  0  0  0  0  0  0  0  0
    1.4857    1.5245   -2.4631 O   0  0  0  0  0  0  0  0  0  0  0  0
    0.1107   -0.5771   -0.8626 C   0  0  0  0  0  0  0  0  0  0  0  0
    0.1804   -1.6202    0.2265 C   0  0  0  0  0  0  0  0  0  0  0  0
    1.4000   -2.2352    0.5420 C   0  0  0  0  0  0  0  0  0  0  0  0
   -0.9803   -2.0197    0.9049 C   0  0  0  0  0  0  0  0  0  0  0  0
    1.4644   -3.2109    1.5423 C   0  0  0  0  0  0  0  0  0  0  0  0
   -0.9195   -2.9996    1.9021 C   0  0  0  0  0  0  0  0  0  0  0  0
    0.3051   -3.5919    2.2248 C   0  0  0  0  0  0  0  0  0  0  0  0
   -1.3954    1.1581    0.4694 H   0  0  0  0  0  0  0  0  0  0  0  0
    1.5695    0.6954    0.0863 H   0  0  0  0  0  0  0  0  0  0  0  0
    0.7514   -0.8969   -1.6917 H   0  0  0  0  0  0  0  0  0  0  0  0
   -0.9094   -0.5049   -1.2543 H   0  0  0  0  0  0  0  0  0  0  0  0
    2.3055   -1.9470    0.0159 H   0  0  0  0  0  0  0  0  0  0  0  0
   -1.9350   -1.5739    0.6451 H   0  0  0  0  0  0  0  0  0  0  0  0
    2.4170   -3.6720    1.7864 H   0  0  0  0  0  0  0  0  0  0  0  0
   -1.8219   -3.3089    2.4198 H   0  0  0  0  0  0  0  0  0  0  0  0
    0.3572   -4.3522    2.9986 H   0  0  0  0  0  0  0  0  0  0  0  0
   -0.0183    2.9416   -1.5900 N   0  0  0  0  0  0  0  0  0  0  0  0
    0.0499    3.9284   -2.6777 C   0  0  2  0  0  0  0  0  0  0  0  0
    1.3002    4.8349   -2.5754 C   0  0  0  0  0  0  0  0  0  0  0  0
    1.2089    6.0511   -2.4565 O   0  0  0  0  0  0  0  0  0  0  0  0
   -1.2662    4.7156   -2.6612 C   0  0  0  0  0  0  0  0  0  0  0  0
   -0.5610    3.1646   -0.7599 H   0  0  0  0  0  0  0  0  0  0  0  0
    0.1131    3.4062   -3.6383 H   0  0  0  0  0  0  0  0  0  0  0  0
   -1.3729    5.2688   -1.7224 H   0  0  0  0  0  0  0  0  0  0  0  0
   -1.2901    5.4312   -3.4892 H   0  0  0  0  0  0  0  0  0  0  0  0
   -2.1181    4.0367   -2.7674 H   0  0  0  0  0  0  0  0  0  0  0  0
    2.5519    4.2542   -2.6198 N   0  0  0  0  0  0  0  0  0  0  0  0
    3.7995    4.9909   -2.4757 C   0  0  0  0  0  0  0  0  0  0  0  0
    2.5724    3.2323   -2.6677 H   0  0  0  0  0  0  0  0  0  0  0  0
    3.8888    5.7498   -3.2598 H   0  0  0  0  0  0  0  0  0  0  0  0
    3.8418    5.4846   -1.4993 H   0  0  0  0  0  0  0  0  0  0  0  0
    4.6510    4.3083   -2.5566 H   0  0  0  0  0  0  0  0  0  0  0  0
  1  2  2  0  0  0  0
  1  3  1  0  0  0  0
  1  7  1  0  0  0  0
  3  4  1  0  0  0  0
  3  5  1  0  0  0  0
  3  6  1  0  0  0  0
  7  8  1  0  0  0  0
  7 12  1  0  0  0  0
  8  9  1  0  0  0  0
  8 11  1  0  0  0  0
  8 13  1  0  0  0  0
  9 10  2  0  0  0  0
  9 17  1  0  0  0  0
 11 14  1  0  0  0  0
 11 15  1  0  0  0  0
 11 16  1  0  0  0  0
 17 18  1  0  0  0  0
 17 28  1  0  0  0  0
 18 19  1  0  0  0  0
 18 21  1  0  0  0  0
 18 29  1  0  0  0  0
 19 20  2  0  0  0  0
 19 37  1  0  0  0  0
 21 22  1  0  0  0  0
 21 30  1  0  0  0  0
 21 31  1  0  0  0  0
 22 23  1  0  0  0  0
 22 24  2  0  0  0  0
 23 25  2  0  0  0  0
 23 32  1  0  0  0  0
 24 26  1  0  0  0  0
 24 33  1  0  0  0  0
 25 27  1  0  0  0  0
 25 34  1  0  0  0  0
 26 27  2  0  0  0  0
 26 35  1  0  0  0  0
 27 36  1  0  0  0  0
 37 38  1  0  0  0  0
 37 42  1  0  0  0  0
 38 39  1  0  0  0  0
 38 41  1  0  0  0  0
 38 43  1  0  0  0  0
 39 40  2  0  0  0  0
 39 47  1  0  0  0  0
 41 44  1  0  0  0  0
 41 45  1  0  0  0  0
 41 46  1  0  0  0  0
 47 48  1  0  0  0  0
 47 49  1  0  0  0  0
 48 50  1  0  0  0  0
 48 51  1  0  0  0  0
 48 52  1  0  0  0  0
M  END
$$$$

  -OEChem-05262217163D

 52 52  0     1  0  0  0  0  0999 V2000
   -3.1955    0.3898    2.2205 C   0  0  0  0  0  0  0  0  0  0  0  0
   -3.2137    0.9646    1.1419 O   0  0  0  0  0  0  0  0  0  0  0  0
   -4.1870   -0.7197    2.5151 C   0  0  0  0  0  0  0  0  0  0  0  0
   -4.7356   -0.9859    1.6072 H   0  0  0  0  0  0  0  0  0  0  0  0
   -3.6631   -1.6058    2.8808 H   0  0  0  0  0  0  0  0  0  0  0  0
   -4.9007   -0.3892    3.2739 H   0  0  0  0  0  0  0  0  0  0  0  0
   -2.2318    0.7232    3.1487 N   0  0  0  0  0  0  0  0  0  0  0  0
   -1.2900    1.8428    2.9962 C   0  0  2  0  0  0  0  0  0  0  0  0
   -0.1224    1.5347    2.0250 C   0  0  0  0  0  0  0  0  0  0  0  0
    1.0441    1.5947    2.3907 O   0  0  0  0  0  0  0  0  0  0  0  0
   -0.8096    2.2215    4.4032 C   0  0  0  0  0  0  0  0  0  0  0  0
   -2.2003    0.1780    4.0058 H   0  0  0  0  0  0  0  0  0  0  0  0
   -1.8236    2.7069    2.5862 H   0  0  0  0  0  0  0  0  0  0  0  0
   -0.2517    1.3949    4.8552 H   0  0  0  0  0  0  0  0  0  0  0  0
   -0.1532    3.0967    4.3567 H   0  0  0  0  0  0  0  0  0  0  0  0
   -1.6607    2.4648    5.0465 H   0  0  0  0  0  0  0  0  0  0  0  0
   -0.3970    1.2887    0.6918 N   0  0  0  0  0  0  0  0  0  0  0  0
    0.6040    0.8181   -0.2876 C   0  0  2  0  0  0  0  0  0  0  0  0
    0.7662    1.8233   -1.4481 C   0  0  0  0  0  0  0  0  0  0  0  0
    1.3570    1.5204   -2.4786 O   0  0  0  0  0  0  0  0  0  0  0  0
    0.1707   -0.5600   -0.8262 C   0  0  0  0  0  0  0  0  0  0  0  0
    0.2244   -1.6159    0.2520 C   0  0  0  0  0  0  0  0  0  0  0  0
    1.4409   -2.2242    0.5932 C   0  0  0  0  0  0  0  0  0  0  0  0
   -0.9500   -2.0332    0.8947 C   0  0  0  0  0  0  0  0  0  0  0  0
    1.4870   -3.2116    1.5833 C   0  0  0  0  0  0  0  0  0  0  0  0
   -0.9074   -3.0239    1.8819 C   0  0  0  0  0  0  0  0  0  0  0  0
    0.3132   -3.6101    2.2300 C   0  0  0  0  0  0  0  0  0  0  0  0
   -1.3894    1.1606    0.4729 H   0  0  0  0  0  0  0  0  0  0  0  0
    1.5904    0.7160    0.1769 H   0  0  0  0  0  0  0  0  0  0  0  0
    0.8348   -0.8665   -1.6415 H   0  0  0  0  0  0  0  0  0  0  0  0
   -0.8396   -0.4925   -1.2428 H   0  0  0  0  0  0  0  0  0  0  0  0
    2.3579   -1.9231    0.0947 H   0  0  0  0  0  0  0  0  0  0  0  0
   -1.9010   -1.5920    0.6145 H   0  0  0  0  0  0  0  0  0  0  0  0
    2.4362   -3.6688    1.8471 H   0  0  0  0  0  0  0  0  0  0  0  0
   -1.8208   -3.3460    2.3720 H   0  0  0  0  0  0  0  0  0  0  0  0
    0.3508   -4.3795    2.9955 H   0  0  0  0  0  0  0  0  0  0  0  0
    0.2697    3.1081   -1.3291 N   0  0  0  0  0  0  0  0  0  0  0  0
    0.3348    4.1385   -2.3760 C   0  0  2  0  0  0  0  0  0  0  0  0
    1.7265    4.8102   -2.4671 C   0  0  0  0  0  0  0  0  0  0  0  0
    1.8727    6.0181   -2.3197 O   0  0  0  0  0  0  0  0  0  0  0  0
   -0.7954    5.1370   -2.0973 C   0  0  0  0  0  0  0  0  0  0  0  0
   -0.1313    3.3505   -0.4271 H   0  0  0  0  0  0  0  0  0  0  0  0
    0.1399    3.6782   -3.3504 H   0  0  0  0  0  0  0  0  0  0  0  0
   -0.6417    5.6333   -1.1336 H   0  0  0  0  0  0  0  0  0  0  0  0
   -0.8271    5.9018   -2.8800 H   0  0  0  0  0  0  0  0  0  0  0  0
   -1.7619    4.6243   -2.0780 H   0  0  0  0  0  0  0  0  0  0  0  0
    2.8309    4.0268   -2.7352 N   0  0  0  0  0  0  0  0  0  0  0  0
    4.1936    4.5338   -2.8119 C   0  0  0  0  0  0  0  0  0  0  0  0
    2.6603    3.0209   -2.8152 H   0  0  0  0  0  0  0  0  0  0  0  0
    4.2753    5.2948   -3.5950 H   0  0  0  0  0  0  0  0  0  0  0  0
    4.4921    4.9766   -1.8560 H   0  0  0  0  0  0  0  0  0  0  0  0
    4.8852    3.7196   -3.0485 H   0  0  0  0  0  0  0  0  0  0  0  0
  1  2  2  0  0  0  0
  1  3  1  0  0  0  0
  1  7  1  0  0  0  0
  3  4  1  0  0  0  0
  3  5  1  0  0  0  0
  3  6  1  0  0  0  0
  7  8  1  0  0  0  0
  7 12  1  0  0  0  0
  8  9  1  0  0  0  0
  8 11  1  0  0  0  0
  8 13  1  0  0  0  0
  9 10  2  0  0  0  0
  9 17  1  0  0  0  0
 11 14  1  0  0  0  0
 11 15  1  0  0  0  0
 11 16  1  0  0  0  0
 17 18  1  0  0  0  0
 17 28  1  0  0  0  0
 18 19  1  0  0  0  0
 18 21  1  0  0  0  0
 18 29  1  0  0  0  0
 19 20  2  0  0  0  0
 19 37  1  0  0  0  0
 21 22  1  0  0  0  0
 21 30  1  0  0  0  0
 21 31  1  0  0  0  0
 22 23  1  0  0  0  0
 22 24  2  0  0  0  0
 23 25  2  0  0  0  0
 23 32  1  0  0  0  0
 24 26  1  0  0  0  0
 24 33  1  0  0  0  0
 25 27  1  0  0  0  0
 25 34  1  0  0  0  0
 26 27  2  0  0  0  0
 26 35  1  0  0  0  0
 27 36  1  0  0  0  0
 37 38  1  0  0  0  0
 37 42  1  0  0  0  0
 38 39  1  0  0  0  0
 38 41  1  0  0  0  0
 38 43  1  0  0  0  0
 39 40  2  0  0  0  0
 39 47  1  0  0  0  0
 41 44  1  0  0  0  0
 41 45  1  0  0  0  0
 41 46  1  0  0  0  0
 47 48  1  0  0  0  0
 47 49  1  0  0  0  0
 48 50  1  0  0  0  0
 48 51  1  0  0  0  0
 48 52  1  0  0  0  0
M  END
$$$$

  -OEChem-05262217163D

 52 52  0     1  0  0  0  0  0999 V2000
   -2.8013   -0.4614    3.3643 C   0  0  0  0  0  0  0  0  0  0  0  0
   -3.5363   -0.5179    2.3896 O   0  0  0  0  0  0  0  0  0  0  0  0
   -2.7186   -1.6313    4.3264 C   0  0  0  0  0  0  0  0  0  0  0  0
   -3.4484   -2.3980    4.0522 H   0  0  0  0  0  0  0  0  0  0  0  0
   -1.7177   -2.0690    4.2938 H   0  0  0  0  0  0  0  0  0  0  0  0
   -2.9288   -1.2947    5.3444 H   0  0  0  0  0  0  0  0  0  0  0  0
   -2.0214    0.6563    3.5774 N   0  0  0  0  0  0  0  0  0  0  0  0
   -1.8572    1.7219    2.5816 C   0  0  2  0  0  0  0  0  0  0  0  0
   -0.5911    1.4958    1.7313 C   0  0  0  0  0  0  0  0  0  0  0  0
    0.5121    1.5110    2.2619 O   0  0  0  0  0  0  0  0  0  0  0  0
   -1.7957    3.0592    3.3255 C   0  0  0  0  0  0  0  0  0  0  0  0
   -1.3032    0.5729    4.2930 H   0  0  0  0  0  0  0  0  0  0  0  0
   -2.7206    1.7557    1.9091 H   0  0  0  0  0  0  0  0  0  0  0  0
   -0.9457    3.0799    4.0156 H   0  0  0  0  0  0  0  0  0  0  0  0
   -1.6855    3.8846    2.6155 H   0  0  0  0  0  0  0  0  0  0  0  0
   -2.7143    3.2165    3.8995 H   0  0  0  0  0  0  0  0  0  0  0  0
   -0.6828    1.3633    0.3577 N   0  0  0  0  0  0  0  0  0  0  0  0
    0.4388    0.9074   -0.4903 C   0  0  2  0  0  0  0  0  0  0  0  0
    0.8211    1.9823   -1.5302 C   0  0  0  0  0  0  0  0  0  0  0  0
    1.3129    1.6895   -2.6139 O   0  0  0  0  0  0  0  0  0  0  0  0
    0.0420   -0.4210   -1.1655 C   0  0  0  0  0  0  0  0  0  0  0  0
   -0.0995   -1.5350   -0.1556 C   0  0  0  0  0  0  0  0  0  0  0  0
    1.0361   -2.2098    0.3165 C   0  0  0  0  0  0  0  0  0  0  0  0
   -1.3645   -1.9263    0.3076 C   0  0  0  0  0  0  0  0  0  0  0  0
    0.9098   -3.2542    1.2389 C   0  0  0  0  0  0  0  0  0  0  0  0
   -1.4927   -2.9741    1.2244 C   0  0  0  0  0  0  0  0  0  0  0  0
   -0.3556   -3.6381    1.6928 C   0  0  0  0  0  0  0  0  0  0  0  0
   -1.6238    1.2255   -0.0037 H   0  0  0  0  0  0  0  0  0  0  0  0
    1.3379    0.7290    0.1088 H   0  0  0  0  0  0  0  0  0  0  0  0
    0.8094   -0.7130   -1.8904 H   0  0  0  0  0  0  0  0  0  0  0  0
   -0.8919   -0.2915   -1.7220 H   0  0  0  0  0  0  0  0  0  0  0  0
    2.0237   -1.9227   -0.0327 H   0  0  0  0  0  0  0  0  0  0  0  0
   -2.2609   -1.4208   -0.0400 H   0  0  0  0  0  0  0  0  0  0  0  0
    1.7959   -3.7693    1.5980 H   0  0  0  0  0  0  0  0  0  0  0  0
   -2.4805   -3.2666    1.5688 H   0  0  0  0  0  0  0  0  0  0  0  0
   -0.4549   -4.4532    2.4034 H   0  0  0  0  0  0  0  0  0  0  0  0
    0.6357    3.3198   -1.2331 N   0  0  0  0  0  0  0  0  0  0  0  0
    0.9881    4.4317   -2.1295 C   0  0  2  0  0  0  0  0  0  0  0  0
    2.5072    4.7292   -2.1385 C   0  0  0  0  0  0  0  0  0  0  0  0
    2.9556    5.8110   -1.7781 O   0  0  0  0  0  0  0  0  0  0  0  0
    0.1451    5.6422   -1.7098 C   0  0  0  0  0  0  0  0  0  0  0  0
    0.3640    3.5317   -0.2762 H   0  0  0  0  0  0  0  0  0  0  0  0
    0.7086    4.1725   -3.1563 H   0  0  0  0  0  0  0  0  0  0  0  0
    0.3947    5.9511   -0.6895 H   0  0  0  0  0  0  0  0  0  0  0  0
    0.3338    6.4854   -2.3822 H   0  0  0  0  0  0  0  0  0  0  0  0
   -0.9208    5.3993   -1.7529 H   0  0  0  0  0  0  0  0  0  0  0  0
    3.3794    3.7484   -2.5665 N   0  0  0  0  0  0  0  0  0  0  0  0
    4.8286    3.8899   -2.5675 C   0  0  0  0  0  0  0  0  0  0  0  0
    2.9600    2.8476   -2.8111 H   0  0  0  0  0  0  0  0  0  0  0  0
    5.1296    4.7417   -3.1862 H   0  0  0  0  0  0  0  0  0  0  0  0
    5.1983    4.0451   -1.5487 H   0  0  0  0  0  0  0  0  0  0  0  0
    5.2949    2.9868   -2.9726 H   0  0  0  0  0  0  0  0  0  0  0  0
  1  2  2  0  0  0  0
  1  3  1  0  0  0  0
  1  7  1  0  0  0  0
  3  4  1  0  0  0  0
  3  5  1  0  0  0  0
  3  6  1  0  0  0  0
  7  8  1  0  0  0  0
  7 12  1  0  0  0  0
  8  9  1  0  0  0  0
  8 11  1  0  0  0  0
  8 13  1  0  0  0  0
  9 10  2  0  0  0  0
  9 17  1  0  0  0  0
 11 14  1  0  0  0  0
 11 15  1  0  0  0  0
 11 16  1  0  0  0  0
 17 18  1  0  0  0  0
 17 28  1  0  0  0  0
 18 19  1  0  0  0  0
 18 21  1  0  0  0  0
 18 29  1  0  0  0  0
 19 20  2  0  0  0  0
 19 37  1  0  0  0  0
 21 22  1  0  0  0  0
 21 30  1  0  0  0  0
 21 31  1  0  0  0  0
 22 23  1  0  0  0  0
 22 24  2  0  0  0  0
 23 25  2  0  0  0  0
 23 32  1  0  0  0  0
 24 26  1  0  0  0  0
 24 33  1  0  0  0  0
 25 27  1  0  0  0  0
 25 34  1  0  0  0  0
 26 27  2  0  0  0  0
 26 35  1  0  0  0  0
 27 36  1  0  0  0  0
 37 38  1  0  0  0  0
 37 42  1  0  0  0  0
 38 39  1  0  0  0  0
 38 41  1  0  0  0  0
 38 43  1  0  0  0  0
 39 40  2  0  0  0  0
 39 47  1  0  0  0  0
 41 44  1  0  0  0  0
 41 45  1  0  0  0  0
 41 46  1  0  0  0  0
 47 48  1  0  0  0  0
 47 49  1  0  0  0  0
 48 50  1  0  0  0  0
 48 51  1  0  0  0  0
 48 52  1  0  0  0  0
M  END
$$$$

  -OEChem-05262217163D

 52 52  0     1  0  0  0  0  0999 V2000
   -2.8301   -0.4905    3.3177 C   0  0  0  0  0  0  0  0  0  0  0  0
   -3.5603   -0.5308    2.3387 O   0  0  0  0  0  0  0  0  0  0  0  0
   -2.7568   -1.6737    4.2645 C   0  0  0  0  0  0  0  0  0  0  0  0
   -3.4408   -2.4621    3.9383 H   0  0  0  0  0  0  0  0  0  0  0  0
   -1.7402   -2.0749    4.2810 H   0  0  0  0  0  0  0  0  0  0  0  0
   -3.0349   -1.3620    5.2742 H   0  0  0  0  0  0  0  0  0  0  0  0
   -2.0488    0.6221    3.5521 N   0  0  0  0  0  0  0  0  0  0  0  0
   -1.8730    1.7012    2.5724 C   0  0  2  0  0  0  0  0  0  0  0  0
   -0.5866    1.4938    1.7477 C   0  0  0  0  0  0  0  0  0  0  0  0
    0.5055    1.5090    2.3022 O   0  0  0  0  0  0  0  0  0  0  0  0
   -1.8403    3.0311    3.3315 C   0  0  0  0  0  0  0  0  0  0  0  0
   -1.3352    0.5254    4.2707 H   0  0  0  0  0  0  0  0  0  0  0  0
   -2.7210    1.7355    1.8806 H   0  0  0  0  0  0  0  0  0  0  0  0
   -1.0064    3.0522    4.0405 H   0  0  0  0  0  0  0  0  0  0  0  0
   -1.7229    3.8648    2.6324 H   0  0  0  0  0  0  0  0  0  0  0  0
   -2.7728    3.1739    3.8862 H   0  0  0  0  0  0  0  0  0  0  0  0
   -0.6430    1.3816    0.3707 N   0  0  0  0  0  0  0  0  0  0  0  0
    0.4926    0.9179   -0.4516 C   0  0  2  0  0  0  0  0  0  0  0  0
    0.9059    2.0132   -1.4563 C   0  0  0  0  0  0  0  0  0  0  0  0
    1.1603    1.7677   -2.6300 O   0  0  0  0  0  0  0  0  0  0  0  0
    0.0981   -0.3956   -1.1563 C   0  0  0  0  0  0  0  0  0  0  0  0
   -0.0880   -1.5227   -0.1677 C   0  0  0  0  0  0  0  0  0  0  0  0
    1.0226   -2.2215    0.3289 C   0  0  0  0  0  0  0  0  0  0  0  0
   -1.3721   -1.9040    0.2490 C   0  0  0  0  0  0  0  0  0  0  0  0
    0.8530   -3.2775    1.2314 C   0  0  0  0  0  0  0  0  0  0  0  0
   -1.5435   -2.9635    1.1452 C   0  0  0  0  0  0  0  0  0  0  0  0
   -0.4312   -3.6504    1.6393 C   0  0  0  0  0  0  0  0  0  0  0  0
   -1.5754    1.2701   -0.0207 H   0  0  0  0  0  0  0  0  0  0  0  0
    1.3736    0.7170    0.1672 H   0  0  0  0  0  0  0  0  0  0  0  0
    0.8837   -0.6855   -1.8626 H   0  0  0  0  0  0  0  0  0  0  0  0
   -0.8173   -0.2450   -1.7379 H   0  0  0  0  0  0  0  0  0  0  0  0
    2.0243   -1.9440    0.0147 H   0  0  0  0  0  0  0  0  0  0  0  0
   -2.2502   -1.3821   -0.1201 H   0  0  0  0  0  0  0  0  0  0  0  0
    1.7200   -3.8104    1.6107 H   0  0  0  0  0  0  0  0  0  0  0  0
   -2.5460   -3.2467    1.4536 H   0  0  0  0  0  0  0  0  0  0  0  0
   -0.5647   -4.4745    2.3340 H   0  0  0  0  0  0  0  0  0  0  0  0
    1.0163    3.3189   -1.0170 N   0  0  0  0  0  0  0  0  0  0  0  0
    1.3793    4.4625   -1.8678 C   0  0  2  0  0  0  0  0  0  0  0  0
    2.9000    4.5399   -2.1467 C   0  0  0  0  0  0  0  0  0  0  0  0
    3.5707    5.5073   -1.8068 O   0  0  0  0  0  0  0  0  0  0  0  0
    0.8322    5.7245   -1.1895 C   0  0  0  0  0  0  0  0  0  0  0  0
    0.9066    3.4686   -0.0162 H   0  0  0  0  0  0  0  0  0  0  0  0
    0.8823    4.3642   -2.8388 H   0  0  0  0  0  0  0  0  0  0  0  0
    1.3066    5.8736   -0.2141 H   0  0  0  0  0  0  0  0  0  0  0  0
    1.0321    6.6044   -1.8093 H   0  0  0  0  0  0  0  0  0  0  0  0
   -0.2493    5.6429   -1.0457 H   0  0  0  0  0  0  0  0  0  0  0  0
    3.5167    3.4913   -2.7994 N   0  0  0  0  0  0  0  0  0  0  0  0
    4.9464    3.4269   -3.0679 C   0  0  0  0  0  0  0  0  0  0  0  0
    2.9232    2.6889   -3.0250 H   0  0  0  0  0  0  0  0  0  0  0  0
    5.2635    4.2872   -3.6663 H   0  0  0  0  0  0  0  0  0  0  0  0
    5.5112    3.4222   -2.1299 H   0  0  0  0  0  0  0  0  0  0  0  0
    5.1851    2.5144   -3.6224 H   0  0  0  0  0  0  0  0  0  0  0  0
  1  2  2  0  0  0  0
  1  3  1  0  0  0  0
  1  7  1  0  0  0  0
  3  4  1  0  0  0  0
  3  5  1  0  0  0  0
  3  6  1  0  0  0  0
  7  8  1  0  0  0  0
  7 12  1  0  0  0  0
  8  9  1  0  0  0  0
  8 11  1  0  0  0  0
  8 13  1  0  0  0  0
  9 10  2  0  0  0  0
  9 17  1  0  0  0  0
 11 14  1  0  0  0  0
 11 15  1  0  0  0  0
 11 16  1  0  0  0  0
 17 18  1  0  0  0  0
 17 28  1  0  0  0  0
 18 19  1  0  0  0  0
 18 21  1  0  0  0  0
 18 29  1  0  0  0  0
 19 20  2  0  0  0  0
 19 37  1  0  0  0  0
 21 22  1  0  0  0  0
 21 30  1  0  0  0  0
 21 31  1  0  0  0  0
 22 23  1  0  0  0  0
 22 24  2  0  0  0  0
 23 25  2  0  0  0  0
 23 32  1  0  0  0  0
 24 26  1  0  0  0  0
 24 33  1  0  0  0  0
 25 27  1  0  0  0  0
 25 34  1  0  0  0  0
 26 27  2  0  0  0  0
 26 35  1  0  0  0  0
 27 36  1  0  0  0  0
 37 38  1  0  0  0  0
 37 42  1  0  0  0  0
 38 39  1  0  0  0  0
 38 41  1  0  0  0  0
 38 43  1  0  0  0  0
 39 40  2  0  0  0  0
 39 47  1  0  0  0  0
 41 44  1  0  0  0  0
 41 45  1  0  0  0  0
 41 46  1  0  0  0  0
 47 48  1  0  0  0  0
 47 49  1  0  0  0  0
 48 50  1  0  0  0  0
 48 51  1  0  0  0  0
 48 52  1  0  0  0  0
M  END
$$$$

  -OEChem-05262217163D

 52 52  0     1  0  0  0  0  0999 V2000
   -2.8346   -0.5091    3.3102 C   0  0  0  0  0  0  0  0  0  0  0  0
   -3.5675   -0.5488    2.3334 O   0  0  0  0  0  0  0  0  0  0  0  0
   -2.7533   -1.6960    4.2514 C   0  0  0  0  0  0  0  0  0  0  0  0
   -3.4269   -2.4899    3.9167 H   0  0  0  0  0  0  0  0  0  0  0  0
   -1.7324   -2.0859    4.2715 H   0  0  0  0  0  0  0  0  0  0  0  0
   -3.0408   -1.3923    5.2610 H   0  0  0  0  0  0  0  0  0  0  0  0
   -2.0583    0.6062    3.5484 N   0  0  0  0  0  0  0  0  0  0  0  0
   -1.8845    1.6870    2.5705 C   0  0  2  0  0  0  0  0  0  0  0  0
   -0.5936    1.4871    1.7517 C   0  0  0  0  0  0  0  0  0  0  0  0
    0.4953    1.4862    2.3144 O   0  0  0  0  0  0  0  0  0  0  0  0
   -1.8565    3.0150    3.3322 C   0  0  0  0  0  0  0  0  0  0  0  0
   -1.3442    0.5107    4.2666 H   0  0  0  0  0  0  0  0  0  0  0  0
   -2.7307    1.7188    1.8762 H   0  0  0  0  0  0  0  0  0  0  0  0
   -1.0236    3.0363    4.0426 H   0  0  0  0  0  0  0  0  0  0  0  0
   -1.7384    3.8502    2.6350 H   0  0  0  0  0  0  0  0  0  0  0  0
   -2.7904    3.1550    3.8853 H   0  0  0  0  0  0  0  0  0  0  0  0
   -0.6388    1.4070    0.3727 N   0  0  0  0  0  0  0  0  0  0  0  0
    0.5003    0.9515   -0.4460 C   0  0  2  0  0  0  0  0  0  0  0  0
    0.9276    2.0691   -1.4169 C   0  0  0  0  0  0  0  0  0  0  0  0
    0.9542    1.9142   -2.6328 O   0  0  0  0  0  0  0  0  0  0  0  0
    0.1071   -0.3435   -1.1842 C   0  0  0  0  0  0  0  0  0  0  0  0
   -0.0965   -1.4896   -0.2215 C   0  0  0  0  0  0  0  0  0  0  0  0
    1.0049   -2.2049    0.2727 C   0  0  0  0  0  0  0  0  0  0  0  0
   -1.3866   -1.8666    0.1795 C   0  0  0  0  0  0  0  0  0  0  0  0
    0.8200   -3.2750    1.1554 C   0  0  0  0  0  0  0  0  0  0  0  0
   -1.5731   -2.9382    1.0582 C   0  0  0  0  0  0  0  0  0  0  0  0
   -0.4702   -3.6429    1.5486 C   0  0  0  0  0  0  0  0  0  0  0  0
   -1.5678    1.3150   -0.0319 H   0  0  0  0  0  0  0  0  0  0  0  0
    1.3733    0.7281    0.1762 H   0  0  0  0  0  0  0  0  0  0  0  0
    0.8986   -0.6181   -1.8894 H   0  0  0  0  0  0  0  0  0  0  0  0
   -0.8019   -0.1764   -1.7717 H   0  0  0  0  0  0  0  0  0  0  0  0
    2.0116   -1.9310   -0.0288 H   0  0  0  0  0  0  0  0  0  0  0  0
   -2.2570   -1.3303   -0.1870 H   0  0  0  0  0  0  0  0  0  0  0  0
    1.6796   -3.8224    1.5309 H   0  0  0  0  0  0  0  0  0  0  0  0
   -2.5798   -3.2163    1.3571 H   0  0  0  0  0  0  0  0  0  0  0  0
   -0.6151   -4.4766    2.2293 H   0  0  0  0  0  0  0  0  0  0  0  0
    1.3407    3.2785   -0.8906 N   0  0  0  0  0  0  0  0  0  0  0  0
    1.8003    4.4257   -1.6885 C   0  0  2  0  0  0  0  0  0  0  0  0
    3.2522    4.2507   -2.1968 C   0  0  0  0  0  0  0  0  0  0  0  0
    4.1460    5.0275   -1.8825 O   0  0  0  0  0  0  0  0  0  0  0  0
    1.6167    5.6840   -0.8306 C   0  0  0  0  0  0  0  0  0  0  0  0
    1.3815    3.3409    0.1252 H   0  0  0  0  0  0  0  0  0  0  0  0
    1.1634    4.5306   -2.5731 H   0  0  0  0  0  0  0  0  0  0  0  0
    2.2354    5.6293    0.0710 H   0  0  0  0  0  0  0  0  0  0  0  0
    1.9092    6.5744   -1.3966 H   0  0  0  0  0  0  0  0  0  0  0  0
    0.5696    5.7939   -0.5323 H   0  0  0  0  0  0  0  0  0  0  0  0
    3.5480    3.1877   -3.0269 N   0  0  0  0  0  0  0  0  0  0  0  0
    4.8821    2.8921   -3.5298 C   0  0  0  0  0  0  0  0  0  0  0  0
    2.7769    2.5469   -3.2317 H   0  0  0  0  0  0  0  0  0  0  0  0
    5.2595    3.7280   -4.1280 H   0  0  0  0  0  0  0  0  0  0  0  0
    5.5726    2.7119   -2.6994 H   0  0  0  0  0  0  0  0  0  0  0  0
    4.8577    1.9985   -4.1608 H   0  0  0  0  0  0  0  0  0  0  0  0
  1  2  2  0  0  0  0
  1  3  1  0  0  0  0
  1  7  1  0  0  0  0
  3  4  1  0  0  0  0
  3  5  1  0  0  0  0
  3  6  1  0  0  0  0
  7  8  1  0  0  0  0
  7 12  1  0  0  0  0
  8  9  1  0  0  0  0
  8 11  1  0  0  0  0
  8 13  1  0  0  0  0
  9 10  2  0  0  0  0
  9 17  1  0  0  0  0
 11 14  1  0  0  0  0
 11 15  1  0  0  0  0
 11 16  1  0  0  0  0
 17 18  1  0  0  0  0
 17 28  1  0  0  0  0
 18 19  1  0  0  0  0
 18 21  1  0  0  0  0
 18 29  1  0  0  0  0
 19 20  2  0  0  0  0
 19 37  1  0  0  0  0
 21 22  1  0  0  0  0
 21 30  1  0  0  0  0
 21 31  1  0  0  0  0
 22 23  1  0  0  0  0
 22 24  2  0  0  0  0
 23 25  2  0  0  0  0
 23 32  1  0  0  0  0
 24 26  1  0  0  0  0
 24 33  1  0  0  0  0
 25 27  1  0  0  0  0
 25 34  1  0  0  0  0
 26 27  2  0  0  0  0
 26 35  1  0  0  0  0
 27 36  1  0  0  0  0
 37 38  1  0  0  0  0
 37 42  1  0  0  0  0
 38 39  1  0  0  0  0
 38 41  1  0  0  0  0
 38 43  1  0  0  0  0
 39 40  2  0  0  0  0
 39 47  1  0  0  0  0
 41 44  1  0  0  0  0
 41 45  1  0  0  0  0
 41 46  1  0  0  0  0
 47 48  1  0  0  0  0
 47 49  1  0  0  0  0
 48 50  1  0  0  0  0
 48 51  1  0  0  0  0
 48 52  1  0  0  0  0
M  END
$$$$

  -OEChem-05262217163D

 52 52  0     1  0  0  0  0  0999 V2000
   -2.8779   -0.4955    3.2978 C   0  0  0  0  0  0  0  0  0  0  0  0
   -3.6094   -0.5083    2.3194 O   0  0  0  0  0  0  0  0  0  0  0  0
   -2.8343   -1.6903    4.2320 C   0  0  0  0  0  0  0  0  0  0  0  0
   -3.5152   -2.4703    3.8802 H   0  0  0  0  0  0  0  0  0  0  0  0
   -1.8212   -2.0988    4.2677 H   0  0  0  0  0  0  0  0  0  0  0  0
   -3.1345   -1.3885    5.2384 H   0  0  0  0  0  0  0  0  0  0  0  0
   -2.0708    0.5956    3.5458 N   0  0  0  0  0  0  0  0  0  0  0  0
   -1.8637    1.6790    2.5770 C   0  0  2  0  0  0  0  0  0  0  0  0
   -0.5649    1.4612    1.7761 C   0  0  0  0  0  0  0  0  0  0  0  0
    0.5110    1.3934    2.3605 O   0  0  0  0  0  0  0  0  0  0  0  0
   -1.8226    3.0013    3.3476 C   0  0  0  0  0  0  0  0  0  0  0  0
   -1.3568    0.4709    4.2596 H   0  0  0  0  0  0  0  0  0  0  0  0
   -2.6981    1.7303    1.8699 H   0  0  0  0  0  0  0  0  0  0  0  0
   -0.9965    3.0053    4.0664 H   0  0  0  0  0  0  0  0  0  0  0  0
   -1.6859    3.8394    2.6572 H   0  0  0  0  0  0  0  0  0  0  0  0
   -2.7598    3.1511    3.8924 H   0  0  0  0  0  0  0  0  0  0  0  0
   -0.5876    1.4151    0.3948 N   0  0  0  0  0  0  0  0  0  0  0  0
    0.5545    0.9556   -0.4147 C   0  0  2  0  0  0  0  0  0  0  0  0
    1.0210    2.0856   -1.3501 C   0  0  0  0  0  0  0  0  0  0  0  0
    0.8191    2.0614   -2.5592 O   0  0  0  0  0  0  0  0  0  0  0  0
    0.1438   -0.3087   -1.1936 C   0  0  0  0  0  0  0  0  0  0  0  0
   -0.1023   -1.4689   -0.2581 C   0  0  0  0  0  0  0  0  0  0  0  0
    0.9724   -2.2210    0.2393 C   0  0  0  0  0  0  0  0  0  0  0  0
   -1.4071   -1.8124    0.1251 C   0  0  0  0  0  0  0  0  0  0  0  0
    0.7469   -3.2939    1.1093 C   0  0  0  0  0  0  0  0  0  0  0  0
   -1.6342   -2.8863    0.9910 C   0  0  0  0  0  0  0  0  0  0  0  0
   -0.5576   -3.6278    1.4855 C   0  0  0  0  0  0  0  0  0  0  0  0
   -1.5092    1.3825   -0.0349 H   0  0  0  0  0  0  0  0  0  0  0  0
    1.4110    0.6930    0.2147 H   0  0  0  0  0  0  0  0  0  0  0  0
    0.9409   -0.5818   -1.8934 H   0  0  0  0  0  0  0  0  0  0  0  0
   -0.7524   -0.1066   -1.7899 H   0  0  0  0  0  0  0  0  0  0  0  0
    1.9897   -1.9715   -0.0470 H   0  0  0  0  0  0  0  0  0  0  0  0
   -2.2574   -1.2459   -0.2432 H   0  0  0  0  0  0  0  0  0  0  0  0
    1.5861   -3.8684    1.4903 H   0  0  0  0  0  0  0  0  0  0  0  0
   -2.6521   -3.1352    1.2777 H   0  0  0  0  0  0  0  0  0  0  0  0
   -0.7339   -4.4631    2.1568 H   0  0  0  0  0  0  0  0  0  0  0  0
    1.7352    3.1396   -0.8133 N   0  0  0  0  0  0  0  0  0  0  0  0
    2.2410    4.2847   -1.5854 C   0  0  2  0  0  0  0  0  0  0  0  0
    3.5265    3.9436   -2.3777 C   0  0  0  0  0  0  0  0  0  0  0  0
    4.5855    4.5261   -2.1767 O   0  0  0  0  0  0  0  0  0  0  0  0
    2.4355    5.4482   -0.6055 C   0  0  0  0  0  0  0  0  0  0  0  0
    1.9059    3.1130    0.1903 H   0  0  0  0  0  0  0  0  0  0  0  0
    1.4861    4.5899   -2.3178 H   0  0  0  0  0  0  0  0  0  0  0  0
    3.1857    5.1947    0.1506 H   0  0  0  0  0  0  0  0  0  0  0  0
    2.7725    6.3415   -1.1414 H   0  0  0  0  0  0  0  0  0  0  0  0
    1.4938    5.6838   -0.1006 H   0  0  0  0  0  0  0  0  0  0  0  0
    3.4761    2.9553   -3.3401 N   0  0  0  0  0  0  0  0  0  0  0  0
    4.6230    2.5204   -4.1241 C   0  0  0  0  0  0  0  0  0  0  0  0
    2.5806    2.4707   -3.4424 H   0  0  0  0  0  0  0  0  0  0  0  0
    5.0403    3.3598   -4.6900 H   0  0  0  0  0  0  0  0  0  0  0  0
    5.4011    2.1135   -3.4700 H   0  0  0  0  0  0  0  0  0  0  0  0
    4.3218    1.7423   -4.8320 H   0  0  0  0  0  0  0  0  0  0  0  0
  1  2  2  0  0  0  0
  1  3  1  0  0  0  0
  1  7  1  0  0  0  0
  3  4  1  0  0  0  0
  3  5  1  0  0  0  0
  3  6  1  0  0  0  0
  7  8  1  0  0  0  0
  7 12  1  0  0  0  0
  8  9  1  0  0  0  0
  8 11  1  0  0  0  0
  8 13  1  0  0  0  0
  9 10  2  0  0  0  0
  9 17  1  0  0  0  0
 11 14  1  0  0  0  0
 11 15  1  0  0  0  0
 11 16  1  0  0  0  0
 17 18  1  0  0  0  0
 17 28  1  0  0  0  0
 18 19  1  0  0  0  0
 18 21  1  0  0  0  0
 18 29  1  0  0  0  0
 19 20  2  0  0  0  0
 19 37  1  0  0  0  0
 21 22  1  0  0  0  0
 21 30  1  0  0  0  0
 21 31  1  0  0  0  0
 22 23  1  0  0  0  0
 22 24  2  0  0  0  0
 23 25  2  0  0  0  0
 23 32  1  0  0  0  0
 24 26  1  0  0  0  0
 24 33  1  0  0  0  0
 25 27  1  0  0  0  0
 25 34  1  0  0  0  0
 26 27  2  0  0  0  0
 26 35  1  0  0  0  0
 27 36  1  0  0  0  0
 37 38  1  0  0  0  0
 37 42  1  0  0  0  0
 38 39  1  0  0  0  0
 38 41  1  0  0  0  0
 38 43  1  0  0  0  0
 39 40  2  0  0  0  0
 39 47  1  0  0  0  0
 41 44  1  0  0  0  0
 41 45  1  0  0  0  0
 41 46  1  0  0  0  0
 47 48  1  0  0  0  0
 47 49  1  0  0  0  0
 48 50  1  0  0  0  0
 48 51  1  0  0  0  0
 48 52  1  0  0  0  0
M  END
$$$$

  -OEChem-05262217163D

 52 52  0     1  0  0  0  0  0999 V2000
   -2.8931   -0.4830    3.2856 C   0  0  0  0  0  0  0  0  0  0  0  0
   -3.6329   -0.4806    2.3134 O   0  0  0  0  0  0  0  0  0  0  0  0
   -2.8325   -1.6992    4.1901 C   0  0  0  0  0  0  0  0  0  0  0  0
   -3.5788   -2.4363    3.8810 H   0  0  0  0  0  0  0  0  0  0  0  0
   -1.8412   -2.1559    4.1330 H   0  0  0  0  0  0  0  0  0  0  0  0
   -3.0335   -1.4076    5.2238 H   0  0  0  0  0  0  0  0  0  0  0  0
   -2.0865    0.6052    3.5481 N   0  0  0  0  0  0  0  0  0  0  0  0
   -1.8684    1.6910    2.5839 C   0  0  2  0  0  0  0  0  0  0  0  0
   -0.5576    1.4735    1.8030 C   0  0  0  0  0  0  0  0  0  0  0  0
    0.5026    1.3519    2.4075 O   0  0  0  0  0  0  0  0  0  0  0  0
   -1.8394    3.0136    3.3535 C   0  0  0  0  0  0  0  0  0  0  0  0
   -1.3671    0.4660    4.2540 H   0  0  0  0  0  0  0  0  0  0  0  0
   -2.6919    1.7404    1.8639 H   0  0  0  0  0  0  0  0  0  0  0  0
   -1.0288    3.0145    4.0892 H   0  0  0  0  0  0  0  0  0  0  0  0
   -1.6849    3.8502    2.6651 H   0  0  0  0  0  0  0  0  0  0  0  0
   -2.7874    3.1673    3.8783 H   0  0  0  0  0  0  0  0  0  0  0  0
   -0.5569    1.4551    0.4213 N   0  0  0  0  0  0  0  0  0  0  0  0
    0.5855    0.9887   -0.3812 C   0  0  2  0  0  0  0  0  0  0  0  0
    1.0996    2.1175   -1.2915 C   0  0  0  0  0  0  0  0  0  0  0  0
    0.7016    2.2501   -2.4437 O   0  0  0  0  0  0  0  0  0  0  0  0
    0.1600   -0.2491   -1.1938 C   0  0  0  0  0  0  0  0  0  0  0  0
   -0.1240   -1.4253   -0.2888 C   0  0  0  0  0  0  0  0  0  0  0  0
    0.9301   -2.2093    0.2042 C   0  0  0  0  0  0  0  0  0  0  0  0
   -1.4400   -1.7518    0.0720 C   0  0  0  0  0  0  0  0  0  0  0  0
    0.6740   -3.2972    1.0461 C   0  0  0  0  0  0  0  0  0  0  0  0
   -1.6976   -2.8418    0.9093 C   0  0  0  0  0  0  0  0  0  0  0  0
   -0.6410   -3.6143    1.3992 C   0  0  0  0  0  0  0  0  0  0  0  0
   -1.4677    1.4817   -0.0306 H   0  0  0  0  0  0  0  0  0  0  0  0
    1.4224    0.6899    0.2583 H   0  0  0  0  0  0  0  0  0  0  0  0
    0.9589   -0.5213   -1.8917 H   0  0  0  0  0  0  0  0  0  0  0  0
   -0.7257   -0.0148   -1.7944 H   0  0  0  0  0  0  0  0  0  0  0  0
    1.9555   -1.9741   -0.0643 H   0  0  0  0  0  0  0  0  0  0  0  0
   -2.2749   -1.1593   -0.2912 H   0  0  0  0  0  0  0  0  0  0  0  0
    1.4977   -3.8964    1.4234 H   0  0  0  0  0  0  0  0  0  0  0  0
   -2.7229   -3.0793    1.1788 H   0  0  0  0  0  0  0  0  0  0  0  0
   -0.8415   -4.4603    2.0498 H   0  0  0  0  0  0  0  0  0  0  0  0
    2.0808    2.9687   -0.8198 N   0  0  0  0  0  0  0  0  0  0  0  0
    2.6619    4.0795   -1.5891 C   0  0  2  0  0  0  0  0  0  0  0  0
    3.7110    3.6004   -2.6225 C   0  0  0  0  0  0  0  0  0  0  0  0
    4.8715    3.9924   -2.5944 O   0  0  0  0  0  0  0  0  0  0  0  0
    3.2368    5.0803   -0.5784 C   0  0  0  0  0  0  0  0  0  0  0  0
    2.3860    2.8317    0.1416 H   0  0  0  0  0  0  0  0  0  0  0  0
    1.8693    4.5873   -2.1491 H   0  0  0  0  0  0  0  0  0  0  0  0
    4.0450    4.6212    0.0003 H   0  0  0  0  0  0  0  0  0  0  0  0
    3.6388    5.9560   -1.0982 H   0  0  0  0  0  0  0  0  0  0  0  0
    2.4580    5.4174    0.1123 H   0  0  0  0  0  0  0  0  0  0  0  0
    3.3302    2.7050   -3.6023 N   0  0  0  0  0  0  0  0  0  0  0  0
    4.2286    2.1742   -4.6178 C   0  0  0  0  0  0  0  0  0  0  0  0
    2.3540    2.3991   -3.5804 H   0  0  0  0  0  0  0  0  0  0  0  0
    4.6118    2.9830   -5.2485 H   0  0  0  0  0  0  0  0  0  0  0  0
    5.0745    1.6599   -4.1499 H   0  0  0  0  0  0  0  0  0  0  0  0
    3.6984    1.4594   -5.2545 H   0  0  0  0  0  0  0  0  0  0  0  0
  1  2  2  0  0  0  0
  1  3  1  0  0  0  0
  1  7  1  0  0  0  0
  3  4  1  0  0  0  0
  3  5  1  0  0  0  0
  3  6  1  0  0  0  0
  7  8  1  0  0  0  0
  7 12  1  0  0  0  0
  8  9  1  0  0  0  0
  8 11  1  0  0  0  0
  8 13  1  0  0  0  0
  9 10  2  0  0  0  0
  9 17  1  0  0  0  0
 11 14  1  0  0  0  0
 11 15  1  0  0  0  0
 11 16  1  0  0  0  0
 17 18  1  0  0  0  0
 17 28  1  0  0  0  0
 18 19  1  0  0  0  0
 18 21  1  0  0  0  0
 18 29  1  0  0  0  0
 19 20  2  0  0  0  0
 19 37  1  0  0  0  0
 21 22  1  0  0  0  0
 21 30  1  0  0  0  0
 21 31  1  0  0  0  0
 22 23  1  0  0  0  0
 22 24  2  0  0  0  0
 23 25  2  0  0  0  0
 23 32  1  0  0  0  0
 24 26  1  0  0  0  0
 24 33  1  0  0  0  0
 25 27  1  0  0  0  0
 25 34  1  0  0  0  0
 26 27  2  0  0  0  0
 26 35  1  0  0  0  0
 27 36  1  0  0  0  0
 37 38  1  0  0  0  0
 37 42  1  0  0  0  0
 38 39  1  0  0  0  0
 38 41  1  0  0  0  0
 38 43  1  0  0  0  0
 39 40  2  0  0  0  0
 39 47  1  0  0  0  0
 41 44  1  0  0  0  0
 41 45  1  0  0  0  0
 41 46  1  0  0  0  0
 47 48  1  0  0  0  0
 47 49  1  0  0  0  0
 48 50  1  0  0  0  0
 48 51  1  0  0  0  0
 48 52  1  0  0  0  0
M  END
$$$$

  -OEChem-05262217163D

 52 52  0     1  0  0  0  0  0999 V2000
   -2.9611   -0.3785    3.1853 C   0  0  0  0  0  0  0  0  0  0  0  0
   -3.6383   -0.3081    2.1709 O   0  0  0  0  0  0  0  0  0  0  0  0
   -3.0151   -1.6233    4.0503 C   0  0  0  0  0  0  0  0  0  0  0  0
   -3.7772   -2.3118    3.6745 H   0  0  0  0  0  0  0  0  0  0  0  0
   -2.0460   -2.1286    4.0353 H   0  0  0  0  0  0  0  0  0  0  0  0
   -3.2622   -1.3527    5.0797 H   0  0  0  0  0  0  0  0  0  0  0  0
   -2.1189    0.6575    3.5325 N   0  0  0  0  0  0  0  0  0  0  0  0
   -1.7925    1.7603    2.6201 C   0  0  2  0  0  0  0  0  0  0  0  0
   -0.4875    1.4676    1.8535 C   0  0  0  0  0  0  0  0  0  0  0  0
    0.5536    1.2709    2.4715 O   0  0  0  0  0  0  0  0  0  0  0  0
   -1.6728    3.0425    3.4483 C   0  0  0  0  0  0  0  0  0  0  0  0
   -1.4484    0.4568    4.2707 H   0  0  0  0  0  0  0  0  0  0  0  0
   -2.5952    1.9078    1.8902 H   0  0  0  0  0  0  0  0  0  0  0  0
   -0.8787    2.9471    4.1963 H   0  0  0  0  0  0  0  0  0  0  0  0
   -1.4389    3.8932    2.8004 H   0  0  0  0  0  0  0  0  0  0  0  0
   -2.6154    3.2495    3.9646 H   0  0  0  0  0  0  0  0  0  0  0  0
   -0.4711    1.4498    0.4717 N   0  0  0  0  0  0  0  0  0  0  0  0
    0.6672    0.9622   -0.3235 C   0  0  2  0  0  0  0  0  0  0  0  0
    1.2137    2.0790   -1.2295 C   0  0  0  0  0  0  0  0  0  0  0  0
    0.6430    2.3872   -2.2704 O   0  0  0  0  0  0  0  0  0  0  0  0
    0.2198   -0.2500   -1.1605 C   0  0  0  0  0  0  0  0  0  0  0  0
   -0.1098   -1.4325   -0.2807 C   0  0  0  0  0  0  0  0  0  0  0  0
    0.9127   -2.2552    0.2149 C   0  0  0  0  0  0  0  0  0  0  0  0
   -1.4404   -1.7254    0.0531 C   0  0  0  0  0  0  0  0  0  0  0  0
    0.6101   -3.3522    1.0292 C   0  0  0  0  0  0  0  0  0  0  0  0
   -1.7447   -2.8233    0.8635 C   0  0  0  0  0  0  0  0  0  0  0  0
   -0.7198   -3.6380    1.3530 C   0  0  0  0  0  0  0  0  0  0  0  0
   -1.3684    1.5480    0.0024 H   0  0  0  0  0  0  0  0  0  0  0  0
    1.4881    0.6356    0.3228 H   0  0  0  0  0  0  0  0  0  0  0  0
    1.0216   -0.5328   -1.8507 H   0  0  0  0  0  0  0  0  0  0  0  0
   -0.6500    0.0177   -1.7703 H   0  0  0  0  0  0  0  0  0  0  0  0
    1.9491   -2.0446   -0.0310 H   0  0  0  0  0  0  0  0  0  0  0  0
   -2.2505   -1.0997   -0.3106 H   0  0  0  0  0  0  0  0  0  0  0  0
    1.4090   -3.9835    1.4066 H   0  0  0  0  0  0  0  0  0  0  0  0
   -2.7812   -3.0349    1.1109 H   0  0  0  0  0  0  0  0  0  0  0  0
   -0.9561   -4.4918    1.9811 H   0  0  0  0  0  0  0  0  0  0  0  0
    2.3995    2.7107   -0.9049 N   0  0  0  0  0  0  0  0  0  0  0  0
    3.0028    3.7980   -1.6912 C   0  0  2  0  0  0  0  0  0  0  0  0
    3.7486    3.2785   -2.9447 C   0  0  0  0  0  0  0  0  0  0  0  0
    4.9471    3.4719   -3.1101 O   0  0  0  0  0  0  0  0  0  0  0  0
    3.9091    4.5978   -0.7472 C   0  0  0  0  0  0  0  0  0  0  0  0
    2.8396    2.4462   -0.0267 H   0  0  0  0  0  0  0  0  0  0  0  0
    2.2148    4.4716   -2.0447 H   0  0  0  0  0  0  0  0  0  0  0  0
    4.7294    3.9732   -0.3788 H   0  0  0  0  0  0  0  0  0  0  0  0
    4.3384    5.4570   -1.2725 H   0  0  0  0  0  0  0  0  0  0  0  0
    3.3373    4.9683    0.1089 H   0  0  0  0  0  0  0  0  0  0  0  0
    3.0433    2.5766   -3.9021 N   0  0  0  0  0  0  0  0  0  0  0  0
    3.6358    2.0228   -5.1114 C   0  0  0  0  0  0  0  0  0  0  0  0
    2.0514    2.4181   -3.7062 H   0  0  0  0  0  0  0  0  0  0  0  0
    4.0536    2.8218   -5.7326 H   0  0  0  0  0  0  0  0  0  0  0  0
    4.4343    1.3175   -4.8588 H   0  0  0  0  0  0  0  0  0  0  0  0
    2.8767    1.4919   -5.6936 H   0  0  0  0  0  0  0  0  0  0  0  0
  1  2  2  0  0  0  0
  1  3  1  0  0  0  0
  1  7  1  0  0  0  0
  3  4  1  0  0  0  0
  3  5  1  0  0  0  0
  3  6  1  0  0  0  0
  7  8  1  0  0  0  0
  7 12  1  0  0  0  0
  8  9  1  0  0  0  0
  8 11  1  0  0  0  0
  8 13  1  0  0  0  0
  9 10  2  0  0  0  0
  9 17  1  0  0  0  0
 11 14  1  0  0  0  0
 11 15  1  0  0  0  0
 11 16  1  0  0  0  0
 17 18  1  0  0  0  0
 17 28  1  0  0  0  0
 18 19  1  0  0  0  0
 18 21  1  0  0  0  0
 18 29  1  0  0  0  0
 19 20  2  0  0  0  0
 19 37  1  0  0  0  0
 21 22  1  0  0  0  0
 21 30  1  0  0  0  0
 21 31  1  0  0  0  0
 22 23  1  0  0  0  0
 22 24  2  0  0  0  0
 23 25  2  0  0  0  0
 23 32  1  0  0  0  0
 24 26  1  0  0  0  0
 24 33  1  0  0  0  0
 25 27  1  0  0  0  0
 25 34  1  0  0  0  0
 26 27  2  0  0  0  0
 26 35  1  0  0  0  0
 27 36  1  0  0  0  0
 37 38  1  0  0  0  0
 37 42  1  0  0  0  0
 38 39  1  0  0  0  0
 38 41  1  0  0  0  0
 38 43  1  0  0  0  0
 39 40  2  0  0  0  0
 39 47  1  0  0  0  0
 41 44  1  0  0  0  0
 41 45  1  0  0  0  0
 41 46  1  0  0  0  0
 47 48  1  0  0  0  0
 47 49  1  0  0  0  0
 48 50  1  0  0  0  0
 48 51  1  0  0  0  0
 48 52  1  0  0  0  0
M  END
$$$$

  -OEChem-05262217163D

 52 52  0     1  0  0  0  0  0999 V2000
   -2.9539   -0.3098    3.2057 C   0  0  0  0  0  0  0  0  0  0  0  0
   -3.6234   -0.2444    2.1858 O   0  0  0  0  0  0  0  0  0  0  0  0
   -3.0147   -1.5503    4.0763 C   0  0  0  0  0  0  0  0  0  0  0  0
   -3.7940   -2.2271    3.7154 H   0  0  0  0  0  0  0  0  0  0  0  0
   -2.0539   -2.0705    4.0469 H   0  0  0  0  0  0  0  0  0  0  0  0
   -3.2406   -1.2730    5.1089 H   0  0  0  0  0  0  0  0  0  0  0  0
   -2.1063    0.7229    3.5505 N   0  0  0  0  0  0  0  0  0  0  0  0
   -1.7424    1.7951    2.6155 C   0  0  2  0  0  0  0  0  0  0  0  0
   -0.4410    1.4442    1.8682 C   0  0  0  0  0  0  0  0  0  0  0  0
    0.5720    1.1697    2.5031 O   0  0  0  0  0  0  0  0  0  0  0  0
   -1.5882    3.0939    3.4108 C   0  0  0  0  0  0  0  0  0  0  0  0
   -1.4391    0.5159    4.2899 H   0  0  0  0  0  0  0  0  0  0  0  0
   -2.5356    1.9469    1.8759 H   0  0  0  0  0  0  0  0  0  0  0  0
   -0.8029    2.9935    4.1670 H   0  0  0  0  0  0  0  0  0  0  0  0
   -1.3226    3.9191    2.7428 H   0  0  0  0  0  0  0  0  0  0  0  0
   -2.5276    3.3440    3.9135 H   0  0  0  0  0  0  0  0  0  0  0  0
   -0.4047    1.4365    0.4871 N   0  0  0  0  0  0  0  0  0  0  0  0
    0.7256    0.9269   -0.3046 C   0  0  2  0  0  0  0  0  0  0  0  0
    1.3120    2.0340   -1.1966 C   0  0  0  0  0  0  0  0  0  0  0  0
    0.6348    2.5477   -2.0810 O   0  0  0  0  0  0  0  0  0  0  0  0
    0.2462   -0.2526   -1.1683 C   0  0  0  0  0  0  0  0  0  0  0  0
   -0.1329   -1.4390   -0.3133 C   0  0  0  0  0  0  0  0  0  0  0  0
    0.8540   -2.3066    0.1779 C   0  0  0  0  0  0  0  0  0  0  0  0
   -1.4761   -1.6856    0.0085 C   0  0  0  0  0  0  0  0  0  0  0  0
    0.5037   -3.4020    0.9754 C   0  0  0  0  0  0  0  0  0  0  0  0
   -1.8277   -2.7808    0.8032 C   0  0  0  0  0  0  0  0  0  0  0  0
   -0.8382   -3.6404    1.2879 C   0  0  0  0  0  0  0  0  0  0  0  0
   -1.2760    1.6319   -0.0001 H   0  0  0  0  0  0  0  0  0  0  0  0
    1.5286    0.5674    0.3464 H   0  0  0  0  0  0  0  0  0  0  0  0
    1.0452   -0.5503   -1.8553 H   0  0  0  0  0  0  0  0  0  0  0  0
   -0.6068    0.0572   -1.7818 H   0  0  0  0  0  0  0  0  0  0  0  0
    1.8991   -2.1317   -0.0578 H   0  0  0  0  0  0  0  0  0  0  0  0
   -2.2589   -1.0231   -0.3496 H   0  0  0  0  0  0  0  0  0  0  0  0
    1.2750   -4.0679    1.3509 H   0  0  0  0  0  0  0  0  0  0  0  0
   -2.8729   -2.9542    1.0434 H   0  0  0  0  0  0  0  0  0  0  0  0
   -1.1113   -4.4914    1.9049 H   0  0  0  0  0  0  0  0  0  0  0  0
    2.6327    2.4180   -1.0559 N   0  0  0  0  0  0  0  0  0  0  0  0
    3.2793    3.4711   -1.8539 C   0  0  2  0  0  0  0  0  0  0  0  0
    3.6834    2.9812   -3.2660 C   0  0  0  0  0  0  0  0  0  0  0  0
    4.8503    2.9801   -3.6393 O   0  0  0  0  0  0  0  0  0  0  0  0
    4.4704    3.9943   -1.0411 C   0  0  0  0  0  0  0  0  0  0  0  0
    3.1678    1.9808   -0.3101 H   0  0  0  0  0  0  0  0  0  0  0  0
    2.5808    4.3034   -1.9924 H   0  0  0  0  0  0  0  0  0  0  0  0
    5.2075    3.2006   -0.8823 H   0  0  0  0  0  0  0  0  0  0  0  0
    4.9589    4.8177   -1.5723 H   0  0  0  0  0  0  0  0  0  0  0  0
    4.1360    4.3636   -0.0669 H   0  0  0  0  0  0  0  0  0  0  0  0
    2.7023    2.5351   -4.1289 N   0  0  0  0  0  0  0  0  0  0  0  0
    2.9580    2.0594   -5.4812 C   0  0  0  0  0  0  0  0  0  0  0  0
    1.7458    2.5353   -3.7650 H   0  0  0  0  0  0  0  0  0  0  0  0
    3.3628    2.8674   -6.0995 H   0  0  0  0  0  0  0  0  0  0  0  0
    3.6748    1.2316   -5.4678 H   0  0  0  0  0  0  0  0  0  0  0  0
    2.0294    1.7046   -5.9385 H   0  0  0  0  0  0  0  0  0  0  0  0
  1  2  2  0  0  0  0
  1  3  1  0  0  0  0
  1  7  1  0  0  0  0
  3  4  1  0  0  0  0
  3  5  1  0  0  0  0
  3  6  1  0  0  0  0
  7  8  1  0  0  0  0
  7 12  1  0  0  0  0
  8  9  1  0  0  0  0
  8 11  1  0  0  0  0
  8 13  1  0  0  0  0
  9 10  2  0  0  0  0
  9 17  1  0  0  0  0
 11 14  1  0  0  0  0
 11 15  1  0  0  0  0
 11 16  1  0  0  0  0
 17 18  1  0  0  0  0
 17 28  1  0  0  0  0
 18 19  1  0  0  0  0
 18 21  1  0  0  0  0
 18 29  1  0  0  0  0
 19 20  2  0  0  0  0
 19 37  1  0  0  0  0
 21 22  1  0  0  0  0
 21 30  1  0  0  0  0
 21 31  1  0  0  0  0
 22 23  1  0  0  0  0
 22 24  2  0  0  0  0
 23 25  2  0  0  0  0
 23 32  1  0  0  0  0
 24 26  1  0  0  0  0
 24 33  1  0  0  0  0
 25 27  1  0  0  0  0
 25 34  1  0  0  0  0
 26 27  2  0  0  0  0
 26 35  1  0  0  0  0
 27 36  1  0  0  0  0
 37 38  1  0  0  0  0
 37 42  1  0  0  0  0
 38 39  1  0  0  0  0
 38 41  1  0  0  0  0
 38 43  1  0  0  0  0
 39 40  2  0  0  0  0
 39 47  1  0  0  0  0
 41 44  1  0  0  0  0
 41 45  1  0  0  0  0
 41 46  1  0  0  0  0
 47 48  1  0  0  0  0
 47 49  1  0  0  0  0
 48 50  1  0  0  0  0
 48 51  1  0  0  0  0
 48 52  1  0  0  0  0
M  END
$$$$

  -OEChem-05262217163D

 52 52  0     1  0  0  0  0  0999 V2000
   -3.0274    0.2150    4.2856 C   0  0  0  0  0  0  0  0  0  0  0  0
   -4.0862    0.3908    3.7035 O   0  0  0  0  0  0  0  0  0  0  0  0
   -2.9836   -0.6306    5.5444 C   0  0  0  0  0  0  0  0  0  0  0  0
   -3.9945   -0.9342    5.8307 H   0  0  0  0  0  0  0  0  0  0  0  0
   -2.3821   -1.5264    5.3714 H   0  0  0  0  0  0  0  0  0  0  0  0
   -2.5436   -0.0571    6.3638 H   0  0  0  0  0  0  0  0  0  0  0  0
   -1.8655    0.7745    3.7977 N   0  0  0  0  0  0  0  0  0  0  0  0
   -1.7537    1.4331    2.4895 C   0  0  2  0  0  0  0  0  0  0  0  0
   -0.4634    1.0163    1.7553 C   0  0  0  0  0  0  0  0  0  0  0  0
    0.4776    0.5419    2.3843 O   0  0  0  0  0  0  0  0  0  0  0  0
   -1.7853    2.9475    2.7088 C   0  0  0  0  0  0  0  0  0  0  0  0
   -0.9935    0.4693    4.2282 H   0  0  0  0  0  0  0  0  0  0  0  0
   -2.5958    1.1461    1.8507 H   0  0  0  0  0  0  0  0  0  0  0  0
   -0.9445    3.2617    3.3354 H   0  0  0  0  0  0  0  0  0  0  0  0
   -1.7231    3.4757    1.7524 H   0  0  0  0  0  0  0  0  0  0  0  0
   -2.7176    3.2379    3.2038 H   0  0  0  0  0  0  0  0  0  0  0  0
   -0.3620    1.1727    0.3857 N   0  0  0  0  0  0  0  0  0  0  0  0
    0.7913    0.7457   -0.4218 C   0  0  2  0  0  0  0  0  0  0  0  0
    1.4242    1.9442   -1.1482 C   0  0  0  0  0  0  0  0  0  0  0  0
    0.7161    2.7194   -1.7833 O   0  0  0  0  0  0  0  0  0  0  0  0
    0.3277   -0.2956   -1.4543 C   0  0  0  0  0  0  0  0  0  0  0  0
   -0.1090   -1.5726   -0.7770 C   0  0  0  0  0  0  0  0  0  0  0  0
    0.8385   -2.5211   -0.3639 C   0  0  0  0  0  0  0  0  0  0  0  0
   -1.4698   -1.8191   -0.5379 C   0  0  0  0  0  0  0  0  0  0  0  0
    0.4325   -3.6939    0.2822 C   0  0  0  0  0  0  0  0  0  0  0  0
   -1.8771   -2.9908    0.1078 C   0  0  0  0  0  0  0  0  0  0  0  0
   -0.9255   -3.9289    0.5186 C   0  0  0  0  0  0  0  0  0  0  0  0
   -1.1210    1.6556   -0.0897 H   0  0  0  0  0  0  0  0  0  0  0  0
    1.5623    0.2932    0.2102 H   0  0  0  0  0  0  0  0  0  0  0  0
    1.1485   -0.5206   -2.1437 H   0  0  0  0  0  0  0  0  0  0  0  0
   -0.4929    0.1139   -2.0531 H   0  0  0  0  0  0  0  0  0  0  0  0
    1.8963   -2.3491   -0.5372 H   0  0  0  0  0  0  0  0  0  0  0  0
   -2.2183   -1.0968   -0.8491 H   0  0  0  0  0  0  0  0  0  0  0  0
    1.1725   -4.4210    0.6034 H   0  0  0  0  0  0  0  0  0  0  0  0
   -2.9324   -3.1710    0.2915 H   0  0  0  0  0  0  0  0  0  0  0  0
   -1.2409   -4.8385    1.0213 H   0  0  0  0  0  0  0  0  0  0  0  0
    2.7958    2.1176   -1.1704 N   0  0  0  0  0  0  0  0  0  0  0  0
    3.4795    3.1809   -1.9233 C   0  0  2  0  0  0  0  0  0  0  0  0
    3.5629    2.8647   -3.4370 C   0  0  0  0  0  0  0  0  0  0  0  0
    4.6358    2.6937   -4.0026 O   0  0  0  0  0  0  0  0  0  0  0  0
    4.8565    3.3897   -1.2803 C   0  0  0  0  0  0  0  0  0  0  0  0
    3.3639    1.4340   -0.6769 H   0  0  0  0  0  0  0  0  0  0  0  0
    2.9210    4.1177   -1.8213 H   0  0  0  0  0  0  0  0  0  0  0  0
    5.4613    2.4806   -1.3583 H   0  0  0  0  0  0  0  0  0  0  0  0
    5.3897    4.2027   -1.7838 H   0  0  0  0  0  0  0  0  0  0  0  0
    4.7492    3.6506   -0.2229 H   0  0  0  0  0  0  0  0  0  0  0  0
    2.3943    2.7464   -4.1634 N   0  0  0  0  0  0  0  0  0  0  0  0
    2.3422    2.3853   -5.5734 C   0  0  0  0  0  0  0  0  0  0  0  0
    1.5234    2.8436   -3.6353 H   0  0  0  0  0  0  0  0  0  0  0  0
    2.8895    3.1169   -6.1769 H   0  0  0  0  0  0  0  0  0  0  0  0
    2.7834    1.3959   -5.7317 H   0  0  0  0  0  0  0  0  0  0  0  0
    1.3040    2.3603   -5.9181 H   0  0  0  0  0  0  0  0  0  0  0  0
  1  2  2  0  0  0  0
  1  3  1  0  0  0  0
  1  7  1  0  0  0  0
  3  4  1  0  0  0  0
  3  5  1  0  0  0  0
  3  6  1  0  0  0  0
  7  8  1  0  0  0  0
  7 12  1  0  0  0  0
  8  9  1  0  0  0  0
  8 11  1  0  0  0  0
  8 13  1  0  0  0  0
  9 10  2  0  0  0  0
  9 17  1  0  0  0  0
 11 14  1  0  0  0  0
 11 15  1  0  0  0  0
 11 16  1  0  0  0  0
 17 18  1  0  0  0  0
 17 28  1  0  0  0  0
 18 19  1  0  0  0  0
 18 21  1  0  0  0  0
 18 29  1  0  0  0  0
 19 20  2  0  0  0  0
 19 37  1  0  0  0  0
 21 22  1  0  0  0  0
 21 30  1  0  0  0  0
 21 31  1  0  0  0  0
 22 23  1  0  0  0  0
 22 24  2  0  0  0  0
 23 25  2  0  0  0  0
 23 32  1  0  0  0  0
 24 26  1  0  0  0  0
 24 33  1  0  0  0  0
 25 27  1  0  0  0  0
 25 34  1  0  0  0  0
 26 27  2  0  0  0  0
 26 35  1  0  0  0  0
 27 36  1  0  0  0  0
 37 38  1  0  0  0  0
 37 42  1  0  0  0  0
 38 39  1  0  0  0  0
 38 41  1  0  0  0  0
 38 43  1  0  0  0  0
 39 40  2  0  0  0  0
 39 47  1  0  0  0  0
 41 44  1  0  0  0  0
 41 45  1  0  0  0  0
 41 46  1  0  0  0  0
 47 48  1  0  0  0  0
 47 49  1  0  0  0  0
 48 50  1  0  0  0  0
 48 51  1  0  0  0  0
 48 52  1  0  0  0  0
M  END
$$$$

  -OEChem-05262217163D

 52 52  0     1  0  0  0  0  0999 V2000
   -3.0508    0.3646    4.2752 C   0  0  0  0  0  0  0  0  0  0  0  0
   -4.0924    0.6381    3.7001 O   0  0  0  0  0  0  0  0  0  0  0  0
   -3.0744   -0.5045    5.5183 C   0  0  0  0  0  0  0  0  0  0  0  0
   -4.1064   -0.7309    5.8005 H   0  0  0  0  0  0  0  0  0  0  0  0
   -2.5468   -1.4420    5.3272 H   0  0  0  0  0  0  0  0  0  0  0  0
   -2.5893    0.0161    6.3473 H   0  0  0  0  0  0  0  0  0  0  0  0
   -1.8475    0.8325    3.7916 N   0  0  0  0  0  0  0  0  0  0  0  0
   -1.6836    1.4923    2.4895 C   0  0  2  0  0  0  0  0  0  0  0  0
   -0.4351    0.9731    1.7490 C   0  0  0  0  0  0  0  0  0  0  0  0
    0.4626    0.4154    2.3730 O   0  0  0  0  0  0  0  0  0  0  0  0
   -1.5860    3.0014    2.7240 C   0  0  0  0  0  0  0  0  0  0  0  0
   -1.0031    0.4477    4.2135 H   0  0  0  0  0  0  0  0  0  0  0  0
   -2.5482    1.2845    1.8499 H   0  0  0  0  0  0  0  0  0  0  0  0
   -0.7198    3.2374    3.3506 H   0  0  0  0  0  0  0  0  0  0  0  0
   -1.4831    3.5321    1.7725 H   0  0  0  0  0  0  0  0  0  0  0  0
   -2.4890    3.3640    3.2255 H   0  0  0  0  0  0  0  0  0  0  0  0
   -0.3244    1.1321    0.3806 N   0  0  0  0  0  0  0  0  0  0  0  0
    0.8288    0.6913   -0.4201 C   0  0  2  0  0  0  0  0  0  0  0  0
    1.4866    1.8792   -1.1423 C   0  0  0  0  0  0  0  0  0  0  0  0
    0.7941    2.7937   -1.5793 O   0  0  0  0  0  0  0  0  0  0  0  0
    0.3513   -0.3353   -1.4607 C   0  0  0  0  0  0  0  0  0  0  0  0
   -0.1136   -1.6092   -0.7963 C   0  0  0  0  0  0  0  0  0  0  0  0
    0.8132   -2.5788   -0.3852 C   0  0  0  0  0  0  0  0  0  0  0  0
   -1.4798   -1.8320   -0.5661 C   0  0  0  0  0  0  0  0  0  0  0  0
    0.3816   -3.7499    0.2474 C   0  0  0  0  0  0  0  0  0  0  0  0
   -1.9125   -3.0015    0.0674 C   0  0  0  0  0  0  0  0  0  0  0  0
   -0.9816   -3.9615    0.4745 C   0  0  0  0  0  0  0  0  0  0  0  0
   -1.0128    1.7267   -0.0761 H   0  0  0  0  0  0  0  0  0  0  0  0
    1.5896    0.2271    0.2156 H   0  0  0  0  0  0  0  0  0  0  0  0
    1.1702   -0.5717   -2.1486 H   0  0  0  0  0  0  0  0  0  0  0  0
   -0.4588    0.0948   -2.0592 H   0  0  0  0  0  0  0  0  0  0  0  0
    1.8749   -2.4251   -0.5509 H   0  0  0  0  0  0  0  0  0  0  0  0
   -2.2128   -1.0923   -0.8733 H   0  0  0  0  0  0  0  0  0  0  0  0
    1.1063   -4.4939    0.5648 H   0  0  0  0  0  0  0  0  0  0  0  0
   -2.9721   -3.1618    0.2445 H   0  0  0  0  0  0  0  0  0  0  0  0
   -1.3172   -4.8693    0.9671 H   0  0  0  0  0  0  0  0  0  0  0  0
    2.8410    1.8727   -1.4200 N   0  0  0  0  0  0  0  0  0  0  0  0
    3.5190    2.8994   -2.2253 C   0  0  2  0  0  0  0  0  0  0  0  0
    3.2864    2.6940   -3.7415 C   0  0  0  0  0  0  0  0  0  0  0  0
    4.2019    2.4052   -4.5021 O   0  0  0  0  0  0  0  0  0  0  0  0
    5.0028    2.8852   -1.8392 C   0  0  0  0  0  0  0  0  0  0  0  0
    3.3778    1.0633   -1.1202 H   0  0  0  0  0  0  0  0  0  0  0  0
    3.1205    3.8871   -1.9700 H   0  0  0  0  0  0  0  0  0  0  0  0
    5.4579    1.9207   -2.0859 H   0  0  0  0  0  0  0  0  0  0  0  0
    5.5413    3.6696   -2.3808 H   0  0  0  0  0  0  0  0  0  0  0  0
    5.1199    3.0642   -0.7659 H   0  0  0  0  0  0  0  0  0  0  0  0
    2.0038    2.8011   -4.2418 N   0  0  0  0  0  0  0  0  0  0  0  0
    1.6489    2.5495   -5.6317 C   0  0  0  0  0  0  0  0  0  0  0  0
    1.2650    2.9753   -3.5557 H   0  0  0  0  0  0  0  0  0  0  0  0
    2.2010    3.2226   -6.2957 H   0  0  0  0  0  0  0  0  0  0  0  0
    1.8819    1.5154   -5.9053 H   0  0  0  0  0  0  0  0  0  0  0  0
    0.5782    2.7160   -5.7837 H   0  0  0  0  0  0  0  0  0  0  0  0
  1  2  2  0  0  0  0
  1  3  1  0  0  0  0
  1  7  1  0  0  0  0
  3  4  1  0  0  0  0
  3  5  1  0  0  0  0
  3  6  1  0  0  0  0
  7  8  1  0  0  0  0
  7 12  1  0  0  0  0
  8  9  1  0  0  0  0
  8 11  1  0  0  0  0
  8 13  1  0  0  0  0
  9 10  2  0  0  0  0
  9 17  1  0  0  0  0
 11 14  1  0  0  0  0
 11 15  1  0  0  0  0
 11 16  1  0  0  0  0
 17 18  1  0  0  0  0
 17 28  1  0  0  0  0
 18 19  1  0  0  0  0
 18 21  1  0  0  0  0
 18 29  1  0  0  0  0
 19 20  2  0  0  0  0
 19 37  1  0  0  0  0
 21 22  1  0  0  0  0
 21 30  1  0  0  0  0
 21 31  1  0  0  0  0
 22 23  1  0  0  0  0
 22 24  2  0  0  0  0
 23 25  2  0  0  0  0
 23 32  1  0  0  0  0
 24 26  1  0  0  0  0
 24 33  1  0  0  0  0
 25 27  1  0  0  0  0
 25 34  1  0  0  0  0
 26 27  2  0  0  0  0
 26 35  1  0  0  0  0
 27 36  1  0  0  0  0
 37 38  1  0  0  0  0
 37 42  1  0  0  0  0
 38 39  1  0  0  0  0
 38 41  1  0  0  0  0
 38 43  1  0  0  0  0
 39 40  2  0  0  0  0
 39 47  1  0  0  0  0
 41 44  1  0  0  0  0
 41 45  1  0  0  0  0
 41 46  1  0  0  0  0
 47 48  1  0  0  0  0
 47 49  1  0  0  0  0
 48 50  1  0  0  0  0
 48 51  1  0  0  0  0
 48 52  1  0  0  0  0
M  END
$$$$

  -OEChem-05262217163D

 52 52  0     1  0  0  0  0  0999 V2000
   -3.0582    0.3760    4.1051 C   0  0  0  0  0  0  0  0  0  0  0  0
   -4.0581    0.5462    3.4255 O   0  0  0  0  0  0  0  0  0  0  0  0
   -3.1240   -0.4996    5.3423 C   0  0  0  0  0  0  0  0  0  0  0  0
   -4.1389   -0.8833    5.4787 H   0  0  0  0  0  0  0  0  0  0  0  0
   -2.4388   -1.3446    5.2391 H   0  0  0  0  0  0  0  0  0  0  0  0
   -2.8459    0.0808    6.2253 H   0  0  0  0  0  0  0  0  0  0  0  0
   -1.8630    0.9670    3.7515 N   0  0  0  0  0  0  0  0  0  0  0  0
   -1.6203    1.6177    2.4561 C   0  0  2  0  0  0  0  0  0  0  0  0
   -0.4174    0.9873    1.7265 C   0  0  0  0  0  0  0  0  0  0  0  0
    0.4456    0.3924    2.3646 O   0  0  0  0  0  0  0  0  0  0  0  0
   -1.3764    3.1068    2.7110 C   0  0  0  0  0  0  0  0  0  0  0  0
   -1.0368    0.6337    4.2456 H   0  0  0  0  0  0  0  0  0  0  0  0
   -2.4905    1.5090    1.8002 H   0  0  0  0  0  0  0  0  0  0  0  0
   -0.5016    3.2487    3.3537 H   0  0  0  0  0  0  0  0  0  0  0  0
   -1.2048    3.6353    1.7680 H   0  0  0  0  0  0  0  0  0  0  0  0
   -2.2468    3.5524    3.2030 H   0  0  0  0  0  0  0  0  0  0  0  0
   -0.3028    1.1074    0.3546 N   0  0  0  0  0  0  0  0  0  0  0  0
    0.8459    0.6273   -0.4310 C   0  0  2  0  0  0  0  0  0  0  0  0
    1.5291    1.7810   -1.1881 C   0  0  0  0  0  0  0  0  0  0  0  0
    0.9198    2.8222   -1.4162 O   0  0  0  0  0  0  0  0  0  0  0  0
    0.3519   -0.4256   -1.4388 C   0  0  0  0  0  0  0  0  0  0  0  0
   -0.1295   -1.6702   -0.7330 C   0  0  0  0  0  0  0  0  0  0  0  0
    0.7873   -2.6367   -0.2935 C   0  0  0  0  0  0  0  0  0  0  0  0
   -1.4977   -1.8686   -0.4921 C   0  0  0  0  0  0  0  0  0  0  0  0
    0.3439   -3.7809    0.3777 C   0  0  0  0  0  0  0  0  0  0  0  0
   -1.9420   -3.0116    0.1802 C   0  0  0  0  0  0  0  0  0  0  0  0
   -1.0209   -3.9686    0.6157 C   0  0  0  0  0  0  0  0  0  0  0  0
   -0.9385    1.7576   -0.1021 H   0  0  0  0  0  0  0  0  0  0  0  0
    1.5993    0.1734    0.2209 H   0  0  0  0  0  0  0  0  0  0  0  0
    1.1639   -0.6990   -2.1205 H   0  0  0  0  0  0  0  0  0  0  0  0
   -0.4528   -0.0039   -2.0504 H   0  0  0  0  0  0  0  0  0  0  0  0
    1.8505   -2.5012   -0.4650 H   0  0  0  0  0  0  0  0  0  0  0  0
   -2.2226   -1.1297   -0.8195 H   0  0  0  0  0  0  0  0  0  0  0  0
    1.0607   -4.5223    0.7175 H   0  0  0  0  0  0  0  0  0  0  0  0
   -3.0025   -3.1538    0.3669 H   0  0  0  0  0  0  0  0  0  0  0  0
   -1.3652   -4.8555    1.1395 H   0  0  0  0  0  0  0  0  0  0  0  0
    2.7909    1.6146   -1.7291 N   0  0  0  0  0  0  0  0  0  0  0  0
    3.4671    2.6140   -2.5701 C   0  0  2  0  0  0  0  0  0  0  0  0
    2.9205    2.6285   -4.0186 C   0  0  0  0  0  0  0  0  0  0  0  0
    3.6157    2.3060   -4.9741 O   0  0  0  0  0  0  0  0  0  0  0  0
    4.9714    2.3240   -2.5034 C   0  0  0  0  0  0  0  0  0  0  0  0
    3.2410    0.7126   -1.5994 H   0  0  0  0  0  0  0  0  0  0  0  0
    3.3027    3.6138   -2.1539 H   0  0  0  0  0  0  0  0  0  0  0  0
    5.1928    1.3339   -2.9150 H   0  0  0  0  0  0  0  0  0  0  0  0
    5.5262    3.0701   -3.0812 H   0  0  0  0  0  0  0  0  0  0  0  0
    5.3214    2.3604   -1.4673 H   0  0  0  0  0  0  0  0  0  0  0  0
    1.6048    2.9868   -4.2348 N   0  0  0  0  0  0  0  0  0  0  0  0
    0.9609    2.9771   -5.5408 C   0  0  0  0  0  0  0  0  0  0  0  0
    1.0472    3.1805   -3.3991 H   0  0  0  0  0  0  0  0  0  0  0  0
    1.4918    3.6381   -6.2337 H   0  0  0  0  0  0  0  0  0  0  0  0
    0.9517    1.9641   -5.9563 H   0  0  0  0  0  0  0  0  0  0  0  0
   -0.0724    3.3265   -5.4537 H   0  0  0  0  0  0  0  0  0  0  0  0
  1  2  2  0  0  0  0
  1  3  1  0  0  0  0
  1  7  1  0  0  0  0
  3  4  1  0  0  0  0
  3  5  1  0  0  0  0
  3  6  1  0  0  0  0
  7  8  1  0  0  0  0
  7 12  1  0  0  0  0
  8  9  1  0  0  0  0
  8 11  1  0  0  0  0
  8 13  1  0  0  0  0
  9 10  2  0  0  0  0
  9 17  1  0  0  0  0
 11 14  1  0  0  0  0
 11 15  1  0  0  0  0
 11 16  1  0  0  0  0
 17 18  1  0  0  0  0
 17 28  1  0  0  0  0
 18 19  1  0  0  0  0
 18 21  1  0  0  0  0
 18 29  1  0  0  0  0
 19 20  2  0  0  0  0
 19 37  1  0  0  0  0
 21 22  1  0  0  0  0
 21 30  1  0  0  0  0
 21 31  1  0  0  0  0
 22 23  1  0  0  0  0
 22 24  2  0  0  0  0
 23 25  2  0  0  0  0
 23 32  1  0  0  0  0
 24 26  1  0  0  0  0
 24 33  1  0  0  0  0
 25 27  1  0  0  0  0
 25 34  1  0  0  0  0
 26 27  2  0  0  0  0
 26 35  1  0  0  0  0
 27 36  1  0  0  0  0
 37 38  1  0  0  0  0
 37 42  1  0  0  0  0
 38 39  1  0  0  0  0
 38 41  1  0  0  0  0
 38 43  1  0  0  0  0
 39 40  2  0  0  0  0
 39 47  1  0  0  0  0
 41 44  1  0  0  0  0
 41 45  1  0  0  0  0
 41 46  1  0  0  0  0
 47 48  1  0  0  0  0
 47 49  1  0  0  0  0
 48 50  1  0  0  0  0
 48 51  1  0  0  0  0
 48 52  1  0  0  0  0
M  END
$$$$

  -OEChem-05262217163D

 52 52  0     1  0  0  0  0  0999 V2000
   -3.0083    0.7113    4.3383 C   0  0  0  0  0  0  0  0  0  0  0  0
   -3.9942    1.2053    3.8144 O   0  0  0  0  0  0  0  0  0  0  0  0
   -3.1532   -0.1164    5.6013 C   0  0  0  0  0  0  0  0  0  0  0  0
   -4.1956   -0.1189    5.9323 H   0  0  0  0  0  0  0  0  0  0  0  0
   -2.8416   -1.1462    5.4102 H   0  0  0  0  0  0  0  0  0  0  0  0
   -2.5325    0.3033    6.3967 H   0  0  0  0  0  0  0  0  0  0  0  0
   -1.7625    0.8895    3.7756 N   0  0  0  0  0  0  0  0  0  0  0  0
   -1.5323    1.4976    2.4590 C   0  0  2  0  0  0  0  0  0  0  0  0
   -0.4187    0.7661    1.6831 C   0  0  0  0  0  0  0  0  0  0  0  0
    0.3748    0.0450    2.2807 O   0  0  0  0  0  0  0  0  0  0  0  0
   -1.1650    2.9695    2.6656 C   0  0  0  0  0  0  0  0  0  0  0  0
   -0.9954    0.3421    4.1640 H   0  0  0  0  0  0  0  0  0  0  0  0
   -2.4427    1.4351    1.8532 H   0  0  0  0  0  0  0  0  0  0  0  0
   -0.2525    3.0562    3.2643 H   0  0  0  0  0  0  0  0  0  0  0  0
   -0.9975    3.4636    1.7034 H   0  0  0  0  0  0  0  0  0  0  0  0
   -1.9748    3.4913    3.1856 H   0  0  0  0  0  0  0  0  0  0  0  0
   -0.3105    0.9308    0.3148 N   0  0  0  0  0  0  0  0  0  0  0  0
    0.8534    0.4750   -0.4650 C   0  0  2  0  0  0  0  0  0  0  0  0
    1.7506    1.6613   -0.8766 C   0  0  0  0  0  0  0  0  0  0  0  0
    1.3731    2.8170   -0.7026 O   0  0  0  0  0  0  0  0  0  0  0  0
    0.3353   -0.2589   -1.7162 C   0  0  0  0  0  0  0  0  0  0  0  0
   -0.3659   -1.5432   -1.3418 C   0  0  0  0  0  0  0  0  0  0  0  0
    0.3735   -2.7032   -1.0655 C   0  0  0  0  0  0  0  0  0  0  0  0
   -1.7658   -1.5905   -1.2533 C   0  0  0  0  0  0  0  0  0  0  0  0
   -0.2753   -3.8894   -0.7059 C   0  0  0  0  0  0  0  0  0  0  0  0
   -2.4154   -2.7753   -0.8918 C   0  0  0  0  0  0  0  0  0  0  0  0
   -1.6700   -3.9257   -0.6188 C   0  0  0  0  0  0  0  0  0  0  0  0
   -0.8503    1.6989   -0.0761 H   0  0  0  0  0  0  0  0  0  0  0  0
    1.4713   -0.2157    0.1184 H   0  0  0  0  0  0  0  0  0  0  0  0
    1.1685   -0.5000   -2.3836 H   0  0  0  0  0  0  0  0  0  0  0  0
   -0.3438    0.3943   -2.2741 H   0  0  0  0  0  0  0  0  0  0  0  0
    1.4574   -2.6883   -1.1235 H   0  0  0  0  0  0  0  0  0  0  0  0
   -2.3554   -0.7025   -1.4594 H   0  0  0  0  0  0  0  0  0  0  0  0
    0.3047   -4.7819   -0.4904 H   0  0  0  0  0  0  0  0  0  0  0  0
   -3.4989   -2.8011   -0.8210 H   0  0  0  0  0  0  0  0  0  0  0  0
   -2.1738   -4.8457   -0.3374 H   0  0  0  0  0  0  0  0  0  0  0  0
    2.9019    1.4528   -1.6153 N   0  0  0  0  0  0  0  0  0  0  0  0
    3.7240    2.5313   -2.1857 C   0  0  2  0  0  0  0  0  0  0  0  0
    3.1070    3.1088   -3.4824 C   0  0  0  0  0  0  0  0  0  0  0  0
    3.6557    2.9815   -4.5699 O   0  0  0  0  0  0  0  0  0  0  0  0
    5.1372    1.9723   -2.3929 C   0  0  0  0  0  0  0  0  0  0  0  0
    3.1456    0.4927   -1.8421 H   0  0  0  0  0  0  0  0  0  0  0  0
    3.7963    3.3564   -1.4688 H   0  0  0  0  0  0  0  0  0  0  0  0
    5.1245    1.1444   -3.1089 H   0  0  0  0  0  0  0  0  0  0  0  0
    5.7997    2.7532   -2.7797 H   0  0  0  0  0  0  0  0  0  0  0  0
    5.5476    1.6109   -1.4450 H   0  0  0  0  0  0  0  0  0  0  0  0
    1.8889    3.7556   -3.4147 N   0  0  0  0  0  0  0  0  0  0  0  0
    1.1801    4.2832   -4.5726 C   0  0  0  0  0  0  0  0  0  0  0  0
    1.4408    3.7774   -2.4954 H   0  0  0  0  0  0  0  0  0  0  0  0
    1.7983    5.0192   -5.0973 H   0  0  0  0  0  0  0  0  0  0  0  0
    0.9268    3.4758   -5.2674 H   0  0  0  0  0  0  0  0  0  0  0  0
    0.2537    4.7728   -4.2571 H   0  0  0  0  0  0  0  0  0  0  0  0
  1  2  2  0  0  0  0
  1  3  1  0  0  0  0
  1  7  1  0  0  0  0
  3  4  1  0  0  0  0
  3  5  1  0  0  0  0
  3  6  1  0  0  0  0
  7  8  1  0  0  0  0
  7 12  1  0  0  0  0
  8  9  1  0  0  0  0
  8 11  1  0  0  0  0
  8 13  1  0  0  0  0
  9 10  2  0  0  0  0
  9 17  1  0  0  0  0
 11 14  1  0  0  0  0
 11 15  1  0  0  0  0
 11 16  1  0  0  0  0
 17 18  1  0  0  0  0
 17 28  1  0  0  0  0
 18 19  1  0  0  0  0
 18 21  1  0  0  0  0
 18 29  1  0  0  0  0
 19 20  2  0  0  0  0
 19 37  1  0  0  0  0
 21 22  1  0  0  0  0
 21 30  1  0  0  0  0
 21 31  1  0  0  0  0
 22 23  1  0  0  0  0
 22 24  2  0  0  0  0
 23 25  2  0  0  0  0
 23 32  1  0  0  0  0
 24 26  1  0  0  0  0
 24 33  1  0  0  0  0
 25 27  1  0  0  0  0
 25 34  1  0  0  0  0
 26 27  2  0  0  0  0
 26 35  1  0  0  0  0
 27 36  1  0  0  0  0
 37 38  1  0  0  0  0
 37 42  1  0  0  0  0
 38 39  1  0  0  0  0
 38 41  1  0  0  0  0
 38 43  1  0  0  0  0
 39 40  2  0  0  0  0
 39 47  1  0  0  0  0
 41 44  1  0  0  0  0
 41 45  1  0  0  0  0
 41 46  1  0  0  0  0
 47 48  1  0  0  0  0
 47 49  1  0  0  0  0
 48 50  1  0  0  0  0
 48 51  1  0  0  0  0
 48 52  1  0  0  0  0
M  END
$$$$

  -OEChem-05262217163D

 52 52  0     1  0  0  0  0  0999 V2000
   -2.9860    0.7703    4.2197 C   0  0  0  0  0  0  0  0  0  0  0  0
   -3.9539    1.2565    3.6563 O   0  0  0  0  0  0  0  0  0  0  0  0
   -3.1786   -0.0801    5.4608 C   0  0  0  0  0  0  0  0  0  0  0  0
   -4.2342   -0.0973    5.7460 H   0  0  0  0  0  0  0  0  0  0  0  0
   -2.8498   -1.1039    5.2659 H   0  0  0  0  0  0  0  0  0  0  0  0
   -2.5965    0.3315    6.2890 H   0  0  0  0  0  0  0  0  0  0  0  0
   -1.7167    0.9754    3.7222 N   0  0  0  0  0  0  0  0  0  0  0  0
   -1.4333    1.5833    2.4153 C   0  0  2  0  0  0  0  0  0  0  0  0
   -0.3684    0.7850    1.6376 C   0  0  0  0  0  0  0  0  0  0  0  0
    0.4028    0.0426    2.2382 O   0  0  0  0  0  0  0  0  0  0  0  0
   -0.9592    3.0201    2.6461 C   0  0  0  0  0  0  0  0  0  0  0  0
   -0.9668    0.4235    4.1366 H   0  0  0  0  0  0  0  0  0  0  0  0
   -2.3391    1.5995    1.7997 H   0  0  0  0  0  0  0  0  0  0  0  0
   -0.0469    3.0301    3.2515 H   0  0  0  0  0  0  0  0  0  0  0  0
   -0.7476    3.5127    1.6917 H   0  0  0  0  0  0  0  0  0  0  0  0
   -1.7317    3.5930    3.1687 H   0  0  0  0  0  0  0  0  0  0  0  0
   -0.2765    0.9199    0.2647 N   0  0  0  0  0  0  0  0  0  0  0  0
    0.8698    0.4239   -0.5175 C   0  0  2  0  0  0  0  0  0  0  0  0
    1.7847    1.5886   -0.9638 C   0  0  0  0  0  0  0  0  0  0  0  0
    1.5626    2.7344   -0.5819 O   0  0  0  0  0  0  0  0  0  0  0  0
    0.3075   -0.3442   -1.7309 C   0  0  0  0  0  0  0  0  0  0  0  0
   -0.4054   -1.6022   -1.2936 C   0  0  0  0  0  0  0  0  0  0  0  0
    0.3198   -2.7657   -0.9944 C   0  0  0  0  0  0  0  0  0  0  0  0
   -1.8030   -1.6193   -1.1657 C   0  0  0  0  0  0  0  0  0  0  0  0
   -0.3408   -3.9244   -0.5711 C   0  0  0  0  0  0  0  0  0  0  0  0
   -2.4643   -2.7763   -0.7418 C   0  0  0  0  0  0  0  0  0  0  0  0
   -1.7331   -3.9299   -0.4445 C   0  0  0  0  0  0  0  0  0  0  0  0
   -0.8038    1.6930   -0.1319 H   0  0  0  0  0  0  0  0  0  0  0  0
    1.4874   -0.2601    0.0744 H   0  0  0  0  0  0  0  0  0  0  0  0
    1.1167   -0.6283   -2.4097 H   0  0  0  0  0  0  0  0  0  0  0  0
   -0.3745    0.3014   -2.2942 H   0  0  0  0  0  0  0  0  0  0  0  0
    1.4018   -2.7741   -1.0815 H   0  0  0  0  0  0  0  0  0  0  0  0
   -2.3824   -0.7287   -1.3881 H   0  0  0  0  0  0  0  0  0  0  0  0
    0.2280   -4.8192   -0.3358 H   0  0  0  0  0  0  0  0  0  0  0  0
   -3.5457   -2.7766   -0.6406 H   0  0  0  0  0  0  0  0  0  0  0  0
   -2.2462   -4.8281   -0.1135 H   0  0  0  0  0  0  0  0  0  0  0  0
    2.7404    1.4121   -1.9499 N   0  0  0  0  0  0  0  0  0  0  0  0
    3.5124    2.5067   -2.5593 C   0  0  2  0  0  0  0  0  0  0  0  0
    2.6875    3.2747   -3.6200 C   0  0  0  0  0  0  0  0  0  0  0  0
    2.9778    3.2455   -4.8096 O   0  0  0  0  0  0  0  0  0  0  0  0
    4.8031    1.9034   -3.1270 C   0  0  0  0  0  0  0  0  0  0  0  0
    2.8364    0.4817   -2.3463 H   0  0  0  0  0  0  0  0  0  0  0  0
    3.7975    3.2296   -1.7872 H   0  0  0  0  0  0  0  0  0  0  0  0
    4.5767    1.1700   -3.9077 H   0  0  0  0  0  0  0  0  0  0  0  0
    5.4281    2.6895   -3.5627 H   0  0  0  0  0  0  0  0  0  0  0  0
    5.3739    1.4088   -2.3351 H   0  0  0  0  0  0  0  0  0  0  0  0
    1.5693    3.9767   -3.2159 N   0  0  0  0  0  0  0  0  0  0  0  0
    0.6718    4.6758   -4.1254 C   0  0  0  0  0  0  0  0  0  0  0  0
    1.3337    3.9138   -2.2223 H   0  0  0  0  0  0  0  0  0  0  0  0
    1.2055    5.4750   -4.6504 H   0  0  0  0  0  0  0  0  0  0  0  0
    0.2584    3.9820   -4.8648 H   0  0  0  0  0  0  0  0  0  0  0  0
   -0.1577    5.1211   -3.5677 H   0  0  0  0  0  0  0  0  0  0  0  0
  1  2  2  0  0  0  0
  1  3  1  0  0  0  0
  1  7  1  0  0  0  0
  3  4  1  0  0  0  0
  3  5  1  0  0  0  0
  3  6  1  0  0  0  0
  7  8  1  0  0  0  0
  7 12  1  0  0  0  0
  8  9  1  0  0  0  0
  8 11  1  0  0  0  0
  8 13  1  0  0  0  0
  9 10  2  0  0  0  0
  9 17  1  0  0  0  0
 11 14  1  0  0  0  0
 11 15  1  0  0  0  0
 11 16  1  0  0  0  0
 17 18  1  0  0  0  0
 17 28  1  0  0  0  0
 18 19  1  0  0  0  0
 18 21  1  0  0  0  0
 18 29  1  0  0  0  0
 19 20  2  0  0  0  0
 19 37  1  0  0  0  0
 21 22  1  0  0  0  0
 21 30  1  0  0  0  0
 21 31  1  0  0  0  0
 22 23  1  0  0  0  0
 22 24  2  0  0  0  0
 23 25  2  0  0  0  0
 23 32  1  0  0  0  0
 24 26  1  0  0  0  0
 24 33  1  0  0  0  0
 25 27  1  0  0  0  0
 25 34  1  0  0  0  0
 26 27  2  0  0  0  0
 26 35  1  0  0  0  0
 27 36  1  0  0  0  0
 37 38  1  0  0  0  0
 37 42  1  0  0  0  0
 38 39  1  0  0  0  0
 38 41  1  0  0  0  0
 38 43  1  0  0  0  0
 39 40  2  0  0  0  0
 39 47  1  0  0  0  0
 41 44  1  0  0  0  0
 41 45  1  0  0  0  0
 41 46  1  0  0  0  0
 47 48  1  0  0  0  0
 47 49  1  0  0  0  0
 48 50  1  0  0  0  0
 48 51  1  0  0  0  0
 48 52  1  0  0  0  0
M  END
$$$$

  -OEChem-05262217163D

 52 52  0     1  0  0  0  0  0999 V2000
   -2.9215    0.7876    4.1510 C   0  0  0  0  0  0  0  0  0  0  0  0
   -3.9116    1.1880    3.5591 O   0  0  0  0  0  0  0  0  0  0  0  0
   -3.0762   -0.0441    5.4104 C   0  0  0  0  0  0  0  0  0  0  0  0
   -4.1334   -0.1331    5.6765 H   0  0  0  0  0  0  0  0  0  0  0  0
   -2.6685   -1.0449    5.2481 H   0  0  0  0  0  0  0  0  0  0  0  0
   -2.5436    0.4293    6.2389 H   0  0  0  0  0  0  0  0  0  0  0  0
   -1.6603    1.0740    3.6727 N   0  0  0  0  0  0  0  0  0  0  0  0
   -1.3935    1.6520    2.3484 C   0  0  2  0  0  0  0  0  0  0  0  0
   -0.3492    0.8258    1.5718 C   0  0  0  0  0  0  0  0  0  0  0  0
    0.4312    0.0995    2.1801 O   0  0  0  0  0  0  0  0  0  0  0  0
   -0.8995    3.0868    2.5456 C   0  0  0  0  0  0  0  0  0  0  0  0
   -0.8864    0.5741    4.1083 H   0  0  0  0  0  0  0  0  0  0  0  0
   -2.3079    1.6690    1.7462 H   0  0  0  0  0  0  0  0  0  0  0  0
    0.0269    3.0964    3.1290 H   0  0  0  0  0  0  0  0  0  0  0  0
   -0.7053    3.5626    1.5794 H   0  0  0  0  0  0  0  0  0  0  0  0
   -1.6534    3.6761    3.0767 H   0  0  0  0  0  0  0  0  0  0  0  0
   -0.2899    0.9123    0.1927 N   0  0  0  0  0  0  0  0  0  0  0  0
    0.8349    0.3802   -0.5981 C   0  0  2  0  0  0  0  0  0  0  0  0
    1.7455    1.5254   -1.1052 C   0  0  0  0  0  0  0  0  0  0  0  0
    1.7252    2.6221   -0.5542 O   0  0  0  0  0  0  0  0  0  0  0  0
    0.2400   -0.4501   -1.7543 C   0  0  0  0  0  0  0  0  0  0  0  0
   -0.4545   -1.6861   -1.2330 C   0  0  0  0  0  0  0  0  0  0  0  0
    0.2831   -2.8317   -0.8966 C   0  0  0  0  0  0  0  0  0  0  0  0
   -1.8476   -1.6995   -1.0650 C   0  0  0  0  0  0  0  0  0  0  0  0
   -0.3615   -3.9698   -0.3997 C   0  0  0  0  0  0  0  0  0  0  0  0
   -2.4929   -2.8359   -0.5668 C   0  0  0  0  0  0  0  0  0  0  0  0
   -1.7497   -3.9722   -0.2343 C   0  0  0  0  0  0  0  0  0  0  0  0
   -0.8420    1.6570   -0.2229 H   0  0  0  0  0  0  0  0  0  0  0  0
    1.4674   -0.2773    0.0079 H   0  0  0  0  0  0  0  0  0  0  0  0
    1.0314   -0.7730   -2.4367 H   0  0  0  0  0  0  0  0  0  0  0  0
   -0.4590    0.1637   -2.3324 H   0  0  0  0  0  0  0  0  0  0  0  0
    1.3625   -2.8420   -1.0119 H   0  0  0  0  0  0  0  0  0  0  0  0
   -2.4357   -0.8214   -1.3128 H   0  0  0  0  0  0  0  0  0  0  0  0
    0.2163   -4.8512   -0.1377 H   0  0  0  0  0  0  0  0  0  0  0  0
   -3.5710   -2.8337   -0.4343 H   0  0  0  0  0  0  0  0  0  0  0  0
   -2.2499   -4.8543    0.1548 H   0  0  0  0  0  0  0  0  0  0  0  0
    2.4546    1.4200   -2.2903 N   0  0  0  0  0  0  0  0  0  0  0  0
    3.2097    2.5226   -2.9057 C   0  0  2  0  0  0  0  0  0  0  0  0
    2.2859    3.5120   -3.6558 C   0  0  0  0  0  0  0  0  0  0  0  0
    2.3124    3.6213   -4.8754 O   0  0  0  0  0  0  0  0  0  0  0  0
    4.2785    1.9008   -3.8130 C   0  0  0  0  0  0  0  0  0  0  0  0
    2.3715    0.5511   -2.8096 H   0  0  0  0  0  0  0  0  0  0  0  0
    3.7274    3.0929   -2.1267 H   0  0  0  0  0  0  0  0  0  0  0  0
    3.8134    1.3254   -4.6199 H   0  0  0  0  0  0  0  0  0  0  0  0
    4.8966    2.6857   -4.2607 H   0  0  0  0  0  0  0  0  0  0  0  0
    4.9292    1.2360   -3.2369 H   0  0  0  0  0  0  0  0  0  0  0  0
    1.3836    4.2651   -2.9316 N   0  0  0  0  0  0  0  0  0  0  0  0
    0.4159    5.1747   -3.5292 C   0  0  0  0  0  0  0  0  0  0  0  0
    1.3454    4.0754   -1.9270 H   0  0  0  0  0  0  0  0  0  0  0  0
    0.9245    5.9255   -4.1428 H   0  0  0  0  0  0  0  0  0  0  0  0
   -0.2894    4.6229   -4.1590 H   0  0  0  0  0  0  0  0  0  0  0  0
   -0.1476    5.6929   -2.7474 H   0  0  0  0  0  0  0  0  0  0  0  0
  1  2  2  0  0  0  0
  1  3  1  0  0  0  0
  1  7  1  0  0  0  0
  3  4  1  0  0  0  0
  3  5  1  0  0  0  0
  3  6  1  0  0  0  0
  7  8  1  0  0  0  0
  7 12  1  0  0  0  0
  8  9  1  0  0  0  0
  8 11  1  0  0  0  0
  8 13  1  0  0  0  0
  9 10  2  0  0  0  0
  9 17  1  0  0  0  0
 11 14  1  0  0  0  0
 11 15  1  0  0  0  0
 11 16  1  0  0  0  0
 17 18  1  0  0  0  0
 17 28  1  0  0  0  0
 18 19  1  0  0  0  0
 18 21  1  0  0  0  0
 18 29  1  0  0  0  0
 19 20  2  0  0  0  0
 19 37  1  0  0  0  0
 21 22  1  0  0  0  0
 21 30  1  0  0  0  0
 21 31  1  0  0  0  0
 22 23  1  0  0  0  0
 22 24  2  0  0  0  0
 23 25  2  0  0  0  0
 23 32  1  0  0  0  0
 24 26  1  0  0  0  0
 24 33  1  0  0  0  0
 25 27  1  0  0  0  0
 25 34  1  0  0  0  0
 26 27  2  0  0  0  0
 26 35  1  0  0  0  0
 27 36  1  0  0  0  0
 37 38  1  0  0  0  0
 37 42  1  0  0  0  0
 38 39  1  0  0  0  0
 38 41  1  0  0  0  0
 38 43  1  0  0  0  0
 39 40  2  0  0  0  0
 39 47  1  0  0  0  0
 41 44  1  0  0  0  0
 41 45  1  0  0  0  0
 41 46  1  0  0  0  0
 47 48  1  0  0  0  0
 47 49  1  0  0  0  0
 48 50  1  0  0  0  0
 48 51  1  0  0  0  0
 48 52  1  0  0  0  0
M  END
$$$$

  -OEChem-05262217163D

 52 52  0     1  0  0  0  0  0999 V2000
   -2.8938    0.7530    3.9639 C   0  0  0  0  0  0  0  0  0  0  0  0
   -3.8586    0.9532    3.2426 O   0  0  0  0  0  0  0  0  0  0  0  0
   -3.0576   -0.0415    5.2459 C   0  0  0  0  0  0  0  0  0  0  0  0
   -4.1043   -0.3272    5.3819 H   0  0  0  0  0  0  0  0  0  0  0  0
   -2.4476   -0.9472    5.2036 H   0  0  0  0  0  0  0  0  0  0  0  0
   -2.7433    0.5621    6.1007 H   0  0  0  0  0  0  0  0  0  0  0  0
   -1.6487    1.2369    3.6197 N   0  0  0  0  0  0  0  0  0  0  0  0
   -1.3238    1.7875    2.2961 C   0  0  2  0  0  0  0  0  0  0  0  0
   -0.3450    0.8802    1.5244 C   0  0  0  0  0  0  0  0  0  0  0  0
    0.4409    0.1671    2.1402 O   0  0  0  0  0  0  0  0  0  0  0  0
   -0.7061    3.1723    2.5014 C   0  0  0  0  0  0  0  0  0  0  0  0
   -0.8665    0.8582    4.1503 H   0  0  0  0  0  0  0  0  0  0  0  0
   -2.2277    1.8946    1.6879 H   0  0  0  0  0  0  0  0  0  0  0  0
    0.2081    3.0993    3.0994 H   0  0  0  0  0  0  0  0  0  0  0  0
   -0.4537    3.6255    1.5378 H   0  0  0  0  0  0  0  0  0  0  0  0
   -1.4117    3.8287    3.0197 H   0  0  0  0  0  0  0  0  0  0  0  0
   -0.3223    0.9147    0.1415 N   0  0  0  0  0  0  0  0  0  0  0  0
    0.7793    0.3527   -0.6608 C   0  0  2  0  0  0  0  0  0  0  0  0
    1.6696    1.4838   -1.2306 C   0  0  0  0  0  0  0  0  0  0  0  0
    1.8891    2.4880   -0.5613 O   0  0  0  0  0  0  0  0  0  0  0  0
    0.1709   -0.5418   -1.7604 C   0  0  0  0  0  0  0  0  0  0  0  0
   -0.4905   -1.7622   -1.1664 C   0  0  0  0  0  0  0  0  0  0  0  0
    0.2782   -2.8763   -0.7968 C   0  0  0  0  0  0  0  0  0  0  0  0
   -1.8794   -1.7970   -0.9688 C   0  0  0  0  0  0  0  0  0  0  0  0
   -0.3307   -4.0061   -0.2405 C   0  0  0  0  0  0  0  0  0  0  0  0
   -2.4894   -2.9259   -0.4120 C   0  0  0  0  0  0  0  0  0  0  0  0
   -1.7152   -4.0317   -0.0486 C   0  0  0  0  0  0  0  0  0  0  0  0
   -0.9041    1.6264   -0.2899 H   0  0  0  0  0  0  0  0  0  0  0  0
    1.4346   -0.2708   -0.0433 H   0  0  0  0  0  0  0  0  0  0  0  0
    0.9558   -0.8847   -2.4415 H   0  0  0  0  0  0  0  0  0  0  0  0
   -0.5515    0.0311   -2.3515 H   0  0  0  0  0  0  0  0  0  0  0  0
    1.3553   -2.8674   -0.9331 H   0  0  0  0  0  0  0  0  0  0  0  0
   -2.4922   -0.9430   -1.2403 H   0  0  0  0  0  0  0  0  0  0  0  0
    0.2727   -4.8620    0.0469 H   0  0  0  0  0  0  0  0  0  0  0  0
   -3.5646   -2.9415   -0.2583 H   0  0  0  0  0  0  0  0  0  0  0  0
   -2.1883   -4.9073    0.3861 H   0  0  0  0  0  0  0  0  0  0  0  0
    2.1003    1.4878   -2.5474 N   0  0  0  0  0  0  0  0  0  0  0  0
    2.8208    2.6040   -3.1797 C   0  0  2  0  0  0  0  0  0  0  0  0
    1.8753    3.7693   -3.5584 C   0  0  0  0  0  0  0  0  0  0  0  0
    1.6247    4.0437   -4.7255 O   0  0  0  0  0  0  0  0  0  0  0  0
    3.5820    2.0390   -4.3855 C   0  0  0  0  0  0  0  0  0  0  0  0
    1.8026    0.7176   -3.1386 H   0  0  0  0  0  0  0  0  0  0  0  0
    3.5617    3.0055   -2.4799 H   0  0  0  0  0  0  0  0  0  0  0  0
    2.8874    1.6217   -5.1217 H   0  0  0  0  0  0  0  0  0  0  0  0
    4.1635    2.8299   -4.8702 H   0  0  0  0  0  0  0  0  0  0  0  0
    4.2709    1.2508   -4.0669 H   0  0  0  0  0  0  0  0  0  0  0  0
    1.2726    4.4961   -2.5512 N   0  0  0  0  0  0  0  0  0  0  0  0
    0.3151    5.5692   -2.7806 C   0  0  0  0  0  0  0  0  0  0  0  0
    1.4441    4.1667   -1.5974 H   0  0  0  0  0  0  0  0  0  0  0  0
    0.7686    6.3647   -3.3811 H   0  0  0  0  0  0  0  0  0  0  0  0
   -0.5670    5.1896   -3.3065 H   0  0  0  0  0  0  0  0  0  0  0  0
   -0.0065    5.9978   -1.8266 H   0  0  0  0  0  0  0  0  0  0  0  0
  1  2  2  0  0  0  0
  1  3  1  0  0  0  0
  1  7  1  0  0  0  0
  3  4  1  0  0  0  0
  3  5  1  0  0  0  0
  3  6  1  0  0  0  0
  7  8  1  0  0  0  0
  7 12  1  0  0  0  0
  8  9  1  0  0  0  0
  8 11  1  0  0  0  0
  8 13  1  0  0  0  0
  9 10  2  0  0  0  0
  9 17  1  0  0  0  0
 11 14  1  0  0  0  0
 11 15  1  0  0  0  0
 11 16  1  0  0  0  0
 17 18  1  0  0  0  0
 17 28  1  0  0  0  0
 18 19  1  0  0  0  0
 18 21  1  0  0  0  0
 18 29  1  0  0  0  0
 19 20  2  0  0  0  0
 19 37  1  0  0  0  0
 21 22  1  0  0  0  0
 21 30  1  0  0  0  0
 21 31  1  0  0  0  0
 22 23  1  0  0  0  0
 22 24  2  0  0  0  0
 23 25  2  0  0  0  0
 23 32  1  0  0  0  0
 24 26  1  0  0  0  0
 24 33  1  0  0  0  0
 25 27  1  0  0  0  0
 25 34  1  0  0  0  0
 26 27  2  0  0  0  0
 26 35  1  0  0  0  0
 27 36  1  0  0  0  0
 37 38  1  0  0  0  0
 37 42  1  0  0  0  0
 38 39  1  0  0  0  0
 38 41  1  0  0  0  0
 38 43  1  0  0  0  0
 39 40  2  0  0  0  0
 39 47  1  0  0  0  0
 41 44  1  0  0  0  0
 41 45  1  0  0  0  0
 41 46  1  0  0  0  0
 47 48  1  0  0  0  0
 47 49  1  0  0  0  0
 48 50  1  0  0  0  0
 48 51  1  0  0  0  0
 48 52  1  0  0  0  0
M  END
$$$$

  -OEChem-05262217163D

 52 52  0     1  0  0  0  0  0999 V2000
   -2.8122    0.8552    3.9606 C   0  0  0  0  0  0  0  0  0  0  0  0
   -3.7906    1.0808    3.2655 O   0  0  0  0  0  0  0  0  0  0  0  0
   -2.9653    0.0684    5.2485 C   0  0  0  0  0  0  0  0  0  0  0  0
   -4.0164   -0.1846    5.4134 H   0  0  0  0  0  0  0  0  0  0  0  0
   -2.3851   -0.8560    5.1915 H   0  0  0  0  0  0  0  0  0  0  0  0
   -2.6102    0.6632    6.0935 H   0  0  0  0  0  0  0  0  0  0  0  0
   -1.5637    1.3014    3.5791 N   0  0  0  0  0  0  0  0  0  0  0  0
   -1.2600    1.8303    2.2420 C   0  0  2  0  0  0  0  0  0  0  0  0
   -0.2812    0.9162    1.4787 C   0  0  0  0  0  0  0  0  0  0  0  0
    0.5190    0.2240    2.0991 O   0  0  0  0  0  0  0  0  0  0  0  0
   -0.6572    3.2269    2.4104 C   0  0  0  0  0  0  0  0  0  0  0  0
   -0.7769    0.9087    4.0933 H   0  0  0  0  0  0  0  0  0  0  0  0
   -2.1714    1.9134    1.6413 H   0  0  0  0  0  0  0  0  0  0  0  0
    0.2657    3.1781    2.9976 H   0  0  0  0  0  0  0  0  0  0  0  0
   -0.4235    3.6638    1.4344 H   0  0  0  0  0  0  0  0  0  0  0  0
   -1.3646    3.8848    2.9248 H   0  0  0  0  0  0  0  0  0  0  0  0
   -0.2848    0.9156    0.0955 N   0  0  0  0  0  0  0  0  0  0  0  0
    0.7919    0.3278   -0.7207 C   0  0  2  0  0  0  0  0  0  0  0  0
    1.6675    1.4458   -1.3308 C   0  0  0  0  0  0  0  0  0  0  0  0
    2.1130    2.3327   -0.6120 O   0  0  0  0  0  0  0  0  0  0  0  0
    0.1609   -0.5867   -1.7889 C   0  0  0  0  0  0  0  0  0  0  0  0
   -0.4946   -1.7935   -1.1622 C   0  0  0  0  0  0  0  0  0  0  0  0
    0.2746   -2.9046   -0.7849 C   0  0  0  0  0  0  0  0  0  0  0  0
   -1.8808   -1.8191   -0.9452 C   0  0  0  0  0  0  0  0  0  0  0  0
   -0.3320   -4.0233   -0.2041 C   0  0  0  0  0  0  0  0  0  0  0  0
   -2.4885   -2.9366   -0.3638 C   0  0  0  0  0  0  0  0  0  0  0  0
   -1.7142   -4.0404    0.0057 C   0  0  0  0  0  0  0  0  0  0  0  0
   -0.9043    1.5881   -0.3465 H   0  0  0  0  0  0  0  0  0  0  0  0
    1.4602   -0.2837   -0.1039 H   0  0  0  0  0  0  0  0  0  0  0  0
    0.9357   -0.9396   -2.4771 H   0  0  0  0  0  0  0  0  0  0  0  0
   -0.5729   -0.0248   -2.3762 H   0  0  0  0  0  0  0  0  0  0  0  0
    1.3496   -2.9025   -0.9367 H   0  0  0  0  0  0  0  0  0  0  0  0
   -2.4936   -0.9671   -1.2226 H   0  0  0  0  0  0  0  0  0  0  0  0
    0.2718   -4.8773    0.0875 H   0  0  0  0  0  0  0  0  0  0  0  0
   -3.5618   -2.9448   -0.1967 H   0  0  0  0  0  0  0  0  0  0  0  0
   -2.1857   -4.9079    0.4587 H   0  0  0  0  0  0  0  0  0  0  0  0
    1.8120    1.5956   -2.7006 N   0  0  0  0  0  0  0  0  0  0  0  0
    2.4329    2.7658   -3.3406 C   0  0  2  0  0  0  0  0  0  0  0  0
    1.4919    3.9956   -3.3398 C   0  0  0  0  0  0  0  0  0  0  0  0
    1.0068    4.4365   -4.3743 O   0  0  0  0  0  0  0  0  0  0  0  0
    2.8593    2.3444   -4.7525 C   0  0  0  0  0  0  0  0  0  0  0  0
    1.3117    0.9402   -3.2938 H   0  0  0  0  0  0  0  0  0  0  0  0
    3.3374    3.0483   -2.7907 H   0  0  0  0  0  0  0  0  0  0  0  0
    1.9887    2.0531   -5.3493 H   0  0  0  0  0  0  0  0  0  0  0  0
    3.3623    3.1744   -5.2589 H   0  0  0  0  0  0  0  0  0  0  0  0
    3.5517    1.4984   -4.7058 H   0  0  0  0  0  0  0  0  0  0  0  0
    1.1506    4.5795   -2.1359 N   0  0  0  0  0  0  0  0  0  0  0  0
    0.2180    5.6898   -2.0010 C   0  0  0  0  0  0  0  0  0  0  0  0
    1.5172    4.1230   -1.2960 H   0  0  0  0  0  0  0  0  0  0  0  0
    0.5864    6.5668   -2.5434 H   0  0  0  0  0  0  0  0  0  0  0  0
   -0.7648    5.4158   -2.3985 H   0  0  0  0  0  0  0  0  0  0  0  0
    0.1029    5.9587   -0.9465 H   0  0  0  0  0  0  0  0  0  0  0  0
  1  2  2  0  0  0  0
  1  3  1  0  0  0  0
  1  7  1  0  0  0  0
  3  4  1  0  0  0  0
  3  5  1  0  0  0  0
  3  6  1  0  0  0  0
  7  8  1  0  0  0  0
  7 12  1  0  0  0  0
  8  9  1  0  0  0  0
  8 11  1  0  0  0  0
  8 13  1  0  0  0  0
  9 10  2  0  0  0  0
  9 17  1  0  0  0  0
 11 14  1  0  0  0  0
 11 15  1  0  0  0  0
 11 16  1  0  0  0  0
 17 18  1  0  0  0  0
 17 28  1  0  0  0  0
 18 19  1  0  0  0  0
 18 21  1  0  0  0  0
 18 29  1  0  0  0  0
 19 20  2  0  0  0  0
 19 37  1  0  0  0  0
 21 22  1  0  0  0  0
 21 30  1  0  0  0  0
 21 31  1  0  0  0  0
 22 23  1  0  0  0  0
 22 24  2  0  0  0  0
 23 25  2  0  0  0  0
 23 32  1  0  0  0  0
 24 26  1  0  0  0  0
 24 33  1  0  0  0  0
 25 27  1  0  0  0  0
 25 34  1  0  0  0  0
 26 27  2  0  0  0  0
 26 35  1  0  0  0  0
 27 36  1  0  0  0  0
 37 38  1  0  0  0  0
 37 42  1  0  0  0  0
 38 39  1  0  0  0  0
 38 41  1  0  0  0  0
 38 43  1  0  0  0  0
 39 40  2  0  0  0  0
 39 47  1  0  0  0  0
 41 44  1  0  0  0  0
 41 45  1  0  0  0  0
 41 46  1  0  0  0  0
 47 48  1  0  0  0  0
 47 49  1  0  0  0  0
 48 50  1  0  0  0  0
 48 51  1  0  0  0  0
 48 52  1  0  0  0  0
M  END
$$$$

  -OEChem-05262217163D

 52 52  0     1  0  0  0  0  0999 V2000
   -2.7030    0.7372    3.9296 C   0  0  0  0  0  0  0  0  0  0  0  0
   -3.6976    0.7916    3.2228 O   0  0  0  0  0  0  0  0  0  0  0  0
   -2.7427   -0.0377    5.2331 C   0  0  0  0  0  0  0  0  0  0  0  0
   -3.7380   -0.4634    5.3886 H   0  0  0  0  0  0  0  0  0  0  0  0
   -2.0126   -0.8506    5.2064 H   0  0  0  0  0  0  0  0  0  0  0  0
   -2.5089    0.6263    6.0688 H   0  0  0  0  0  0  0  0  0  0  0  0
   -1.5337    1.3598    3.5437 N   0  0  0  0  0  0  0  0  0  0  0  0
   -1.3000    1.8708    2.1857 C   0  0  2  0  0  0  0  0  0  0  0  0
   -0.2732    1.0079    1.4263 C   0  0  0  0  0  0  0  0  0  0  0  0
    0.5881    0.3954    2.0478 O   0  0  0  0  0  0  0  0  0  0  0  0
   -0.8003    3.3128    2.2996 C   0  0  0  0  0  0  0  0  0  0  0  0
   -0.7023    1.0903    4.0665 H   0  0  0  0  0  0  0  0  0  0  0  0
   -2.2289    1.8706    1.6064 H   0  0  0  0  0  0  0  0  0  0  0  0
    0.1397    3.3503    2.8597 H   0  0  0  0  0  0  0  0  0  0  0  0
   -0.6288    3.7382    1.3059 H   0  0  0  0  0  0  0  0  0  0  0  0
   -1.5408    3.9301    2.8178 H   0  0  0  0  0  0  0  0  0  0  0  0
   -0.3092    0.9586    0.0445 N   0  0  0  0  0  0  0  0  0  0  0  0
    0.7481    0.3540   -0.7845 C   0  0  2  0  0  0  0  0  0  0  0  0
    1.5932    1.4578   -1.4543 C   0  0  0  0  0  0  0  0  0  0  0  0
    2.2752    2.2076   -0.7671 O   0  0  0  0  0  0  0  0  0  0  0  0
    0.1038   -0.6055   -1.8034 C   0  0  0  0  0  0  0  0  0  0  0  0
   -0.5140   -1.7978   -1.1125 C   0  0  0  0  0  0  0  0  0  0  0  0
    0.2846   -2.8813   -0.7167 C   0  0  0  0  0  0  0  0  0  0  0  0
   -1.8916   -1.8343   -0.8461 C   0  0  0  0  0  0  0  0  0  0  0  0
   -0.2839   -3.9829   -0.0679 C   0  0  0  0  0  0  0  0  0  0  0  0
   -2.4611   -2.9343   -0.1962 C   0  0  0  0  0  0  0  0  0  0  0  0
   -1.6573   -4.0100    0.1923 C   0  0  0  0  0  0  0  0  0  0  0  0
   -1.0043    1.5439   -0.4090 H   0  0  0  0  0  0  0  0  0  0  0  0
    1.4399   -0.2287   -0.1656 H   0  0  0  0  0  0  0  0  0  0  0  0
    0.8668   -0.9635   -2.5031 H   0  0  0  0  0  0  0  0  0  0  0  0
   -0.6582   -0.0787   -2.3867 H   0  0  0  0  0  0  0  0  0  0  0  0
    1.3540   -2.8698   -0.9045 H   0  0  0  0  0  0  0  0  0  0  0  0
   -2.5283   -1.0043   -1.1358 H   0  0  0  0  0  0  0  0  0  0  0  0
    0.3425   -4.8154    0.2390 H   0  0  0  0  0  0  0  0  0  0  0  0
   -3.5273   -2.9506    0.0107 H   0  0  0  0  0  0  0  0  0  0  0  0
   -2.0985   -4.8631    0.6996 H   0  0  0  0  0  0  0  0  0  0  0  0
    1.4558    1.7575   -2.7997 N   0  0  0  0  0  0  0  0  0  0  0  0
    2.0219    2.9578   -3.4346 C   0  0  2  0  0  0  0  0  0  0  0  0
    1.2194    4.2348   -3.0820 C   0  0  0  0  0  0  0  0  0  0  0  0
    0.5647    4.8374   -3.9236 O   0  0  0  0  0  0  0  0  0  0  0  0
    2.0842    2.6917   -4.9438 C   0  0  0  0  0  0  0  0  0  0  0  0
    0.7719    1.2207   -3.3246 H   0  0  0  0  0  0  0  0  0  0  0  0
    3.0475    3.1117   -3.0814 H   0  0  0  0  0  0  0  0  0  0  0  0
    1.0809    2.5274   -5.3501 H   0  0  0  0  0  0  0  0  0  0  0  0
    2.5295    3.5476   -5.4610 H   0  0  0  0  0  0  0  0  0  0  0  0
    2.6952    1.8078   -5.1502 H   0  0  0  0  0  0  0  0  0  0  0  0
    1.2023    4.6802   -1.7749 N   0  0  0  0  0  0  0  0  0  0  0  0
    0.4556    5.8432   -1.3161 C   0  0  0  0  0  0  0  0  0  0  0  0
    1.7047    4.1015   -1.0956 H   0  0  0  0  0  0  0  0  0  0  0  0
    0.8155    6.7488   -1.8152 H   0  0  0  0  0  0  0  0  0  0  0  0
   -0.6116    5.7229   -1.5292 H   0  0  0  0  0  0  0  0  0  0  0  0
    0.5813    5.9700   -0.2366 H   0  0  0  0  0  0  0  0  0  0  0  0
  1  2  2  0  0  0  0
  1  3  1  0  0  0  0
  1  7  1  0  0  0  0
  3  4  1  0  0  0  0
  3  5  1  0  0  0  0
  3  6  1  0  0  0  0
  7  8  1  0  0  0  0
  7 12  1  0  0  0  0
  8  9  1  0  0  0  0
  8 11  1  0  0  0  0
  8 13  1  0  0  0  0
  9 10  2  0  0  0  0
  9 17  1  0  0  0  0
 11 14  1  0  0  0  0
 11 15  1  0  0  0  0
 11 16  1  0  0  0  0
 17 18  1  0  0  0  0
 17 28  1  0  0  0  0
 18 19  1  0  0  0  0
 18 21  1  0  0  0  0
 18 29  1  0  0  0  0
 19 20  2  0  0  0  0
 19 37  1  0  0  0  0
 21 22  1  0  0  0  0
 21 30  1  0  0  0  0
 21 31  1  0  0  0  0
 22 23  1  0  0  0  0
 22 24  2  0  0  0  0
 23 25  2  0  0  0  0
 23 32  1  0  0  0  0
 24 26  1  0  0  0  0
 24 33  1  0  0  0  0
 25 27  1  0  0  0  0
 25 34  1  0  0  0  0
 26 27  2  0  0  0  0
 26 35  1  0  0  0  0
 27 36  1  0  0  0  0
 37 38  1  0  0  0  0
 37 42  1  0  0  0  0
 38 39  1  0  0  0  0
 38 41  1  0  0  0  0
 38 43  1  0  0  0  0
 39 40  2  0  0  0  0
 39 47  1  0  0  0  0
 41 44  1  0  0  0  0
 41 45  1  0  0  0  0
 41 46  1  0  0  0  0
 47 48  1  0  0  0  0
 47 49  1  0  0  0  0
 48 50  1  0  0  0  0
 48 51  1  0  0  0  0
 48 52  1  0  0  0  0
M  END
$$$$

  -OEChem-05262217163D

 52 52  0     1  0  0  0  0  0999 V2000
   -2.8948    0.8765    2.0953 C   0  0  0  0  0  0  0  0  0  0  0  0
   -2.8730    1.3757    0.9790 O   0  0  0  0  0  0  0  0  0  0  0  0
   -4.0161   -0.0663    2.4882 C   0  0  0  0  0  0  0  0  0  0  0  0
   -4.6485   -0.2826    1.6225 H   0  0  0  0  0  0  0  0  0  0  0  0
   -3.6028   -1.0050    2.8648 H   0  0  0  0  0  0  0  0  0  0  0  0
   -4.6303    0.3915    3.2678 H   0  0  0  0  0  0  0  0  0  0  0  0
   -1.8717    1.1383    2.9824 N   0  0  0  0  0  0  0  0  0  0  0  0
   -0.7514    2.0503    2.7068 C   0  0  2  0  0  0  0  0  0  0  0  0
    0.3009    1.4353    1.7518 C   0  0  0  0  0  0  0  0  0  0  0  0
    1.4307    1.1609    2.1351 O   0  0  0  0  0  0  0  0  0  0  0  0
   -0.1574    2.4654    4.0586 C   0  0  0  0  0  0  0  0  0  0  0  0
   -1.8736    0.6276    3.8608 H   0  0  0  0  0  0  0  0  0  0  0  0
   -1.1330    2.9553    2.2214 H   0  0  0  0  0  0  0  0  0  0  0  0
    0.2467    1.5954    4.5861 H   0  0  0  0  0  0  0  0  0  0  0  0
    0.6536    3.1857    3.9102 H   0  0  0  0  0  0  0  0  0  0  0  0
   -0.9228    2.9323    4.6858 H   0  0  0  0  0  0  0  0  0  0  0  0
   -0.0569    1.2065    0.4370 N   0  0  0  0  0  0  0  0  0  0  0  0
    0.8126    0.5947   -0.5803 C   0  0  2  0  0  0  0  0  0  0  0  0
    1.3436    1.6587   -1.5617 C   0  0  0  0  0  0  0  0  0  0  0  0
    2.3928    2.2468   -1.3341 O   0  0  0  0  0  0  0  0  0  0  0  0
    0.0522   -0.5237   -1.3173 C   0  0  0  0  0  0  0  0  0  0  0  0
   -0.2480   -1.6846   -0.4002 C   0  0  0  0  0  0  0  0  0  0  0  0
    0.7375   -2.6446   -0.1291 C   0  0  0  0  0  0  0  0  0  0  0  0
   -1.5237   -1.8402    0.1622 C   0  0  0  0  0  0  0  0  0  0  0  0
    0.4601   -3.7306    0.7074 C   0  0  0  0  0  0  0  0  0  0  0  0
   -1.8051   -2.9292    0.9945 C   0  0  0  0  0  0  0  0  0  0  0  0
   -0.8113   -3.8731    1.2705 C   0  0  0  0  0  0  0  0  0  0  0  0
   -1.0466    1.3548    0.2244 H   0  0  0  0  0  0  0  0  0  0  0  0
    1.6921    0.1452   -0.1052 H   0  0  0  0  0  0  0  0  0  0  0  0
    0.6575   -0.8845   -2.1557 H   0  0  0  0  0  0  0  0  0  0  0  0
   -0.8815   -0.1310   -1.7324 H   0  0  0  0  0  0  0  0  0  0  0  0
    1.7288   -2.5445   -0.5609 H   0  0  0  0  0  0  0  0  0  0  0  0
   -2.3032   -1.1165   -0.0546 H   0  0  0  0  0  0  0  0  0  0  0  0
    1.2345   -4.4623    0.9179 H   0  0  0  0  0  0  0  0  0  0  0  0
   -2.7963   -3.0470    1.4211 H   0  0  0  0  0  0  0  0  0  0  0  0
   -1.0257   -4.7189    1.9172 H   0  0  0  0  0  0  0  0  0  0  0  0
    0.6515    1.9826   -2.7169 N   0  0  0  0  0  0  0  0  0  0  0  0
    1.0754    3.0237   -3.6664 C   0  0  2  0  0  0  0  0  0  0  0  0
    0.7913    4.4548   -3.1462 C   0  0  0  0  0  0  0  0  0  0  0  0
    0.0253    5.2119   -3.7306 O   0  0  0  0  0  0  0  0  0  0  0  0
    0.3849    2.7284   -5.0039 C   0  0  0  0  0  0  0  0  0  0  0  0
   -0.2836    1.5985   -2.8140 H   0  0  0  0  0  0  0  0  0  0  0  0
    2.1564    2.9511   -3.8271 H   0  0  0  0  0  0  0  0  0  0  0  0
   -0.7028    2.7966   -4.8998 H   0  0  0  0  0  0  0  0  0  0  0  0
    0.7052    3.4500   -5.7624 H   0  0  0  0  0  0  0  0  0  0  0  0
    0.6420    1.7242   -5.3539 H   0  0  0  0  0  0  0  0  0  0  0  0
    1.4108    4.8879   -1.9907 N   0  0  0  0  0  0  0  0  0  0  0  0
    1.1858    6.1912   -1.3820 C   0  0  0  0  0  0  0  0  0  0  0  0
    1.9938    4.1988   -1.5064 H   0  0  0  0  0  0  0  0  0  0  0  0
    1.4492    6.9913   -2.0814 H   0  0  0  0  0  0  0  0  0  0  0  0
    0.1350    6.3034   -1.0966 H   0  0  0  0  0  0  0  0  0  0  0  0
    1.8030    6.3001   -0.4851 H   0  0  0  0  0  0  0  0  0  0  0  0
  1  2  2  0  0  0  0
  1  3  1  0  0  0  0
  1  7  1  0  0  0  0
  3  4  1  0  0  0  0
  3  5  1  0  0  0  0
  3  6  1  0  0  0  0
  7  8  1  0  0  0  0
  7 12  1  0  0  0  0
  8  9  1  0  0  0  0
  8 11  1  0  0  0  0
  8 13  1  0  0  0  0
  9 10  2  0  0  0  0
  9 17  1  0  0  0  0
 11 14  1  0  0  0  0
 11 15  1  0  0  0  0
 11 16  1  0  0  0  0
 17 18  1  0  0  0  0
 17 28  1  0  0  0  0
 18 19  1  0  0  0  0
 18 21  1  0  0  0  0
 18 29  1  0  0  0  0
 19 20  2  0  0  0  0
 19 37  1  0  0  0  0
 21 22  1  0  0  0  0
 21 30  1  0  0  0  0
 21 31  1  0  0  0  0
 22 23  1  0  0  0  0
 22 24  2  0  0  0  0
 23 25  2  0  0  0  0
 23 32  1  0  0  0  0
 24 26  1  0  0  0  0
 24 33  1  0  0  0  0
 25 27  1  0  0  0  0
 25 34  1  0  0  0  0
 26 27  2  0  0  0  0
 26 35  1  0  0  0  0
 27 36  1  0  0  0  0
 37 38  1  0  0  0  0
 37 42  1  0  0  0  0
 38 39  1  0  0  0  0
 38 41  1  0  0  0  0
 38 43  1  0  0  0  0
 39 40  2  0  0  0  0
 39 47  1  0  0  0  0
 41 44  1  0  0  0  0
 41 45  1  0  0  0  0
 41 46  1  0  0  0  0
 47 48  1  0  0  0  0
 47 49  1  0  0  0  0
 48 50  1  0  0  0  0
 48 51  1  0  0  0  0
 48 52  1  0  0  0  0
M  END
$$$$

  -OEChem-05262217163D

 52 52  0     1  0  0  0  0  0999 V2000
   -2.9084    0.7784    2.1383 C   0  0  0  0  0  0  0  0  0  0  0  0
   -2.9192    1.2909    1.0277 O   0  0  0  0  0  0  0  0  0  0  0  0
   -3.9826   -0.2189    2.5278 C   0  0  0  0  0  0  0  0  0  0  0  0
   -4.6086   -0.4571    1.6631 H   0  0  0  0  0  0  0  0  0  0  0  0
   -3.5242   -1.1404    2.8946 H   0  0  0  0  0  0  0  0  0  0  0  0
   -4.6136    0.2024    3.3142 H   0  0  0  0  0  0  0  0  0  0  0  0
   -1.8878    1.0720    3.0186 N   0  0  0  0  0  0  0  0  0  0  0  0
   -0.8154    2.0429    2.7515 C   0  0  2  0  0  0  0  0  0  0  0  0
    0.2547    1.5043    1.7698 C   0  0  0  0  0  0  0  0  0  0  0  0
    1.4129    1.3230    2.1217 O   0  0  0  0  0  0  0  0  0  0  0  0
   -0.2252    2.4517    4.1074 C   0  0  0  0  0  0  0  0  0  0  0  0
   -1.8640    0.5558    3.8937 H   0  0  0  0  0  0  0  0  0  0  0  0
   -1.2460    2.9402    2.2935 H   0  0  0  0  0  0  0  0  0  0  0  0
    0.2225    1.5879    4.6095 H   0  0  0  0  0  0  0  0  0  0  0  0
    0.5518    3.2106    3.9686 H   0  0  0  0  0  0  0  0  0  0  0  0
   -1.0029    2.8698    4.7536 H   0  0  0  0  0  0  0  0  0  0  0  0
   -0.1140    1.2462    0.4633 N   0  0  0  0  0  0  0  0  0  0  0  0
    0.7665    0.6566   -0.5578 C   0  0  2  0  0  0  0  0  0  0  0  0
    1.2398    1.7297   -1.5558 C   0  0  0  0  0  0  0  0  0  0  0  0
    2.3900    2.1477   -1.5294 O   0  0  0  0  0  0  0  0  0  0  0  0
    0.0400   -0.4821   -1.2958 C   0  0  0  0  0  0  0  0  0  0  0  0
   -0.2269   -1.6542   -0.3828 C   0  0  0  0  0  0  0  0  0  0  0  0
    0.7849   -2.5867   -0.1128 C   0  0  0  0  0  0  0  0  0  0  0  0
   -1.5015   -1.8522    0.1693 C   0  0  0  0  0  0  0  0  0  0  0  0
    0.5348   -3.6854    0.7162 C   0  0  0  0  0  0  0  0  0  0  0  0
   -1.7554   -2.9537    0.9937 C   0  0  0  0  0  0  0  0  0  0  0  0
   -0.7355   -3.8687    1.2712 C   0  0  0  0  0  0  0  0  0  0  0  0
   -1.1183    1.3093    0.2788 H   0  0  0  0  0  0  0  0  0  0  0  0
    1.6652    0.2387   -0.0893 H   0  0  0  0  0  0  0  0  0  0  0  0
    0.6576   -0.8214   -2.1344 H   0  0  0  0  0  0  0  0  0  0  0  0
   -0.9033   -0.1169   -1.7137 H   0  0  0  0  0  0  0  0  0  0  0  0
    1.7749   -2.4548   -0.5396 H   0  0  0  0  0  0  0  0  0  0  0  0
   -2.3023   -1.1530   -0.0514 H   0  0  0  0  0  0  0  0  0  0  0  0
    1.3290   -4.3960    0.9256 H   0  0  0  0  0  0  0  0  0  0  0  0
   -2.7461   -3.1046    1.4112 H   0  0  0  0  0  0  0  0  0  0  0  0
   -0.9294   -4.7244    1.9115 H   0  0  0  0  0  0  0  0  0  0  0  0
    0.3814    2.2231   -2.5235 N   0  0  0  0  0  0  0  0  0  0  0  0
    0.7444    3.2710   -3.4904 C   0  0  2  0  0  0  0  0  0  0  0  0
    0.7568    4.6844   -2.8569 C   0  0  0  0  0  0  0  0  0  0  0  0
    0.0335    5.5828   -3.2712 O   0  0  0  0  0  0  0  0  0  0  0  0
   -0.2246    3.1526   -4.6736 C   0  0  0  0  0  0  0  0  0  0  0  0
   -0.5984    1.9700   -2.4360 H   0  0  0  0  0  0  0  0  0  0  0  0
    1.7551    3.0832   -3.8687 H   0  0  0  0  0  0  0  0  0  0  0  0
   -1.2533    3.3422   -4.3505 H   0  0  0  0  0  0  0  0  0  0  0  0
    0.0339    3.8804   -5.4495 H   0  0  0  0  0  0  0  0  0  0  0  0
   -0.1725    2.1507   -5.1104 H   0  0  0  0  0  0  0  0  0  0  0  0
    1.6027    4.9395   -1.7957 N   0  0  0  0  0  0  0  0  0  0  0  0
    1.7018    6.2241   -1.1176 C   0  0  0  0  0  0  0  0  0  0  0  0
    2.1723    4.1525   -1.4717 H   0  0  0  0  0  0  0  0  0  0  0  0
    2.0412    6.9981   -1.8136 H   0  0  0  0  0  0  0  0  0  0  0  0
    0.7296    6.5180   -0.7087 H   0  0  0  0  0  0  0  0  0  0  0  0
    2.4188    6.1605   -0.2934 H   0  0  0  0  0  0  0  0  0  0  0  0
  1  2  2  0  0  0  0
  1  3  1  0  0  0  0
  1  7  1  0  0  0  0
  3  4  1  0  0  0  0
  3  5  1  0  0  0  0
  3  6  1  0  0  0  0
  7  8  1  0  0  0  0
  7 12  1  0  0  0  0
  8  9  1  0  0  0  0
  8 11  1  0  0  0  0
  8 13  1  0  0  0  0
  9 10  2  0  0  0  0
  9 17  1  0  0  0  0
 11 14  1  0  0  0  0
 11 15  1  0  0  0  0
 11 16  1  0  0  0  0
 17 18  1  0  0  0  0
 17 28  1  0  0  0  0
 18 19  1  0  0  0  0
 18 21  1  0  0  0  0
 18 29  1  0  0  0  0
 19 20  2  0  0  0  0
 19 37  1  0  0  0  0
 21 22  1  0  0  0  0
 21 30  1  0  0  0  0
 21 31  1  0  0  0  0
 22 23  1  0  0  0  0
 22 24  2  0  0  0  0
 23 25  2  0  0  0  0
 23 32  1  0  0  0  0
 24 26  1  0  0  0  0
 24 33  1  0  0  0  0
 25 27  1  0  0  0  0
 25 34  1  0  0  0  0
 26 27  2  0  0  0  0
 26 35  1  0  0  0  0
 27 36  1  0  0  0  0
 37 38  1  0  0  0  0
 37 42  1  0  0  0  0
 38 39  1  0  0  0  0
 38 41  1  0  0  0  0
 38 43  1  0  0  0  0
 39 40  2  0  0  0  0
 39 47  1  0  0  0  0
 41 44  1  0  0  0  0
 41 45  1  0  0  0  0
 41 46  1  0  0  0  0
 47 48  1  0  0  0  0
 47 49  1  0  0  0  0
 48 50  1  0  0  0  0
 48 51  1  0  0  0  0
 48 52  1  0  0  0  0
M  END
$$$$

  -OEChem-05262217163D

 52 52  0     1  0  0  0  0  0999 V2000
   -2.9510    0.7042    2.1204 C   0  0  0  0  0  0  0  0  0  0  0  0
   -2.9757    1.1868    0.9966 O   0  0  0  0  0  0  0  0  0  0  0  0
   -4.0016   -0.3053    2.5420 C   0  0  0  0  0  0  0  0  0  0  0  0
   -4.6600   -0.5392    1.7006 H   0  0  0  0  0  0  0  0  0  0  0  0
   -3.5222   -1.2268    2.8809 H   0  0  0  0  0  0  0  0  0  0  0  0
   -4.6044    0.1029    3.3571 H   0  0  0  0  0  0  0  0  0  0  0  0
   -1.9381    1.0481    2.9911 N   0  0  0  0  0  0  0  0  0  0  0  0
   -0.9106    2.0629    2.7105 C   0  0  2  0  0  0  0  0  0  0  0  0
    0.1844    1.5650    1.7349 C   0  0  0  0  0  0  0  0  0  0  0  0
    1.3572    1.4808    2.0749 O   0  0  0  0  0  0  0  0  0  0  0  0
   -0.3412    2.5172    4.0607 C   0  0  0  0  0  0  0  0  0  0  0  0
   -1.9129    0.5713    3.8882 H   0  0  0  0  0  0  0  0  0  0  0  0
   -1.3821    2.9330    2.2408 H   0  0  0  0  0  0  0  0  0  0  0  0
    0.1499    1.6837    4.5734 H   0  0  0  0  0  0  0  0  0  0  0  0
    0.3965    3.3126    3.9122 H   0  0  0  0  0  0  0  0  0  0  0  0
   -1.1391    2.9035    4.7023 H   0  0  0  0  0  0  0  0  0  0  0  0
   -0.1730    1.2620    0.4352 N   0  0  0  0  0  0  0  0  0  0  0  0
    0.7354    0.6860   -0.5702 C   0  0  2  0  0  0  0  0  0  0  0  0
    1.1639    1.7549   -1.5880 C   0  0  0  0  0  0  0  0  0  0  0  0
    2.3472    2.0209   -1.7557 O   0  0  0  0  0  0  0  0  0  0  0  0
    0.0619   -0.4894   -1.2975 C   0  0  0  0  0  0  0  0  0  0  0  0
   -0.1666   -1.6539   -0.3648 C   0  0  0  0  0  0  0  0  0  0  0  0
    0.8803   -2.5394   -0.0700 C   0  0  0  0  0  0  0  0  0  0  0  0
   -1.4347   -1.8903    0.1866 C   0  0  0  0  0  0  0  0  0  0  0  0
    0.6701   -3.6289    0.7817 C   0  0  0  0  0  0  0  0  0  0  0  0
   -1.6482   -2.9833    1.0339 C   0  0  0  0  0  0  0  0  0  0  0  0
   -0.5942   -3.8507    1.3353 C   0  0  0  0  0  0  0  0  0  0  0  0
   -1.1815    1.2363    0.2645 H   0  0  0  0  0  0  0  0  0  0  0  0
    1.6472    0.3123   -0.0903 H   0  0  0  0  0  0  0  0  0  0  0  0
    0.7006   -0.8177   -2.1249 H   0  0  0  0  0  0  0  0  0  0  0  0
   -0.8898   -0.1661   -1.7319 H   0  0  0  0  0  0  0  0  0  0  0  0
    1.8666   -2.3774   -0.4953 H   0  0  0  0  0  0  0  0  0  0  0  0
   -2.2617   -1.2285   -0.0524 H   0  0  0  0  0  0  0  0  0  0  0  0
    1.4904   -4.3029    1.0115 H   0  0  0  0  0  0  0  0  0  0  0  0
   -2.6336   -3.1643    1.4516 H   0  0  0  0  0  0  0  0  0  0  0  0
   -0.7568   -4.7001    1.9922 H   0  0  0  0  0  0  0  0  0  0  0  0
    0.2175    2.4088   -2.3573 N   0  0  0  0  0  0  0  0  0  0  0  0
    0.5359    3.5331   -3.2504 C   0  0  2  0  0  0  0  0  0  0  0  0
    0.8016    4.8415   -2.4653 C   0  0  0  0  0  0  0  0  0  0  0  0
    0.0699    5.8184   -2.5748 O   0  0  0  0  0  0  0  0  0  0  0  0
   -0.6143    3.6611   -4.2568 C   0  0  0  0  0  0  0  0  0  0  0  0
   -0.7513    2.2823   -2.0780 H   0  0  0  0  0  0  0  0  0  0  0  0
    1.4468    3.3058   -3.8145 H   0  0  0  0  0  0  0  0  0  0  0  0
   -1.5536    3.8902   -3.7433 H   0  0  0  0  0  0  0  0  0  0  0  0
   -0.4051    4.4652   -4.9695 H   0  0  0  0  0  0  0  0  0  0  0  0
   -0.7379    2.7283   -4.8154 H   0  0  0  0  0  0  0  0  0  0  0  0
    1.8699    4.8958   -1.5920 N   0  0  0  0  0  0  0  0  0  0  0  0
    2.1509    6.0260   -0.7182 C   0  0  0  0  0  0  0  0  0  0  0  0
    2.3970    4.0261   -1.4713 H   0  0  0  0  0  0  0  0  0  0  0  0
    2.2967    6.9384   -1.3058 H   0  0  0  0  0  0  0  0  0  0  0  0
    1.3228    6.1840   -0.0196 H   0  0  0  0  0  0  0  0  0  0  0  0
    3.0612    5.8379   -0.1409 H   0  0  0  0  0  0  0  0  0  0  0  0
  1  2  2  0  0  0  0
  1  3  1  0  0  0  0
  1  7  1  0  0  0  0
  3  4  1  0  0  0  0
  3  5  1  0  0  0  0
  3  6  1  0  0  0  0
  7  8  1  0  0  0  0
  7 12  1  0  0  0  0
  8  9  1  0  0  0  0
  8 11  1  0  0  0  0
  8 13  1  0  0  0  0
  9 10  2  0  0  0  0
  9 17  1  0  0  0  0
 11 14  1  0  0  0  0
 11 15  1  0  0  0  0
 11 16  1  0  0  0  0
 17 18  1  0  0  0  0
 17 28  1  0  0  0  0
 18 19  1  0  0  0  0
 18 21  1  0  0  0  0
 18 29  1  0  0  0  0
 19 20  2  0  0  0  0
 19 37  1  0  0  0  0
 21 22  1  0  0  0  0
 21 30  1  0  0  0  0
 21 31  1  0  0  0  0
 22 23  1  0  0  0  0
 22 24  2  0  0  0  0
 23 25  2  0  0  0  0
 23 32  1  0  0  0  0
 24 26  1  0  0  0  0
 24 33  1  0  0  0  0
 25 27  1  0  0  0  0
 25 34  1  0  0  0  0
 26 27  2  0  0  0  0
 26 35  1  0  0  0  0
 27 36  1  0  0  0  0
 37 38  1  0  0  0  0
 37 42  1  0  0  0  0
 38 39  1  0  0  0  0
 38 41  1  0  0  0  0
 38 43  1  0  0  0  0
 39 40  2  0  0  0  0
 39 47  1  0  0  0  0
 41 44  1  0  0  0  0
 41 45  1  0  0  0  0
 41 46  1  0  0  0  0
 47 48  1  0  0  0  0
 47 49  1  0  0  0  0
 48 50  1  0  0  0  0
 48 51  1  0  0  0  0
 48 52  1  0  0  0  0
M  END
$$$$

  -OEChem-05262217163D

 52 52  0     1  0  0  0  0  0999 V2000
   -3.0441    0.5935    2.1137 C   0  0  0  0  0  0  0  0  0  0  0  0
   -3.0700    1.1114    1.0060 O   0  0  0  0  0  0  0  0  0  0  0  0
   -4.0638   -0.4648    2.4887 C   0  0  0  0  0  0  0  0  0  0  0  0
   -4.6679   -0.7329    1.6174 H   0  0  0  0  0  0  0  0  0  0  0  0
   -3.5569   -1.3606    2.8553 H   0  0  0  0  0  0  0  0  0  0  0  0
   -4.7244   -0.0840    3.2716 H   0  0  0  0  0  0  0  0  0  0  0  0
   -2.0543    0.9435    3.0077 N   0  0  0  0  0  0  0  0  0  0  0  0
   -1.0690    2.0126    2.7824 C   0  0  2  0  0  0  0  0  0  0  0  0
    0.0625    1.6051    1.8059 C   0  0  0  0  0  0  0  0  0  0  0  0
    1.2377    1.6110    2.1482 O   0  0  0  0  0  0  0  0  0  0  0  0
   -0.5413    2.4332    4.1604 C   0  0  0  0  0  0  0  0  0  0  0  0
   -2.0270    0.4418    3.8910 H   0  0  0  0  0  0  0  0  0  0  0  0
   -1.5722    2.8796    2.3408 H   0  0  0  0  0  0  0  0  0  0  0  0
   -0.0204    1.6007    4.6445 H   0  0  0  0  0  0  0  0  0  0  0  0
    0.1608    3.2673    4.0599 H   0  0  0  0  0  0  0  0  0  0  0  0
   -1.3657    2.7542    4.8044 H   0  0  0  0  0  0  0  0  0  0  0  0
   -0.2604    1.2882    0.5000 N   0  0  0  0  0  0  0  0  0  0  0  0
    0.6984    0.7566   -0.4845 C   0  0  2  0  0  0  0  0  0  0  0  0
    1.1042    1.8383   -1.4982 C   0  0  0  0  0  0  0  0  0  0  0  0
    2.2698    1.9531   -1.8560 O   0  0  0  0  0  0  0  0  0  0  0  0
    0.0910   -0.4401   -1.2334 C   0  0  0  0  0  0  0  0  0  0  0  0
   -0.1143   -1.6178   -0.3117 C   0  0  0  0  0  0  0  0  0  0  0  0
    0.9592   -2.4622    0.0057 C   0  0  0  0  0  0  0  0  0  0  0  0
   -1.3866   -1.9105    0.2016 C   0  0  0  0  0  0  0  0  0  0  0  0
    0.7711   -3.5648    0.8458 C   0  0  0  0  0  0  0  0  0  0  0  0
   -1.5786   -3.0177    1.0358 C   0  0  0  0  0  0  0  0  0  0  0  0
   -0.4979   -3.8425    1.3626 C   0  0  0  0  0  0  0  0  0  0  0  0
   -1.2621    1.1786    0.3222 H   0  0  0  0  0  0  0  0  0  0  0  0
    1.6146    0.4207    0.0145 H   0  0  0  0  0  0  0  0  0  0  0  0
    0.7628   -0.7389   -2.0455 H   0  0  0  0  0  0  0  0  0  0  0  0
   -0.8604   -0.1492   -1.6909 H   0  0  0  0  0  0  0  0  0  0  0  0
    1.9488   -2.2568   -0.3927 H   0  0  0  0  0  0  0  0  0  0  0  0
   -2.2329   -1.2819   -0.0586 H   0  0  0  0  0  0  0  0  0  0  0  0
    1.6124   -4.2060    1.0932 H   0  0  0  0  0  0  0  0  0  0  0  0
   -2.5678   -3.2437    1.4215 H   0  0  0  0  0  0  0  0  0  0  0  0
   -0.6424   -4.7030    2.0094 H   0  0  0  0  0  0  0  0  0  0  0  0
    0.1454    2.6575   -2.0671 N   0  0  0  0  0  0  0  0  0  0  0  0
    0.4591    3.7777   -2.9669 C   0  0  2  0  0  0  0  0  0  0  0  0
    1.0282    4.9970   -2.2008 C   0  0  0  0  0  0  0  0  0  0  0  0
    0.4337    6.0678   -2.1601 O   0  0  0  0  0  0  0  0  0  0  0  0
   -0.8163    4.1052   -3.7536 C   0  0  0  0  0  0  0  0  0  0  0  0
   -0.7741    2.6337   -1.6347 H   0  0  0  0  0  0  0  0  0  0  0  0
    1.2233    3.4661   -3.6870 H   0  0  0  0  0  0  0  0  0  0  0  0
   -1.6159    4.4250   -3.0775 H   0  0  0  0  0  0  0  0  0  0  0  0
   -0.6241    4.9126   -4.4676 H   0  0  0  0  0  0  0  0  0  0  0  0
   -1.1575    3.2266   -4.3096 H   0  0  0  0  0  0  0  0  0  0  0  0
    2.2209    4.8618   -1.5181 N   0  0  0  0  0  0  0  0  0  0  0  0
    2.7930    5.8932   -0.6645 C   0  0  0  0  0  0  0  0  0  0  0  0
    2.6308    3.9237   -1.5118 H   0  0  0  0  0  0  0  0  0  0  0  0
    2.9858    6.8045   -1.2399 H   0  0  0  0  0  0  0  0  0  0  0  0
    2.1104    6.1316    0.1576 H   0  0  0  0  0  0  0  0  0  0  0  0
    3.7400    5.5467   -0.2398 H   0  0  0  0  0  0  0  0  0  0  0  0
  1  2  2  0  0  0  0
  1  3  1  0  0  0  0
  1  7  1  0  0  0  0
  3  4  1  0  0  0  0
  3  5  1  0  0  0  0
  3  6  1  0  0  0  0
  7  8  1  0  0  0  0
  7 12  1  0  0  0  0
  8  9  1  0  0  0  0
  8 11  1  0  0  0  0
  8 13  1  0  0  0  0
  9 10  2  0  0  0  0
  9 17  1  0  0  0  0
 11 14  1  0  0  0  0
 11 15  1  0  0  0  0
 11 16  1  0  0  0  0
 17 18  1  0  0  0  0
 17 28  1  0  0  0  0
 18 19  1  0  0  0  0
 18 21  1  0  0  0  0
 18 29  1  0  0  0  0
 19 20  2  0  0  0  0
 19 37  1  0  0  0  0
 21 22  1  0  0  0  0
 21 30  1  0  0  0  0
 21 31  1  0  0  0  0
 22 23  1  0  0  0  0
 22 24  2  0  0  0  0
 23 25  2  0  0  0  0
 23 32  1  0  0  0  0
 24 26  1  0  0  0  0
 24 33  1  0  0  0  0
 25 27  1  0  0  0  0
 25 34  1  0  0  0  0
 26 27  2  0  0  0  0
 26 35  1  0  0  0  0
 27 36  1  0  0  0  0
 37 38  1  0  0  0  0
 37 42  1  0  0  0  0
 38 39  1  0  0  0  0
 38 41  1  0  0  0  0
 38 43  1  0  0  0  0
 39 40  2  0  0  0  0
 39 47  1  0  0  0  0
 41 44  1  0  0  0  0
 41 45  1  0  0  0  0
 41 46  1  0  0  0  0
 47 48  1  0  0  0  0
 47 49  1  0  0  0  0
 48 50  1  0  0  0  0
 48 51  1  0  0  0  0
 48 52  1  0  0  0  0
M  END
$$$$

  -OEChem-05262217163D

 52 52  0     1  0  0  0  0  0999 V2000
   -2.4288    0.0129    4.3098 C   0  0  0  0  0  0  0  0  0  0  0  0
   -3.4795   -0.3489    3.8030 O   0  0  0  0  0  0  0  0  0  0  0  0
   -1.9820   -0.5756    5.6346 C   0  0  0  0  0  0  0  0  0  0  0  0
   -2.7345   -1.2748    6.0098 H   0  0  0  0  0  0  0  0  0  0  0  0
   -1.0375   -1.1099    5.5063 H   0  0  0  0  0  0  0  0  0  0  0  0
   -1.8450    0.2213    6.3696 H   0  0  0  0  0  0  0  0  0  0  0  0
   -1.6390    0.9510    3.6780 N   0  0  0  0  0  0  0  0  0  0  0  0
   -1.8604    1.4206    2.3039 C   0  0  2  0  0  0  0  0  0  0  0  0
   -0.5821    1.3012    1.4508 C   0  0  0  0  0  0  0  0  0  0  0  0
    0.5195    1.3075    1.9867 O   0  0  0  0  0  0  0  0  0  0  0  0
   -2.3301    2.8760    2.3669 C   0  0  0  0  0  0  0  0  0  0  0  0
   -0.7037    1.0880    4.0596 H   0  0  0  0  0  0  0  0  0  0  0  0
   -2.6343    0.8188    1.8159 H   0  0  0  0  0  0  0  0  0  0  0  0
   -1.5649    3.5073    2.8306 H   0  0  0  0  0  0  0  0  0  0  0  0
   -2.5339    3.2583    1.3621 H   0  0  0  0  0  0  0  0  0  0  0  0
   -3.2488    2.9507    2.9574 H   0  0  0  0  0  0  0  0  0  0  0  0
   -0.6757    1.2110    0.0736 N   0  0  0  0  0  0  0  0  0  0  0  0
    0.4497    0.7646   -0.7707 C   0  0  2  0  0  0  0  0  0  0  0  0
    1.1186    1.9306   -1.5182 C   0  0  0  0  0  0  0  0  0  0  0  0
    2.2903    1.8523   -1.8646 O   0  0  0  0  0  0  0  0  0  0  0  0
   -0.0678   -0.2734   -1.7795 C   0  0  0  0  0  0  0  0  0  0  0  0
   -0.4983   -1.5353   -1.0695 C   0  0  0  0  0  0  0  0  0  0  0  0
    0.4573   -2.4878   -0.6853 C   0  0  0  0  0  0  0  0  0  0  0  0
   -1.8505   -1.7673   -0.7705 C   0  0  0  0  0  0  0  0  0  0  0  0
    0.0712   -3.6476   -0.0053 C   0  0  0  0  0  0  0  0  0  0  0  0
   -2.2368   -2.9248   -0.0860 C   0  0  0  0  0  0  0  0  0  0  0  0
   -1.2761   -3.8653    0.2968 C   0  0  0  0  0  0  0  0  0  0  0  0
   -1.6124    1.0410   -0.2805 H   0  0  0  0  0  0  0  0  0  0  0  0
    1.2280    0.2932   -0.1592 H   0  0  0  0  0  0  0  0  0  0  0  0
    0.7291   -0.5194   -2.4901 H   0  0  0  0  0  0  0  0  0  0  0  0
   -0.8990    0.1426   -2.3580 H   0  0  0  0  0  0  0  0  0  0  0  0
    1.5082   -2.3268   -0.9087 H   0  0  0  0  0  0  0  0  0  0  0  0
   -2.6110   -1.0519   -1.0659 H   0  0  0  0  0  0  0  0  0  0  0  0
    0.8190   -4.3779    0.2902 H   0  0  0  0  0  0  0  0  0  0  0  0
   -3.2834   -3.0952    0.1501 H   0  0  0  0  0  0  0  0  0  0  0  0
   -1.5767   -4.7636    0.8283 H   0  0  0  0  0  0  0  0  0  0  0  0
    0.3853    3.0449   -1.8829 N   0  0  0  0  0  0  0  0  0  0  0  0
    0.9717    4.2308   -2.5251 C   0  0  2  0  0  0  0  0  0  0  0  0
    1.7727    5.0984   -1.5239 C   0  0  0  0  0  0  0  0  0  0  0  0
    1.4105    6.2289   -1.2207 O   0  0  0  0  0  0  0  0  0  0  0  0
   -0.1712    4.9992   -3.1999 C   0  0  0  0  0  0  0  0  0  0  0  0
   -0.5175    3.1458   -1.4295 H   0  0  0  0  0  0  0  0  0  0  0  0
    1.6697    3.9162   -3.3085 H   0  0  0  0  0  0  0  0  0  0  0  0
   -0.8959    5.3448   -2.4560 H   0  0  0  0  0  0  0  0  0  0  0  0
    0.2217    5.8720   -3.7306 H   0  0  0  0  0  0  0  0  0  0  0  0
   -0.6875    4.3600   -3.9222 H   0  0  0  0  0  0  0  0  0  0  0  0
    2.9005    4.5680   -0.9298 N   0  0  0  0  0  0  0  0  0  0  0  0
    3.6555    5.2365    0.1208 C   0  0  0  0  0  0  0  0  0  0  0  0
    3.0986    3.5862   -1.1398 H   0  0  0  0  0  0  0  0  0  0  0  0
    4.0266    6.2050   -0.2303 H   0  0  0  0  0  0  0  0  0  0  0  0
    3.0253    5.3977    1.0015 H   0  0  0  0  0  0  0  0  0  0  0  0
    4.5137    4.6249    0.4159 H   0  0  0  0  0  0  0  0  0  0  0  0
  1  2  2  0  0  0  0
  1  3  1  0  0  0  0
  1  7  1  0  0  0  0
  3  4  1  0  0  0  0
  3  5  1  0  0  0  0
  3  6  1  0  0  0  0
  7  8  1  0  0  0  0
  7 12  1  0  0  0  0
  8  9  1  0  0  0  0
  8 11  1  0  0  0  0
  8 13  1  0  0  0  0
  9 10  2  0  0  0  0
  9 17  1  0  0  0  0
 11 14  1  0  0  0  0
 11 15  1  0  0  0  0
 11 16  1  0  0  0  0
 17 18  1  0  0  0  0
 17 28  1  0  0  0  0
 18 19  1  0  0  0  0
 18 21  1  0  0  0  0
 18 29  1  0  0  0  0
 19 20  2  0  0  0  0
 19 37  1  0  0  0  0
 21 22  1  0  0  0  0
 21 30  1  0  0  0  0
 21 31  1  0  0  0  0
 22 23  1  0  0  0  0
 22 24  2  0  0  0  0
 23 25  2  0  0  0  0
 23 32  1  0  0  0  0
 24 26  1  0  0  0  0
 24 33  1  0  0  0  0
 25 27  1  0  0  0  0
 25 34  1  0  0  0  0
 26 27  2  0  0  0  0
 26 35  1  0  0  0  0
 27 36  1  0  0  0  0
 37 38  1  0  0  0  0
 37 42  1  0  0  0  0
 38 39  1  0  0  0  0
 38 41  1  0  0  0  0
 38 43  1  0  0  0  0
 39 40  2  0  0  0  0
 39 47  1  0  0  0  0
 41 44  1  0  0  0  0
 41 45  1  0  0  0  0
 41 46  1  0  0  0  0
 47 48  1  0  0  0  0
 47 49  1  0  0  0  0
 48 50  1  0  0  0  0
 48 51  1  0  0  0  0
 48 52  1  0  0  0  0
M  END
$$$$

  -OEChem-05262217163D

 52 52  0     1  0  0  0  0  0999 V2000
   -2.4859    0.0010    4.4241 C   0  0  0  0  0  0  0  0  0  0  0  0
   -3.5792   -0.2990    3.9705 O   0  0  0  0  0  0  0  0  0  0  0  0
   -2.0323   -0.5629    5.7572 C   0  0  0  0  0  0  0  0  0  0  0  0
   -2.8271   -1.1695    6.2001 H   0  0  0  0  0  0  0  0  0  0  0  0
   -1.1482   -1.1894    5.6156 H   0  0  0  0  0  0  0  0  0  0  0  0
   -1.7874    0.2514    6.4437 H   0  0  0  0  0  0  0  0  0  0  0  0
   -1.6538    0.8446    3.7191 N   0  0  0  0  0  0  0  0  0  0  0  0
   -1.9064    1.2897    2.3427 C   0  0  2  0  0  0  0  0  0  0  0  0
   -0.6236    1.2463    1.4888 C   0  0  0  0  0  0  0  0  0  0  0  0
    0.4764    1.2651    2.0277 O   0  0  0  0  0  0  0  0  0  0  0  0
   -2.4718    2.7111    2.3958 C   0  0  0  0  0  0  0  0  0  0  0  0
   -0.7017    0.9517    4.0676 H   0  0  0  0  0  0  0  0  0  0  0  0
   -2.6377    0.6304    1.8632 H   0  0  0  0  0  0  0  0  0  0  0  0
   -1.7487    3.3937    2.8539 H   0  0  0  0  0  0  0  0  0  0  0  0
   -2.7029    3.0718    1.3890 H   0  0  0  0  0  0  0  0  0  0  0  0
   -3.3918    2.7292    2.9889 H   0  0  0  0  0  0  0  0  0  0  0  0
   -0.7070    1.2041    0.1082 N   0  0  0  0  0  0  0  0  0  0  0  0
    0.4352    0.8116   -0.7420 C   0  0  2  0  0  0  0  0  0  0  0  0
    1.0917    2.0128   -1.4470 C   0  0  0  0  0  0  0  0  0  0  0  0
    2.1732    1.8859   -2.0071 O   0  0  0  0  0  0  0  0  0  0  0  0
   -0.0583   -0.2054   -1.7856 C   0  0  0  0  0  0  0  0  0  0  0  0
   -0.4655   -1.4969   -1.1160 C   0  0  0  0  0  0  0  0  0  0  0  0
    0.5080   -2.4410   -0.7574 C   0  0  0  0  0  0  0  0  0  0  0  0
   -1.8143   -1.7684   -0.8358 C   0  0  0  0  0  0  0  0  0  0  0  0
    0.1434   -3.6284   -0.1145 C   0  0  0  0  0  0  0  0  0  0  0  0
   -2.1800   -2.9547   -0.1910 C   0  0  0  0  0  0  0  0  0  0  0  0
   -1.2008   -3.8841    0.1721 C   0  0  0  0  0  0  0  0  0  0  0  0
   -1.6376    1.0376   -0.2642 H   0  0  0  0  0  0  0  0  0  0  0  0
    1.2188    0.3355   -0.1413 H   0  0  0  0  0  0  0  0  0  0  0  0
    0.7437   -0.4156   -2.5022 H   0  0  0  0  0  0  0  0  0  0  0  0
   -0.8960    0.2127   -2.3530 H   0  0  0  0  0  0  0  0  0  0  0  0
    1.5561   -2.2515   -0.9716 H   0  0  0  0  0  0  0  0  0  0  0  0
   -2.5879   -1.0620   -1.1179 H   0  0  0  0  0  0  0  0  0  0  0  0
    0.9060   -4.3501    0.1634 H   0  0  0  0  0  0  0  0  0  0  0  0
   -3.2246   -3.1573    0.0281 H   0  0  0  0  0  0  0  0  0  0  0  0
   -1.4850   -4.8050    0.6735 H   0  0  0  0  0  0  0  0  0  0  0  0
    0.4453    3.2335   -1.5117 N   0  0  0  0  0  0  0  0  0  0  0  0
    1.0223    4.4392   -2.1255 C   0  0  2  0  0  0  0  0  0  0  0  0
    2.0926    5.1030   -1.2254 C   0  0  0  0  0  0  0  0  0  0  0  0
    1.9434    6.2321   -0.7738 O   0  0  0  0  0  0  0  0  0  0  0  0
   -0.1403    5.3803   -2.4644 C   0  0  0  0  0  0  0  0  0  0  0  0
   -0.3522    3.3435   -0.8923 H   0  0  0  0  0  0  0  0  0  0  0  0
    1.5171    4.1705   -3.0651 H   0  0  0  0  0  0  0  0  0  0  0  0
   -0.6676    5.6852   -1.5548 H   0  0  0  0  0  0  0  0  0  0  0  0
    0.2341    6.2794   -2.9642 H   0  0  0  0  0  0  0  0  0  0  0  0
   -0.8504    4.8847   -3.1333 H   0  0  0  0  0  0  0  0  0  0  0  0
    3.2368    4.3967   -0.9122 N   0  0  0  0  0  0  0  0  0  0  0  0
    4.2711    4.8820   -0.0093 C   0  0  0  0  0  0  0  0  0  0  0  0
    3.2798    3.4332   -1.2540 H   0  0  0  0  0  0  0  0  0  0  0  0
    4.6935    5.8216   -0.3803 H   0  0  0  0  0  0  0  0  0  0  0  0
    3.8583    5.0506    0.9907 H   0  0  0  0  0  0  0  0  0  0  0  0
    5.0780    4.1471    0.0680 H   0  0  0  0  0  0  0  0  0  0  0  0
  1  2  2  0  0  0  0
  1  3  1  0  0  0  0
  1  7  1  0  0  0  0
  3  4  1  0  0  0  0
  3  5  1  0  0  0  0
  3  6  1  0  0  0  0
  7  8  1  0  0  0  0
  7 12  1  0  0  0  0
  8  9  1  0  0  0  0
  8 11  1  0  0  0  0
  8 13  1  0  0  0  0
  9 10  2  0  0  0  0
  9 17  1  0  0  0  0
 11 14  1  0  0  0  0
 11 15  1  0  0  0  0
 11 16  1  0  0  0  0
 17 18  1  0  0  0  0
 17 28  1  0  0  0  0
 18 19  1  0  0  0  0
 18 21  1  0  0  0  0
 18 29  1  0  0  0  0
 19 20  2  0  0  0  0
 19 37  1  0  0  0  0
 21 22  1  0  0  0  0
 21 30  1  0  0  0  0
 21 31  1  0  0  0  0
 22 23  1  0  0  0  0
 22 24  2  0  0  0  0
 23 25  2  0  0  0  0
 23 32  1  0  0  0  0
 24 26  1  0  0  0  0
 24 33  1  0  0  0  0
 25 27  1  0  0  0  0
 25 34  1  0  0  0  0
 26 27  2  0  0  0  0
 26 35  1  0  0  0  0
 27 36  1  0  0  0  0
 37 38  1  0  0  0  0
 37 42  1  0  0  0  0
 38 39  1  0  0  0  0
 38 41  1  0  0  0  0
 38 43  1  0  0  0  0
 39 40  2  0  0  0  0
 39 47  1  0  0  0  0
 41 44  1  0  0  0  0
 41 45  1  0  0  0  0
 41 46  1  0  0  0  0
 47 48  1  0  0  0  0
 47 49  1  0  0  0  0
 48 50  1  0  0  0  0
 48 51  1  0  0  0  0
 48 52  1  0  0  0  0
M  END
$$$$

  -OEChem-05262217163D

 52 52  0     1  0  0  0  0  0999 V2000
   -2.5178   -0.0546    4.4547 C   0  0  0  0  0  0  0  0  0  0  0  0
   -3.6048   -0.3763    4.0007 O   0  0  0  0  0  0  0  0  0  0  0  0
   -2.0644   -0.5890    5.8001 C   0  0  0  0  0  0  0  0  0  0  0  0
   -2.8344   -1.2381    6.2267 H   0  0  0  0  0  0  0  0  0  0  0  0
   -1.1432   -1.1650    5.6817 H   0  0  0  0  0  0  0  0  0  0  0  0
   -1.8817    0.2396    6.4888 H   0  0  0  0  0  0  0  0  0  0  0  0
   -1.6942    0.7889    3.7397 N   0  0  0  0  0  0  0  0  0  0  0  0
   -1.9493    1.2114    2.3569 C   0  0  2  0  0  0  0  0  0  0  0  0
   -0.6560    1.2150    1.5182 C   0  0  0  0  0  0  0  0  0  0  0  0
    0.4383    1.2511    2.0675 O   0  0  0  0  0  0  0  0  0  0  0  0
   -2.5758    2.6078    2.3923 C   0  0  0  0  0  0  0  0  0  0  0  0
   -0.7452    0.9160    4.0905 H   0  0  0  0  0  0  0  0  0  0  0  0
   -2.6459    0.5165    1.8755 H   0  0  0  0  0  0  0  0  0  0  0  0
   -1.8897    3.3235    2.8569 H   0  0  0  0  0  0  0  0  0  0  0  0
   -2.8078    2.9526    1.3803 H   0  0  0  0  0  0  0  0  0  0  0  0
   -3.5047    2.5898    2.9715 H   0  0  0  0  0  0  0  0  0  0  0  0
   -0.7199    1.2102    0.1367 N   0  0  0  0  0  0  0  0  0  0  0  0
    0.4361    0.8518   -0.7102 C   0  0  2  0  0  0  0  0  0  0  0  0
    1.0884    2.0820   -1.3721 C   0  0  0  0  0  0  0  0  0  0  0  0
    2.0409    1.9507   -2.1313 O   0  0  0  0  0  0  0  0  0  0  0  0
   -0.0418   -0.1477   -1.7797 C   0  0  0  0  0  0  0  0  0  0  0  0
   -0.4413   -1.4575   -1.1417 C   0  0  0  0  0  0  0  0  0  0  0  0
    0.5384   -2.4004   -0.7975 C   0  0  0  0  0  0  0  0  0  0  0  0
   -1.7897   -1.7494   -0.8812 C   0  0  0  0  0  0  0  0  0  0  0  0
    0.1797   -3.6078   -0.1891 C   0  0  0  0  0  0  0  0  0  0  0  0
   -2.1493   -2.9557   -0.2705 C   0  0  0  0  0  0  0  0  0  0  0  0
   -1.1643   -3.8845    0.0776 C   0  0  0  0  0  0  0  0  0  0  0  0
   -1.6442    1.0536   -0.2556 H   0  0  0  0  0  0  0  0  0  0  0  0
    1.2176    0.3687   -0.1128 H   0  0  0  0  0  0  0  0  0  0  0  0
    0.7650   -0.3378   -2.4963 H   0  0  0  0  0  0  0  0  0  0  0  0
   -0.8790    0.2760   -2.3436 H   0  0  0  0  0  0  0  0  0  0  0  0
    1.5865   -2.1939   -0.9954 H   0  0  0  0  0  0  0  0  0  0  0  0
   -2.5680   -1.0437   -1.1531 H   0  0  0  0  0  0  0  0  0  0  0  0
    0.9463   -4.3294    0.0783 H   0  0  0  0  0  0  0  0  0  0  0  0
   -3.1940   -3.1734   -0.0673 H   0  0  0  0  0  0  0  0  0  0  0  0
   -1.4431   -4.8209    0.5525 H   0  0  0  0  0  0  0  0  0  0  0  0
    0.5877    3.3509   -1.1469 N   0  0  0  0  0  0  0  0  0  0  0  0
    1.1663    4.5818   -1.7063 C   0  0  2  0  0  0  0  0  0  0  0  0
    2.4568    5.0169   -0.9702 C   0  0  0  0  0  0  0  0  0  0  0  0
    2.5236    6.0779   -0.3610 O   0  0  0  0  0  0  0  0  0  0  0  0
    0.0713    5.6553   -1.6759 C   0  0  0  0  0  0  0  0  0  0  0  0
   -0.0745    3.4333   -0.3804 H   0  0  0  0  0  0  0  0  0  0  0  0
    1.4372    4.4134   -2.7540 H   0  0  0  0  0  0  0  0  0  0  0  0
   -0.2360    5.8642   -0.6462 H   0  0  0  0  0  0  0  0  0  0  0  0
    0.4401    6.5849   -2.1212 H   0  0  0  0  0  0  0  0  0  0  0  0
   -0.8036    5.3247   -2.2436 H   0  0  0  0  0  0  0  0  0  0  0  0
    3.5581    4.1845   -0.9977 N   0  0  0  0  0  0  0  0  0  0  0  0
    4.7946    4.4494   -0.2756 C   0  0  0  0  0  0  0  0  0  0  0  0
    3.4269    3.2787   -1.4551 H   0  0  0  0  0  0  0  0  0  0  0  0
    5.2297    5.4013   -0.5978 H   0  0  0  0  0  0  0  0  0  0  0  0
    4.6064    4.4940    0.8021 H   0  0  0  0  0  0  0  0  0  0  0  0
    5.5216    3.6547   -0.4686 H   0  0  0  0  0  0  0  0  0  0  0  0
  1  2  2  0  0  0  0
  1  3  1  0  0  0  0
  1  7  1  0  0  0  0
  3  4  1  0  0  0  0
  3  5  1  0  0  0  0
  3  6  1  0  0  0  0
  7  8  1  0  0  0  0
  7 12  1  0  0  0  0
  8  9  1  0  0  0  0
  8 11  1  0  0  0  0
  8 13  1  0  0  0  0
  9 10  2  0  0  0  0
  9 17  1  0  0  0  0
 11 14  1  0  0  0  0
 11 15  1  0  0  0  0
 11 16  1  0  0  0  0
 17 18  1  0  0  0  0
 17 28  1  0  0  0  0
 18 19  1  0  0  0  0
 18 21  1  0  0  0  0
 18 29  1  0  0  0  0
 19 20  2  0  0  0  0
 19 37  1  0  0  0  0
 21 22  1  0  0  0  0
 21 30  1  0  0  0  0
 21 31  1  0  0  0  0
 22 23  1  0  0  0  0
 22 24  2  0  0  0  0
 23 25  2  0  0  0  0
 23 32  1  0  0  0  0
 24 26  1  0  0  0  0
 24 33  1  0  0  0  0
 25 27  1  0  0  0  0
 25 34  1  0  0  0  0
 26 27  2  0  0  0  0
 26 35  1  0  0  0  0
 27 36  1  0  0  0  0
 37 38  1  0  0  0  0
 37 42  1  0  0  0  0
 38 39  1  0  0  0  0
 38 41  1  0  0  0  0
 38 43  1  0  0  0  0
 39 40  2  0  0  0  0
 39 47  1  0  0  0  0
 41 44  1  0  0  0  0
 41 45  1  0  0  0  0
 41 46  1  0  0  0  0
 47 48  1  0  0  0  0
 47 49  1  0  0  0  0
 48 50  1  0  0  0  0
 48 51  1  0  0  0  0
 48 52  1  0  0  0  0
M  END
$$$$

  -OEChem-05262217163D

 52 52  0     1  0  0  0  0  0999 V2000
   -2.6077   -0.0940    4.4596 C   0  0  0  0  0  0  0  0  0  0  0  0
   -3.7120   -0.3462    4.0036 O   0  0  0  0  0  0  0  0  0  0  0  0
   -2.1978   -0.6398    5.8145 C   0  0  0  0  0  0  0  0  0  0  0  0
   -3.0341   -1.1737    6.2743 H   0  0  0  0  0  0  0  0  0  0  0  0
   -1.3587   -1.3305    5.7004 H   0  0  0  0  0  0  0  0  0  0  0  0
   -1.8994    0.1797    6.4728 H   0  0  0  0  0  0  0  0  0  0  0  0
   -1.7269    0.6829    3.7370 N   0  0  0  0  0  0  0  0  0  0  0  0
   -1.9645    1.1370    2.3612 C   0  0  2  0  0  0  0  0  0  0  0  0
   -0.6586    1.1813    1.5437 C   0  0  0  0  0  0  0  0  0  0  0  0
    0.4276    1.2277    2.1080 O   0  0  0  0  0  0  0  0  0  0  0  0
   -2.6128    2.5235    2.4150 C   0  0  0  0  0  0  0  0  0  0  0  0
   -0.7760    0.7685    4.0948 H   0  0  0  0  0  0  0  0  0  0  0  0
   -2.6415    0.4409    1.8538 H   0  0  0  0  0  0  0  0  0  0  0  0
   -1.9476    3.2384    2.9102 H   0  0  0  0  0  0  0  0  0  0  0  0
   -2.8284    2.8879    1.4061 H   0  0  0  0  0  0  0  0  0  0  0  0
   -3.5535    2.4792    2.9731 H   0  0  0  0  0  0  0  0  0  0  0  0
   -0.6987    1.2171    0.1626 N   0  0  0  0  0  0  0  0  0  0  0  0
    0.4680    0.8791   -0.6775 C   0  0  2  0  0  0  0  0  0  0  0  0
    1.1264    2.1354   -1.2868 C   0  0  0  0  0  0  0  0  0  0  0  0
    1.9052    2.0511   -2.2292 O   0  0  0  0  0  0  0  0  0  0  0  0
   -0.0013   -0.0983   -1.7727 C   0  0  0  0  0  0  0  0  0  0  0  0
   -0.4079   -1.4201   -1.1645 C   0  0  0  0  0  0  0  0  0  0  0  0
    0.5656   -2.3727   -0.8292 C   0  0  0  0  0  0  0  0  0  0  0  0
   -1.7600   -1.7134   -0.9250 C   0  0  0  0  0  0  0  0  0  0  0  0
    0.1968   -3.5909   -0.2488 C   0  0  0  0  0  0  0  0  0  0  0  0
   -2.1300   -2.9309   -0.3440 C   0  0  0  0  0  0  0  0  0  0  0  0
   -1.1512   -3.8695   -0.0041 C   0  0  0  0  0  0  0  0  0  0  0  0
   -1.6171    1.0820   -0.2511 H   0  0  0  0  0  0  0  0  0  0  0  0
    1.2421    0.3813   -0.0828 H   0  0  0  0  0  0  0  0  0  0  0  0
    0.8117   -0.2792   -2.4844 H   0  0  0  0  0  0  0  0  0  0  0  0
   -0.8317    0.3385   -2.3372 H   0  0  0  0  0  0  0  0  0  0  0  0
    1.6161   -2.1654   -1.0117 H   0  0  0  0  0  0  0  0  0  0  0  0
   -2.5329   -0.9998   -1.1914 H   0  0  0  0  0  0  0  0  0  0  0  0
    0.9579   -4.3204    0.0125 H   0  0  0  0  0  0  0  0  0  0  0  0
   -3.1778   -3.1504   -0.1590 H   0  0  0  0  0  0  0  0  0  0  0  0
   -1.4379   -4.8153    0.4471 H   0  0  0  0  0  0  0  0  0  0  0  0
    0.8237    3.3890   -0.7889 N   0  0  0  0  0  0  0  0  0  0  0  0
    1.3962    4.6473   -1.2899 C   0  0  2  0  0  0  0  0  0  0  0  0
    2.8484    4.8783   -0.8038 C   0  0  0  0  0  0  0  0  0  0  0  0
    3.1528    5.8471   -0.1185 O   0  0  0  0  0  0  0  0  0  0  0  0
    0.4399    5.7739   -0.8782 C   0  0  0  0  0  0  0  0  0  0  0  0
    0.3218    3.4029    0.0956 H   0  0  0  0  0  0  0  0  0  0  0  0
    1.4276    4.6211   -2.3843 H   0  0  0  0  0  0  0  0  0  0  0  0
    0.3767    5.8470    0.2123 H   0  0  0  0  0  0  0  0  0  0  0  0
    0.7936    6.7333   -1.2692 H   0  0  0  0  0  0  0  0  0  0  0  0
   -0.5622    5.5882   -1.2764 H   0  0  0  0  0  0  0  0  0  0  0  0
    3.8283    3.9732   -1.1607 N   0  0  0  0  0  0  0  0  0  0  0  0
    5.2183    4.0618   -0.7347 C   0  0  0  0  0  0  0  0  0  0  0  0
    3.5166    3.1599   -1.6972 H   0  0  0  0  0  0  0  0  0  0  0  0
    5.6651    5.0000   -1.0798 H   0  0  0  0  0  0  0  0  0  0  0  0
    5.2883    4.0177    0.3571 H   0  0  0  0  0  0  0  0  0  0  0  0
    5.7945    3.2305   -1.1525 H   0  0  0  0  0  0  0  0  0  0  0  0
  1  2  2  0  0  0  0
  1  3  1  0  0  0  0
  1  7  1  0  0  0  0
  3  4  1  0  0  0  0
  3  5  1  0  0  0  0
  3  6  1  0  0  0  0
  7  8  1  0  0  0  0
  7 12  1  0  0  0  0
  8  9  1  0  0  0  0
  8 11  1  0  0  0  0
  8 13  1  0  0  0  0
  9 10  2  0  0  0  0
  9 17  1  0  0  0  0
 11 14  1  0  0  0  0
 11 15  1  0  0  0  0
 11 16  1  0  0  0  0
 17 18  1  0  0  0  0
 17 28  1  0  0  0  0
 18 19  1  0  0  0  0
 18 21  1  0  0  0  0
 18 29  1  0  0  0  0
 19 20  2  0  0  0  0
 19 37  1  0  0  0  0
 21 22  1  0  0  0  0
 21 30  1  0  0  0  0
 21 31  1  0  0  0  0
 22 23  1  0  0  0  0
 22 24  2  0  0  0  0
 23 25  2  0  0  0  0
 23 32  1  0  0  0  0
 24 26  1  0  0  0  0
 24 33  1  0  0  0  0
 25 27  1  0  0  0  0
 25 34  1  0  0  0  0
 26 27  2  0  0  0  0
 26 35  1  0  0  0  0
 27 36  1  0  0  0  0
 37 38  1  0  0  0  0
 37 42  1  0  0  0  0
 38 39  1  0  0  0  0
 38 41  1  0  0  0  0
 38 43  1  0  0  0  0
 39 40  2  0  0  0  0
 39 47  1  0  0  0  0
 41 44  1  0  0  0  0
 41 45  1  0  0  0  0
 41 46  1  0  0  0  0
 47 48  1  0  0  0  0
 47 49  1  0  0  0  0
 48 50  1  0  0  0  0
 48 51  1  0  0  0  0
 48 52  1  0  0  0  0
M  END
$$$$

  -OEChem-05262217163D

 52 52  0     1  0  0  0  0  0999 V2000
   -2.5918   -0.1620    4.4231 C   0  0  0  0  0  0  0  0  0  0  0  0
   -3.6673   -0.4887    3.9465 O   0  0  0  0  0  0  0  0  0  0  0  0
   -2.1592   -0.7027    5.7729 C   0  0  0  0  0  0  0  0  0  0  0  0
   -2.9335   -1.3573    6.1828 H   0  0  0  0  0  0  0  0  0  0  0  0
   -1.2346   -1.2752    5.6663 H   0  0  0  0  0  0  0  0  0  0  0  0
   -1.9908    0.1221    6.4694 H   0  0  0  0  0  0  0  0  0  0  0  0
   -1.7596    0.6885    3.7266 N   0  0  0  0  0  0  0  0  0  0  0  0
   -1.9914    1.1145    2.3407 C   0  0  2  0  0  0  0  0  0  0  0  0
   -0.6744    1.1886    1.5430 C   0  0  0  0  0  0  0  0  0  0  0  0
    0.4042    1.2619    2.1205 O   0  0  0  0  0  0  0  0  0  0  0  0
   -2.6863    2.4787    2.3658 C   0  0  0  0  0  0  0  0  0  0  0  0
   -0.8223    0.8304    4.1016 H   0  0  0  0  0  0  0  0  0  0  0  0
   -2.6371    0.3907    1.8314 H   0  0  0  0  0  0  0  0  0  0  0  0
   -2.0550    3.2212    2.8648 H   0  0  0  0  0  0  0  0  0  0  0  0
   -2.8949    2.8240    1.3486 H   0  0  0  0  0  0  0  0  0  0  0  0
   -3.6356    2.4085    2.9068 H   0  0  0  0  0  0  0  0  0  0  0  0
   -0.6892    1.2485    0.1633 N   0  0  0  0  0  0  0  0  0  0  0  0
    0.4859    0.9010   -0.6601 C   0  0  2  0  0  0  0  0  0  0  0  0
    1.1662    2.1666   -1.2242 C   0  0  0  0  0  0  0  0  0  0  0  0
    1.7555    2.1622   -2.2987 O   0  0  0  0  0  0  0  0  0  0  0  0
    0.0221   -0.0607   -1.7727 C   0  0  0  0  0  0  0  0  0  0  0  0
   -0.4122   -1.3821   -1.1820 C   0  0  0  0  0  0  0  0  0  0  0  0
    0.5439   -2.3499   -0.8392 C   0  0  0  0  0  0  0  0  0  0  0  0
   -1.7704   -1.6559   -0.9548 C   0  0  0  0  0  0  0  0  0  0  0  0
    0.1515   -3.5652   -0.2676 C   0  0  0  0  0  0  0  0  0  0  0  0
   -2.1633   -2.8691   -0.3790 C   0  0  0  0  0  0  0  0  0  0  0  0
   -1.2022   -3.8237   -0.0341 C   0  0  0  0  0  0  0  0  0  0  0  0
   -1.6015    1.1334   -0.2693 H   0  0  0  0  0  0  0  0  0  0  0  0
    1.2415    0.3846   -0.0578 H   0  0  0  0  0  0  0  0  0  0  0  0
    0.8444   -0.2459   -2.4726 H   0  0  0  0  0  0  0  0  0  0  0  0
   -0.7931    0.3918   -2.3467 H   0  0  0  0  0  0  0  0  0  0  0  0
    1.5992   -2.1591   -1.0120 H   0  0  0  0  0  0  0  0  0  0  0  0
   -2.5302   -0.9294   -1.2244 H   0  0  0  0  0  0  0  0  0  0  0  0
    0.8993   -4.3076   -0.0040 H   0  0  0  0  0  0  0  0  0  0  0  0
   -3.2156   -3.0720   -0.2000 H   0  0  0  0  0  0  0  0  0  0  0  0
   -1.5070   -4.7659    0.4121 H   0  0  0  0  0  0  0  0  0  0  0  0
    1.1049    3.3458   -0.5058 N   0  0  0  0  0  0  0  0  0  0  0  0
    1.7067    4.6192   -0.9290 C   0  0  2  0  0  0  0  0  0  0  0  0
    3.2393    4.6605   -0.7116 C   0  0  0  0  0  0  0  0  0  0  0  0
    3.7683    5.5089   -0.0035 O   0  0  0  0  0  0  0  0  0  0  0  0
    0.9677    5.7369   -0.1823 C   0  0  0  0  0  0  0  0  0  0  0  0
    0.7711    3.2599    0.4529 H   0  0  0  0  0  0  0  0  0  0  0  0
    1.5333    4.7626   -2.0008 H   0  0  0  0  0  0  0  0  0  0  0  0
    1.1233    5.6469    0.8978 H   0  0  0  0  0  0  0  0  0  0  0  0
    1.3363    6.7161   -0.5043 H   0  0  0  0  0  0  0  0  0  0  0  0
   -0.1059    5.6886   -0.3876 H   0  0  0  0  0  0  0  0  0  0  0  0
    4.0338    3.7261   -1.3460 N   0  0  0  0  0  0  0  0  0  0  0  0
    5.4815    3.6546   -1.2049 C   0  0  0  0  0  0  0  0  0  0  0  0
    3.5451    3.0256   -1.9091 H   0  0  0  0  0  0  0  0  0  0  0  0
    5.9437    4.5984   -1.5125 H   0  0  0  0  0  0  0  0  0  0  0  0
    5.7544    3.4505   -0.1644 H   0  0  0  0  0  0  0  0  0  0  0  0
    5.8823    2.8533   -1.8330 H   0  0  0  0  0  0  0  0  0  0  0  0
  1  2  2  0  0  0  0
  1  3  1  0  0  0  0
  1  7  1  0  0  0  0
  3  4  1  0  0  0  0
  3  5  1  0  0  0  0
  3  6  1  0  0  0  0
  7  8  1  0  0  0  0
  7 12  1  0  0  0  0
  8  9  1  0  0  0  0
  8 11  1  0  0  0  0
  8 13  1  0  0  0  0
  9 10  2  0  0  0  0
  9 17  1  0  0  0  0
 11 14  1  0  0  0  0
 11 15  1  0  0  0  0
 11 16  1  0  0  0  0
 17 18  1  0  0  0  0
 17 28  1  0  0  0  0
 18 19  1  0  0  0  0
 18 21  1  0  0  0  0
 18 29  1  0  0  0  0
 19 20  2  0  0  0  0
 19 37  1  0  0  0  0
 21 22  1  0  0  0  0
 21 30  1  0  0  0  0
 21 31  1  0  0  0  0
 22 23  1  0  0  0  0
 22 24  2  0  0  0  0
 23 25  2  0  0  0  0
 23 32  1  0  0  0  0
 24 26  1  0  0  0  0
 24 33  1  0  0  0  0
 25 27  1  0  0  0  0
 25 34  1  0  0  0  0
 26 27  2  0  0  0  0
 26 35  1  0  0  0  0
 27 36  1  0  0  0  0
 37 38  1  0  0  0  0
 37 42  1  0  0  0  0
 38 39  1  0  0  0  0
 38 41  1  0  0  0  0
 38 43  1  0  0  0  0
 39 40  2  0  0  0  0
 39 47  1  0  0  0  0
 41 44  1  0  0  0  0
 41 45  1  0  0  0  0
 41 46  1  0  0  0  0
 47 48  1  0  0  0  0
 47 49  1  0  0  0  0
 48 50  1  0  0  0  0
 48 51  1  0  0  0  0
 48 52  1  0  0  0  0
M  END
$$$$

  -OEChem-05262217163D

 52 52  0     1  0  0  0  0  0999 V2000
   -2.6689   -0.1962    4.3773 C   0  0  0  0  0  0  0  0  0  0  0  0
   -3.7590   -0.4402    3.8846 O   0  0  0  0  0  0  0  0  0  0  0  0
   -2.2906   -0.7871    5.7223 C   0  0  0  0  0  0  0  0  0  0  0  0
   -3.1371   -1.3356    6.1448 H   0  0  0  0  0  0  0  0  0  0  0  0
   -1.4495   -1.4743    5.6041 H   0  0  0  0  0  0  0  0  0  0  0  0
   -2.0067    0.0092    6.4145 H   0  0  0  0  0  0  0  0  0  0  0  0
   -1.7740    0.6084    3.7037 N   0  0  0  0  0  0  0  0  0  0  0  0
   -1.9820    1.1117    2.3400 C   0  0  2  0  0  0  0  0  0  0  0  0
   -0.6576    1.2036    1.5570 C   0  0  0  0  0  0  0  0  0  0  0  0
    0.4164    1.2721    2.1453 O   0  0  0  0  0  0  0  0  0  0  0  0
   -2.6526    2.4854    2.4308 C   0  0  0  0  0  0  0  0  0  0  0  0
   -0.8376    0.6999    4.0959 H   0  0  0  0  0  0  0  0  0  0  0  0
   -2.6360    0.4265    1.7895 H   0  0  0  0  0  0  0  0  0  0  0  0
   -2.0142    3.1887    2.9752 H   0  0  0  0  0  0  0  0  0  0  0  0
   -2.8421    2.8884    1.4315 H   0  0  0  0  0  0  0  0  0  0  0  0
   -3.6095    2.4047    2.9568 H   0  0  0  0  0  0  0  0  0  0  0  0
   -0.6569    1.2765    0.1779 N   0  0  0  0  0  0  0  0  0  0  0  0
    0.5244    0.9203   -0.6300 C   0  0  2  0  0  0  0  0  0  0  0  0
    1.2147    2.1919   -1.1633 C   0  0  0  0  0  0  0  0  0  0  0  0
    1.6001    2.2940   -2.3226 O   0  0  0  0  0  0  0  0  0  0  0  0
    0.0747   -0.0292   -1.7580 C   0  0  0  0  0  0  0  0  0  0  0  0
   -0.3818   -1.3510   -1.1853 C   0  0  0  0  0  0  0  0  0  0  0  0
    0.5571   -2.3311   -0.8297 C   0  0  0  0  0  0  0  0  0  0  0  0
   -1.7472   -1.6123   -0.9890 C   0  0  0  0  0  0  0  0  0  0  0  0
    0.1399   -3.5460   -0.2750 C   0  0  0  0  0  0  0  0  0  0  0  0
   -2.1649   -2.8249   -0.4308 C   0  0  0  0  0  0  0  0  0  0  0  0
   -1.2213   -3.7919   -0.0726 C   0  0  0  0  0  0  0  0  0  0  0  0
   -1.5644    1.1775   -0.2682 H   0  0  0  0  0  0  0  0  0  0  0  0
    1.2677    0.3924   -0.0220 H   0  0  0  0  0  0  0  0  0  0  0  0
    0.9101   -0.2143   -2.4421 H   0  0  0  0  0  0  0  0  0  0  0  0
   -0.7246    0.4345   -2.3451 H   0  0  0  0  0  0  0  0  0  0  0  0
    1.6177   -2.1505   -0.9791 H   0  0  0  0  0  0  0  0  0  0  0  0
   -2.4930   -0.8757   -1.2704 H   0  0  0  0  0  0  0  0  0  0  0  0
    0.8741   -4.2980   -0.0002 H   0  0  0  0  0  0  0  0  0  0  0  0
   -3.2228   -3.0174   -0.2761 H   0  0  0  0  0  0  0  0  0  0  0  0
   -1.5459   -4.7341    0.3598 H   0  0  0  0  0  0  0  0  0  0  0  0
    1.4111    3.2495   -0.2962 N   0  0  0  0  0  0  0  0  0  0  0  0
    2.0596    4.5200   -0.6528 C   0  0  2  0  0  0  0  0  0  0  0  0
    3.6005    4.3999   -0.7498 C   0  0  0  0  0  0  0  0  0  0  0  0
    4.3470    5.0661   -0.0425 O   0  0  0  0  0  0  0  0  0  0  0  0
    1.6057    5.5634    0.3760 C   0  0  0  0  0  0  0  0  0  0  0  0
    1.1949    3.0664    0.6842 H   0  0  0  0  0  0  0  0  0  0  0  0
    1.7033    4.8443   -1.6361 H   0  0  0  0  0  0  0  0  0  0  0  0
    1.9477    5.2894    1.3795 H   0  0  0  0  0  0  0  0  0  0  0  0
    2.0181    6.5464    0.1267 H   0  0  0  0  0  0  0  0  0  0  0  0
    0.5143    5.6404    0.3862 H   0  0  0  0  0  0  0  0  0  0  0  0
    4.1500    3.5292   -1.6702 N   0  0  0  0  0  0  0  0  0  0  0  0
    5.5803    3.3141   -1.8385 C   0  0  0  0  0  0  0  0  0  0  0  0
    3.4875    2.9752   -2.2191 H   0  0  0  0  0  0  0  0  0  0  0  0
    6.0768    4.2486   -2.1199 H   0  0  0  0  0  0  0  0  0  0  0  0
    6.0243    2.9446   -0.9083 H   0  0  0  0  0  0  0  0  0  0  0  0
    5.7607    2.5759   -2.6259 H   0  0  0  0  0  0  0  0  0  0  0  0
  1  2  2  0  0  0  0
  1  3  1  0  0  0  0
  1  7  1  0  0  0  0
  3  4  1  0  0  0  0
  3  5  1  0  0  0  0
  3  6  1  0  0  0  0
  7  8  1  0  0  0  0
  7 12  1  0  0  0  0
  8  9  1  0  0  0  0
  8 11  1  0  0  0  0
  8 13  1  0  0  0  0
  9 10  2  0  0  0  0
  9 17  1  0  0  0  0
 11 14  1  0  0  0  0
 11 15  1  0  0  0  0
 11 16  1  0  0  0  0
 17 18  1  0  0  0  0
 17 28  1  0  0  0  0
 18 19  1  0  0  0  0
 18 21  1  0  0  0  0
 18 29  1  0  0  0  0
 19 20  2  0  0  0  0
 19 37  1  0  0  0  0
 21 22  1  0  0  0  0
 21 30  1  0  0  0  0
 21 31  1  0  0  0  0
 22 23  1  0  0  0  0
 22 24  2  0  0  0  0
 23 25  2  0  0  0  0
 23 32  1  0  0  0  0
 24 26  1  0  0  0  0
 24 33  1  0  0  0  0
 25 27  1  0  0  0  0
 25 34  1  0  0  0  0
 26 27  2  0  0  0  0
 26 35  1  0  0  0  0
 27 36  1  0  0  0  0
 37 38  1  0  0  0  0
 37 42  1  0  0  0  0
 38 39  1  0  0  0  0
 38 41  1  0  0  0  0
 38 43  1  0  0  0  0
 39 40  2  0  0  0  0
 39 47  1  0  0  0  0
 41 44  1  0  0  0  0
 41 45  1  0  0  0  0
 41 46  1  0  0  0  0
 47 48  1  0  0  0  0
 47 49  1  0  0  0  0
 48 50  1  0  0  0  0
 48 51  1  0  0  0  0
 48 52  1  0  0  0  0
M  END
$$$$

  -OEChem-05262217163D

 52 52  0     1  0  0  0  0  0999 V2000
   -2.7224   -0.1539    4.3651 C   0  0  0  0  0  0  0  0  0  0  0  0
   -3.8050   -0.3813    3.8485 O   0  0  0  0  0  0  0  0  0  0  0  0
   -2.3854   -0.7450    5.7207 C   0  0  0  0  0  0  0  0  0  0  0  0
   -3.2305   -1.3278    6.0977 H   0  0  0  0  0  0  0  0  0  0  0  0
   -1.5151   -1.4005    5.6364 H   0  0  0  0  0  0  0  0  0  0  0  0
   -2.1639    0.0546    6.4316 H   0  0  0  0  0  0  0  0  0  0  0  0
   -1.7987    0.6338    3.7110 N   0  0  0  0  0  0  0  0  0  0  0  0
   -1.9611    1.1261    2.3370 C   0  0  2  0  0  0  0  0  0  0  0  0
   -0.6188    1.1606    1.5803 C   0  0  0  0  0  0  0  0  0  0  0  0
    0.4470    1.1733    2.1893 O   0  0  0  0  0  0  0  0  0  0  0  0
   -2.5818    2.5245    2.3975 C   0  0  0  0  0  0  0  0  0  0  0  0
   -0.8687    0.7026    4.1222 H   0  0  0  0  0  0  0  0  0  0  0  0
   -2.6282    0.4583    1.7807 H   0  0  0  0  0  0  0  0  0  0  0  0
   -1.9266    3.2113    2.9432 H   0  0  0  0  0  0  0  0  0  0  0  0
   -2.7399    2.9199    1.3897 H   0  0  0  0  0  0  0  0  0  0  0  0
   -3.5497    2.4866    2.9077 H   0  0  0  0  0  0  0  0  0  0  0  0
   -0.5885    1.2501    0.2027 N   0  0  0  0  0  0  0  0  0  0  0  0
    0.5958    0.8616   -0.5821 C   0  0  2  0  0  0  0  0  0  0  0  0
    1.3276    2.1241   -1.0742 C   0  0  0  0  0  0  0  0  0  0  0  0
    1.5037    2.3681   -2.2628 O   0  0  0  0  0  0  0  0  0  0  0  0
    0.1413   -0.0505   -1.7380 C   0  0  0  0  0  0  0  0  0  0  0  0
   -0.3792   -1.3641   -1.2018 C   0  0  0  0  0  0  0  0  0  0  0  0
    0.5125   -2.3850   -0.8399 C   0  0  0  0  0  0  0  0  0  0  0  0
   -1.7582   -1.5777   -1.0469 C   0  0  0  0  0  0  0  0  0  0  0  0
    0.0357   -3.5925   -0.3186 C   0  0  0  0  0  0  0  0  0  0  0  0
   -2.2355   -2.7840   -0.5231 C   0  0  0  0  0  0  0  0  0  0  0  0
   -1.3384   -3.7911   -0.1567 C   0  0  0  0  0  0  0  0  0  0  0  0
   -1.4895    1.1937   -0.2637 H   0  0  0  0  0  0  0  0  0  0  0  0
    1.3080    0.2972    0.0301 H   0  0  0  0  0  0  0  0  0  0  0  0
    0.9877   -0.2502   -2.4040 H   0  0  0  0  0  0  0  0  0  0  0  0
   -0.6263    0.4524   -2.3359 H   0  0  0  0  0  0  0  0  0  0  0  0
    1.5827   -2.2416   -0.9565 H   0  0  0  0  0  0  0  0  0  0  0  0
   -2.4685   -0.8086   -1.3334 H   0  0  0  0  0  0  0  0  0  0  0  0
    0.7333   -4.3760   -0.0375 H   0  0  0  0  0  0  0  0  0  0  0  0
   -3.3036   -2.9407   -0.4008 H   0  0  0  0  0  0  0  0  0  0  0  0
   -1.7084   -4.7279    0.2502 H   0  0  0  0  0  0  0  0  0  0  0  0
    1.8024    3.0074   -0.1243 N   0  0  0  0  0  0  0  0  0  0  0  0
    2.4472    4.2959   -0.4166 C   0  0  2  0  0  0  0  0  0  0  0  0
    3.9171    4.1445   -0.8810 C   0  0  0  0  0  0  0  0  0  0  0  0
    4.8455    4.6595   -0.2692 O   0  0  0  0  0  0  0  0  0  0  0  0
    2.3074    5.1634    0.8409 C   0  0  0  0  0  0  0  0  0  0  0  0
    1.6523    2.7417    0.8503 H   0  0  0  0  0  0  0  0  0  0  0  0
    1.9068    4.7936   -1.2286 H   0  0  0  0  0  0  0  0  0  0  0  0
    2.8349    4.7057    1.6841 H   0  0  0  0  0  0  0  0  0  0  0  0
    2.7325    6.1568    0.6655 H   0  0  0  0  0  0  0  0  0  0  0  0
    1.2532    5.2824    1.1093 H   0  0  0  0  0  0  0  0  0  0  0  0
    4.1881    3.4333   -2.0331 N   0  0  0  0  0  0  0  0  0  0  0  0
    5.5264    3.2165   -2.5648 C   0  0  0  0  0  0  0  0  0  0  0  0
    3.3860    2.9881   -2.4868 H   0  0  0  0  0  0  0  0  0  0  0  0
    6.0239    4.1740   -2.7519 H   0  0  0  0  0  0  0  0  0  0  0  0
    6.1295    2.6369   -1.8583 H   0  0  0  0  0  0  0  0  0  0  0  0
    5.4725    2.6661   -3.5091 H   0  0  0  0  0  0  0  0  0  0  0  0
  1  2  2  0  0  0  0
  1  3  1  0  0  0  0
  1  7  1  0  0  0  0
  3  4  1  0  0  0  0
  3  5  1  0  0  0  0
  3  6  1  0  0  0  0
  7  8  1  0  0  0  0
  7 12  1  0  0  0  0
  8  9  1  0  0  0  0
  8 11  1  0  0  0  0
  8 13  1  0  0  0  0
  9 10  2  0  0  0  0
  9 17  1  0  0  0  0
 11 14  1  0  0  0  0
 11 15  1  0  0  0  0
 11 16  1  0  0  0  0
 17 18  1  0  0  0  0
 17 28  1  0  0  0  0
 18 19  1  0  0  0  0
 18 21  1  0  0  0  0
 18 29  1  0  0  0  0
 19 20  2  0  0  0  0
 19 37  1  0  0  0  0
 21 22  1  0  0  0  0
 21 30  1  0  0  0  0
 21 31  1  0  0  0  0
 22 23  1  0  0  0  0
 22 24  2  0  0  0  0
 23 25  2  0  0  0  0
 23 32  1  0  0  0  0
 24 26  1  0  0  0  0
 24 33  1  0  0  0  0
 25 27  1  0  0  0  0
 25 34  1  0  0  0  0
 26 27  2  0  0  0  0
 26 35  1  0  0  0  0
 27 36  1  0  0  0  0
 37 38  1  0  0  0  0
 37 42  1  0  0  0  0
 38 39  1  0  0  0  0
 38 41  1  0  0  0  0
 38 43  1  0  0  0  0
 39 40  2  0  0  0  0
 39 47  1  0  0  0  0
 41 44  1  0  0  0  0
 41 45  1  0  0  0  0
 41 46  1  0  0  0  0
 47 48  1  0  0  0  0
 47 49  1  0  0  0  0
 48 50  1  0  0  0  0
 48 51  1  0  0  0  0
 48 52  1  0  0  0  0
M  END
$$$$

  -OEChem-05262217163D

 52 52  0     1  0  0  0  0  0999 V2000
   -2.7731   -0.1128    4.3577 C   0  0  0  0  0  0  0  0  0  0  0  0
   -3.8621   -0.2748    3.8302 O   0  0  0  0  0  0  0  0  0  0  0  0
   -2.4769   -0.7465    5.7039 C   0  0  0  0  0  0  0  0  0  0  0  0
   -3.3394   -1.3261    6.0448 H   0  0  0  0  0  0  0  0  0  0  0  0
   -1.6148   -1.4130    5.6223 H   0  0  0  0  0  0  0  0  0  0  0  0
   -2.2601    0.0291    6.4426 H   0  0  0  0  0  0  0  0  0  0  0  0
   -1.8063    0.6399    3.7251 N   0  0  0  0  0  0  0  0  0  0  0  0
   -1.9314    1.1616    2.3581 C   0  0  2  0  0  0  0  0  0  0  0  0
   -0.5851    1.1240    1.6089 C   0  0  0  0  0  0  0  0  0  0  0  0
    0.4751    1.0543    2.2250 O   0  0  0  0  0  0  0  0  0  0  0  0
   -2.4660    2.5942    2.4356 C   0  0  0  0  0  0  0  0  0  0  0  0
   -0.8753    0.6470    4.1396 H   0  0  0  0  0  0  0  0  0  0  0  0
   -2.6352    0.5450    1.7883 H   0  0  0  0  0  0  0  0  0  0  0  0
   -1.7734    3.2322    2.9937 H   0  0  0  0  0  0  0  0  0  0  0  0
   -2.5939    3.0121    1.4324 H   0  0  0  0  0  0  0  0  0  0  0  0
   -3.4371    2.6082    2.9410 H   0  0  0  0  0  0  0  0  0  0  0  0
   -0.5436    1.2272    0.2323 N   0  0  0  0  0  0  0  0  0  0  0  0
    0.6370    0.8291   -0.5498 C   0  0  2  0  0  0  0  0  0  0  0  0
    1.3859    2.0871   -1.0213 C   0  0  0  0  0  0  0  0  0  0  0  0
    1.3620    2.4720   -2.1852 O   0  0  0  0  0  0  0  0  0  0  0  0
    0.1753   -0.0527   -1.7251 C   0  0  0  0  0  0  0  0  0  0  0  0
   -0.3750   -1.3654   -1.2185 C   0  0  0  0  0  0  0  0  0  0  0  0
    0.4933   -2.4102   -0.8685 C   0  0  0  0  0  0  0  0  0  0  0  0
   -1.7593   -1.5539   -1.0805 C   0  0  0  0  0  0  0  0  0  0  0  0
   -0.0120   -3.6187   -0.3772 C   0  0  0  0  0  0  0  0  0  0  0  0
   -2.2659   -2.7610   -0.5872 C   0  0  0  0  0  0  0  0  0  0  0  0
   -1.3920   -3.7935   -0.2346 C   0  0  0  0  0  0  0  0  0  0  0  0
   -1.4399    1.2385   -0.2465 H   0  0  0  0  0  0  0  0  0  0  0  0
    1.3357    0.2400    0.0543 H   0  0  0  0  0  0  0  0  0  0  0  0
    1.0234   -0.2533   -2.3888 H   0  0  0  0  0  0  0  0  0  0  0  0
   -0.5789    0.4749   -2.3186 H   0  0  0  0  0  0  0  0  0  0  0  0
    1.5670   -2.2858   -0.9736 H   0  0  0  0  0  0  0  0  0  0  0  0
   -2.4505   -0.7637   -1.3569 H   0  0  0  0  0  0  0  0  0  0  0  0
    0.6679   -4.4216   -0.1063 H   0  0  0  0  0  0  0  0  0  0  0  0
   -3.3383   -2.8981   -0.4789 H   0  0  0  0  0  0  0  0  0  0  0  0
   -1.7851   -4.7310    0.1480 H   0  0  0  0  0  0  0  0  0  0  0  0
    2.1325    2.7828   -0.0908 N   0  0  0  0  0  0  0  0  0  0  0  0
    2.8172    4.0573   -0.3522 C   0  0  2  0  0  0  0  0  0  0  0  0
    4.1508    3.8780   -1.1184 C   0  0  0  0  0  0  0  0  0  0  0  0
    5.2216    4.2455   -0.6496 O   0  0  0  0  0  0  0  0  0  0  0  0
    2.9963    4.7574    1.0006 C   0  0  0  0  0  0  0  0  0  0  0  0
    2.0725    2.4493    0.8721 H   0  0  0  0  0  0  0  0  0  0  0  0
    2.1764    4.6914   -0.9741 H   0  0  0  0  0  0  0  0  0  0  0  0
    3.6409    4.1650    1.6583 H   0  0  0  0  0  0  0  0  0  0  0  0
    3.4554    5.7411    0.8602 H   0  0  0  0  0  0  0  0  0  0  0  0
    2.0279    4.8961    1.4910 H   0  0  0  0  0  0  0  0  0  0  0  0
    4.1298    3.3096   -2.3765 N   0  0  0  0  0  0  0  0  0  0  0  0
    5.3161    3.0729   -3.1870 C   0  0  0  0  0  0  0  0  0  0  0  0
    3.2186    2.9798   -2.7055 H   0  0  0  0  0  0  0  0  0  0  0  0
    5.8572    4.0095   -3.3583 H   0  0  0  0  0  0  0  0  0  0  0  0
    5.9850    2.3651   -2.6869 H   0  0  0  0  0  0  0  0  0  0  0  0
    5.0317    2.6567   -4.1581 H   0  0  0  0  0  0  0  0  0  0  0  0
  1  2  2  0  0  0  0
  1  3  1  0  0  0  0
  1  7  1  0  0  0  0
  3  4  1  0  0  0  0
  3  5  1  0  0  0  0
  3  6  1  0  0  0  0
  7  8  1  0  0  0  0
  7 12  1  0  0  0  0
  8  9  1  0  0  0  0
  8 11  1  0  0  0  0
  8 13  1  0  0  0  0
  9 10  2  0  0  0  0
  9 17  1  0  0  0  0
 11 14  1  0  0  0  0
 11 15  1  0  0  0  0
 11 16  1  0  0  0  0
 17 18  1  0  0  0  0
 17 28  1  0  0  0  0
 18 19  1  0  0  0  0
 18 21  1  0  0  0  0
 18 29  1  0  0  0  0
 19 20  2  0  0  0  0
 19 37  1  0  0  0  0
 21 22  1  0  0  0  0
 21 30  1  0  0  0  0
 21 31  1  0  0  0  0
 22 23  1  0  0  0  0
 22 24  2  0  0  0  0
 23 25  2  0  0  0  0
 23 32  1  0  0  0  0
 24 26  1  0  0  0  0
 24 33  1  0  0  0  0
 25 27  1  0  0  0  0
 25 34  1  0  0  0  0
 26 27  2  0  0  0  0
 26 35  1  0  0  0  0
 27 36  1  0  0  0  0
 37 38  1  0  0  0  0
 37 42  1  0  0  0  0
 38 39  1  0  0  0  0
 38 41  1  0  0  0  0
 38 43  1  0  0  0  0
 39 40  2  0  0  0  0
 39 47  1  0  0  0  0
 41 44  1  0  0  0  0
 41 45  1  0  0  0  0
 41 46  1  0  0  0  0
 47 48  1  0  0  0  0
 47 49  1  0  0  0  0
 48 50  1  0  0  0  0
 48 51  1  0  0  0  0
 48 52  1  0  0  0  0
M  END
$$$$

  -OEChem-05262217163D

 52 52  0     1  0  0  0  0  0999 V2000
   -2.8604   -0.0189    4.3882 C   0  0  0  0  0  0  0  0  0  0  0  0
   -3.9583   -0.0902    3.8591 O   0  0  0  0  0  0  0  0  0  0  0  0
   -2.6127   -0.6906    5.7255 C   0  0  0  0  0  0  0  0  0  0  0  0
   -3.5285   -1.1699    6.0827 H   0  0  0  0  0  0  0  0  0  0  0  0
   -1.8341   -1.4505    5.6228 H   0  0  0  0  0  0  0  0  0  0  0  0
   -2.2939    0.0510    6.4618 H   0  0  0  0  0  0  0  0  0  0  0  0
   -1.8365    0.6627    3.7656 N   0  0  0  0  0  0  0  0  0  0  0  0
   -1.9121    1.1987    2.4005 C   0  0  2  0  0  0  0  0  0  0  0  0
   -0.5690    1.0527    1.6576 C   0  0  0  0  0  0  0  0  0  0  0  0
    0.4713    0.8559    2.2800 O   0  0  0  0  0  0  0  0  0  0  0  0
   -2.3257    2.6706    2.4828 C   0  0  0  0  0  0  0  0  0  0  0  0
   -0.9081    0.5850    4.1788 H   0  0  0  0  0  0  0  0  0  0  0  0
   -2.6623    0.6455    1.8247 H   0  0  0  0  0  0  0  0  0  0  0  0
   -1.5820    3.2474    3.0422 H   0  0  0  0  0  0  0  0  0  0  0  0
   -2.4191    3.1007    1.4810 H   0  0  0  0  0  0  0  0  0  0  0  0
   -3.2919    2.7634    2.9889 H   0  0  0  0  0  0  0  0  0  0  0  0
   -0.5083    1.1841    0.2837 N   0  0  0  0  0  0  0  0  0  0  0  0
    0.6704    0.7970   -0.5053 C   0  0  2  0  0  0  0  0  0  0  0  0
    1.4354    2.0557   -0.9487 C   0  0  0  0  0  0  0  0  0  0  0  0
    1.2131    2.6017   -2.0242 O   0  0  0  0  0  0  0  0  0  0  0  0
    0.2102   -0.0446   -1.7105 C   0  0  0  0  0  0  0  0  0  0  0  0
   -0.3556   -1.3690   -1.2555 C   0  0  0  0  0  0  0  0  0  0  0  0
    0.5005   -2.4330   -0.9346 C   0  0  0  0  0  0  0  0  0  0  0  0
   -1.7425   -1.5512   -1.1393 C   0  0  0  0  0  0  0  0  0  0  0  0
   -0.0199   -3.6552   -0.4956 C   0  0  0  0  0  0  0  0  0  0  0  0
   -2.2638   -2.7724   -0.6993 C   0  0  0  0  0  0  0  0  0  0  0  0
   -1.4024   -3.8250   -0.3766 C   0  0  0  0  0  0  0  0  0  0  0  0
   -1.3866    1.3254   -0.2075 H   0  0  0  0  0  0  0  0  0  0  0  0
    1.3583    0.1818    0.0844 H   0  0  0  0  0  0  0  0  0  0  0  0
    1.0618   -0.2289   -2.3741 H   0  0  0  0  0  0  0  0  0  0  0  0
   -0.5364    0.5071   -2.2916 H   0  0  0  0  0  0  0  0  0  0  0  0
    1.5764   -2.3132   -1.0219 H   0  0  0  0  0  0  0  0  0  0  0  0
   -2.4242   -0.7450   -1.3911 H   0  0  0  0  0  0  0  0  0  0  0  0
    0.6509   -4.4723   -0.2469 H   0  0  0  0  0  0  0  0  0  0  0  0
   -3.3384   -2.9038   -0.6088 H   0  0  0  0  0  0  0  0  0  0  0  0
   -1.8072   -4.7737   -0.0363 H   0  0  0  0  0  0  0  0  0  0  0  0
    2.4282    2.5565   -0.1287 N   0  0  0  0  0  0  0  0  0  0  0  0
    3.1714    3.7991   -0.3876 C   0  0  2  0  0  0  0  0  0  0  0  0
    4.2952    3.6150   -1.4371 C   0  0  0  0  0  0  0  0  0  0  0  0
    5.4713    3.8333   -1.1717 O   0  0  0  0  0  0  0  0  0  0  0  0
    3.6931    4.3062    0.9630 C   0  0  0  0  0  0  0  0  0  0  0  0
    2.5268    2.1147    0.7844 H   0  0  0  0  0  0  0  0  0  0  0  0
    2.4861    4.5556   -0.7844 H   0  0  0  0  0  0  0  0  0  0  0  0
    4.3980    3.5900    1.3976 H   0  0  0  0  0  0  0  0  0  0  0  0
    4.2086    5.2635    0.8349 H   0  0  0  0  0  0  0  0  0  0  0  0
    2.8646    4.4520    1.6630 H   0  0  0  0  0  0  0  0  0  0  0  0
    3.9610    3.2026   -2.7117 N   0  0  0  0  0  0  0  0  0  0  0  0
    4.9263    2.9729   -3.7772 C   0  0  0  0  0  0  0  0  0  0  0  0
    2.9708    3.0015   -2.8747 H   0  0  0  0  0  0  0  0  0  0  0  0
    5.4686    3.8957   -4.0084 H   0  0  0  0  0  0  0  0  0  0  0  0
    5.6475    2.2041   -3.4813 H   0  0  0  0  0  0  0  0  0  0  0  0
    4.4133    2.6366   -4.6833 H   0  0  0  0  0  0  0  0  0  0  0  0
  1  2  2  0  0  0  0
  1  3  1  0  0  0  0
  1  7  1  0  0  0  0
  3  4  1  0  0  0  0
  3  5  1  0  0  0  0
  3  6  1  0  0  0  0
  7  8  1  0  0  0  0
  7 12  1  0  0  0  0
  8  9  1  0  0  0  0
  8 11  1  0  0  0  0
  8 13  1  0  0  0  0
  9 10  2  0  0  0  0
  9 17  1  0  0  0  0
 11 14  1  0  0  0  0
 11 15  1  0  0  0  0
 11 16  1  0  0  0  0
 17 18  1  0  0  0  0
 17 28  1  0  0  0  0
 18 19  1  0  0  0  0
 18 21  1  0  0  0  0
 18 29  1  0  0  0  0
 19 20  2  0  0  0  0
 19 37  1  0  0  0  0
 21 22  1  0  0  0  0
 21 30  1  0  0  0  0
 21 31  1  0  0  0  0
 22 23  1  0  0  0  0
 22 24  2  0  0  0  0
 23 25  2  0  0  0  0
 23 32  1  0  0  0  0
 24 26  1  0  0  0  0
 24 33  1  0  0  0  0
 25 27  1  0  0  0  0
 25 34  1  0  0  0  0
 26 27  2  0  0  0  0
 26 35  1  0  0  0  0
 27 36  1  0  0  0  0
 37 38  1  0  0  0  0
 37 42  1  0  0  0  0
 38 39  1  0  0  0  0
 38 41  1  0  0  0  0
 38 43  1  0  0  0  0
 39 40  2  0  0  0  0
 39 47  1  0  0  0  0
 41 44  1  0  0  0  0
 41 45  1  0  0  0  0
 41 46  1  0  0  0  0
 47 48  1  0  0  0  0
 47 49  1  0  0  0  0
 48 50  1  0  0  0  0
 48 51  1  0  0  0  0
 48 52  1  0  0  0  0
M  END
$$$$

  -OEChem-05262217163D

 52 52  0     1  0  0  0  0  0999 V2000
   -2.9657    0.1076    4.4138 C   0  0  0  0  0  0  0  0  0  0  0  0
   -4.0633    0.1951    3.8865 O   0  0  0  0  0  0  0  0  0  0  0  0
   -2.8096   -0.6253    5.7326 C   0  0  0  0  0  0  0  0  0  0  0  0
   -3.7810   -0.9894    6.0788 H   0  0  0  0  0  0  0  0  0  0  0  0
   -2.1373   -1.4777    5.6079 H   0  0  0  0  0  0  0  0  0  0  0  0
   -2.3970    0.0483    6.4875 H   0  0  0  0  0  0  0  0  0  0  0  0
   -1.8614    0.6649    3.8052 N   0  0  0  0  0  0  0  0  0  0  0  0
   -1.8681    1.2483    2.4577 C   0  0  2  0  0  0  0  0  0  0  0  0
   -0.5486    0.9688    1.7108 C   0  0  0  0  0  0  0  0  0  0  0  0
    0.4560    0.6287    2.3294 O   0  0  0  0  0  0  0  0  0  0  0  0
   -2.1063    2.7552    2.5890 C   0  0  0  0  0  0  0  0  0  0  0  0
   -0.9504    0.4583    4.2129 H   0  0  0  0  0  0  0  0  0  0  0  0
   -2.6758    0.8055    1.8647 H   0  0  0  0  0  0  0  0  0  0  0  0
   -1.3045    3.2203    3.1710 H   0  0  0  0  0  0  0  0  0  0  0  0
   -2.1407    3.2278    1.6028 H   0  0  0  0  0  0  0  0  0  0  0  0
   -3.0586    2.9445    3.0946 H   0  0  0  0  0  0  0  0  0  0  0  0
   -0.4721    1.1287    0.3404 N   0  0  0  0  0  0  0  0  0  0  0  0
    0.7048    0.7624   -0.4606 C   0  0  2  0  0  0  0  0  0  0  0  0
    1.4766    2.0251   -0.8795 C   0  0  0  0  0  0  0  0  0  0  0  0
    1.0864    2.7270   -1.8066 O   0  0  0  0  0  0  0  0  0  0  0  0
    0.2463   -0.0352   -1.6951 C   0  0  0  0  0  0  0  0  0  0  0  0
   -0.3263   -1.3740   -1.2942 C   0  0  0  0  0  0  0  0  0  0  0  0
    0.5241   -2.4533   -1.0102 C   0  0  0  0  0  0  0  0  0  0  0  0
   -1.7143   -1.5556   -1.1938 C   0  0  0  0  0  0  0  0  0  0  0  0
   -0.0035   -3.6912   -0.6268 C   0  0  0  0  0  0  0  0  0  0  0  0
   -2.2431   -2.7927   -0.8106 C   0  0  0  0  0  0  0  0  0  0  0  0
   -1.3874   -3.8610   -0.5265 C   0  0  0  0  0  0  0  0  0  0  0  0
   -1.3095    1.4375   -0.1458 H   0  0  0  0  0  0  0  0  0  0  0  0
    1.3875    0.1265    0.1127 H   0  0  0  0  0  0  0  0  0  0  0  0
    1.0992   -0.1977   -2.3626 H   0  0  0  0  0  0  0  0  0  0  0  0
   -0.4968    0.5402   -2.2577 H   0  0  0  0  0  0  0  0  0  0  0  0
    1.6009   -2.3344   -1.0841 H   0  0  0  0  0  0  0  0  0  0  0  0
   -2.3909   -0.7356   -1.4130 H   0  0  0  0  0  0  0  0  0  0  0  0
    0.6617   -4.5209   -0.4062 H   0  0  0  0  0  0  0  0  0  0  0  0
   -3.3186   -2.9248   -0.7345 H   0  0  0  0  0  0  0  0  0  0  0  0
   -1.7975   -4.8218   -0.2292 H   0  0  0  0  0  0  0  0  0  0  0  0
    2.6639    2.3451   -0.2498 N   0  0  0  0  0  0  0  0  0  0  0  0
    3.4604    3.5457   -0.5459 C   0  0  2  0  0  0  0  0  0  0  0  0
    4.3262    3.3805   -1.8185 C   0  0  0  0  0  0  0  0  0  0  0  0
    5.5476    3.4700   -1.7866 O   0  0  0  0  0  0  0  0  0  0  0  0
    4.2882    3.8618    0.7056 C   0  0  0  0  0  0  0  0  0  0  0  0
    2.9320    1.7714    0.5471 H   0  0  0  0  0  0  0  0  0  0  0  0
    2.7906    4.3940   -0.7235 H   0  0  0  0  0  0  0  0  0  0  0  0
    4.9864    3.0468    0.9220 H   0  0  0  0  0  0  0  0  0  0  0  0
    4.8647    4.7805    0.5570 H   0  0  0  0  0  0  0  0  0  0  0  0
    3.6333    4.0022    1.5711 H   0  0  0  0  0  0  0  0  0  0  0  0
    3.7033    3.1209   -3.0232 N   0  0  0  0  0  0  0  0  0  0  0  0
    4.4084    2.9128   -4.2799 C   0  0  0  0  0  0  0  0  0  0  0  0
    2.6848    3.0288   -2.9940 H   0  0  0  0  0  0  0  0  0  0  0  0
    4.9901    3.8019   -4.5444 H   0  0  0  0  0  0  0  0  0  0  0  0
    5.0870    2.0572   -4.2007 H   0  0  0  0  0  0  0  0  0  0  0  0
    3.6939    2.7147   -5.0846 H   0  0  0  0  0  0  0  0  0  0  0  0
  1  2  2  0  0  0  0
  1  3  1  0  0  0  0
  1  7  1  0  0  0  0
  3  4  1  0  0  0  0
  3  5  1  0  0  0  0
  3  6  1  0  0  0  0
  7  8  1  0  0  0  0
  7 12  1  0  0  0  0
  8  9  1  0  0  0  0
  8 11  1  0  0  0  0
  8 13  1  0  0  0  0
  9 10  2  0  0  0  0
  9 17  1  0  0  0  0
 11 14  1  0  0  0  0
 11 15  1  0  0  0  0
 11 16  1  0  0  0  0
 17 18  1  0  0  0  0
 17 28  1  0  0  0  0
 18 19  1  0  0  0  0
 18 21  1  0  0  0  0
 18 29  1  0  0  0  0
 19 20  2  0  0  0  0
 19 37  1  0  0  0  0
 21 22  1  0  0  0  0
 21 30  1  0  0  0  0
 21 31  1  0  0  0  0
 22 23  1  0  0  0  0
 22 24  2  0  0  0  0
 23 25  2  0  0  0  0
 23 32  1  0  0  0  0
 24 26  1  0  0  0  0
 24 33  1  0  0  0  0
 25 27  1  0  0  0  0
 25 34  1  0  0  0  0
 26 27  2  0  0  0  0
 26 35  1  0  0  0  0
 27 36  1  0  0  0  0
 37 38  1  0  0  0  0
 37 42  1  0  0  0  0
 38 39  1  0  0  0  0
 38 41  1  0  0  0  0
 38 43  1  0  0  0  0
 39 40  2  0  0  0  0
 39 47  1  0  0  0  0
 41 44  1  0  0  0  0
 41 45  1  0  0  0  0
 41 46  1  0  0  0  0
 47 48  1  0  0  0  0
 47 49  1  0  0  0  0
 48 50  1  0  0  0  0
 48 51  1  0  0  0  0
 48 52  1  0  0  0  0
M  END
$$$$

  -OEChem-05262217163D

 52 52  0     1  0  0  0  0  0999 V2000
   -3.0360    0.2461    4.4212 C   0  0  0  0  0  0  0  0  0  0  0  0
   -4.1177    0.4680    3.9006 O   0  0  0  0  0  0  0  0  0  0  0  0
   -2.9593   -0.5425    5.7148 C   0  0  0  0  0  0  0  0  0  0  0  0
   -3.9637   -0.8169    6.0498 H   0  0  0  0  0  0  0  0  0  0  0  0
   -2.3773   -1.4546    5.5608 H   0  0  0  0  0  0  0  0  0  0  0  0
   -2.4812    0.0593    6.4915 H   0  0  0  0  0  0  0  0  0  0  0  0
   -1.8773    0.6962    3.8254 N   0  0  0  0  0  0  0  0  0  0  0  0
   -1.8180    1.3016    2.4892 C   0  0  2  0  0  0  0  0  0  0  0  0
   -0.5332    0.8940    1.7403 C   0  0  0  0  0  0  0  0  0  0  0  0
    0.4218    0.4294    2.3563 O   0  0  0  0  0  0  0  0  0  0  0  0
   -1.8911    2.8230    2.6456 C   0  0  0  0  0  0  0  0  0  0  0  0
   -0.9953    0.3726    4.2206 H   0  0  0  0  0  0  0  0  0  0  0  0
   -2.6669    0.9597    1.8870 H   0  0  0  0  0  0  0  0  0  0  0  0
   -1.0459    3.1884    3.2377 H   0  0  0  0  0  0  0  0  0  0  0  0
   -1.8689    3.3125    1.6672 H   0  0  0  0  0  0  0  0  0  0  0  0
   -2.8195    3.1066    3.1514 H   0  0  0  0  0  0  0  0  0  0  0  0
   -0.4358    1.0724    0.3735 N   0  0  0  0  0  0  0  0  0  0  0  0
    0.7454    0.7098   -0.4231 C   0  0  2  0  0  0  0  0  0  0  0  0
    1.5351    1.9686   -0.8192 C   0  0  0  0  0  0  0  0  0  0  0  0
    1.0288    2.8147   -1.5491 O   0  0  0  0  0  0  0  0  0  0  0  0
    0.2940   -0.0527   -1.6806 C   0  0  0  0  0  0  0  0  0  0  0  0
   -0.2991   -1.3942   -1.3208 C   0  0  0  0  0  0  0  0  0  0  0  0
    0.5349   -2.4899   -1.0530 C   0  0  0  0  0  0  0  0  0  0  0  0
   -1.6902   -1.5605   -1.2392 C   0  0  0  0  0  0  0  0  0  0  0  0
   -0.0121   -3.7312   -0.7104 C   0  0  0  0  0  0  0  0  0  0  0  0
   -2.2385   -2.8001   -0.8935 C   0  0  0  0  0  0  0  0  0  0  0  0
   -1.3992   -3.8865   -0.6293 C   0  0  0  0  0  0  0  0  0  0  0  0
   -1.2033    1.5473   -0.0949 H   0  0  0  0  0  0  0  0  0  0  0  0
    1.4133    0.0565    0.1474 H   0  0  0  0  0  0  0  0  0  0  0  0
    1.1528   -0.2082   -2.3421 H   0  0  0  0  0  0  0  0  0  0  0  0
   -0.4360    0.5448   -2.2369 H   0  0  0  0  0  0  0  0  0  0  0  0
    1.6138   -2.3814   -1.1094 H   0  0  0  0  0  0  0  0  0  0  0  0
   -2.3530   -0.7251   -1.4423 H   0  0  0  0  0  0  0  0  0  0  0  0
    0.6415   -4.5743   -0.5067 H   0  0  0  0  0  0  0  0  0  0  0  0
   -3.3164   -2.9186   -0.8309 H   0  0  0  0  0  0  0  0  0  0  0  0
   -1.8242   -4.8496   -0.3617 H   0  0  0  0  0  0  0  0  0  0  0  0
    2.8497    2.1258   -0.4233 N   0  0  0  0  0  0  0  0  0  0  0  0
    3.6848    3.2843   -0.7746 C   0  0  2  0  0  0  0  0  0  0  0  0
    4.2456    3.1834   -2.2136 C   0  0  0  0  0  0  0  0  0  0  0  0
    5.4482    3.1114   -2.4355 O   0  0  0  0  0  0  0  0  0  0  0  0
    4.7813    3.4015    0.2913 C   0  0  0  0  0  0  0  0  0  0  0  0
    3.2410    1.4153    0.1902 H   0  0  0  0  0  0  0  0  0  0  0  0
    3.0814    4.1974   -0.7298 H   0  0  0  0  0  0  0  0  0  0  0  0
    5.4185    2.5113    0.2902 H   0  0  0  0  0  0  0  0  0  0  0  0
    5.4094    4.2763    0.0942 H   0  0  0  0  0  0  0  0  0  0  0  0
    4.3365    3.5139    1.2848 H   0  0  0  0  0  0  0  0  0  0  0  0
    3.3623    3.1528   -3.2748 N   0  0  0  0  0  0  0  0  0  0  0  0
    3.7638    2.9921   -4.6653 C   0  0  0  0  0  0  0  0  0  0  0  0
    2.3679    3.1590   -3.0340 H   0  0  0  0  0  0  0  0  0  0  0  0
    4.4621    3.7838   -4.9557 H   0  0  0  0  0  0  0  0  0  0  0  0
    4.2482    2.0216   -4.8135 H   0  0  0  0  0  0  0  0  0  0  0  0
    2.8887    3.0471   -5.3197 H   0  0  0  0  0  0  0  0  0  0  0  0
  1  2  2  0  0  0  0
  1  3  1  0  0  0  0
  1  7  1  0  0  0  0
  3  4  1  0  0  0  0
  3  5  1  0  0  0  0
  3  6  1  0  0  0  0
  7  8  1  0  0  0  0
  7 12  1  0  0  0  0
  8  9  1  0  0  0  0
  8 11  1  0  0  0  0
  8 13  1  0  0  0  0
  9 10  2  0  0  0  0
  9 17  1  0  0  0  0
 11 14  1  0  0  0  0
 11 15  1  0  0  0  0
 11 16  1  0  0  0  0
 17 18  1  0  0  0  0
 17 28  1  0  0  0  0
 18 19  1  0  0  0  0
 18 21  1  0  0  0  0
 18 29  1  0  0  0  0
 19 20  2  0  0  0  0
 19 37  1  0  0  0  0
 21 22  1  0  0  0  0
 21 30  1  0  0  0  0
 21 31  1  0  0  0  0
 22 23  1  0  0  0  0
 22 24  2  0  0  0  0
 23 25  2  0  0  0  0
 23 32  1  0  0  0  0
 24 26  1  0  0  0  0
 24 33  1  0  0  0  0
 25 27  1  0  0  0  0
 25 34  1  0  0  0  0
 26 27  2  0  0  0  0
 26 35  1  0  0  0  0
 27 36  1  0  0  0  0
 37 38  1  0  0  0  0
 37 42  1  0  0  0  0
 38 39  1  0  0  0  0
 38 41  1  0  0  0  0
 38 43  1  0  0  0  0
 39 40  2  0  0  0  0
 39 47  1  0  0  0  0
 41 44  1  0  0  0  0
 41 45  1  0  0  0  0
 41 46  1  0  0  0  0
 47 48  1  0  0  0  0
 47 49  1  0  0  0  0
 48 50  1  0  0  0  0
 48 51  1  0  0  0  0
 48 52  1  0  0  0  0
M  END
$$$$

  -OEChem-05262217163D

 52 52  0     1  0  0  0  0  0999 V2000
   -3.0829    0.3606    4.4059 C   0  0  0  0  0  0  0  0  0  0  0  0
   -4.1403    0.6653    3.8771 O   0  0  0  0  0  0  0  0  0  0  0  0
   -3.0789   -0.4224    5.7053 C   0  0  0  0  0  0  0  0  0  0  0  0
   -4.1043   -0.6215    6.0292 H   0  0  0  0  0  0  0  0  0  0  0  0
   -2.5629   -1.3755    5.5656 H   0  0  0  0  0  0  0  0  0  0  0  0
   -2.5683    0.1498    6.4837 H   0  0  0  0  0  0  0  0  0  0  0  0
   -1.8877    0.7185    3.8195 N   0  0  0  0  0  0  0  0  0  0  0  0
   -1.7708    1.3314    2.4902 C   0  0  2  0  0  0  0  0  0  0  0  0
   -0.5040    0.8537    1.7520 C   0  0  0  0  0  0  0  0  0  0  0  0
    0.4092    0.3162    2.3714 O   0  0  0  0  0  0  0  0  0  0  0  0
   -1.7557    2.8534    2.6587 C   0  0  0  0  0  0  0  0  0  0  0  0
   -1.0357    0.3299    4.2223 H   0  0  0  0  0  0  0  0  0  0  0  0
   -2.6301    1.0458    1.8736 H   0  0  0  0  0  0  0  0  0  0  0  0
   -0.9016    3.1630    3.2696 H   0  0  0  0  0  0  0  0  0  0  0  0
   -1.6856    3.3485    1.6854 H   0  0  0  0  0  0  0  0  0  0  0  0
   -2.6752    3.1882    3.1494 H   0  0  0  0  0  0  0  0  0  0  0  0
   -0.3879    1.0359    0.3873 N   0  0  0  0  0  0  0  0  0  0  0  0
    0.7924    0.6564   -0.4042 C   0  0  2  0  0  0  0  0  0  0  0  0
    1.6169    1.8943   -0.7948 C   0  0  0  0  0  0  0  0  0  0  0  0
    1.0640    2.8674   -1.2977 O   0  0  0  0  0  0  0  0  0  0  0  0
    0.3376   -0.0837   -1.6727 C   0  0  0  0  0  0  0  0  0  0  0  0
   -0.2849   -1.4158   -1.3293 C   0  0  0  0  0  0  0  0  0  0  0  0
    0.5262   -2.5295   -1.0644 C   0  0  0  0  0  0  0  0  0  0  0  0
   -1.6793   -1.5552   -1.2558 C   0  0  0  0  0  0  0  0  0  0  0  0
   -0.0462   -3.7618   -0.7319 C   0  0  0  0  0  0  0  0  0  0  0  0
   -2.2532   -2.7869   -0.9223 C   0  0  0  0  0  0  0  0  0  0  0  0
   -1.4364   -3.8907   -0.6603 C   0  0  0  0  0  0  0  0  0  0  0  0
   -1.0947    1.6110   -0.0642 H   0  0  0  0  0  0  0  0  0  0  0  0
    1.4410   -0.0129    0.1704 H   0  0  0  0  0  0  0  0  0  0  0  0
    1.1983   -0.2517   -2.3290 H   0  0  0  0  0  0  0  0  0  0  0  0
   -0.3757    0.5345   -2.2284 H   0  0  0  0  0  0  0  0  0  0  0  0
    1.6072   -2.4422   -1.1136 H   0  0  0  0  0  0  0  0  0  0  0  0
   -2.3233   -0.7040   -1.4540 H   0  0  0  0  0  0  0  0  0  0  0  0
    0.5899   -4.6180   -0.5276 H   0  0  0  0  0  0  0  0  0  0  0  0
   -3.3334   -2.8857   -0.8654 H   0  0  0  0  0  0  0  0  0  0  0  0
   -1.8810   -4.8470   -0.4005 H   0  0  0  0  0  0  0  0  0  0  0  0
    2.9937    1.8929   -0.6705 N   0  0  0  0  0  0  0  0  0  0  0  0
    3.8633    3.0063   -1.0804 C   0  0  2  0  0  0  0  0  0  0  0  0
    4.0783    3.0534   -2.6131 C   0  0  0  0  0  0  0  0  0  0  0  0
    5.1853    2.9009   -3.1149 O   0  0  0  0  0  0  0  0  0  0  0  0
    5.1764    2.8726   -0.2986 C   0  0  0  0  0  0  0  0  0  0  0  0
    3.4273    1.0638   -0.2732 H   0  0  0  0  0  0  0  0  0  0  0  0
    3.4002    3.9562   -0.7927 H   0  0  0  0  0  0  0  0  0  0  0  0
    5.6810    1.9334   -0.5476 H   0  0  0  0  0  0  0  0  0  0  0  0
    5.8491    3.7008   -0.5437 H   0  0  0  0  0  0  0  0  0  0  0  0
    4.9833    2.8928    0.7782 H   0  0  0  0  0  0  0  0  0  0  0  0
    2.9902    3.2573   -3.4383 N   0  0  0  0  0  0  0  0  0  0  0  0
    3.0598    3.2653   -4.8929 C   0  0  0  0  0  0  0  0  0  0  0  0
    2.0797    3.3228   -2.9762 H   0  0  0  0  0  0  0  0  0  0  0  0
    3.7490    4.0426   -5.2390 H   0  0  0  0  0  0  0  0  0  0  0  0
    3.4063    2.2953   -5.2637 H   0  0  0  0  0  0  0  0  0  0  0  0
    2.0716    3.4666   -5.3173 H   0  0  0  0  0  0  0  0  0  0  0  0
  1  2  2  0  0  0  0
  1  3  1  0  0  0  0
  1  7  1  0  0  0  0
  3  4  1  0  0  0  0
  3  5  1  0  0  0  0
  3  6  1  0  0  0  0
  7  8  1  0  0  0  0
  7 12  1  0  0  0  0
  8  9  1  0  0  0  0
  8 11  1  0  0  0  0
  8 13  1  0  0  0  0
  9 10  2  0  0  0  0
  9 17  1  0  0  0  0
 11 14  1  0  0  0  0
 11 15  1  0  0  0  0
 11 16  1  0  0  0  0
 17 18  1  0  0  0  0
 17 28  1  0  0  0  0
 18 19  1  0  0  0  0
 18 21  1  0  0  0  0
 18 29  1  0  0  0  0
 19 20  2  0  0  0  0
 19 37  1  0  0  0  0
 21 22  1  0  0  0  0
 21 30  1  0  0  0  0
 21 31  1  0  0  0  0
 22 23  1  0  0  0  0
 22 24  2  0  0  0  0
 23 25  2  0  0  0  0
 23 32  1  0  0  0  0
 24 26  1  0  0  0  0
 24 33  1  0  0  0  0
 25 27  1  0  0  0  0
 25 34  1  0  0  0  0
 26 27  2  0  0  0  0
 26 35  1  0  0  0  0
 27 36  1  0  0  0  0
 37 38  1  0  0  0  0
 37 42  1  0  0  0  0
 38 39  1  0  0  0  0
 38 41  1  0  0  0  0
 38 43  1  0  0  0  0
 39 40  2  0  0  0  0
 39 47  1  0  0  0  0
 41 44  1  0  0  0  0
 41 45  1  0  0  0  0
 41 46  1  0  0  0  0
 47 48  1  0  0  0  0
 47 49  1  0  0  0  0
 48 50  1  0  0  0  0
 48 51  1  0  0  0  0
 48 52  1  0  0  0  0
M  END
$$$$

  -OEChem-05262217163D

 52 52  0     1  0  0  0  0  0999 V2000
   -3.0793    0.4892    4.4081 C   0  0  0  0  0  0  0  0  0  0  0  0
   -4.1110    0.8889    3.8920 O   0  0  0  0  0  0  0  0  0  0  0  0
   -3.1335   -0.3185    5.6912 C   0  0  0  0  0  0  0  0  0  0  0  0
   -4.1702   -0.4337    6.0202 H   0  0  0  0  0  0  0  0  0  0  0  0
   -2.7041   -1.3098    5.5267 H   0  0  0  0  0  0  0  0  0  0  0  0
   -2.5691    0.1898    6.4767 H   0  0  0  0  0  0  0  0  0  0  0  0
   -1.8624    0.7597    3.8193 N   0  0  0  0  0  0  0  0  0  0  0  0
   -1.7032    1.3779    2.4967 C   0  0  2  0  0  0  0  0  0  0  0  0
   -0.4867    0.8033    1.7430 C   0  0  0  0  0  0  0  0  0  0  0  0
    0.3793    0.1815    2.3514 O   0  0  0  0  0  0  0  0  0  0  0  0
   -1.5538    2.8899    2.6855 C   0  0  0  0  0  0  0  0  0  0  0  0
   -1.0422    0.2982    4.2107 H   0  0  0  0  0  0  0  0  0  0  0  0
   -2.5887    1.1765    1.8840 H   0  0  0  0  0  0  0  0  0  0  0  0
   -0.6699    3.1140    3.2913 H   0  0  0  0  0  0  0  0  0  0  0  0
   -1.4494    3.3909    1.7182 H   0  0  0  0  0  0  0  0  0  0  0  0
   -2.4357    3.2964    3.1909 H   0  0  0  0  0  0  0  0  0  0  0  0
   -0.3639    0.9961    0.3802 N   0  0  0  0  0  0  0  0  0  0  0  0
    0.8177    0.6045   -0.4046 C   0  0  2  0  0  0  0  0  0  0  0  0
    1.6670    1.8298   -0.7834 C   0  0  0  0  0  0  0  0  0  0  0  0
    1.1242    2.8967   -1.0551 O   0  0  0  0  0  0  0  0  0  0  0  0
    0.3614   -0.1150   -1.6840 C   0  0  0  0  0  0  0  0  0  0  0  0
   -0.2871   -1.4392   -1.3603 C   0  0  0  0  0  0  0  0  0  0  0  0
    0.5000   -2.5708   -1.0994 C   0  0  0  0  0  0  0  0  0  0  0  0
   -1.6844   -1.5528   -1.3022 C   0  0  0  0  0  0  0  0  0  0  0  0
   -0.0996   -3.7945   -0.7826 C   0  0  0  0  0  0  0  0  0  0  0  0
   -2.2853   -2.7760   -0.9865 C   0  0  0  0  0  0  0  0  0  0  0  0
   -1.4927   -3.8975   -0.7261 C   0  0  0  0  0  0  0  0  0  0  0  0
   -1.0013    1.6672   -0.0416 H   0  0  0  0  0  0  0  0  0  0  0  0
    1.4529   -0.0766    0.1709 H   0  0  0  0  0  0  0  0  0  0  0  0
    1.2243   -0.2916   -2.3343 H   0  0  0  0  0  0  0  0  0  0  0  0
   -0.3357    0.5211   -2.2398 H   0  0  0  0  0  0  0  0  0  0  0  0
    1.5829   -2.5045   -1.1378 H   0  0  0  0  0  0  0  0  0  0  0  0
   -2.3104   -0.6874   -1.4973 H   0  0  0  0  0  0  0  0  0  0  0  0
    0.5178   -4.6644   -0.5781 H   0  0  0  0  0  0  0  0  0  0  0  0
   -3.3677   -2.8534   -0.9419 H   0  0  0  0  0  0  0  0  0  0  0  0
   -1.9585   -4.8469   -0.4793 H   0  0  0  0  0  0  0  0  0  0  0  0
    3.0352    1.7127   -0.9450 N   0  0  0  0  0  0  0  0  0  0  0  0
    3.9063    2.7973   -1.4221 C   0  0  2  0  0  0  0  0  0  0  0  0
    3.8158    2.9865   -2.9558 C   0  0  0  0  0  0  0  0  0  0  0  0
    4.7710    2.7707   -3.6916 O   0  0  0  0  0  0  0  0  0  0  0  0
    5.3294    2.4886   -0.9417 C   0  0  0  0  0  0  0  0  0  0  0  0
    3.4499    0.7992   -0.7826 H   0  0  0  0  0  0  0  0  0  0  0  0
    3.5983    3.7426   -0.9625 H   0  0  0  0  0  0  0  0  0  0  0  0
    5.6909    1.5523   -1.3790 H   0  0  0  0  0  0  0  0  0  0  0  0
    6.0108    3.2932   -1.2363 H   0  0  0  0  0  0  0  0  0  0  0  0
    5.3532    2.3990    0.1486 H   0  0  0  0  0  0  0  0  0  0  0  0
    2.6134    3.3781   -3.5100 N   0  0  0  0  0  0  0  0  0  0  0  0
    2.3802    3.5182   -4.9405 C   0  0  0  0  0  0  0  0  0  0  0  0
    1.8294    3.4764   -2.8600 H   0  0  0  0  0  0  0  0  0  0  0  0
    3.0686    4.2532   -5.3706 H   0  0  0  0  0  0  0  0  0  0  0  0
    2.5244    2.5588   -5.4483 H   0  0  0  0  0  0  0  0  0  0  0  0
    1.3557    3.8567   -5.1226 H   0  0  0  0  0  0  0  0  0  0  0  0
  1  2  2  0  0  0  0
  1  3  1  0  0  0  0
  1  7  1  0  0  0  0
  3  4  1  0  0  0  0
  3  5  1  0  0  0  0
  3  6  1  0  0  0  0
  7  8  1  0  0  0  0
  7 12  1  0  0  0  0
  8  9  1  0  0  0  0
  8 11  1  0  0  0  0
  8 13  1  0  0  0  0
  9 10  2  0  0  0  0
  9 17  1  0  0  0  0
 11 14  1  0  0  0  0
 11 15  1  0  0  0  0
 11 16  1  0  0  0  0
 17 18  1  0  0  0  0
 17 28  1  0  0  0  0
 18 19  1  0  0  0  0
 18 21  1  0  0  0  0
 18 29  1  0  0  0  0
 19 20  2  0  0  0  0
 19 37  1  0  0  0  0
 21 22  1  0  0  0  0
 21 30  1  0  0  0  0
 21 31  1  0  0  0  0
 22 23  1  0  0  0  0
 22 24  2  0  0  0  0
 23 25  2  0  0  0  0
 23 32  1  0  0  0  0
 24 26  1  0  0  0  0
 24 33  1  0  0  0  0
 25 27  1  0  0  0  0
 25 34  1  0  0  0  0
 26 27  2  0  0  0  0
 26 35  1  0  0  0  0
 27 36  1  0  0  0  0
 37 38  1  0  0  0  0
 37 42  1  0  0  0  0
 38 39  1  0  0  0  0
 38 41  1  0  0  0  0
 38 43  1  0  0  0  0
 39 40  2  0  0  0  0
 39 47  1  0  0  0  0
 41 44  1  0  0  0  0
 41 45  1  0  0  0  0
 41 46  1  0  0  0  0
 47 48  1  0  0  0  0
 47 49  1  0  0  0  0
 48 50  1  0  0  0  0
 48 51  1  0  0  0  0
 48 52  1  0  0  0  0
M  END
$$$$

  -OEChem-05262217163D

 52 52  0     1  0  0  0  0  0999 V2000
   -3.0616    0.6092    4.3883 C   0  0  0  0  0  0  0  0  0  0  0  0
   -4.0734    1.0489    3.8653 O   0  0  0  0  0  0  0  0  0  0  0  0
   -3.1533   -0.1770    5.6827 C   0  0  0  0  0  0  0  0  0  0  0  0
   -4.1970   -0.2676    5.9962 H   0  0  0  0  0  0  0  0  0  0  0  0
   -2.7402   -1.1786    5.5409 H   0  0  0  0  0  0  0  0  0  0  0  0
   -2.5922    0.3335    6.4693 H   0  0  0  0  0  0  0  0  0  0  0  0
   -1.8323    0.8183    3.8004 N   0  0  0  0  0  0  0  0  0  0  0  0
   -1.6404    1.4227    2.4758 C   0  0  2  0  0  0  0  0  0  0  0  0
   -0.4597    0.7794    1.7202 C   0  0  0  0  0  0  0  0  0  0  0  0
    0.3758    0.1175    2.3289 O   0  0  0  0  0  0  0  0  0  0  0  0
   -1.4052    2.9246    2.6607 C   0  0  0  0  0  0  0  0  0  0  0  0
   -1.0340    0.3264    4.1998 H   0  0  0  0  0  0  0  0  0  0  0  0
   -2.5364    1.2700    1.8641 H   0  0  0  0  0  0  0  0  0  0  0  0
   -0.5105    3.1005    3.2665 H   0  0  0  0  0  0  0  0  0  0  0  0
   -1.2714    3.4164    1.6923 H   0  0  0  0  0  0  0  0  0  0  0  0
   -2.2630    3.3819    3.1639 H   0  0  0  0  0  0  0  0  0  0  0  0
   -0.3361    0.9596    0.3555 N   0  0  0  0  0  0  0  0  0  0  0  0
    0.8410    0.5408   -0.4240 C   0  0  2  0  0  0  0  0  0  0  0  0
    1.7182    1.7440   -0.8174 C   0  0  0  0  0  0  0  0  0  0  0  0
    1.2427    2.8753   -0.8533 O   0  0  0  0  0  0  0  0  0  0  0  0
    0.3645   -0.1821   -1.6956 C   0  0  0  0  0  0  0  0  0  0  0  0
   -0.3093   -1.4910   -1.3601 C   0  0  0  0  0  0  0  0  0  0  0  0
    0.4570   -2.6356   -1.0936 C   0  0  0  0  0  0  0  0  0  0  0  0
   -1.7085   -1.5795   -1.3037 C   0  0  0  0  0  0  0  0  0  0  0  0
   -0.1646   -3.8479   -0.7760 C   0  0  0  0  0  0  0  0  0  0  0  0
   -2.3316   -2.7913   -0.9869 C   0  0  0  0  0  0  0  0  0  0  0  0
   -1.5593   -3.9263   -0.7224 C   0  0  0  0  0  0  0  0  0  0  0  0
   -0.9293    1.6771   -0.0539 H   0  0  0  0  0  0  0  0  0  0  0  0
    1.4648   -0.1455    0.1579 H   0  0  0  0  0  0  0  0  0  0  0  0
    1.2175   -0.3826   -2.3517 H   0  0  0  0  0  0  0  0  0  0  0  0
   -0.3227    0.4640   -2.2523 H   0  0  0  0  0  0  0  0  0  0  0  0
    1.5408   -2.5885   -1.1291 H   0  0  0  0  0  0  0  0  0  0  0  0
   -2.3185   -0.7038   -1.5027 H   0  0  0  0  0  0  0  0  0  0  0  0
    0.4365   -4.7284   -0.5689 H   0  0  0  0  0  0  0  0  0  0  0  0
   -3.4154   -2.8496   -0.9450 H   0  0  0  0  0  0  0  0  0  0  0  0
   -2.0417   -4.8671   -0.4733 H   0  0  0  0  0  0  0  0  0  0  0  0
    3.0093    1.5482   -1.2737 N   0  0  0  0  0  0  0  0  0  0  0  0
    3.8713    2.6178   -1.7997 C   0  0  2  0  0  0  0  0  0  0  0  0
    3.4911    3.0204   -3.2457 C   0  0  0  0  0  0  0  0  0  0  0  0
    4.2475    2.8272   -4.1895 O   0  0  0  0  0  0  0  0  0  0  0  0
    5.3229    2.1373   -1.6788 C   0  0  0  0  0  0  0  0  0  0  0  0
    3.3502    0.5917   -1.3175 H   0  0  0  0  0  0  0  0  0  0  0  0
    3.7641    3.5127   -1.1771 H   0  0  0  0  0  0  0  0  0  0  0  0
    5.4853    1.2406   -2.2858 H   0  0  0  0  0  0  0  0  0  0  0  0
    6.0090    2.9170   -2.0250 H   0  0  0  0  0  0  0  0  0  0  0  0
    5.5630    1.9044   -0.6369 H   0  0  0  0  0  0  0  0  0  0  0  0
    2.2518    3.5813   -3.4817 N   0  0  0  0  0  0  0  0  0  0  0  0
    1.7479    3.9180   -4.8061 C   0  0  0  0  0  0  0  0  0  0  0  0
    1.6288    3.6505   -2.6729 H   0  0  0  0  0  0  0  0  0  0  0  0
    2.4183    4.6272   -5.3032 H   0  0  0  0  0  0  0  0  0  0  0  0
    1.6645    3.0180   -5.4241 H   0  0  0  0  0  0  0  0  0  0  0  0
    0.7577    4.3770   -4.7266 H   0  0  0  0  0  0  0  0  0  0  0  0
  1  2  2  0  0  0  0
  1  3  1  0  0  0  0
  1  7  1  0  0  0  0
  3  4  1  0  0  0  0
  3  5  1  0  0  0  0
  3  6  1  0  0  0  0
  7  8  1  0  0  0  0
  7 12  1  0  0  0  0
  8  9  1  0  0  0  0
  8 11  1  0  0  0  0
  8 13  1  0  0  0  0
  9 10  2  0  0  0  0
  9 17  1  0  0  0  0
 11 14  1  0  0  0  0
 11 15  1  0  0  0  0
 11 16  1  0  0  0  0
 17 18  1  0  0  0  0
 17 28  1  0  0  0  0
 18 19  1  0  0  0  0
 18 21  1  0  0  0  0
 18 29  1  0  0  0  0
 19 20  2  0  0  0  0
 19 37  1  0  0  0  0
 21 22  1  0  0  0  0
 21 30  1  0  0  0  0
 21 31  1  0  0  0  0
 22 23  1  0  0  0  0
 22 24  2  0  0  0  0
 23 25  2  0  0  0  0
 23 32  1  0  0  0  0
 24 26  1  0  0  0  0
 24 33  1  0  0  0  0
 25 27  1  0  0  0  0
 25 34  1  0  0  0  0
 26 27  2  0  0  0  0
 26 35  1  0  0  0  0
 27 36  1  0  0  0  0
 37 38  1  0  0  0  0
 37 42  1  0  0  0  0
 38 39  1  0  0  0  0
 38 41  1  0  0  0  0
 38 43  1  0  0  0  0
 39 40  2  0  0  0  0
 39 47  1  0  0  0  0
 41 44  1  0  0  0  0
 41 45  1  0  0  0  0
 41 46  1  0  0  0  0
 47 48  1  0  0  0  0
 47 49  1  0  0  0  0
 48 50  1  0  0  0  0
 48 51  1  0  0  0  0
 48 52  1  0  0  0  0
M  END
$$$$

  -OEChem-05262217163D

 52 52  0     1  0  0  0  0  0999 V2000
   -2.9778    0.7211    4.4301 C   0  0  0  0  0  0  0  0  0  0  0  0
   -3.9442    1.2959    3.9544 O   0  0  0  0  0  0  0  0  0  0  0  0
   -3.1288   -0.1051    5.6935 C   0  0  0  0  0  0  0  0  0  0  0  0
   -4.1483   -0.0207    6.0798 H   0  0  0  0  0  0  0  0  0  0  0  0
   -2.9188   -1.1556    5.4784 H   0  0  0  0  0  0  0  0  0  0  0  0
   -2.4322    0.2498    6.4568 H   0  0  0  0  0  0  0  0  0  0  0  0
   -1.7483    0.8076    3.8127 N   0  0  0  0  0  0  0  0  0  0  0  0
   -1.5226    1.4251    2.4995 C   0  0  2  0  0  0  0  0  0  0  0  0
   -0.4621    0.6573    1.6855 C   0  0  0  0  0  0  0  0  0  0  0  0
    0.3088   -0.1141    2.2493 O   0  0  0  0  0  0  0  0  0  0  0  0
   -1.0795    2.8747    2.7177 C   0  0  0  0  0  0  0  0  0  0  0  0
   -1.0038    0.2107    4.1708 H   0  0  0  0  0  0  0  0  0  0  0  0
   -2.4504    1.4145    1.9176 H   0  0  0  0  0  0  0  0  0  0  0  0
   -0.1455    2.9077    3.2882 H   0  0  0  0  0  0  0  0  0  0  0  0
   -0.9174    3.3766    1.7587 H   0  0  0  0  0  0  0  0  0  0  0  0
   -1.8463    3.4262    3.2711 H   0  0  0  0  0  0  0  0  0  0  0  0
   -0.3592    0.8569    0.3215 N   0  0  0  0  0  0  0  0  0  0  0  0
    0.8244    0.4355   -0.4471 C   0  0  2  0  0  0  0  0  0  0  0  0
    1.8857    1.5559   -0.5097 C   0  0  0  0  0  0  0  0  0  0  0  0
    1.6188    2.6911   -0.1245 O   0  0  0  0  0  0  0  0  0  0  0  0
    0.3677    0.0556   -1.8684 C   0  0  0  0  0  0  0  0  0  0  0  0
   -0.4995   -1.1809   -1.8532 C   0  0  0  0  0  0  0  0  0  0  0  0
    0.0811   -2.4568   -1.7876 C   0  0  0  0  0  0  0  0  0  0  0  0
   -1.8979   -1.0711   -1.8994 C   0  0  0  0  0  0  0  0  0  0  0  0
   -0.7218   -3.6024   -1.7669 C   0  0  0  0  0  0  0  0  0  0  0  0
   -2.7018   -2.2156   -1.8780 C   0  0  0  0  0  0  0  0  0  0  0  0
   -2.1139   -3.4821   -1.8117 C   0  0  0  0  0  0  0  0  0  0  0  0
   -0.8842    1.6480   -0.0402 H   0  0  0  0  0  0  0  0  0  0  0  0
    1.2930   -0.4397    0.0158 H   0  0  0  0  0  0  0  0  0  0  0  0
    1.2372   -0.1390   -2.5042 H   0  0  0  0  0  0  0  0  0  0  0  0
   -0.1764    0.8934   -2.3174 H   0  0  0  0  0  0  0  0  0  0  0  0
    1.1603   -2.5657   -1.7496 H   0  0  0  0  0  0  0  0  0  0  0  0
   -2.3677   -0.0936   -1.9488 H   0  0  0  0  0  0  0  0  0  0  0  0
   -0.2645   -4.5862   -1.7133 H   0  0  0  0  0  0  0  0  0  0  0  0
   -3.7831   -2.1205   -1.9116 H   0  0  0  0  0  0  0  0  0  0  0  0
   -2.7378   -4.3710   -1.7929 H   0  0  0  0  0  0  0  0  0  0  0  0
    3.0771    1.3592   -1.1851 N   0  0  0  0  0  0  0  0  0  0  0  0
    4.0647    2.4174   -1.4477 C   0  0  2  0  0  0  0  0  0  0  0  0
    3.6495    3.3202   -2.6346 C   0  0  0  0  0  0  0  0  0  0  0  0
    4.3014    3.3639   -3.6707 O   0  0  0  0  0  0  0  0  0  0  0  0
    5.4204    1.7350   -1.6655 C   0  0  0  0  0  0  0  0  0  0  0  0
    3.2420    0.4401   -1.5852 H   0  0  0  0  0  0  0  0  0  0  0  0
    4.1551    3.0628   -0.5672 H   0  0  0  0  0  0  0  0  0  0  0  0
    5.3839    1.0734   -2.5370 H   0  0  0  0  0  0  0  0  0  0  0  0
    6.1994    2.4853   -1.8349 H   0  0  0  0  0  0  0  0  0  0  0  0
    5.6960    1.1439   -0.7869 H   0  0  0  0  0  0  0  0  0  0  0  0
    2.4938    4.0693   -2.5375 N   0  0  0  0  0  0  0  0  0  0  0  0
    1.9729    4.9054   -3.6103 C   0  0  0  0  0  0  0  0  0  0  0  0
    1.9555    3.9590   -1.6745 H   0  0  0  0  0  0  0  0  0  0  0  0
    2.6914    5.6910   -3.8658 H   0  0  0  0  0  0  0  0  0  0  0  0
    1.7761    4.3033   -4.5035 H   0  0  0  0  0  0  0  0  0  0  0  0
    1.0375    5.3801   -3.2993 H   0  0  0  0  0  0  0  0  0  0  0  0
  1  2  2  0  0  0  0
  1  3  1  0  0  0  0
  1  7  1  0  0  0  0
  3  4  1  0  0  0  0
  3  5  1  0  0  0  0
  3  6  1  0  0  0  0
  7  8  1  0  0  0  0
  7 12  1  0  0  0  0
  8  9  1  0  0  0  0
  8 11  1  0  0  0  0
  8 13  1  0  0  0  0
  9 10  2  0  0  0  0
  9 17  1  0  0  0  0
 11 14  1  0  0  0  0
 11 15  1  0  0  0  0
 11 16  1  0  0  0  0
 17 18  1  0  0  0  0
 17 28  1  0  0  0  0
 18 19  1  0  0  0  0
 18 21  1  0  0  0  0
 18 29  1  0  0  0  0
 19 20  2  0  0  0  0
 19 37  1  0  0  0  0
 21 22  1  0  0  0  0
 21 30  1  0  0  0  0
 21 31  1  0  0  0  0
 22 23  1  0  0  0  0
 22 24  2  0  0  0  0
 23 25  2  0  0  0  0
 23 32  1  0  0  0  0
 24 26  1  0  0  0  0
 24 33  1  0  0  0  0
 25 27  1  0  0  0  0
 25 34  1  0  0  0  0
 26 27  2  0  0  0  0
 26 35  1  0  0  0  0
 27 36  1  0  0  0  0
 37 38  1  0  0  0  0
 37 42  1  0  0  0  0
 38 39  1  0  0  0  0
 38 41  1  0  0  0  0
 38 43  1  0  0  0  0
 39 40  2  0  0  0  0
 39 47  1  0  0  0  0
 41 44  1  0  0  0  0
 41 45  1  0  0  0  0
 41 46  1  0  0  0  0
 47 48  1  0  0  0  0
 47 49  1  0  0  0  0
 48 50  1  0  0  0  0
 48 51  1  0  0  0  0
 48 52  1  0  0  0  0
M  END
$$$$

  -OEChem-05262217163D

 52 52  0     1  0  0  0  0  0999 V2000
   -2.8980    0.8104    4.4130 C   0  0  0  0  0  0  0  0  0  0  0  0
   -3.8695    1.3717    3.9313 O   0  0  0  0  0  0  0  0  0  0  0  0
   -3.0330    0.0388    5.7126 C   0  0  0  0  0  0  0  0  0  0  0  0
   -4.0606    0.0991    6.0824 H   0  0  0  0  0  0  0  0  0  0  0  0
   -2.7780   -1.0114    5.5514 H   0  0  0  0  0  0  0  0  0  0  0  0
   -2.3626    0.4582    6.4667 H   0  0  0  0  0  0  0  0  0  0  0  0
   -1.6777    0.8692    3.7739 N   0  0  0  0  0  0  0  0  0  0  0  0
   -1.4646    1.4575    2.4447 C   0  0  2  0  0  0  0  0  0  0  0  0
   -0.4249    0.6650    1.6257 C   0  0  0  0  0  0  0  0  0  0  0  0
    0.3448   -0.1075    2.1895 O   0  0  0  0  0  0  0  0  0  0  0  0
   -1.0054    2.9070    2.6287 C   0  0  0  0  0  0  0  0  0  0  0  0
   -0.9292    0.2825    4.1405 H   0  0  0  0  0  0  0  0  0  0  0  0
   -2.4013    1.4456    1.8774 H   0  0  0  0  0  0  0  0  0  0  0  0
   -0.0665    2.9429    3.1908 H   0  0  0  0  0  0  0  0  0  0  0  0
   -0.8462    3.3873    1.6584 H   0  0  0  0  0  0  0  0  0  0  0  0
   -1.7624    3.4772    3.1763 H   0  0  0  0  0  0  0  0  0  0  0  0
   -0.3502    0.8339    0.2545 N   0  0  0  0  0  0  0  0  0  0  0  0
    0.8115    0.3829   -0.5330 C   0  0  2  0  0  0  0  0  0  0  0  0
    1.8884    1.4900   -0.6471 C   0  0  0  0  0  0  0  0  0  0  0  0
    1.7624    2.5518   -0.0432 O   0  0  0  0  0  0  0  0  0  0  0  0
    0.3030   -0.0426   -1.9263 C   0  0  0  0  0  0  0  0  0  0  0  0
   -0.5684   -1.2736   -1.8438 C   0  0  0  0  0  0  0  0  0  0  0  0
    0.0111   -2.5490   -1.7577 C   0  0  0  0  0  0  0  0  0  0  0  0
   -1.9672   -1.1609   -1.8533 C   0  0  0  0  0  0  0  0  0  0  0  0
   -0.7928   -3.6916   -1.6814 C   0  0  0  0  0  0  0  0  0  0  0  0
   -2.7722   -2.3026   -1.7765 C   0  0  0  0  0  0  0  0  0  0  0  0
   -2.1853   -3.5684   -1.6904 C   0  0  0  0  0  0  0  0  0  0  0  0
   -0.8880    1.6117   -0.1158 H   0  0  0  0  0  0  0  0  0  0  0  0
    1.2863   -0.4826   -0.0580 H   0  0  0  0  0  0  0  0  0  0  0  0
    1.1461   -0.2682   -2.5855 H   0  0  0  0  0  0  0  0  0  0  0  0
   -0.2505    0.7831   -2.3859 H   0  0  0  0  0  0  0  0  0  0  0  0
    1.0909   -2.6601   -1.7479 H   0  0  0  0  0  0  0  0  0  0  0  0
   -2.4365   -0.1842   -1.9173 H   0  0  0  0  0  0  0  0  0  0  0  0
   -0.3356   -4.6747   -1.6128 H   0  0  0  0  0  0  0  0  0  0  0  0
   -3.8540   -2.2063   -1.7823 H   0  0  0  0  0  0  0  0  0  0  0  0
   -2.8105   -4.4546   -1.6291 H   0  0  0  0  0  0  0  0  0  0  0  0
    2.9084    1.3992   -1.5796 N   0  0  0  0  0  0  0  0  0  0  0  0
    3.8834    2.4669   -1.8513 C   0  0  2  0  0  0  0  0  0  0  0  0
    3.2925    3.5827   -2.7465 C   0  0  0  0  0  0  0  0  0  0  0  0
    3.6911    3.7722   -3.8891 O   0  0  0  0  0  0  0  0  0  0  0  0
    5.1281    1.8100   -2.4613 C   0  0  0  0  0  0  0  0  0  0  0  0
    2.9485    0.5590   -2.1491 H   0  0  0  0  0  0  0  0  0  0  0  0
    4.1853    2.9362   -0.9087 H   0  0  0  0  0  0  0  0  0  0  0  0
    4.8814    1.3184   -3.4078 H   0  0  0  0  0  0  0  0  0  0  0  0
    5.8973    2.5646   -2.6547 H   0  0  0  0  0  0  0  0  0  0  0  0
    5.5419    1.0642   -1.7757 H   0  0  0  0  0  0  0  0  0  0  0  0
    2.2684    4.3653   -2.2521 N   0  0  0  0  0  0  0  0  0  0  0  0
    1.5909    5.4007   -3.0199 C   0  0  0  0  0  0  0  0  0  0  0  0
    1.9145    4.1088   -1.3269 H   0  0  0  0  0  0  0  0  0  0  0  0
    2.3082    6.1523   -3.3656 H   0  0  0  0  0  0  0  0  0  0  0  0
    1.0892    4.9652   -3.8901 H   0  0  0  0  0  0  0  0  0  0  0  0
    0.8410    5.9001   -2.3992 H   0  0  0  0  0  0  0  0  0  0  0  0
  1  2  2  0  0  0  0
  1  3  1  0  0  0  0
  1  7  1  0  0  0  0
  3  4  1  0  0  0  0
  3  5  1  0  0  0  0
  3  6  1  0  0  0  0
  7  8  1  0  0  0  0
  7 12  1  0  0  0  0
  8  9  1  0  0  0  0
  8 11  1  0  0  0  0
  8 13  1  0  0  0  0
  9 10  2  0  0  0  0
  9 17  1  0  0  0  0
 11 14  1  0  0  0  0
 11 15  1  0  0  0  0
 11 16  1  0  0  0  0
 17 18  1  0  0  0  0
 17 28  1  0  0  0  0
 18 19  1  0  0  0  0
 18 21  1  0  0  0  0
 18 29  1  0  0  0  0
 19 20  2  0  0  0  0
 19 37  1  0  0  0  0
 21 22  1  0  0  0  0
 21 30  1  0  0  0  0
 21 31  1  0  0  0  0
 22 23  1  0  0  0  0
 22 24  2  0  0  0  0
 23 25  2  0  0  0  0
 23 32  1  0  0  0  0
 24 26  1  0  0  0  0
 24 33  1  0  0  0  0
 25 27  1  0  0  0  0
 25 34  1  0  0  0  0
 26 27  2  0  0  0  0
 26 35  1  0  0  0  0
 27 36  1  0  0  0  0
 37 38  1  0  0  0  0
 37 42  1  0  0  0  0
 38 39  1  0  0  0  0
 38 41  1  0  0  0  0
 38 43  1  0  0  0  0
 39 40  2  0  0  0  0
 39 47  1  0  0  0  0
 41 44  1  0  0  0  0
 41 45  1  0  0  0  0
 41 46  1  0  0  0  0
 47 48  1  0  0  0  0
 47 49  1  0  0  0  0
 48 50  1  0  0  0  0
 48 51  1  0  0  0  0
 48 52  1  0  0  0  0
M  END
$$$$

  -OEChem-05262217163D

 52 52  0     1  0  0  0  0  0999 V2000
   -2.8168    0.9123    4.3563 C   0  0  0  0  0  0  0  0  0  0  0  0
   -3.7890    1.4719    3.8739 O   0  0  0  0  0  0  0  0  0  0  0  0
   -2.9476    0.1499    5.6615 C   0  0  0  0  0  0  0  0  0  0  0  0
   -3.9768    0.2013    6.0278 H   0  0  0  0  0  0  0  0  0  0  0  0
   -2.6800   -0.8987    5.5097 H   0  0  0  0  0  0  0  0  0  0  0  0
   -2.2840    0.5829    6.4139 H   0  0  0  0  0  0  0  0  0  0  0  0
   -1.5986    0.9649    3.7135 N   0  0  0  0  0  0  0  0  0  0  0  0
   -1.3948    1.5223    2.3701 C   0  0  2  0  0  0  0  0  0  0  0  0
   -0.3932    0.6839    1.5499 C   0  0  0  0  0  0  0  0  0  0  0  0
    0.3555   -0.1075    2.1156 O   0  0  0  0  0  0  0  0  0  0  0  0
   -0.8891    2.9600    2.5187 C   0  0  0  0  0  0  0  0  0  0  0  0
   -0.8532    0.3735    4.0791 H   0  0  0  0  0  0  0  0  0  0  0  0
   -2.3412    1.5280    1.8190 H   0  0  0  0  0  0  0  0  0  0  0  0
    0.0645    2.9758    3.0565 H   0  0  0  0  0  0  0  0  0  0  0  0
   -0.7404    3.4200    1.5369 H   0  0  0  0  0  0  0  0  0  0  0  0
   -1.6151    3.5609    3.0755 H   0  0  0  0  0  0  0  0  0  0  0  0
   -0.3393    0.8252    0.1744 N   0  0  0  0  0  0  0  0  0  0  0  0
    0.8004    0.3399   -0.6249 C   0  0  2  0  0  0  0  0  0  0  0  0
    1.8870    1.4355   -0.7730 C   0  0  0  0  0  0  0  0  0  0  0  0
    1.9377    2.3728    0.0178 O   0  0  0  0  0  0  0  0  0  0  0  0
    0.2579   -0.1351   -1.9890 C   0  0  0  0  0  0  0  0  0  0  0  0
   -0.6150   -1.3579   -1.8344 C   0  0  0  0  0  0  0  0  0  0  0  0
   -0.0386   -2.6314   -1.7110 C   0  0  0  0  0  0  0  0  0  0  0  0
   -2.0131   -1.2386   -1.8132 C   0  0  0  0  0  0  0  0  0  0  0  0
   -0.8452   -3.7649   -1.5634 C   0  0  0  0  0  0  0  0  0  0  0  0
   -2.8208   -2.3715   -1.6684 C   0  0  0  0  0  0  0  0  0  0  0  0
   -2.2370   -3.6355   -1.5424 C   0  0  0  0  0  0  0  0  0  0  0  0
   -0.8831    1.5941   -0.2049 H   0  0  0  0  0  0  0  0  0  0  0  0
    1.2782   -0.5148   -0.1340 H   0  0  0  0  0  0  0  0  0  0  0  0
    1.0851   -0.3987   -2.6544 H   0  0  0  0  0  0  0  0  0  0  0  0
   -0.3015    0.6744   -2.4700 H   0  0  0  0  0  0  0  0  0  0  0  0
    1.0408   -2.7472   -1.7220 H   0  0  0  0  0  0  0  0  0  0  0  0
   -2.4798   -0.2629   -1.9052 H   0  0  0  0  0  0  0  0  0  0  0  0
   -0.3905   -4.7461   -1.4619 H   0  0  0  0  0  0  0  0  0  0  0  0
   -3.9020   -2.2692   -1.6513 H   0  0  0  0  0  0  0  0  0  0  0  0
   -2.8640   -4.5148   -1.4259 H   0  0  0  0  0  0  0  0  0  0  0  0
    2.7053    1.5013   -1.8889 N   0  0  0  0  0  0  0  0  0  0  0  0
    3.6325    2.6077   -2.1737 C   0  0  2  0  0  0  0  0  0  0  0  0
    2.8988    3.8632   -2.7057 C   0  0  0  0  0  0  0  0  0  0  0  0
    3.0312    4.2459   -3.8617 O   0  0  0  0  0  0  0  0  0  0  0  0
    4.6910    2.0803   -3.1508 C   0  0  0  0  0  0  0  0  0  0  0  0
    2.5875    0.7845   -2.5985 H   0  0  0  0  0  0  0  0  0  0  0  0
    4.1479    2.9005   -1.2523 H   0  0  0  0  0  0  0  0  0  0  0  0
    4.2271    1.7676   -4.0920 H   0  0  0  0  0  0  0  0  0  0  0  0
    5.4253    2.8618   -3.3716 H   0  0  0  0  0  0  0  0  0  0  0  0
    5.2179    1.2249   -2.7175 H   0  0  0  0  0  0  0  0  0  0  0  0
    2.0449    4.5482   -1.8642 N   0  0  0  0  0  0  0  0  0  0  0  0
    1.2455    5.6955   -2.2705 C   0  0  0  0  0  0  0  0  0  0  0  0
    1.8973    4.1319   -0.9408 H   0  0  0  0  0  0  0  0  0  0  0  0
    1.8925    6.5096   -2.6134 H   0  0  0  0  0  0  0  0  0  0  0  0
    0.5641    5.4198   -3.0820 H   0  0  0  0  0  0  0  0  0  0  0  0
    0.6513    6.0588   -1.4264 H   0  0  0  0  0  0  0  0  0  0  0  0
  1  2  2  0  0  0  0
  1  3  1  0  0  0  0
  1  7  1  0  0  0  0
  3  4  1  0  0  0  0
  3  5  1  0  0  0  0
  3  6  1  0  0  0  0
  7  8  1  0  0  0  0
  7 12  1  0  0  0  0
  8  9  1  0  0  0  0
  8 11  1  0  0  0  0
  8 13  1  0  0  0  0
  9 10  2  0  0  0  0
  9 17  1  0  0  0  0
 11 14  1  0  0  0  0
 11 15  1  0  0  0  0
 11 16  1  0  0  0  0
 17 18  1  0  0  0  0
 17 28  1  0  0  0  0
 18 19  1  0  0  0  0
 18 21  1  0  0  0  0
 18 29  1  0  0  0  0
 19 20  2  0  0  0  0
 19 37  1  0  0  0  0
 21 22  1  0  0  0  0
 21 30  1  0  0  0  0
 21 31  1  0  0  0  0
 22 23  1  0  0  0  0
 22 24  2  0  0  0  0
 23 25  2  0  0  0  0
 23 32  1  0  0  0  0
 24 26  1  0  0  0  0
 24 33  1  0  0  0  0
 25 27  1  0  0  0  0
 25 34  1  0  0  0  0
 26 27  2  0  0  0  0
 26 35  1  0  0  0  0
 27 36  1  0  0  0  0
 37 38  1  0  0  0  0
 37 42  1  0  0  0  0
 38 39  1  0  0  0  0
 38 41  1  0  0  0  0
 38 43  1  0  0  0  0
 39 40  2  0  0  0  0
 39 47  1  0  0  0  0
 41 44  1  0  0  0  0
 41 45  1  0  0  0  0
 41 46  1  0  0  0  0
 47 48  1  0  0  0  0
 47 49  1  0  0  0  0
 48 50  1  0  0  0  0
 48 51  1  0  0  0  0
 48 52  1  0  0  0  0
M  END
$$$$

  -OEChem-05262217163D

 52 52  0     1  0  0  0  0  0999 V2000
   -2.7421    1.0191    4.3175 C   0  0  0  0  0  0  0  0  0  0  0  0
   -3.7218    1.5599    3.8286 O   0  0  0  0  0  0  0  0  0  0  0  0
   -2.8627    0.2752    5.6342 C   0  0  0  0  0  0  0  0  0  0  0  0
   -3.9013    0.2808    5.9766 H   0  0  0  0  0  0  0  0  0  0  0  0
   -2.5395   -0.7610    5.5082 H   0  0  0  0  0  0  0  0  0  0  0  0
   -2.2391    0.7552    6.3924 H   0  0  0  0  0  0  0  0  0  0  0  0
   -1.5261    1.0728    3.6701 N   0  0  0  0  0  0  0  0  0  0  0  0
   -1.3362    1.5920    2.3095 C   0  0  2  0  0  0  0  0  0  0  0  0
   -0.3769    0.7067    1.4885 C   0  0  0  0  0  0  0  0  0  0  0  0
    0.3656   -0.0884    2.0565 O   0  0  0  0  0  0  0  0  0  0  0  0
   -0.7857    3.0170    2.4149 C   0  0  0  0  0  0  0  0  0  0  0  0
   -0.7771    0.4898    4.0419 H   0  0  0  0  0  0  0  0  0  0  0  0
   -2.2932    1.6141    1.7774 H   0  0  0  0  0  0  0  0  0  0  0  0
    0.1792    3.0161    2.9326 H   0  0  0  0  0  0  0  0  0  0  0  0
   -0.6443    3.4506    1.4202 H   0  0  0  0  0  0  0  0  0  0  0  0
   -1.4819    3.6512    2.9729 H   0  0  0  0  0  0  0  0  0  0  0  0
   -0.3536    0.8164    0.1092 N   0  0  0  0  0  0  0  0  0  0  0  0
    0.7690    0.3168   -0.7047 C   0  0  2  0  0  0  0  0  0  0  0  0
    1.8409    1.4195   -0.8958 C   0  0  0  0  0  0  0  0  0  0  0  0
    2.0849    2.2087    0.0107 O   0  0  0  0  0  0  0  0  0  0  0  0
    0.2074   -0.2132   -2.0400 C   0  0  0  0  0  0  0  0  0  0  0  0
   -0.6437   -1.4423   -1.8263 C   0  0  0  0  0  0  0  0  0  0  0  0
   -0.0445   -2.7015   -1.6712 C   0  0  0  0  0  0  0  0  0  0  0  0
   -2.0429   -1.3441   -1.7821 C   0  0  0  0  0  0  0  0  0  0  0  0
   -0.8296   -3.8422   -1.4723 C   0  0  0  0  0  0  0  0  0  0  0  0
   -2.8292   -2.4838   -1.5824 C   0  0  0  0  0  0  0  0  0  0  0  0
   -2.2227   -3.7338   -1.4274 C   0  0  0  0  0  0  0  0  0  0  0  0
   -0.9099    1.5738   -0.2747 H   0  0  0  0  0  0  0  0  0  0  0  0
    1.2683   -0.5163   -0.1978 H   0  0  0  0  0  0  0  0  0  0  0  0
    1.0290   -0.4891   -2.7082 H   0  0  0  0  0  0  0  0  0  0  0  0
   -0.3747    0.5691   -2.5388 H   0  0  0  0  0  0  0  0  0  0  0  0
    1.0362   -2.8005   -1.7001 H   0  0  0  0  0  0  0  0  0  0  0  0
   -2.5274   -0.3800   -1.8992 H   0  0  0  0  0  0  0  0  0  0  0  0
   -0.3561   -4.8119   -1.3497 H   0  0  0  0  0  0  0  0  0  0  0  0
   -3.9112   -2.3970   -1.5453 H   0  0  0  0  0  0  0  0  0  0  0  0
   -2.8328   -4.6186   -1.2697 H   0  0  0  0  0  0  0  0  0  0  0  0
    2.4209    1.6700   -2.1291 N   0  0  0  0  0  0  0  0  0  0  0  0
    3.3017    2.8140   -2.4132 C   0  0  2  0  0  0  0  0  0  0  0  0
    2.5114    4.1374   -2.5624 C   0  0  0  0  0  0  0  0  0  0  0  0
    2.3934    4.6986   -3.6448 O   0  0  0  0  0  0  0  0  0  0  0  0
    4.1173    2.4647   -3.6648 C   0  0  0  0  0  0  0  0  0  0  0  0
    2.1152    1.1006   -2.9124 H   0  0  0  0  0  0  0  0  0  0  0  0
    4.0059    2.9490   -1.5849 H   0  0  0  0  0  0  0  0  0  0  0  0
    3.4596    2.3182   -4.5278 H   0  0  0  0  0  0  0  0  0  0  0  0
    4.8170    3.2736   -3.8979 H   0  0  0  0  0  0  0  0  0  0  0  0
    4.6920    1.5478   -3.5025 H   0  0  0  0  0  0  0  0  0  0  0  0
    1.8870    4.6751   -1.4544 N   0  0  0  0  0  0  0  0  0  0  0  0
    1.0491    5.8658   -1.4861 C   0  0  0  0  0  0  0  0  0  0  0  0
    1.9285    4.1114   -0.6009 H   0  0  0  0  0  0  0  0  0  0  0  0
    1.6233    6.7285   -1.8399 H   0  0  0  0  0  0  0  0  0  0  0  0
    0.1927    5.7144   -2.1512 H   0  0  0  0  0  0  0  0  0  0  0  0
    0.6739    6.0893   -0.4827 H   0  0  0  0  0  0  0  0  0  0  0  0
  1  2  2  0  0  0  0
  1  3  1  0  0  0  0
  1  7  1  0  0  0  0
  3  4  1  0  0  0  0
  3  5  1  0  0  0  0
  3  6  1  0  0  0  0
  7  8  1  0  0  0  0
  7 12  1  0  0  0  0
  8  9  1  0  0  0  0
  8 11  1  0  0  0  0
  8 13  1  0  0  0  0
  9 10  2  0  0  0  0
  9 17  1  0  0  0  0
 11 14  1  0  0  0  0
 11 15  1  0  0  0  0
 11 16  1  0  0  0  0
 17 18  1  0  0  0  0
 17 28  1  0  0  0  0
 18 19  1  0  0  0  0
 18 21  1  0  0  0  0
 18 29  1  0  0  0  0
 19 20  2  0  0  0  0
 19 37  1  0  0  0  0
 21 22  1  0  0  0  0
 21 30  1  0  0  0  0
 21 31  1  0  0  0  0
 22 23  1  0  0  0  0
 22 24  2  0  0  0  0
 23 25  2  0  0  0  0
 23 32  1  0  0  0  0
 24 26  1  0  0  0  0
 24 33  1  0  0  0  0
 25 27  1  0  0  0  0
 25 34  1  0  0  0  0
 26 27  2  0  0  0  0
 26 35  1  0  0  0  0
 27 36  1  0  0  0  0
 37 38  1  0  0  0  0
 37 42  1  0  0  0  0
 38 39  1  0  0  0  0
 38 41  1  0  0  0  0
 38 43  1  0  0  0  0
 39 40  2  0  0  0  0
 39 47  1  0  0  0  0
 41 44  1  0  0  0  0
 41 45  1  0  0  0  0
 41 46  1  0  0  0  0
 47 48  1  0  0  0  0
 47 49  1  0  0  0  0
 48 50  1  0  0  0  0
 48 51  1  0  0  0  0
 48 52  1  0  0  0  0
M  END
$$$$

  -OEChem-05262217163D

 52 52  0     1  0  0  0  0  0999 V2000
   -2.6731    0.9817    4.2480 C   0  0  0  0  0  0  0  0  0  0  0  0
   -3.6788    1.4535    3.7411 O   0  0  0  0  0  0  0  0  0  0  0  0
   -2.7723    0.1954    5.5416 C   0  0  0  0  0  0  0  0  0  0  0  0
   -3.8038    0.1954    5.9048 H   0  0  0  0  0  0  0  0  0  0  0  0
   -2.4577   -0.8378    5.3746 H   0  0  0  0  0  0  0  0  0  0  0  0
   -2.1312    0.6463    6.3031 H   0  0  0  0  0  0  0  0  0  0  0  0
   -1.4466    1.1444    3.6396 N   0  0  0  0  0  0  0  0  0  0  0  0
   -1.2659    1.6690    2.2796 C   0  0  2  0  0  0  0  0  0  0  0  0
   -0.3124    0.7833    1.4536 C   0  0  0  0  0  0  0  0  0  0  0  0
    0.4622    0.0200    2.0213 O   0  0  0  0  0  0  0  0  0  0  0  0
   -0.7102    3.0916    2.3842 C   0  0  0  0  0  0  0  0  0  0  0  0
   -0.6745    0.5950    4.0153 H   0  0  0  0  0  0  0  0  0  0  0  0
   -2.2246    1.6959    1.7511 H   0  0  0  0  0  0  0  0  0  0  0  0
    0.2576    3.0871    2.8966 H   0  0  0  0  0  0  0  0  0  0  0  0
   -0.5731    3.5257    1.3891 H   0  0  0  0  0  0  0  0  0  0  0  0
   -1.4012    3.7269    2.9472 H   0  0  0  0  0  0  0  0  0  0  0  0
   -0.3335    0.8543    0.0719 N   0  0  0  0  0  0  0  0  0  0  0  0
    0.7601    0.3369   -0.7692 C   0  0  2  0  0  0  0  0  0  0  0  0
    1.8147    1.4404   -1.0232 C   0  0  0  0  0  0  0  0  0  0  0  0
    2.2742    2.0819   -0.0857 O   0  0  0  0  0  0  0  0  0  0  0  0
    0.1587   -0.2370   -2.0676 C   0  0  0  0  0  0  0  0  0  0  0  0
   -0.6731   -1.4652   -1.7825 C   0  0  0  0  0  0  0  0  0  0  0  0
   -0.0596   -2.7150   -1.6070 C   0  0  0  0  0  0  0  0  0  0  0  0
   -2.0696   -1.3721   -1.6776 C   0  0  0  0  0  0  0  0  0  0  0  0
   -0.8279   -3.8503   -1.3265 C   0  0  0  0  0  0  0  0  0  0  0  0
   -2.8385   -2.5063   -1.3964 C   0  0  0  0  0  0  0  0  0  0  0  0
   -2.2178   -3.7462   -1.2207 C   0  0  0  0  0  0  0  0  0  0  0  0
   -0.9396    1.5669   -0.3226 H   0  0  0  0  0  0  0  0  0  0  0  0
    1.2837   -0.4776   -0.2563 H   0  0  0  0  0  0  0  0  0  0  0  0
    0.9626   -0.5206   -2.7547 H   0  0  0  0  0  0  0  0  0  0  0  0
   -0.4509    0.5230   -2.5676 H   0  0  0  0  0  0  0  0  0  0  0  0
    1.0197   -2.8091   -1.6790 H   0  0  0  0  0  0  0  0  0  0  0  0
   -2.5655   -0.4152   -1.8065 H   0  0  0  0  0  0  0  0  0  0  0  0
   -0.3446   -4.8126   -1.1851 H   0  0  0  0  0  0  0  0  0  0  0  0
   -3.9178   -2.4233   -1.3098 H   0  0  0  0  0  0  0  0  0  0  0  0
   -2.8143   -4.6265   -0.9987 H   0  0  0  0  0  0  0  0  0  0  0  0
    2.1227    1.8734   -2.3029 N   0  0  0  0  0  0  0  0  0  0  0  0
    2.9359    3.0648   -2.5943 C   0  0  2  0  0  0  0  0  0  0  0  0
    2.1443    4.3783   -2.3793 C   0  0  0  0  0  0  0  0  0  0  0  0
    1.8318    5.1034   -3.3156 O   0  0  0  0  0  0  0  0  0  0  0  0
    3.4715    2.9197   -4.0237 C   0  0  0  0  0  0  0  0  0  0  0  0
    1.6241    1.4380   -3.0732 H   0  0  0  0  0  0  0  0  0  0  0  0
    3.7984    3.0937   -1.9196 H   0  0  0  0  0  0  0  0  0  0  0  0
    2.6484    2.8857   -4.7448 H   0  0  0  0  0  0  0  0  0  0  0  0
    4.1144    3.7698   -4.2737 H   0  0  0  0  0  0  0  0  0  0  0  0
    4.0602    2.0023   -4.1190 H   0  0  0  0  0  0  0  0  0  0  0  0
    1.7480    4.7226   -1.1021 N   0  0  0  0  0  0  0  0  0  0  0  0
    0.9743    5.9132   -0.7790 C   0  0  0  0  0  0  0  0  0  0  0  0
    1.9694    4.0471   -0.3652 H   0  0  0  0  0  0  0  0  0  0  0  0
    1.5226    6.8152   -1.0704 H   0  0  0  0  0  0  0  0  0  0  0  0
    0.0131    5.8995   -1.3031 H   0  0  0  0  0  0  0  0  0  0  0  0
    0.7825    5.9584    0.2974 H   0  0  0  0  0  0  0  0  0  0  0  0
  1  2  2  0  0  0  0
  1  3  1  0  0  0  0
  1  7  1  0  0  0  0
  3  4  1  0  0  0  0
  3  5  1  0  0  0  0
  3  6  1  0  0  0  0
  7  8  1  0  0  0  0
  7 12  1  0  0  0  0
  8  9  1  0  0  0  0
  8 11  1  0  0  0  0
  8 13  1  0  0  0  0
  9 10  2  0  0  0  0
  9 17  1  0  0  0  0
 11 14  1  0  0  0  0
 11 15  1  0  0  0  0
 11 16  1  0  0  0  0
 17 18  1  0  0  0  0
 17 28  1  0  0  0  0
 18 19  1  0  0  0  0
 18 21  1  0  0  0  0
 18 29  1  0  0  0  0
 19 20  2  0  0  0  0
 19 37  1  0  0  0  0
 21 22  1  0  0  0  0
 21 30  1  0  0  0  0
 21 31  1  0  0  0  0
 22 23  1  0  0  0  0
 22 24  2  0  0  0  0
 23 25  2  0  0  0  0
 23 32  1  0  0  0  0
 24 26  1  0  0  0  0
 24 33  1  0  0  0  0
 25 27  1  0  0  0  0
 25 34  1  0  0  0  0
 26 27  2  0  0  0  0
 26 35  1  0  0  0  0
 27 36  1  0  0  0  0
 37 38  1  0  0  0  0
 37 42  1  0  0  0  0
 38 39  1  0  0  0  0
 38 41  1  0  0  0  0
 38 43  1  0  0  0  0
 39 40  2  0  0  0  0
 39 47  1  0  0  0  0
 41 44  1  0  0  0  0
 41 45  1  0  0  0  0
 41 46  1  0  0  0  0
 47 48  1  0  0  0  0
 47 49  1  0  0  0  0
 48 50  1  0  0  0  0
 48 51  1  0  0  0  0
 48 52  1  0  0  0  0
M  END
$$$$

  -OEChem-05262217163D

 52 52  0     1  0  0  0  0  0999 V2000
   -2.6203    0.9115    4.2028 C   0  0  0  0  0  0  0  0  0  0  0  0
   -3.6684    1.2322    3.6645 O   0  0  0  0  0  0  0  0  0  0  0  0
   -2.6436    0.1441    5.5113 C   0  0  0  0  0  0  0  0  0  0  0  0
   -3.6745    0.0051    5.8492 H   0  0  0  0  0  0  0  0  0  0  0  0
   -2.1817   -0.8370    5.3756 H   0  0  0  0  0  0  0  0  0  0  0  0
   -2.0936    0.6959    6.2773 H   0  0  0  0  0  0  0  0  0  0  0  0
   -1.4116    1.2311    3.6206 N   0  0  0  0  0  0  0  0  0  0  0  0
   -1.2697    1.7341    2.2474 C   0  0  2  0  0  0  0  0  0  0  0  0
   -0.2964    0.8670    1.4246 C   0  0  0  0  0  0  0  0  0  0  0  0
    0.5293    0.1639    1.9965 O   0  0  0  0  0  0  0  0  0  0  0  0
   -0.7615    3.1760    2.3187 C   0  0  0  0  0  0  0  0  0  0  0  0
   -0.5881    0.7817    4.0190 H   0  0  0  0  0  0  0  0  0  0  0  0
   -2.2351    1.7223    1.7311 H   0  0  0  0  0  0  0  0  0  0  0  0
    0.2191    3.2126    2.8045 H   0  0  0  0  0  0  0  0  0  0  0  0
   -0.6676    3.5996    1.3142 H   0  0  0  0  0  0  0  0  0  0  0  0
   -1.4588    3.7955    2.8915 H   0  0  0  0  0  0  0  0  0  0  0  0
   -0.3487    0.8974    0.0423 N   0  0  0  0  0  0  0  0  0  0  0  0
    0.7308    0.3795   -0.8164 C   0  0  2  0  0  0  0  0  0  0  0  0
    1.7553    1.4929   -1.1291 C   0  0  0  0  0  0  0  0  0  0  0  0
    2.4380    1.9742   -0.2340 O   0  0  0  0  0  0  0  0  0  0  0  0
    0.1157   -0.2425   -2.0845 C   0  0  0  0  0  0  0  0  0  0  0  0
   -0.6798   -1.4816   -1.7490 C   0  0  0  0  0  0  0  0  0  0  0  0
   -0.0317   -2.7109   -1.5550 C   0  0  0  0  0  0  0  0  0  0  0  0
   -2.0760   -1.4202   -1.6190 C   0  0  0  0  0  0  0  0  0  0  0  0
   -0.7657   -3.8581   -1.2344 C   0  0  0  0  0  0  0  0  0  0  0  0
   -2.8108   -2.5666   -1.2989 C   0  0  0  0  0  0  0  0  0  0  0  0
   -2.1558   -3.7864   -1.1061 C   0  0  0  0  0  0  0  0  0  0  0  0
   -1.0167    1.5452   -0.3640 H   0  0  0  0  0  0  0  0  0  0  0  0
    1.2838   -0.4096   -0.2945 H   0  0  0  0  0  0  0  0  0  0  0  0
    0.9140   -0.5188   -2.7818 H   0  0  0  0  0  0  0  0  0  0  0  0
   -0.5257    0.4868   -2.5896 H   0  0  0  0  0  0  0  0  0  0  0  0
    1.0484   -2.7803   -1.6440 H   0  0  0  0  0  0  0  0  0  0  0  0
   -2.5989   -0.4798   -1.7609 H   0  0  0  0  0  0  0  0  0  0  0  0
   -0.2553   -4.8044   -1.0805 H   0  0  0  0  0  0  0  0  0  0  0  0
   -3.8906   -2.5093   -1.1963 H   0  0  0  0  0  0  0  0  0  0  0  0
   -2.7257   -4.6761   -0.8542 H   0  0  0  0  0  0  0  0  0  0  0  0
    1.7981    2.1060   -2.3708 N   0  0  0  0  0  0  0  0  0  0  0  0
    2.5649    3.3294   -2.6549 C   0  0  2  0  0  0  0  0  0  0  0  0
    1.8787    4.5921   -2.0772 C   0  0  0  0  0  0  0  0  0  0  0  0
    1.3805    5.4435   -2.8033 O   0  0  0  0  0  0  0  0  0  0  0  0
    2.7685    3.4038   -4.1734 C   0  0  0  0  0  0  0  0  0  0  0  0
    1.1221    1.7978   -3.0629 H   0  0  0  0  0  0  0  0  0  0  0  0
    3.5547    3.2584   -2.1907 H   0  0  0  0  0  0  0  0  0  0  0  0
    1.8068    3.4841   -4.6903 H   0  0  0  0  0  0  0  0  0  0  0  0
    3.3725    4.2798   -4.4308 H   0  0  0  0  0  0  0  0  0  0  0  0
    3.2865    2.5097   -4.5335 H   0  0  0  0  0  0  0  0  0  0  0  0
    1.7807    4.7376   -0.7073 N   0  0  0  0  0  0  0  0  0  0  0  0
    1.1098    5.8498   -0.0489 C   0  0  0  0  0  0  0  0  0  0  0  0
    2.1387    3.9593   -0.1459 H   0  0  0  0  0  0  0  0  0  0  0  0
    1.5800    6.7987   -0.3271 H   0  0  0  0  0  0  0  0  0  0  0  0
    0.0530    5.8824   -0.3331 H   0  0  0  0  0  0  0  0  0  0  0  0
    1.1741    5.7378    1.0376 H   0  0  0  0  0  0  0  0  0  0  0  0
  1  2  2  0  0  0  0
  1  3  1  0  0  0  0
  1  7  1  0  0  0  0
  3  4  1  0  0  0  0
  3  5  1  0  0  0  0
  3  6  1  0  0  0  0
  7  8  1  0  0  0  0
  7 12  1  0  0  0  0
  8  9  1  0  0  0  0
  8 11  1  0  0  0  0
  8 13  1  0  0  0  0
  9 10  2  0  0  0  0
  9 17  1  0  0  0  0
 11 14  1  0  0  0  0
 11 15  1  0  0  0  0
 11 16  1  0  0  0  0
 17 18  1  0  0  0  0
 17 28  1  0  0  0  0
 18 19  1  0  0  0  0
 18 21  1  0  0  0  0
 18 29  1  0  0  0  0
 19 20  2  0  0  0  0
 19 37  1  0  0  0  0
 21 22  1  0  0  0  0
 21 30  1  0  0  0  0
 21 31  1  0  0  0  0
 22 23  1  0  0  0  0
 22 24  2  0  0  0  0
 23 25  2  0  0  0  0
 23 32  1  0  0  0  0
 24 26  1  0  0  0  0
 24 33  1  0  0  0  0
 25 27  1  0  0  0  0
 25 34  1  0  0  0  0
 26 27  2  0  0  0  0
 26 35  1  0  0  0  0
 27 36  1  0  0  0  0
 37 38  1  0  0  0  0
 37 42  1  0  0  0  0
 38 39  1  0  0  0  0
 38 41  1  0  0  0  0
 38 43  1  0  0  0  0
 39 40  2  0  0  0  0
 39 47  1  0  0  0  0
 41 44  1  0  0  0  0
 41 45  1  0  0  0  0
 41 46  1  0  0  0  0
 47 48  1  0  0  0  0
 47 49  1  0  0  0  0
 48 50  1  0  0  0  0
 48 51  1  0  0  0  0
 48 52  1  0  0  0  0
M  END
$$$$

  -OEChem-05262217163D

 52 52  0     1  0  0  0  0  0999 V2000
   -2.5506    0.6729    4.1503 C   0  0  0  0  0  0  0  0  0  0  0  0
   -3.6246    0.7218    3.5712 O   0  0  0  0  0  0  0  0  0  0  0  0
   -2.4376   -0.0520    5.4783 C   0  0  0  0  0  0  0  0  0  0  0  0
   -3.4141   -0.4400    5.7820 H   0  0  0  0  0  0  0  0  0  0  0  0
   -1.7392   -0.8876    5.3880 H   0  0  0  0  0  0  0  0  0  0  0  0
   -2.0764    0.6340    6.2485 H   0  0  0  0  0  0  0  0  0  0  0  0
   -1.4323    1.2647    3.6004 N   0  0  0  0  0  0  0  0  0  0  0  0
   -1.3628    1.7572    2.2175 C   0  0  2  0  0  0  0  0  0  0  0  0
   -0.2836    1.0138    1.4056 C   0  0  0  0  0  0  0  0  0  0  0  0
    0.6508    0.4705    1.9825 O   0  0  0  0  0  0  0  0  0  0  0  0
   -1.0536    3.2555    2.2642 C   0  0  0  0  0  0  0  0  0  0  0  0
   -0.5425    1.0156    4.0296 H   0  0  0  0  0  0  0  0  0  0  0  0
   -2.3196    1.6111    1.7056 H   0  0  0  0  0  0  0  0  0  0  0  0
   -0.0897    3.4335    2.7522 H   0  0  0  0  0  0  0  0  0  0  0  0
   -1.0131    3.6709    1.2525 H   0  0  0  0  0  0  0  0  0  0  0  0
   -1.8315    3.7841    2.8240 H   0  0  0  0  0  0  0  0  0  0  0  0
   -0.3601    0.9858    0.0251 N   0  0  0  0  0  0  0  0  0  0  0  0
    0.7041    0.4650   -0.8500 C   0  0  2  0  0  0  0  0  0  0  0  0
    1.6916    1.5846   -1.2354 C   0  0  0  0  0  0  0  0  0  0  0  0
    2.6067    1.8938   -0.4843 O   0  0  0  0  0  0  0  0  0  0  0  0
    0.0705   -0.2065   -2.0822 C   0  0  0  0  0  0  0  0  0  0  0  0
   -0.6864   -1.4519   -1.6877 C   0  0  0  0  0  0  0  0  0  0  0  0
   -0.0004   -2.6576   -1.4765 C   0  0  0  0  0  0  0  0  0  0  0  0
   -2.0790   -1.4210   -1.5140 C   0  0  0  0  0  0  0  0  0  0  0  0
   -0.6934   -3.8117   -1.0967 C   0  0  0  0  0  0  0  0  0  0  0  0
   -2.7725   -2.5743   -1.1318 C   0  0  0  0  0  0  0  0  0  0  0  0
   -2.0797   -3.7704   -0.9234 C   0  0  0  0  0  0  0  0  0  0  0  0
   -1.1491    1.4655   -0.3965 H   0  0  0  0  0  0  0  0  0  0  0  0
    1.2884   -0.2945   -0.3173 H   0  0  0  0  0  0  0  0  0  0  0  0
    0.8564   -0.4808   -2.7941 H   0  0  0  0  0  0  0  0  0  0  0  0
   -0.6031    0.4911   -2.5897 H   0  0  0  0  0  0  0  0  0  0  0  0
    1.0777   -2.7028   -1.6004 H   0  0  0  0  0  0  0  0  0  0  0  0
   -2.6316   -0.5001   -1.6689 H   0  0  0  0  0  0  0  0  0  0  0  0
   -0.1530   -4.7391   -0.9320 H   0  0  0  0  0  0  0  0  0  0  0  0
   -3.8494   -2.5412   -0.9930 H   0  0  0  0  0  0  0  0  0  0  0  0
   -2.6175   -4.6653   -0.6242 H   0  0  0  0  0  0  0  0  0  0  0  0
    1.4883    2.3574   -2.3663 N   0  0  0  0  0  0  0  0  0  0  0  0
    2.2267    3.5993   -2.6428 C   0  0  2  0  0  0  0  0  0  0  0  0
    1.7473    4.7696   -1.7475 C   0  0  0  0  0  0  0  0  0  0  0  0
    1.1635    5.7394   -2.2152 O   0  0  0  0  0  0  0  0  0  0  0  0
    2.0833    3.8945   -4.1407 C   0  0  0  0  0  0  0  0  0  0  0  0
    0.6444    2.1777   -2.9012 H   0  0  0  0  0  0  0  0  0  0  0  0
    3.2916    3.4476   -2.4345 H   0  0  0  0  0  0  0  0  0  0  0  0
    1.0336    4.0600   -4.4039 H   0  0  0  0  0  0  0  0  0  0  0  0
    2.6514    4.7921   -4.4048 H   0  0  0  0  0  0  0  0  0  0  0  0
    2.4660    3.0578   -4.7329 H   0  0  0  0  0  0  0  0  0  0  0  0
    1.9349    4.6953   -0.3812 N   0  0  0  0  0  0  0  0  0  0  0  0
    1.4954    5.7126    0.5637 C   0  0  0  0  0  0  0  0  0  0  0  0
    2.3612    3.8320   -0.0306 H   0  0  0  0  0  0  0  0  0  0  0  0
    1.9780    6.6710    0.3457 H   0  0  0  0  0  0  0  0  0  0  0  0
    0.4098    5.8436    0.5104 H   0  0  0  0  0  0  0  0  0  0  0  0
    1.7588    5.4172    1.5839 H   0  0  0  0  0  0  0  0  0  0  0  0
  1  2  2  0  0  0  0
  1  3  1  0  0  0  0
  1  7  1  0  0  0  0
  3  4  1  0  0  0  0
  3  5  1  0  0  0  0
  3  6  1  0  0  0  0
  7  8  1  0  0  0  0
  7 12  1  0  0  0  0
  8  9  1  0  0  0  0
  8 11  1  0  0  0  0
  8 13  1  0  0  0  0
  9 10  2  0  0  0  0
  9 17  1  0  0  0  0
 11 14  1  0  0  0  0
 11 15  1  0  0  0  0
 11 16  1  0  0  0  0
 17 18  1  0  0  0  0
 17 28  1  0  0  0  0
 18 19  1  0  0  0  0
 18 21  1  0  0  0  0
 18 29  1  0  0  0  0
 19 20  2  0  0  0  0
 19 37  1  0  0  0  0
 21 22  1  0  0  0  0
 21 30  1  0  0  0  0
 21 31  1  0  0  0  0
 22 23  1  0  0  0  0
 22 24  2  0  0  0  0
 23 25  2  0  0  0  0
 23 32  1  0  0  0  0
 24 26  1  0  0  0  0
 24 33  1  0  0  0  0
 25 27  1  0  0  0  0
 25 34  1  0  0  0  0
 26 27  2  0  0  0  0
 26 35  1  0  0  0  0
 27 36  1  0  0  0  0
 37 38  1  0  0  0  0
 37 42  1  0  0  0  0
 38 39  1  0  0  0  0
 38 41  1  0  0  0  0
 38 43  1  0  0  0  0
 39 40  2  0  0  0  0
 39 47  1  0  0  0  0
 41 44  1  0  0  0  0
 41 45  1  0  0  0  0
 41 46  1  0  0  0  0
 47 48  1  0  0  0  0
 47 49  1  0  0  0  0
 48 50  1  0  0  0  0
 48 51  1  0  0  0  0
 48 52  1  0  0  0  0
M  END
$$$$

  -OEChem-05262217163D

 52 52  0     1  0  0  0  0  0999 V2000
   -2.4531    0.4376    4.2137 C   0  0  0  0  0  0  0  0  0  0  0  0
   -3.5371    0.2833    3.6731 O   0  0  0  0  0  0  0  0  0  0  0  0
   -2.1784   -0.1999    5.5626 C   0  0  0  0  0  0  0  0  0  0  0  0
   -3.0300   -0.8129    5.8710 H   0  0  0  0  0  0  0  0  0  0  0  0
   -1.2912   -0.8351    5.5022 H   0  0  0  0  0  0  0  0  0  0  0  0
   -2.0120    0.5763    6.3136 H   0  0  0  0  0  0  0  0  0  0  0  0
   -1.4703    1.1885    3.6035 N   0  0  0  0  0  0  0  0  0  0  0  0
   -1.5398    1.6642    2.2151 C   0  0  2  0  0  0  0  0  0  0  0  0
   -0.3284    1.1867    1.3899 C   0  0  0  0  0  0  0  0  0  0  0  0
    0.7236    0.9087    1.9520 O   0  0  0  0  0  0  0  0  0  0  0  0
   -1.5945    3.1933    2.2443 C   0  0  0  0  0  0  0  0  0  0  0  0
   -0.5389    1.1275    4.0124 H   0  0  0  0  0  0  0  0  0  0  0  0
   -2.4418    1.2864    1.7228 H   0  0  0  0  0  0  0  0  0  0  0  0
   -0.6958    3.6001    2.7192 H   0  0  0  0  0  0  0  0  0  0  0  0
   -1.6630    3.5954    1.2289 H   0  0  0  0  0  0  0  0  0  0  0  0
   -2.4699    3.5290    2.8091 H   0  0  0  0  0  0  0  0  0  0  0  0
   -0.4190    1.1059    0.0121 N   0  0  0  0  0  0  0  0  0  0  0  0
    0.6558    0.5889   -0.8526 C   0  0  2  0  0  0  0  0  0  0  0  0
    1.6081    1.7170   -1.2925 C   0  0  0  0  0  0  0  0  0  0  0  0
    2.7142    1.8352   -0.7826 O   0  0  0  0  0  0  0  0  0  0  0  0
    0.0437   -0.1277   -2.0688 C   0  0  0  0  0  0  0  0  0  0  0  0
   -0.6823   -1.3816   -1.6452 C   0  0  0  0  0  0  0  0  0  0  0  0
    0.0356   -2.5623   -1.4031 C   0  0  0  0  0  0  0  0  0  0  0  0
   -2.0774   -1.3876   -1.4872 C   0  0  0  0  0  0  0  0  0  0  0  0
   -0.6268   -3.7273   -1.0031 C   0  0  0  0  0  0  0  0  0  0  0  0
   -2.7405   -2.5524   -1.0858 C   0  0  0  0  0  0  0  0  0  0  0  0
   -2.0153   -3.7225   -0.8429 C   0  0  0  0  0  0  0  0  0  0  0  0
   -1.3449    1.2269   -0.3861 H   0  0  0  0  0  0  0  0  0  0  0  0
    1.2607   -0.1395   -0.2989 H   0  0  0  0  0  0  0  0  0  0  0  0
    0.8408   -0.3979   -2.7698 H   0  0  0  0  0  0  0  0  0  0  0  0
   -0.6427    0.5402   -2.5986 H   0  0  0  0  0  0  0  0  0  0  0  0
    1.1157   -2.5780   -1.5182 H   0  0  0  0  0  0  0  0  0  0  0  0
   -2.6578   -0.4901   -1.6748 H   0  0  0  0  0  0  0  0  0  0  0  0
   -0.0613   -4.6351   -0.8143 H   0  0  0  0  0  0  0  0  0  0  0  0
   -3.8198   -2.5499   -0.9616 H   0  0  0  0  0  0  0  0  0  0  0  0
   -2.5295   -4.6263   -0.5293 H   0  0  0  0  0  0  0  0  0  0  0  0
    1.2264    2.6325   -2.2589 N   0  0  0  0  0  0  0  0  0  0  0  0
    1.9820    3.8636   -2.5355 C   0  0  2  0  0  0  0  0  0  0  0  0
    1.7984    4.9091   -1.4080 C   0  0  0  0  0  0  0  0  0  0  0  0
    1.1498    5.9339   -1.5820 O   0  0  0  0  0  0  0  0  0  0  0  0
    1.5399    4.3820   -3.9095 C   0  0  0  0  0  0  0  0  0  0  0  0
    0.2556    2.6006   -2.5529 H   0  0  0  0  0  0  0  0  0  0  0  0
    3.0516    3.6349   -2.5960 H   0  0  0  0  0  0  0  0  0  0  0  0
    0.4735    4.6294   -3.9057 H   0  0  0  0  0  0  0  0  0  0  0  0
    2.1022    5.2839   -4.1720 H   0  0  0  0  0  0  0  0  0  0  0  0
    1.7218    3.6254   -4.6789 H   0  0  0  0  0  0  0  0  0  0  0  0
    2.3120    4.6415   -0.1543 N   0  0  0  0  0  0  0  0  0  0  0  0
    2.0770    5.4739    1.0166 C   0  0  0  0  0  0  0  0  0  0  0  0
    2.7277    3.7134   -0.0293 H   0  0  0  0  0  0  0  0  0  0  0  0
    2.4553    6.4876    0.8480 H   0  0  0  0  0  0  0  0  0  0  0  0
    1.0065    5.5279    1.2399 H   0  0  0  0  0  0  0  0  0  0  0  0
    2.5920    5.0533    1.8858 H   0  0  0  0  0  0  0  0  0  0  0  0
  1  2  2  0  0  0  0
  1  3  1  0  0  0  0
  1  7  1  0  0  0  0
  3  4  1  0  0  0  0
  3  5  1  0  0  0  0
  3  6  1  0  0  0  0
  7  8  1  0  0  0  0
  7 12  1  0  0  0  0
  8  9  1  0  0  0  0
  8 11  1  0  0  0  0
  8 13  1  0  0  0  0
  9 10  2  0  0  0  0
  9 17  1  0  0  0  0
 11 14  1  0  0  0  0
 11 15  1  0  0  0  0
 11 16  1  0  0  0  0
 17 18  1  0  0  0  0
 17 28  1  0  0  0  0
 18 19  1  0  0  0  0
 18 21  1  0  0  0  0
 18 29  1  0  0  0  0
 19 20  2  0  0  0  0
 19 37  1  0  0  0  0
 21 22  1  0  0  0  0
 21 30  1  0  0  0  0
 21 31  1  0  0  0  0
 22 23  1  0  0  0  0
 22 24  2  0  0  0  0
 23 25  2  0  0  0  0
 23 32  1  0  0  0  0
 24 26  1  0  0  0  0
 24 33  1  0  0  0  0
 25 27  1  0  0  0  0
 25 34  1  0  0  0  0
 26 27  2  0  0  0  0
 26 35  1  0  0  0  0
 27 36  1  0  0  0  0
 37 38  1  0  0  0  0
 37 42  1  0  0  0  0
 38 39  1  0  0  0  0
 38 41  1  0  0  0  0
 38 43  1  0  0  0  0
 39 40  2  0  0  0  0
 39 47  1  0  0  0  0
 41 44  1  0  0  0  0
 41 45  1  0  0  0  0
 41 46  1  0  0  0  0
 47 48  1  0  0  0  0
 47 49  1  0  0  0  0
 48 50  1  0  0  0  0
 48 51  1  0  0  0  0
 48 52  1  0  0  0  0
M  END
$$$$

  -OEChem-05262217163D

 52 52  0     1  0  0  0  0  0999 V2000
   -2.4412    0.2734    4.3185 C   0  0  0  0  0  0  0  0  0  0  0  0
   -3.5475    0.0822    3.8381 O   0  0  0  0  0  0  0  0  0  0  0  0
   -2.0782   -0.3413    5.6571 C   0  0  0  0  0  0  0  0  0  0  0  0
   -2.9349   -0.8830    6.0678 H   0  0  0  0  0  0  0  0  0  0  0  0
   -1.2468   -1.0394    5.5331 H   0  0  0  0  0  0  0  0  0  0  0  0
   -1.7867    0.4415    6.3616 H   0  0  0  0  0  0  0  0  0  0  0  0
   -1.5134    1.0346    3.6387 N   0  0  0  0  0  0  0  0  0  0  0  0
   -1.6835    1.4983    2.2555 C   0  0  2  0  0  0  0  0  0  0  0  0
   -0.4149    1.2560    1.4133 C   0  0  0  0  0  0  0  0  0  0  0  0
    0.6754    1.1454    1.9602 O   0  0  0  0  0  0  0  0  0  0  0  0
   -2.0297    2.9887    2.2916 C   0  0  0  0  0  0  0  0  0  0  0  0
   -0.5635    1.0413    4.0083 H   0  0  0  0  0  0  0  0  0  0  0  0
   -2.5016    0.9535    1.7726 H   0  0  0  0  0  0  0  0  0  0  0  0
   -1.2175    3.5601    2.7526 H   0  0  0  0  0  0  0  0  0  0  0  0
   -2.1928    3.3706    1.2793 H   0  0  0  0  0  0  0  0  0  0  0  0
   -2.9433    3.1498    2.8728 H   0  0  0  0  0  0  0  0  0  0  0  0
   -0.5041    1.1701    0.0356 N   0  0  0  0  0  0  0  0  0  0  0  0
    0.6055    0.6950   -0.8096 C   0  0  2  0  0  0  0  0  0  0  0  0
    1.5179    1.8540   -1.2473 C   0  0  0  0  0  0  0  0  0  0  0  0
    2.7163    1.8355   -0.9993 O   0  0  0  0  0  0  0  0  0  0  0  0
    0.0377   -0.0324   -2.0400 C   0  0  0  0  0  0  0  0  0  0  0  0
   -0.6552   -1.3101   -1.6319 C   0  0  0  0  0  0  0  0  0  0  0  0
    0.0936   -2.4696   -1.3810 C   0  0  0  0  0  0  0  0  0  0  0  0
   -2.0517   -1.3575   -1.4956 C   0  0  0  0  0  0  0  0  0  0  0  0
   -0.5400   -3.6532   -0.9883 C   0  0  0  0  0  0  0  0  0  0  0  0
   -2.6858   -2.5401   -1.0995 C   0  0  0  0  0  0  0  0  0  0  0  0
   -1.9298   -3.6881   -0.8446 C   0  0  0  0  0  0  0  0  0  0  0  0
   -1.4456    1.0889   -0.3359 H   0  0  0  0  0  0  0  0  0  0  0  0
    1.2290   -0.0113   -0.2478 H   0  0  0  0  0  0  0  0  0  0  0  0
    0.8545   -0.2750   -2.7289 H   0  0  0  0  0  0  0  0  0  0  0  0
   -0.6576    0.6188   -2.5792 H   0  0  0  0  0  0  0  0  0  0  0  0
    1.1750   -2.4537   -1.4841 H   0  0  0  0  0  0  0  0  0  0  0  0
   -2.6552   -0.4787   -1.6985 H   0  0  0  0  0  0  0  0  0  0  0  0
    0.0480   -4.5452   -0.7927 H   0  0  0  0  0  0  0  0  0  0  0  0
   -3.7662   -2.5697   -0.9903 H   0  0  0  0  0  0  0  0  0  0  0  0
   -2.4212   -4.6068   -0.5366 H   0  0  0  0  0  0  0  0  0  0  0  0
    1.0056    2.9064   -1.9853 N   0  0  0  0  0  0  0  0  0  0  0  0
    1.7800    4.1115   -2.3171 C   0  0  2  0  0  0  0  0  0  0  0  0
    1.9511    5.0409   -1.0908 C   0  0  0  0  0  0  0  0  0  0  0  0
    1.4264    6.1473   -1.0463 O   0  0  0  0  0  0  0  0  0  0  0  0
    1.0782    4.7979   -3.4955 C   0  0  0  0  0  0  0  0  0  0  0  0
   -0.0064    2.9649   -2.0382 H   0  0  0  0  0  0  0  0  0  0  0  0
    2.7841    3.8255   -2.6488 H   0  0  0  0  0  0  0  0  0  0  0  0
    0.0681    5.1123   -3.2138 H   0  0  0  0  0  0  0  0  0  0  0  0
    1.6414    5.6834   -3.8073 H   0  0  0  0  0  0  0  0  0  0  0  0
    1.0087    4.1158   -4.3483 H   0  0  0  0  0  0  0  0  0  0  0  0
    2.6662    4.5893    0.0007 N   0  0  0  0  0  0  0  0  0  0  0  0
    2.7875    5.3230    1.2525 C   0  0  0  0  0  0  0  0  0  0  0  0
    2.9869    3.6176   -0.0411 H   0  0  0  0  0  0  0  0  0  0  0  0
    3.2550    6.2980    1.0802 H   0  0  0  0  0  0  0  0  0  0  0  0
    1.8016    5.4776    1.7024 H   0  0  0  0  0  0  0  0  0  0  0  0
    3.4074    4.7627    1.9592 H   0  0  0  0  0  0  0  0  0  0  0  0
  1  2  2  0  0  0  0
  1  3  1  0  0  0  0
  1  7  1  0  0  0  0
  3  4  1  0  0  0  0
  3  5  1  0  0  0  0
  3  6  1  0  0  0  0
  7  8  1  0  0  0  0
  7 12  1  0  0  0  0
  8  9  1  0  0  0  0
  8 11  1  0  0  0  0
  8 13  1  0  0  0  0
  9 10  2  0  0  0  0
  9 17  1  0  0  0  0
 11 14  1  0  0  0  0
 11 15  1  0  0  0  0
 11 16  1  0  0  0  0
 17 18  1  0  0  0  0
 17 28  1  0  0  0  0
 18 19  1  0  0  0  0
 18 21  1  0  0  0  0
 18 29  1  0  0  0  0
 19 20  2  0  0  0  0
 19 37  1  0  0  0  0
 21 22  1  0  0  0  0
 21 30  1  0  0  0  0
 21 31  1  0  0  0  0
 22 23  1  0  0  0  0
 22 24  2  0  0  0  0
 23 25  2  0  0  0  0
 23 32  1  0  0  0  0
 24 26  1  0  0  0  0
 24 33  1  0  0  0  0
 25 27  1  0  0  0  0
 25 34  1  0  0  0  0
 26 27  2  0  0  0  0
 26 35  1  0  0  0  0
 27 36  1  0  0  0  0
 37 38  1  0  0  0  0
 37 42  1  0  0  0  0
 38 39  1  0  0  0  0
 38 41  1  0  0  0  0
 38 43  1  0  0  0  0
 39 40  2  0  0  0  0
 39 47  1  0  0  0  0
 41 44  1  0  0  0  0
 41 45  1  0  0  0  0
 41 46  1  0  0  0  0
 47 48  1  0  0  0  0
 47 49  1  0  0  0  0
 48 50  1  0  0  0  0
 48 51  1  0  0  0  0
 48 52  1  0  0  0  0
M  END
$$$$

  -OEChem-05262217163D

 52 52  0     1  0  0  0  0  0999 V2000
   -2.5281    0.1684    4.4212 C   0  0  0  0  0  0  0  0  0  0  0  0
   -3.6486   -0.0103    3.9703 O   0  0  0  0  0  0  0  0  0  0  0  0
   -2.1492   -0.4102    5.7715 C   0  0  0  0  0  0  0  0  0  0  0  0
   -3.0136   -0.9012    6.2274 H   0  0  0  0  0  0  0  0  0  0  0  0
   -1.3492   -1.1449    5.6514 H   0  0  0  0  0  0  0  0  0  0  0  0
   -1.8070    0.3862    6.4366 H   0  0  0  0  0  0  0  0  0  0  0  0
   -1.6002    0.8841    3.6944 N   0  0  0  0  0  0  0  0  0  0  0  0
   -1.8089    1.3499    2.3175 C   0  0  2  0  0  0  0  0  0  0  0  0
   -0.5214    1.2381    1.4764 C   0  0  0  0  0  0  0  0  0  0  0  0
    0.5730    1.1996    2.0255 O   0  0  0  0  0  0  0  0  0  0  0  0
   -2.2919    2.8015    2.3694 C   0  0  0  0  0  0  0  0  0  0  0  0
   -0.6448    0.9081    4.0493 H   0  0  0  0  0  0  0  0  0  0  0  0
   -2.5720    0.7351    1.8280 H   0  0  0  0  0  0  0  0  0  0  0  0
   -1.5411    3.4381    2.8488 H   0  0  0  0  0  0  0  0  0  0  0  0
   -2.4778    3.1809    1.3601 H   0  0  0  0  0  0  0  0  0  0  0  0
   -3.2232    2.8695    2.9410 H   0  0  0  0  0  0  0  0  0  0  0  0
   -0.5936    1.1805    0.0960 N   0  0  0  0  0  0  0  0  0  0  0  0
    0.5541    0.7731   -0.7351 C   0  0  2  0  0  0  0  0  0  0  0  0
    1.4328    1.9683   -1.1412 C   0  0  0  0  0  0  0  0  0  0  0  0
    2.6516    1.8598   -1.1798 O   0  0  0  0  0  0  0  0  0  0  0  0
    0.0427    0.0611   -1.9970 C   0  0  0  0  0  0  0  0  0  0  0  0
   -0.6091   -1.2525   -1.6405 C   0  0  0  0  0  0  0  0  0  0  0  0
    0.1789   -2.3885   -1.4044 C   0  0  0  0  0  0  0  0  0  0  0  0
   -2.0056   -1.3579   -1.5413 C   0  0  0  0  0  0  0  0  0  0  0  0
   -0.4166   -3.6065   -1.0609 C   0  0  0  0  0  0  0  0  0  0  0  0
   -2.6015   -2.5757   -1.1966 C   0  0  0  0  0  0  0  0  0  0  0  0
   -1.8072   -3.7000   -0.9547 C   0  0  0  0  0  0  0  0  0  0  0  0
   -1.5226    1.0200   -0.2828 H   0  0  0  0  0  0  0  0  0  0  0  0
    1.1932    0.0775   -0.1780 H   0  0  0  0  0  0  0  0  0  0  0  0
    0.8838   -0.1315   -2.6725 H   0  0  0  0  0  0  0  0  0  0  0  0
   -0.6623    0.7034   -2.5342 H   0  0  0  0  0  0  0  0  0  0  0  0
    1.2609   -2.3272   -1.4808 H   0  0  0  0  0  0  0  0  0  0  0  0
   -2.6394   -0.4988   -1.7369 H   0  0  0  0  0  0  0  0  0  0  0  0
    0.2024   -4.4795   -0.8756 H   0  0  0  0  0  0  0  0  0  0  0  0
   -3.6823   -2.6513   -1.1189 H   0  0  0  0  0  0  0  0  0  0  0  0
   -2.2700   -4.6457   -0.6876 H   0  0  0  0  0  0  0  0  0  0  0  0
    0.8507    3.1376   -1.5954 N   0  0  0  0  0  0  0  0  0  0  0  0
    1.6147    4.3295   -1.9912 C   0  0  2  0  0  0  0  0  0  0  0  0
    2.1604    5.1040   -0.7675 C   0  0  0  0  0  0  0  0  0  0  0  0
    1.7691    6.2329   -0.4952 O   0  0  0  0  0  0  0  0  0  0  0  0
    0.7053    5.1825   -2.8844 C   0  0  0  0  0  0  0  0  0  0  0  0
   -0.1410    3.2451   -1.4073 H   0  0  0  0  0  0  0  0  0  0  0  0
    2.4800    4.0280   -2.5910 H   0  0  0  0  0  0  0  0  0  0  0  0
   -0.1789    5.5140   -2.3308 H   0  0  0  0  0  0  0  0  0  0  0  0
    1.2441    6.0679   -3.2369 H   0  0  0  0  0  0  0  0  0  0  0  0
    0.3788    4.6079   -3.7564 H   0  0  0  0  0  0  0  0  0  0  0  0
    3.0869    4.4922    0.0530 N   0  0  0  0  0  0  0  0  0  0  0  0
    3.5868    5.0756    1.2897 C   0  0  0  0  0  0  0  0  0  0  0  0
    3.2954    3.5123   -0.1572 H   0  0  0  0  0  0  0  0  0  0  0  0
    4.0538    6.0465    1.0939 H   0  0  0  0  0  0  0  0  0  0  0  0
    2.7694    5.2134    2.0050 H   0  0  0  0  0  0  0  0  0  0  0  0
    4.3358    4.4176    1.7405 H   0  0  0  0  0  0  0  0  0  0  0  0
  1  2  2  0  0  0  0
  1  3  1  0  0  0  0
  1  7  1  0  0  0  0
  3  4  1  0  0  0  0
  3  5  1  0  0  0  0
  3  6  1  0  0  0  0
  7  8  1  0  0  0  0
  7 12  1  0  0  0  0
  8  9  1  0  0  0  0
  8 11  1  0  0  0  0
  8 13  1  0  0  0  0
  9 10  2  0  0  0  0
  9 17  1  0  0  0  0
 11 14  1  0  0  0  0
 11 15  1  0  0  0  0
 11 16  1  0  0  0  0
 17 18  1  0  0  0  0
 17 28  1  0  0  0  0
 18 19  1  0  0  0  0
 18 21  1  0  0  0  0
 18 29  1  0  0  0  0
 19 20  2  0  0  0  0
 19 37  1  0  0  0  0
 21 22  1  0  0  0  0
 21 30  1  0  0  0  0
 21 31  1  0  0  0  0
 22 23  1  0  0  0  0
 22 24  2  0  0  0  0
 23 25  2  0  0  0  0
 23 32  1  0  0  0  0
 24 26  1  0  0  0  0
 24 33  1  0  0  0  0
 25 27  1  0  0  0  0
 25 34  1  0  0  0  0
 26 27  2  0  0  0  0
 26 35  1  0  0  0  0
 27 36  1  0  0  0  0
 37 38  1  0  0  0  0
 37 42  1  0  0  0  0
 38 39  1  0  0  0  0
 38 41  1  0  0  0  0
 38 43  1  0  0  0  0
 39 40  2  0  0  0  0
 39 47  1  0  0  0  0
 41 44  1  0  0  0  0
 41 45  1  0  0  0  0
 41 46  1  0  0  0  0
 47 48  1  0  0  0  0
 47 49  1  0  0  0  0
 48 50  1  0  0  0  0
 48 51  1  0  0  0  0
 48 52  1  0  0  0  0
M  END
$$$$

  -OEChem-05262217163D

 52 52  0     1  0  0  0  0  0999 V2000
   -2.5341    0.0861    4.4483 C   0  0  0  0  0  0  0  0  0  0  0  0
   -3.6436   -0.1492    3.9960 O   0  0  0  0  0  0  0  0  0  0  0  0
   -2.1271   -0.4731    5.7987 C   0  0  0  0  0  0  0  0  0  0  0  0
   -2.9743   -0.9818    6.2676 H   0  0  0  0  0  0  0  0  0  0  0  0
   -1.3112   -1.1895    5.6747 H   0  0  0  0  0  0  0  0  0  0  0  0
   -1.7964    0.3360    6.4546 H   0  0  0  0  0  0  0  0  0  0  0  0
   -1.6423    0.8474    3.7225 N   0  0  0  0  0  0  0  0  0  0  0  0
   -1.8690    1.2937    2.3420 C   0  0  2  0  0  0  0  0  0  0  0  0
   -0.5752    1.2360    1.5049 C   0  0  0  0  0  0  0  0  0  0  0  0
    0.5186    1.2452    2.0564 O   0  0  0  0  0  0  0  0  0  0  0  0
   -2.4178    2.7223    2.3846 C   0  0  0  0  0  0  0  0  0  0  0  0
   -0.6898    0.9175    4.0793 H   0  0  0  0  0  0  0  0  0  0  0  0
   -2.6019    0.6415    1.8551 H   0  0  0  0  0  0  0  0  0  0  0  0
   -1.6975    3.3949    2.8621 H   0  0  0  0  0  0  0  0  0  0  0  0
   -2.6197    3.0886    1.3735 H   0  0  0  0  0  0  0  0  0  0  0  0
   -3.3524    2.7509    2.9544 H   0  0  0  0  0  0  0  0  0  0  0  0
   -0.6353    1.1895    0.1234 N   0  0  0  0  0  0  0  0  0  0  0  0
    0.5332    0.8146   -0.6956 C   0  0  2  0  0  0  0  0  0  0  0  0
    1.3938    2.0297   -1.0836 C   0  0  0  0  0  0  0  0  0  0  0  0
    2.5785    1.8875   -1.3591 O   0  0  0  0  0  0  0  0  0  0  0  0
    0.0474    0.1105   -1.9726 C   0  0  0  0  0  0  0  0  0  0  0  0
   -0.5871   -1.2184   -1.6420 C   0  0  0  0  0  0  0  0  0  0  0  0
    0.2156   -2.3452   -1.4121 C   0  0  0  0  0  0  0  0  0  0  0  0
   -1.9834   -1.3476   -1.5676 C   0  0  0  0  0  0  0  0  0  0  0  0
   -0.3656   -3.5775   -1.0963 C   0  0  0  0  0  0  0  0  0  0  0  0
   -2.5653   -2.5800   -1.2516 C   0  0  0  0  0  0  0  0  0  0  0  0
   -1.7560   -3.6948   -1.0137 C   0  0  0  0  0  0  0  0  0  0  0  0
   -1.5532    0.9872   -0.2631 H   0  0  0  0  0  0  0  0  0  0  0  0
    1.1799    0.1258   -0.1390 H   0  0  0  0  0  0  0  0  0  0  0  0
    0.8987   -0.0599   -2.6412 H   0  0  0  0  0  0  0  0  0  0  0  0
   -0.6614    0.7495   -2.5097 H   0  0  0  0  0  0  0  0  0  0  0  0
    1.2975   -2.2651   -1.4721 H   0  0  0  0  0  0  0  0  0  0  0  0
   -2.6272   -0.4953   -1.7611 H   0  0  0  0  0  0  0  0  0  0  0  0
    0.2640   -4.4435   -0.9146 H   0  0  0  0  0  0  0  0  0  0  0  0
   -3.6462   -2.6738   -1.1931 H   0  0  0  0  0  0  0  0  0  0  0  0
   -2.2067   -4.6520   -0.7679 H   0  0  0  0  0  0  0  0  0  0  0  0
    0.8142    3.2749   -1.2405 N   0  0  0  0  0  0  0  0  0  0  0  0
    1.5608    4.4886   -1.6028 C   0  0  2  0  0  0  0  0  0  0  0  0
    2.3685    5.0574   -0.4113 C   0  0  0  0  0  0  0  0  0  0  0  0
    2.1210    6.1588    0.0658 O   0  0  0  0  0  0  0  0  0  0  0  0
    0.5525    5.4917   -2.1758 C   0  0  0  0  0  0  0  0  0  0  0  0
   -0.1195    3.3805   -0.8553 H   0  0  0  0  0  0  0  0  0  0  0  0
    2.2811    4.2531   -2.3937 H   0  0  0  0  0  0  0  0  0  0  0  0
   -0.1924    5.7638   -1.4213 H   0  0  0  0  0  0  0  0  0  0  0  0
    1.0668    6.4029   -2.4981 H   0  0  0  0  0  0  0  0  0  0  0  0
    0.0371    5.0623   -3.0402 H   0  0  0  0  0  0  0  0  0  0  0  0
    3.3812    4.2949    0.1357 N   0  0  0  0  0  0  0  0  0  0  0  0
    4.1367    4.6781    1.3197 C   0  0  0  0  0  0  0  0  0  0  0  0
    3.4819    3.3473   -0.2374 H   0  0  0  0  0  0  0  0  0  0  0  0
    4.6464    5.6331    1.1559 H   0  0  0  0  0  0  0  0  0  0  0  0
    3.4702    4.7757    2.1828 H   0  0  0  0  0  0  0  0  0  0  0  0
    4.8913    3.9191    1.5470 H   0  0  0  0  0  0  0  0  0  0  0  0
  1  2  2  0  0  0  0
  1  3  1  0  0  0  0
  1  7  1  0  0  0  0
  3  4  1  0  0  0  0
  3  5  1  0  0  0  0
  3  6  1  0  0  0  0
  7  8  1  0  0  0  0
  7 12  1  0  0  0  0
  8  9  1  0  0  0  0
  8 11  1  0  0  0  0
  8 13  1  0  0  0  0
  9 10  2  0  0  0  0
  9 17  1  0  0  0  0
 11 14  1  0  0  0  0
 11 15  1  0  0  0  0
 11 16  1  0  0  0  0
 17 18  1  0  0  0  0
 17 28  1  0  0  0  0
 18 19  1  0  0  0  0
 18 21  1  0  0  0  0
 18 29  1  0  0  0  0
 19 20  2  0  0  0  0
 19 37  1  0  0  0  0
 21 22  1  0  0  0  0
 21 30  1  0  0  0  0
 21 31  1  0  0  0  0
 22 23  1  0  0  0  0
 22 24  2  0  0  0  0
 23 25  2  0  0  0  0
 23 32  1  0  0  0  0
 24 26  1  0  0  0  0
 24 33  1  0  0  0  0
 25 27  1  0  0  0  0
 25 34  1  0  0  0  0
 26 27  2  0  0  0  0
 26 35  1  0  0  0  0
 27 36  1  0  0  0  0
 37 38  1  0  0  0  0
 37 42  1  0  0  0  0
 38 39  1  0  0  0  0
 38 41  1  0  0  0  0
 38 43  1  0  0  0  0
 39 40  2  0  0  0  0
 39 47  1  0  0  0  0
 41 44  1  0  0  0  0
 41 45  1  0  0  0  0
 41 46  1  0  0  0  0
 47 48  1  0  0  0  0
 47 49  1  0  0  0  0
 48 50  1  0  0  0  0
 48 51  1  0  0  0  0
 48 52  1  0  0  0  0
M  END
$$$$

  -OEChem-05262217163D

 52 52  0     1  0  0  0  0  0999 V2000
   -2.5858   -0.0028    4.4561 C   0  0  0  0  0  0  0  0  0  0  0  0
   -3.6870   -0.2611    3.9964 O   0  0  0  0  0  0  0  0  0  0  0  0
   -2.1796   -0.5432    5.8141 C   0  0  0  0  0  0  0  0  0  0  0  0
   -3.0127   -1.0874    6.2679 H   0  0  0  0  0  0  0  0  0  0  0  0
   -1.3312   -1.2234    5.7063 H   0  0  0  0  0  0  0  0  0  0  0  0
   -1.8960    0.2798    6.4744 H   0  0  0  0  0  0  0  0  0  0  0  0
   -1.7035    0.7725    3.7339 N   0  0  0  0  0  0  0  0  0  0  0  0
   -1.9306    1.2147    2.3526 C   0  0  2  0  0  0  0  0  0  0  0  0
   -0.6242    1.2124    1.5337 C   0  0  0  0  0  0  0  0  0  0  0  0
    0.4624    1.2465    2.0982 O   0  0  0  0  0  0  0  0  0  0  0  0
   -2.5382    2.6193    2.3935 C   0  0  0  0  0  0  0  0  0  0  0  0
   -0.7566    0.8676    4.0995 H   0  0  0  0  0  0  0  0  0  0  0  0
   -2.6290    0.5339    1.8540 H   0  0  0  0  0  0  0  0  0  0  0  0
   -1.8528    3.3187    2.8833 H   0  0  0  0  0  0  0  0  0  0  0  0
   -2.7417    2.9805    1.3811 H   0  0  0  0  0  0  0  0  0  0  0  0
   -3.4802    2.6070    2.9512 H   0  0  0  0  0  0  0  0  0  0  0  0
   -0.6619    1.1942    0.1513 N   0  0  0  0  0  0  0  0  0  0  0  0
    0.5250    0.8544   -0.6573 C   0  0  2  0  0  0  0  0  0  0  0  0
    1.3782    2.0885   -1.0108 C   0  0  0  0  0  0  0  0  0  0  0  0
    2.4898    1.9507   -1.5065 O   0  0  0  0  0  0  0  0  0  0  0  0
    0.0544    0.1633   -1.9486 C   0  0  0  0  0  0  0  0  0  0  0  0
   -0.5639   -1.1802   -1.6425 C   0  0  0  0  0  0  0  0  0  0  0  0
    0.2510   -2.3012   -1.4263 C   0  0  0  0  0  0  0  0  0  0  0  0
   -1.9586   -1.3275   -1.5777 C   0  0  0  0  0  0  0  0  0  0  0  0
   -0.3171   -3.5453   -1.1328 C   0  0  0  0  0  0  0  0  0  0  0  0
   -2.5275   -2.5715   -1.2856 C   0  0  0  0  0  0  0  0  0  0  0  0
   -1.7068   -3.6806   -1.0611 C   0  0  0  0  0  0  0  0  0  0  0  0
   -1.5702    0.9903   -0.2569 H   0  0  0  0  0  0  0  0  0  0  0  0
    1.1742    0.1639   -0.1061 H   0  0  0  0  0  0  0  0  0  0  0  0
    0.9096    0.0125   -2.6169 H   0  0  0  0  0  0  0  0  0  0  0  0
   -0.6593    0.8027   -2.4785 H   0  0  0  0  0  0  0  0  0  0  0  0
    1.3321   -2.2074   -1.4807 H   0  0  0  0  0  0  0  0  0  0  0  0
   -2.6110   -0.4798   -1.7614 H   0  0  0  0  0  0  0  0  0  0  0  0
    0.3220   -4.4066   -0.9613 H   0  0  0  0  0  0  0  0  0  0  0  0
   -3.6073   -2.6790   -1.2366 H   0  0  0  0  0  0  0  0  0  0  0  0
   -2.1483   -4.6474   -0.8356 H   0  0  0  0  0  0  0  0  0  0  0  0
    0.8691    3.3648   -0.8566 N   0  0  0  0  0  0  0  0  0  0  0  0
    1.6054    4.5958   -1.1813 C   0  0  2  0  0  0  0  0  0  0  0  0
    2.6613    4.9556   -0.1083 C   0  0  0  0  0  0  0  0  0  0  0  0
    2.6015    6.0003    0.5296 O   0  0  0  0  0  0  0  0  0  0  0  0
    0.5696    5.7067   -1.3950 C   0  0  0  0  0  0  0  0  0  0  0  0
    0.0284    3.4390   -0.2914 H   0  0  0  0  0  0  0  0  0  0  0  0
    2.1439    4.4590   -2.1251 H   0  0  0  0  0  0  0  0  0  0  0  0
    0.0051    5.8907   -0.4752 H   0  0  0  0  0  0  0  0  0  0  0  0
    1.0679    6.6372   -1.6861 H   0  0  0  0  0  0  0  0  0  0  0  0
   -0.1313    5.4283   -2.1879 H   0  0  0  0  0  0  0  0  0  0  0  0
    3.6979    4.0765    0.1329 N   0  0  0  0  0  0  0  0  0  0  0  0
    4.7054    4.2713    1.1660 C   0  0  0  0  0  0  0  0  0  0  0  0
    3.6617    3.1881   -0.3732 H   0  0  0  0  0  0  0  0  0  0  0  0
    5.2366    5.2158    1.0092 H   0  0  0  0  0  0  0  0  0  0  0  0
    4.2394    4.2882    2.1568 H   0  0  0  0  0  0  0  0  0  0  0  0
    5.4351    3.4564    1.1386 H   0  0  0  0  0  0  0  0  0  0  0  0
  1  2  2  0  0  0  0
  1  3  1  0  0  0  0
  1  7  1  0  0  0  0
  3  4  1  0  0  0  0
  3  5  1  0  0  0  0
  3  6  1  0  0  0  0
  7  8  1  0  0  0  0
  7 12  1  0  0  0  0
  8  9  1  0  0  0  0
  8 11  1  0  0  0  0
  8 13  1  0  0  0  0
  9 10  2  0  0  0  0
  9 17  1  0  0  0  0
 11 14  1  0  0  0  0
 11 15  1  0  0  0  0
 11 16  1  0  0  0  0
 17 18  1  0  0  0  0
 17 28  1  0  0  0  0
 18 19  1  0  0  0  0
 18 21  1  0  0  0  0
 18 29  1  0  0  0  0
 19 20  2  0  0  0  0
 19 37  1  0  0  0  0
 21 22  1  0  0  0  0
 21 30  1  0  0  0  0
 21 31  1  0  0  0  0
 22 23  1  0  0  0  0
 22 24  2  0  0  0  0
 23 25  2  0  0  0  0
 23 32  1  0  0  0  0
 24 26  1  0  0  0  0
 24 33  1  0  0  0  0
 25 27  1  0  0  0  0
 25 34  1  0  0  0  0
 26 27  2  0  0  0  0
 26 35  1  0  0  0  0
 27 36  1  0  0  0  0
 37 38  1  0  0  0  0
 37 42  1  0  0  0  0
 38 39  1  0  0  0  0
 38 41  1  0  0  0  0
 38 43  1  0  0  0  0
 39 40  2  0  0  0  0
 39 47  1  0  0  0  0
 41 44  1  0  0  0  0
 41 45  1  0  0  0  0
 41 46  1  0  0  0  0
 47 48  1  0  0  0  0
 47 49  1  0  0  0  0
 48 50  1  0  0  0  0
 48 51  1  0  0  0  0
 48 52  1  0  0  0  0
M  END
$$$$

  -OEChem-05262217163D

 52 52  0     1  0  0  0  0  0999 V2000
   -2.6614   -0.0559    4.4789 C   0  0  0  0  0  0  0  0  0  0  0  0
   -3.7582   -0.3213    4.0129 O   0  0  0  0  0  0  0  0  0  0  0  0
   -2.2747   -0.5593    5.8566 C   0  0  0  0  0  0  0  0  0  0  0  0
   -3.1183   -1.0798    6.3184 H   0  0  0  0  0  0  0  0  0  0  0  0
   -1.4336   -1.2523    5.7775 H   0  0  0  0  0  0  0  0  0  0  0  0
   -1.9878    0.2801    6.4946 H   0  0  0  0  0  0  0  0  0  0  0  0
   -1.7665    0.6933    3.7447 N   0  0  0  0  0  0  0  0  0  0  0  0
   -1.9841    1.1124    2.3546 C   0  0  2  0  0  0  0  0  0  0  0  0
   -0.6631    1.1686    1.5611 C   0  0  0  0  0  0  0  0  0  0  0  0
    0.4123    1.2296    2.1440 O   0  0  0  0  0  0  0  0  0  0  0  0
   -2.6641    2.4846    2.3679 C   0  0  0  0  0  0  0  0  0  0  0  0
   -0.8264    0.8059    4.1227 H   0  0  0  0  0  0  0  0  0  0  0  0
   -2.6362    0.3912    1.8500 H   0  0  0  0  0  0  0  0  0  0  0  0
   -2.0275    3.2230    2.8658 H   0  0  0  0  0  0  0  0  0  0  0  0
   -2.8638    2.8263    1.3480 H   0  0  0  0  0  0  0  0  0  0  0  0
   -3.6168    2.4288    2.9047 H   0  0  0  0  0  0  0  0  0  0  0  0
   -0.6724    1.1929    0.1790 N   0  0  0  0  0  0  0  0  0  0  0  0
    0.5298    0.8884   -0.6224 C   0  0  2  0  0  0  0  0  0  0  0  0
    1.3832    2.1394   -0.9258 C   0  0  0  0  0  0  0  0  0  0  0  0
    2.3821    2.0558   -1.6305 O   0  0  0  0  0  0  0  0  0  0  0  0
    0.0735    0.2223   -1.9344 C   0  0  0  0  0  0  0  0  0  0  0  0
   -0.5334   -1.1345   -1.6644 C   0  0  0  0  0  0  0  0  0  0  0  0
    0.2912   -2.2524   -1.4696 C   0  0  0  0  0  0  0  0  0  0  0  0
   -1.9271   -1.2971   -1.6099 C   0  0  0  0  0  0  0  0  0  0  0  0
   -0.2661   -3.5079   -1.2043 C   0  0  0  0  0  0  0  0  0  0  0  0
   -2.4851   -2.5521   -1.3441 C   0  0  0  0  0  0  0  0  0  0  0  0
   -1.6545   -3.6574   -1.1382 C   0  0  0  0  0  0  0  0  0  0  0  0
   -1.5717    1.0007   -0.2537 H   0  0  0  0  0  0  0  0  0  0  0  0
    1.1759    0.1884   -0.0804 H   0  0  0  0  0  0  0  0  0  0  0  0
    0.9323    0.0931   -2.6024 H   0  0  0  0  0  0  0  0  0  0  0  0
   -0.6423    0.8675   -2.4539 H   0  0  0  0  0  0  0  0  0  0  0  0
    1.3715   -2.1482   -1.5190 H   0  0  0  0  0  0  0  0  0  0  0  0
   -2.5870   -0.4522   -1.7798 H   0  0  0  0  0  0  0  0  0  0  0  0
    0.3804   -4.3670   -1.0496 H   0  0  0  0  0  0  0  0  0  0  0  0
   -3.5641   -2.6708   -1.3001 H   0  0  0  0  0  0  0  0  0  0  0  0
   -2.0874   -4.6320   -0.9313 H   0  0  0  0  0  0  0  0  0  0  0  0
    1.0020    3.3850   -0.4625 N   0  0  0  0  0  0  0  0  0  0  0  0
    1.7329    4.6340   -0.7265 C   0  0  2  0  0  0  0  0  0  0  0  0
    3.0046    4.7815    0.1441 C   0  0  0  0  0  0  0  0  0  0  0  0
    3.1522    5.7225    0.9151 O   0  0  0  0  0  0  0  0  0  0  0  0
    0.7417    5.7890   -0.5350 C   0  0  0  0  0  0  0  0  0  0  0  0
    0.2931    3.3834    0.2657 H   0  0  0  0  0  0  0  0  0  0  0  0
    2.0608    4.6475   -1.7713 H   0  0  0  0  0  0  0  0  0  0  0  0
    0.3886    5.8262    0.5005 H   0  0  0  0  0  0  0  0  0  0  0  0
    1.2225    6.7439   -0.7704 H   0  0  0  0  0  0  0  0  0  0  0  0
   -0.1210    5.6657   -1.1965 H   0  0  0  0  0  0  0  0  0  0  0  0
    4.0087    3.8408    0.0315 N   0  0  0  0  0  0  0  0  0  0  0  0
    5.2366    3.8606    0.8137 C   0  0  0  0  0  0  0  0  0  0  0  0
    3.8206    3.0529   -0.5933 H   0  0  0  0  0  0  0  0  0  0  0  0
    5.7857    4.7919    0.6402 H   0  0  0  0  0  0  0  0  0  0  0  0
    5.0120    3.7767    1.8819 H   0  0  0  0  0  0  0  0  0  0  0  0
    5.8792    3.0227    0.5277 H   0  0  0  0  0  0  0  0  0  0  0  0
  1  2  2  0  0  0  0
  1  3  1  0  0  0  0
  1  7  1  0  0  0  0
  3  4  1  0  0  0  0
  3  5  1  0  0  0  0
  3  6  1  0  0  0  0
  7  8  1  0  0  0  0
  7 12  1  0  0  0  0
  8  9  1  0  0  0  0
  8 11  1  0  0  0  0
  8 13  1  0  0  0  0
  9 10  2  0  0  0  0
  9 17  1  0  0  0  0
 11 14  1  0  0  0  0
 11 15  1  0  0  0  0
 11 16  1  0  0  0  0
 17 18  1  0  0  0  0
 17 28  1  0  0  0  0
 18 19  1  0  0  0  0
 18 21  1  0  0  0  0
 18 29  1  0  0  0  0
 19 20  2  0  0  0  0
 19 37  1  0  0  0  0
 21 22  1  0  0  0  0
 21 30  1  0  0  0  0
 21 31  1  0  0  0  0
 22 23  1  0  0  0  0
 22 24  2  0  0  0  0
 23 25  2  0  0  0  0
 23 32  1  0  0  0  0
 24 26  1  0  0  0  0
 24 33  1  0  0  0  0
 25 27  1  0  0  0  0
 25 34  1  0  0  0  0
 26 27  2  0  0  0  0
 26 35  1  0  0  0  0
 27 36  1  0  0  0  0
 37 38  1  0  0  0  0
 37 42  1  0  0  0  0
 38 39  1  0  0  0  0
 38 41  1  0  0  0  0
 38 43  1  0  0  0  0
 39 40  2  0  0  0  0
 39 47  1  0  0  0  0
 41 44  1  0  0  0  0
 41 45  1  0  0  0  0
 41 46  1  0  0  0  0
 47 48  1  0  0  0  0
 47 49  1  0  0  0  0
 48 50  1  0  0  0  0
 48 51  1  0  0  0  0
 48 52  1  0  0  0  0
M  END
$$$$

  -OEChem-05262217163D

 52 52  0     1  0  0  0  0  0999 V2000
   -2.6921   -0.1737    4.4092 C   0  0  0  0  0  0  0  0  0  0  0  0
   -3.7641   -0.4824    3.9131 O   0  0  0  0  0  0  0  0  0  0  0  0
   -2.3143   -0.6849    5.7865 C   0  0  0  0  0  0  0  0  0  0  0  0
   -3.1356   -1.2710    6.2081 H   0  0  0  0  0  0  0  0  0  0  0  0
   -1.4270   -1.3190    5.7188 H   0  0  0  0  0  0  0  0  0  0  0  0
   -2.1037    0.1548    6.4533 H   0  0  0  0  0  0  0  0  0  0  0  0
   -1.8195    0.6339    3.7105 N   0  0  0  0  0  0  0  0  0  0  0  0
   -2.0297    1.0731    2.3251 C   0  0  2  0  0  0  0  0  0  0  0  0
   -0.6983    1.2038    1.5591 C   0  0  0  0  0  0  0  0  0  0  0  0
    0.3620    1.3274    2.1605 O   0  0  0  0  0  0  0  0  0  0  0  0
   -2.7688    2.4140    2.3522 C   0  0  0  0  0  0  0  0  0  0  0  0
   -0.8951    0.7858    4.1123 H   0  0  0  0  0  0  0  0  0  0  0  0
   -2.6394    0.3351    1.7922 H   0  0  0  0  0  0  0  0  0  0  0  0
   -2.1777    3.1668    2.8837 H   0  0  0  0  0  0  0  0  0  0  0  0
   -2.9568    2.7715    1.3353 H   0  0  0  0  0  0  0  0  0  0  0  0
   -3.7315    2.3043    2.8619 H   0  0  0  0  0  0  0  0  0  0  0  0
   -0.6778    1.2451    0.1788 N   0  0  0  0  0  0  0  0  0  0  0  0
    0.5382    0.9411   -0.6013 C   0  0  2  0  0  0  0  0  0  0  0  0
    1.4050    2.1923   -0.8682 C   0  0  0  0  0  0  0  0  0  0  0  0
    2.2648    2.1910   -1.7418 O   0  0  0  0  0  0  0  0  0  0  0  0
    0.0971    0.2745   -1.9194 C   0  0  0  0  0  0  0  0  0  0  0  0
   -0.5139   -1.0796   -1.6479 C   0  0  0  0  0  0  0  0  0  0  0  0
    0.3090   -2.1960   -1.4384 C   0  0  0  0  0  0  0  0  0  0  0  0
   -1.9078   -1.2404   -1.6000 C   0  0  0  0  0  0  0  0  0  0  0  0
   -0.2502   -3.4481   -1.1629 C   0  0  0  0  0  0  0  0  0  0  0  0
   -2.4680   -2.4922   -1.3242 C   0  0  0  0  0  0  0  0  0  0  0  0
   -1.6391   -3.5958   -1.1022 C   0  0  0  0  0  0  0  0  0  0  0  0
   -1.5667    1.0498   -0.2735 H   0  0  0  0  0  0  0  0  0  0  0  0
    1.1707    0.2369   -0.0490 H   0  0  0  0  0  0  0  0  0  0  0  0
    0.9614    0.1389   -2.5784 H   0  0  0  0  0  0  0  0  0  0  0  0
   -0.6115    0.9201   -2.4485 H   0  0  0  0  0  0  0  0  0  0  0  0
    1.3895   -2.0922   -1.4824 H   0  0  0  0  0  0  0  0  0  0  0  0
   -2.5659   -0.3965   -1.7817 H   0  0  0  0  0  0  0  0  0  0  0  0
    0.3950   -4.3059   -0.9961 H   0  0  0  0  0  0  0  0  0  0  0  0
   -3.5472   -2.6099   -1.2852 H   0  0  0  0  0  0  0  0  0  0  0  0
   -2.0738   -4.5678   -0.8867 H   0  0  0  0  0  0  0  0  0  0  0  0
    1.1953    3.3536   -0.1489 N   0  0  0  0  0  0  0  0  0  0  0  0
    1.9557    4.5984   -0.3370 C   0  0  2  0  0  0  0  0  0  0  0  0
    3.3655    4.5442    0.3008 C   0  0  0  0  0  0  0  0  0  0  0  0
    3.7167    5.3436    1.1606 O   0  0  0  0  0  0  0  0  0  0  0  0
    1.0935    5.7411    0.2132 C   0  0  0  0  0  0  0  0  0  0  0  0
    0.6682    3.2351    0.7149 H   0  0  0  0  0  0  0  0  0  0  0  0
    2.0990    4.7760   -1.4081 H   0  0  0  0  0  0  0  0  0  0  0  0
    0.9307    5.6178    1.2888 H   0  0  0  0  0  0  0  0  0  0  0  0
    1.5882    6.7031    0.0457 H   0  0  0  0  0  0  0  0  0  0  0  0
    0.1218    5.7612   -0.2893 H   0  0  0  0  0  0  0  0  0  0  0  0
    4.2594    3.5836   -0.1288 N   0  0  0  0  0  0  0  0  0  0  0  0
    5.6080    3.4284    0.3977 C   0  0  0  0  0  0  0  0  0  0  0  0
    3.9125    2.9278   -0.8331 H   0  0  0  0  0  0  0  0  0  0  0  0
    6.1967    4.3331    0.2138 H   0  0  0  0  0  0  0  0  0  0  0  0
    5.5785    3.2387    1.4756 H   0  0  0  0  0  0  0  0  0  0  0  0
    6.1082    2.5855   -0.0890 H   0  0  0  0  0  0  0  0  0  0  0  0
  1  2  2  0  0  0  0
  1  3  1  0  0  0  0
  1  7  1  0  0  0  0
  3  4  1  0  0  0  0
  3  5  1  0  0  0  0
  3  6  1  0  0  0  0
  7  8  1  0  0  0  0
  7 12  1  0  0  0  0
  8  9  1  0  0  0  0
  8 11  1  0  0  0  0
  8 13  1  0  0  0  0
  9 10  2  0  0  0  0
  9 17  1  0  0  0  0
 11 14  1  0  0  0  0
 11 15  1  0  0  0  0
 11 16  1  0  0  0  0
 17 18  1  0  0  0  0
 17 28  1  0  0  0  0
 18 19  1  0  0  0  0
 18 21  1  0  0  0  0
 18 29  1  0  0  0  0
 19 20  2  0  0  0  0
 19 37  1  0  0  0  0
 21 22  1  0  0  0  0
 21 30  1  0  0  0  0
 21 31  1  0  0  0  0
 22 23  1  0  0  0  0
 22 24  2  0  0  0  0
 23 25  2  0  0  0  0
 23 32  1  0  0  0  0
 24 26  1  0  0  0  0
 24 33  1  0  0  0  0
 25 27  1  0  0  0  0
 25 34  1  0  0  0  0
 26 27  2  0  0  0  0
 26 35  1  0  0  0  0
 27 36  1  0  0  0  0
 37 38  1  0  0  0  0
 37 42  1  0  0  0  0
 38 39  1  0  0  0  0
 38 41  1  0  0  0  0
 38 43  1  0  0  0  0
 39 40  2  0  0  0  0
 39 47  1  0  0  0  0
 41 44  1  0  0  0  0
 41 45  1  0  0  0  0
 41 46  1  0  0  0  0
 47 48  1  0  0  0  0
 47 49  1  0  0  0  0
 48 50  1  0  0  0  0
 48 51  1  0  0  0  0
 48 52  1  0  0  0  0
M  END
$$$$

  -OEChem-05262217163D

 52 52  0     1  0  0  0  0  0999 V2000
   -2.7714   -0.1245    4.4305 C   0  0  0  0  0  0  0  0  0  0  0  0
   -3.8576   -0.3835    3.9370 O   0  0  0  0  0  0  0  0  0  0  0  0
   -2.4250   -0.6268    5.8197 C   0  0  0  0  0  0  0  0  0  0  0  0
   -3.2987   -1.0980    6.2793 H   0  0  0  0  0  0  0  0  0  0  0  0
   -1.6186   -1.3617    5.7601 H   0  0  0  0  0  0  0  0  0  0  0  0
   -2.1029    0.2061    6.4494 H   0  0  0  0  0  0  0  0  0  0  0  0
   -1.8519    0.6147    3.7164 N   0  0  0  0  0  0  0  0  0  0  0  0
   -2.0366    1.0405    2.3230 C   0  0  2  0  0  0  0  0  0  0  0  0
   -0.6924    1.1527    1.5762 C   0  0  0  0  0  0  0  0  0  0  0  0
    0.3638    1.2396    2.1933 O   0  0  0  0  0  0  0  0  0  0  0  0
   -2.7665    2.3874    2.3192 C   0  0  0  0  0  0  0  0  0  0  0  0
   -0.9225    0.7274    4.1201 H   0  0  0  0  0  0  0  0  0  0  0  0
   -2.6431    0.2993    1.7908 H   0  0  0  0  0  0  0  0  0  0  0  0
   -2.1758    3.1453    2.8435 H   0  0  0  0  0  0  0  0  0  0  0  0
   -2.9411    2.7284    1.2943 H   0  0  0  0  0  0  0  0  0  0  0  0
   -3.7357    2.2943    2.8198 H   0  0  0  0  0  0  0  0  0  0  0  0
   -0.6524    1.2335    0.1980 N   0  0  0  0  0  0  0  0  0  0  0  0
    0.5659    0.9410   -0.5828 C   0  0  2  0  0  0  0  0  0  0  0  0
    1.4352    2.2023   -0.7946 C   0  0  0  0  0  0  0  0  0  0  0  0
    2.1138    2.3575   -1.8039 O   0  0  0  0  0  0  0  0  0  0  0  0
    0.1373    0.3029   -1.9188 C   0  0  0  0  0  0  0  0  0  0  0  0
   -0.4781   -1.0558   -1.6824 C   0  0  0  0  0  0  0  0  0  0  0  0
    0.3403   -2.1785   -1.4884 C   0  0  0  0  0  0  0  0  0  0  0  0
   -1.8726   -1.2144   -1.6547 C   0  0  0  0  0  0  0  0  0  0  0  0
   -0.2252   -3.4355   -1.2495 C   0  0  0  0  0  0  0  0  0  0  0  0
   -2.4390   -2.4710   -1.4161 C   0  0  0  0  0  0  0  0  0  0  0  0
   -1.6151   -3.5814   -1.2102 C   0  0  0  0  0  0  0  0  0  0  0  0
   -1.5412    1.0921   -0.2740 H   0  0  0  0  0  0  0  0  0  0  0  0
    1.1906    0.2206   -0.0428 H   0  0  0  0  0  0  0  0  0  0  0  0
    1.0087    0.1791   -2.5712 H   0  0  0  0  0  0  0  0  0  0  0  0
   -0.5644    0.9611   -2.4415 H   0  0  0  0  0  0  0  0  0  0  0  0
    1.4216   -2.0769   -1.5161 H   0  0  0  0  0  0  0  0  0  0  0  0
   -2.5259   -0.3644   -1.8244 H   0  0  0  0  0  0  0  0  0  0  0  0
    0.4161   -4.2984   -1.0941 H   0  0  0  0  0  0  0  0  0  0  0  0
   -3.5190   -2.5866   -1.3938 H   0  0  0  0  0  0  0  0  0  0  0  0
   -2.0545   -4.5572   -1.0244 H   0  0  0  0  0  0  0  0  0  0  0  0
    1.4274    3.2030    0.1581 N   0  0  0  0  0  0  0  0  0  0  0  0
    2.2025    4.4493    0.0732 C   0  0  2  0  0  0  0  0  0  0  0  0
    3.7062    4.2454    0.3809 C   0  0  0  0  0  0  0  0  0  0  0  0
    4.2637    4.8308    1.3017 O   0  0  0  0  0  0  0  0  0  0  0  0
    1.5318    5.4580    1.0133 C   0  0  0  0  0  0  0  0  0  0  0  0
    1.0413    2.9312    1.0642 H   0  0  0  0  0  0  0  0  0  0  0  0
    2.1380    4.8475   -0.9447 H   0  0  0  0  0  0  0  0  0  0  0  0
    1.5673    5.1009    2.0477 H   0  0  0  0  0  0  0  0  0  0  0  0
    2.0441    6.4239    0.9626 H   0  0  0  0  0  0  0  0  0  0  0  0
    0.4860    5.6076    0.7287 H   0  0  0  0  0  0  0  0  0  0  0  0
    4.4466    3.4005   -0.4220 N   0  0  0  0  0  0  0  0  0  0  0  0
    5.8641    3.1266   -0.2338 C   0  0  0  0  0  0  0  0  0  0  0  0
    3.9326    2.9166   -1.1627 H   0  0  0  0  0  0  0  0  0  0  0  0
    6.4469    4.0495   -0.3218 H   0  0  0  0  0  0  0  0  0  0  0  0
    6.0418    2.6889    0.7541 H   0  0  0  0  0  0  0  0  0  0  0  0
    6.2149    2.4221   -0.9939 H   0  0  0  0  0  0  0  0  0  0  0  0
  1  2  2  0  0  0  0
  1  3  1  0  0  0  0
  1  7  1  0  0  0  0
  3  4  1  0  0  0  0
  3  5  1  0  0  0  0
  3  6  1  0  0  0  0
  7  8  1  0  0  0  0
  7 12  1  0  0  0  0
  8  9  1  0  0  0  0
  8 11  1  0  0  0  0
  8 13  1  0  0  0  0
  9 10  2  0  0  0  0
  9 17  1  0  0  0  0
 11 14  1  0  0  0  0
 11 15  1  0  0  0  0
 11 16  1  0  0  0  0
 17 18  1  0  0  0  0
 17 28  1  0  0  0  0
 18 19  1  0  0  0  0
 18 21  1  0  0  0  0
 18 29  1  0  0  0  0
 19 20  2  0  0  0  0
 19 37  1  0  0  0  0
 21 22  1  0  0  0  0
 21 30  1  0  0  0  0
 21 31  1  0  0  0  0
 22 23  1  0  0  0  0
 22 24  2  0  0  0  0
 23 25  2  0  0  0  0
 23 32  1  0  0  0  0
 24 26  1  0  0  0  0
 24 33  1  0  0  0  0
 25 27  1  0  0  0  0
 25 34  1  0  0  0  0
 26 27  2  0  0  0  0
 26 35  1  0  0  0  0
 27 36  1  0  0  0  0
 37 38  1  0  0  0  0
 37 42  1  0  0  0  0
 38 39  1  0  0  0  0
 38 41  1  0  0  0  0
 38 43  1  0  0  0  0
 39 40  2  0  0  0  0
 39 47  1  0  0  0  0
 41 44  1  0  0  0  0
 41 45  1  0  0  0  0
 41 46  1  0  0  0  0
 47 48  1  0  0  0  0
 47 49  1  0  0  0  0
 48 50  1  0  0  0  0
 48 51  1  0  0  0  0
 48 52  1  0  0  0  0
M  END
$$$$

  -OEChem-05262217163D

 52 52  0     1  0  0  0  0  0999 V2000
   -2.8237   -0.1589    4.3684 C   0  0  0  0  0  0  0  0  0  0  0  0
   -3.9115   -0.3578    3.8513 O   0  0  0  0  0  0  0  0  0  0  0  0
   -2.5065   -0.7486    5.7295 C   0  0  0  0  0  0  0  0  0  0  0  0
   -3.3987   -1.2177    6.1539 H   0  0  0  0  0  0  0  0  0  0  0  0
   -1.7220   -1.5034    5.6344 H   0  0  0  0  0  0  0  0  0  0  0  0
   -2.1668    0.0379    6.4080 H   0  0  0  0  0  0  0  0  0  0  0  0
   -1.8760    0.5927    3.7061 N   0  0  0  0  0  0  0  0  0  0  0  0
   -2.0311    1.0974    2.3358 C   0  0  2  0  0  0  0  0  0  0  0  0
   -0.6809    1.1591    1.5954 C   0  0  0  0  0  0  0  0  0  0  0  0
    0.3753    1.1880    2.2199 O   0  0  0  0  0  0  0  0  0  0  0  0
   -2.6714    2.4872    2.3996 C   0  0  0  0  0  0  0  0  0  0  0  0
   -0.9466    0.6485    4.1210 H   0  0  0  0  0  0  0  0  0  0  0  0
   -2.6829    0.4254    1.7670 H   0  0  0  0  0  0  0  0  0  0  0  0
   -2.0347    3.1770    2.9630 H   0  0  0  0  0  0  0  0  0  0  0  0
   -2.8173    2.8903    1.3928 H   0  0  0  0  0  0  0  0  0  0  0  0
   -3.6473    2.4322    2.8927 H   0  0  0  0  0  0  0  0  0  0  0  0
   -0.6343    1.2463    0.2176 N   0  0  0  0  0  0  0  0  0  0  0  0
    0.5841    0.9521   -0.5590 C   0  0  2  0  0  0  0  0  0  0  0  0
    1.4499    2.2175   -0.7539 C   0  0  0  0  0  0  0  0  0  0  0  0
    1.9623    2.4995   -1.8317 O   0  0  0  0  0  0  0  0  0  0  0  0
    0.1604    0.3192   -1.8994 C   0  0  0  0  0  0  0  0  0  0  0  0
   -0.4601   -1.0395   -1.6732 C   0  0  0  0  0  0  0  0  0  0  0  0
    0.3559   -2.1641   -1.4804 C   0  0  0  0  0  0  0  0  0  0  0  0
   -1.8550   -1.1970   -1.6519 C   0  0  0  0  0  0  0  0  0  0  0  0
   -0.2112   -3.4224   -1.2535 C   0  0  0  0  0  0  0  0  0  0  0  0
   -2.4232   -2.4548   -1.4225 C   0  0  0  0  0  0  0  0  0  0  0  0
   -1.6012   -3.5674   -1.2206 C   0  0  0  0  0  0  0  0  0  0  0  0
   -1.5237    1.1398   -0.2621 H   0  0  0  0  0  0  0  0  0  0  0  0
    1.2056    0.2268   -0.0216 H   0  0  0  0  0  0  0  0  0  0  0  0
    1.0363    0.1976   -2.5462 H   0  0  0  0  0  0  0  0  0  0  0  0
   -0.5377    0.9806   -2.4233 H   0  0  0  0  0  0  0  0  0  0  0  0
    1.4371   -2.0633   -1.5023 H   0  0  0  0  0  0  0  0  0  0  0  0
   -2.5064   -0.3449   -1.8187 H   0  0  0  0  0  0  0  0  0  0  0  0
    0.4287   -4.2871   -1.1029 H   0  0  0  0  0  0  0  0  0  0  0  0
   -3.5033   -2.5700   -1.4046 H   0  0  0  0  0  0  0  0  0  0  0  0
   -2.0415   -4.5444   -1.0428 H   0  0  0  0  0  0  0  0  0  0  0  0
    1.6757    3.0491    0.3256 N   0  0  0  0  0  0  0  0  0  0  0  0
    2.4983    4.2670    0.2940 C   0  0  2  0  0  0  0  0  0  0  0  0
    4.0163    3.9623    0.3020 C   0  0  0  0  0  0  0  0  0  0  0  0
    4.7528    4.3663    1.1939 O   0  0  0  0  0  0  0  0  0  0  0  0
    2.0564    5.1392    1.4754 C   0  0  0  0  0  0  0  0  0  0  0  0
    1.3610    2.6912    1.2311 H   0  0  0  0  0  0  0  0  0  0  0  0
    2.2894    4.8219   -0.6266 H   0  0  0  0  0  0  0  0  0  0  0  0
    2.2495    4.6287    2.4247 H   0  0  0  0  0  0  0  0  0  0  0  0
    2.6050    6.0865    1.4739 H   0  0  0  0  0  0  0  0  0  0  0  0
    0.9868    5.3596    1.4075 H   0  0  0  0  0  0  0  0  0  0  0  0
    4.5587    3.2252   -0.7322 N   0  0  0  0  0  0  0  0  0  0  0  0
    5.9617    2.8444   -0.8162 C   0  0  0  0  0  0  0  0  0  0  0  0
    3.8988    2.8821   -1.4349 H   0  0  0  0  0  0  0  0  0  0  0  0
    6.6024    3.7319   -0.7888 H   0  0  0  0  0  0  0  0  0  0  0  0
    6.2302    2.1894    0.0190 H   0  0  0  0  0  0  0  0  0  0  0  0
    6.1522    2.3110   -1.7522 H   0  0  0  0  0  0  0  0  0  0  0  0
  1  2  2  0  0  0  0
  1  3  1  0  0  0  0
  1  7  1  0  0  0  0
  3  4  1  0  0  0  0
  3  5  1  0  0  0  0
  3  6  1  0  0  0  0
  7  8  1  0  0  0  0
  7 12  1  0  0  0  0
  8  9  1  0  0  0  0
  8 11  1  0  0  0  0
  8 13  1  0  0  0  0
  9 10  2  0  0  0  0
  9 17  1  0  0  0  0
 11 14  1  0  0  0  0
 11 15  1  0  0  0  0
 11 16  1  0  0  0  0
 17 18  1  0  0  0  0
 17 28  1  0  0  0  0
 18 19  1  0  0  0  0
 18 21  1  0  0  0  0
 18 29  1  0  0  0  0
 19 20  2  0  0  0  0
 19 37  1  0  0  0  0
 21 22  1  0  0  0  0
 21 30  1  0  0  0  0
 21 31  1  0  0  0  0
 22 23  1  0  0  0  0
 22 24  2  0  0  0  0
 23 25  2  0  0  0  0
 23 32  1  0  0  0  0
 24 26  1  0  0  0  0
 24 33  1  0  0  0  0
 25 27  1  0  0  0  0
 25 34  1  0  0  0  0
 26 27  2  0  0  0  0
 26 35  1  0  0  0  0
 27 36  1  0  0  0  0
 37 38  1  0  0  0  0
 37 42  1  0  0  0  0
 38 39  1  0  0  0  0
 38 41  1  0  0  0  0
 38 43  1  0  0  0  0
 39 40  2  0  0  0  0
 39 47  1  0  0  0  0
 41 44  1  0  0  0  0
 41 45  1  0  0  0  0
 41 46  1  0  0  0  0
 47 48  1  0  0  0  0
 47 49  1  0  0  0  0
 48 50  1  0  0  0  0
 48 51  1  0  0  0  0
 48 52  1  0  0  0  0
M  END
$$$$

  -OEChem-05262217163D

 52 52  0     1  0  0  0  0  0999 V2000
   -2.8834   -0.0898    4.3740 C   0  0  0  0  0  0  0  0  0  0  0  0
   -3.9794   -0.2106    3.8501 O   0  0  0  0  0  0  0  0  0  0  0  0
   -2.6120   -0.7144    5.7296 C   0  0  0  0  0  0  0  0  0  0  0  0
   -3.5212   -1.1825    6.1178 H   0  0  0  0  0  0  0  0  0  0  0  0
   -1.8343   -1.4767    5.6392 H   0  0  0  0  0  0  0  0  0  0  0  0
   -2.2815    0.0515    6.4356 H   0  0  0  0  0  0  0  0  0  0  0  0
   -1.8841    0.6037    3.7244 N   0  0  0  0  0  0  0  0  0  0  0  0
   -1.9946    1.1232    2.3553 C   0  0  2  0  0  0  0  0  0  0  0  0
   -0.6383    1.0922    1.6237 C   0  0  0  0  0  0  0  0  0  0  0  0
    0.4125    1.0239    2.2564 O   0  0  0  0  0  0  0  0  0  0  0  0
   -2.5361    2.5543    2.4237 C   0  0  0  0  0  0  0  0  0  0  0  0
   -0.9558    0.5931    4.1450 H   0  0  0  0  0  0  0  0  0  0  0  0
   -2.6891    0.5019    1.7790 H   0  0  0  0  0  0  0  0  0  0  0  0
   -1.8555    3.1959    2.9928 H   0  0  0  0  0  0  0  0  0  0  0  0
   -2.6502    2.9717    1.4187 H   0  0  0  0  0  0  0  0  0  0  0  0
   -3.5153    2.5647    2.9130 H   0  0  0  0  0  0  0  0  0  0  0  0
   -0.5756    1.1997    0.2473 N   0  0  0  0  0  0  0  0  0  0  0  0
    0.6386    0.8770   -0.5217 C   0  0  2  0  0  0  0  0  0  0  0  0
    1.5307    2.1270   -0.6744 C   0  0  0  0  0  0  0  0  0  0  0  0
    1.8520    2.5772   -1.7690 O   0  0  0  0  0  0  0  0  0  0  0  0
    0.2190    0.2896   -1.8834 C   0  0  0  0  0  0  0  0  0  0  0  0
   -0.4524   -1.0512   -1.7029 C   0  0  0  0  0  0  0  0  0  0  0  0
    0.3183   -2.2094   -1.5226 C   0  0  0  0  0  0  0  0  0  0  0  0
   -1.8521   -1.1581   -1.7141 C   0  0  0  0  0  0  0  0  0  0  0  0
   -0.2988   -3.4517   -1.3410 C   0  0  0  0  0  0  0  0  0  0  0  0
   -2.4702   -2.3999   -1.5319 C   0  0  0  0  0  0  0  0  0  0  0  0
   -1.6937   -3.5468   -1.3436 C   0  0  0  0  0  0  0  0  0  0  0  0
   -1.4630    1.1759   -0.2472 H   0  0  0  0  0  0  0  0  0  0  0  0
    1.2326    0.1215    0.0044 H   0  0  0  0  0  0  0  0  0  0  0  0
    1.1038    0.1567   -2.5155 H   0  0  0  0  0  0  0  0  0  0  0  0
   -0.4460    0.9867   -2.4047 H   0  0  0  0  0  0  0  0  0  0  0  0
    1.4027   -2.1478   -1.5186 H   0  0  0  0  0  0  0  0  0  0  0  0
   -2.4686   -0.2784   -1.8708 H   0  0  0  0  0  0  0  0  0  0  0  0
    0.3055   -4.3431   -1.1985 H   0  0  0  0  0  0  0  0  0  0  0  0
   -3.5539   -2.4751   -1.5390 H   0  0  0  0  0  0  0  0  0  0  0  0
   -2.1737   -4.5111   -1.2035 H   0  0  0  0  0  0  0  0  0  0  0  0
    2.0079    2.7399    0.4673 N   0  0  0  0  0  0  0  0  0  0  0  0
    2.8153    3.9676    0.4938 C   0  0  2  0  0  0  0  0  0  0  0  0
    4.3012    3.7146    0.1389 C   0  0  0  0  0  0  0  0  0  0  0  0
    5.2097    3.9975    0.9111 O   0  0  0  0  0  0  0  0  0  0  0  0
    2.6300    4.5971    1.8798 C   0  0  0  0  0  0  0  0  0  0  0  0
    1.7280    2.3127    1.3545 H   0  0  0  0  0  0  0  0  0  0  0  0
    2.4259    4.6722   -0.2485 H   0  0  0  0  0  0  0  0  0  0  0  0
    3.0190    3.9336    2.6590 H   0  0  0  0  0  0  0  0  0  0  0  0
    3.1648    5.5505    1.9373 H   0  0  0  0  0  0  0  0  0  0  0  0
    1.5699    4.7838    2.0764 H   0  0  0  0  0  0  0  0  0  0  0  0
    4.6130    3.1696   -1.0910 N   0  0  0  0  0  0  0  0  0  0  0  0
    5.9658    2.8568   -1.5297 C   0  0  0  0  0  0  0  0  0  0  0  0
    3.8190    2.9261   -1.6889 H   0  0  0  0  0  0  0  0  0  0  0  0
    6.5809    3.7624   -1.5516 H   0  0  0  0  0  0  0  0  0  0  0  0
    6.4295    2.1311   -0.8537 H   0  0  0  0  0  0  0  0  0  0  0  0
    5.9447    2.4280   -2.5361 H   0  0  0  0  0  0  0  0  0  0  0  0
  1  2  2  0  0  0  0
  1  3  1  0  0  0  0
  1  7  1  0  0  0  0
  3  4  1  0  0  0  0
  3  5  1  0  0  0  0
  3  6  1  0  0  0  0
  7  8  1  0  0  0  0
  7 12  1  0  0  0  0
  8  9  1  0  0  0  0
  8 11  1  0  0  0  0
  8 13  1  0  0  0  0
  9 10  2  0  0  0  0
  9 17  1  0  0  0  0
 11 14  1  0  0  0  0
 11 15  1  0  0  0  0
 11 16  1  0  0  0  0
 17 18  1  0  0  0  0
 17 28  1  0  0  0  0
 18 19  1  0  0  0  0
 18 21  1  0  0  0  0
 18 29  1  0  0  0  0
 19 20  2  0  0  0  0
 19 37  1  0  0  0  0
 21 22  1  0  0  0  0
 21 30  1  0  0  0  0
 21 31  1  0  0  0  0
 22 23  1  0  0  0  0
 22 24  2  0  0  0  0
 23 25  2  0  0  0  0
 23 32  1  0  0  0  0
 24 26  1  0  0  0  0
 24 33  1  0  0  0  0
 25 27  1  0  0  0  0
 25 34  1  0  0  0  0
 26 27  2  0  0  0  0
 26 35  1  0  0  0  0
 27 36  1  0  0  0  0
 37 38  1  0  0  0  0
 37 42  1  0  0  0  0
 38 39  1  0  0  0  0
 38 41  1  0  0  0  0
 38 43  1  0  0  0  0
 39 40  2  0  0  0  0
 39 47  1  0  0  0  0
 41 44  1  0  0  0  0
 41 45  1  0  0  0  0
 41 46  1  0  0  0  0
 47 48  1  0  0  0  0
 47 49  1  0  0  0  0
 48 50  1  0  0  0  0
 48 51  1  0  0  0  0
 48 52  1  0  0  0  0
M  END
$$$$

  -OEChem-05262217163D

 52 52  0     1  0  0  0  0  0999 V2000
   -2.8829   -0.0473    4.3744 C   0  0  0  0  0  0  0  0  0  0  0  0
   -3.9720   -0.1693    3.8369 O   0  0  0  0  0  0  0  0  0  0  0  0
   -2.6330   -0.6642    5.7379 C   0  0  0  0  0  0  0  0  0  0  0  0
   -3.5196   -1.2100    6.0724 H   0  0  0  0  0  0  0  0  0  0  0  0
   -1.7914   -1.3593    5.6862 H   0  0  0  0  0  0  0  0  0  0  0  0
   -2.4063    0.1184    6.4661 H   0  0  0  0  0  0  0  0  0  0  0  0
   -1.8745    0.6446    3.7365 N   0  0  0  0  0  0  0  0  0  0  0  0
   -1.9606    1.1453    2.3581 C   0  0  2  0  0  0  0  0  0  0  0  0
   -0.6042    1.0512    1.6312 C   0  0  0  0  0  0  0  0  0  0  0  0
    0.4399    0.9180    2.2662 O   0  0  0  0  0  0  0  0  0  0  0  0
   -2.4476    2.5968    2.4020 C   0  0  0  0  0  0  0  0  0  0  0  0
   -0.9496    0.6206    4.1638 H   0  0  0  0  0  0  0  0  0  0  0  0
   -2.6760    0.5425    1.7880 H   0  0  0  0  0  0  0  0  0  0  0  0
   -1.7423    3.2215    2.9599 H   0  0  0  0  0  0  0  0  0  0  0  0
   -2.5458    3.0006    1.3897 H   0  0  0  0  0  0  0  0  0  0  0  0
   -3.4255    2.6535    2.8912 H   0  0  0  0  0  0  0  0  0  0  0  0
   -0.5298    1.1665    0.2560 N   0  0  0  0  0  0  0  0  0  0  0  0
    0.6790    0.8031   -0.4997 C   0  0  2  0  0  0  0  0  0  0  0  0
    1.6077    2.0263   -0.6271 C   0  0  0  0  0  0  0  0  0  0  0  0
    1.7593    2.6312   -1.6831 O   0  0  0  0  0  0  0  0  0  0  0  0
    0.2597    0.2494   -1.8746 C   0  0  0  0  0  0  0  0  0  0  0  0
   -0.4677   -1.0656   -1.7234 C   0  0  0  0  0  0  0  0  0  0  0  0
    0.2522   -2.2564   -1.5454 C   0  0  0  0  0  0  0  0  0  0  0  0
   -1.8700   -1.1161   -1.7617 C   0  0  0  0  0  0  0  0  0  0  0  0
   -0.4180   -3.4746   -1.3902 C   0  0  0  0  0  0  0  0  0  0  0  0
   -2.5411   -2.3334   -1.6046 C   0  0  0  0  0  0  0  0  0  0  0  0
   -1.8152   -3.5130   -1.4158 C   0  0  0  0  0  0  0  0  0  0  0  0
   -1.4115    1.1993   -0.2482 H   0  0  0  0  0  0  0  0  0  0  0  0
    1.2387    0.0186    0.0223 H   0  0  0  0  0  0  0  0  0  0  0  0
    1.1501    0.0936   -2.4933 H   0  0  0  0  0  0  0  0  0  0  0  0
   -0.3711    0.9774   -2.3962 H   0  0  0  0  0  0  0  0  0  0  0  0
    1.3379   -2.2397   -1.5227 H   0  0  0  0  0  0  0  0  0  0  0  0
   -2.4478   -0.2108   -1.9191 H   0  0  0  0  0  0  0  0  0  0  0  0
    0.1476   -4.3914   -1.2505 H   0  0  0  0  0  0  0  0  0  0  0  0
   -3.6265   -2.3643   -1.6326 H   0  0  0  0  0  0  0  0  0  0  0  0
   -2.3360   -4.4585   -1.2933 H   0  0  0  0  0  0  0  0  0  0  0  0
    2.3276    2.4145    0.4851 N   0  0  0  0  0  0  0  0  0  0  0  0
    3.1470    3.6322    0.5669 C   0  0  2  0  0  0  0  0  0  0  0  0
    4.5330    3.4761   -0.1070 C   0  0  0  0  0  0  0  0  0  0  0  0
    5.5767    3.6560    0.5095 O   0  0  0  0  0  0  0  0  0  0  0  0
    3.2462    4.0023    2.0523 C   0  0  0  0  0  0  0  0  0  0  0  0
    2.0793    1.9377    1.3554 H   0  0  0  0  0  0  0  0  0  0  0  0
    2.6322    4.4499    0.0511 H   0  0  0  0  0  0  0  0  0  0  0  0
    3.7603    3.2134    2.6110 H   0  0  0  0  0  0  0  0  0  0  0  0
    3.8065    4.9348    2.1752 H   0  0  0  0  0  0  0  0  0  0  0  0
    2.2480    4.1405    2.4789 H   0  0  0  0  0  0  0  0  0  0  0  0
    4.5972    3.1576   -1.4492 N   0  0  0  0  0  0  0  0  0  0  0  0
    5.8389    2.9880   -2.1910 C   0  0  0  0  0  0  0  0  0  0  0  0
    3.7017    2.9925   -1.9164 H   0  0  0  0  0  0  0  0  0  0  0  0
    6.4470    3.8966   -2.1330 H   0  0  0  0  0  0  0  0  0  0  0  0
    6.4156    2.1509   -1.7847 H   0  0  0  0  0  0  0  0  0  0  0  0
    5.6241    2.7841   -3.2442 H   0  0  0  0  0  0  0  0  0  0  0  0
  1  2  2  0  0  0  0
  1  3  1  0  0  0  0
  1  7  1  0  0  0  0
  3  4  1  0  0  0  0
  3  5  1  0  0  0  0
  3  6  1  0  0  0  0
  7  8  1  0  0  0  0
  7 12  1  0  0  0  0
  8  9  1  0  0  0  0
  8 11  1  0  0  0  0
  8 13  1  0  0  0  0
  9 10  2  0  0  0  0
  9 17  1  0  0  0  0
 11 14  1  0  0  0  0
 11 15  1  0  0  0  0
 11 16  1  0  0  0  0
 17 18  1  0  0  0  0
 17 28  1  0  0  0  0
 18 19  1  0  0  0  0
 18 21  1  0  0  0  0
 18 29  1  0  0  0  0
 19 20  2  0  0  0  0
 19 37  1  0  0  0  0
 21 22  1  0  0  0  0
 21 30  1  0  0  0  0
 21 31  1  0  0  0  0
 22 23  1  0  0  0  0
 22 24  2  0  0  0  0
 23 25  2  0  0  0  0
 23 32  1  0  0  0  0
 24 26  1  0  0  0  0
 24 33  1  0  0  0  0
 25 27  1  0  0  0  0
 25 34  1  0  0  0  0
 26 27  2  0  0  0  0
 26 35  1  0  0  0  0
 27 36  1  0  0  0  0
 37 38  1  0  0  0  0
 37 42  1  0  0  0  0
 38 39  1  0  0  0  0
 38 41  1  0  0  0  0
 38 43  1  0  0  0  0
 39 40  2  0  0  0  0
 39 47  1  0  0  0  0
 41 44  1  0  0  0  0
 41 45  1  0  0  0  0
 41 46  1  0  0  0  0
 47 48  1  0  0  0  0
 47 49  1  0  0  0  0
 48 50  1  0  0  0  0
 48 51  1  0  0  0  0
 48 52  1  0  0  0  0
M  END
$$$$

  -OEChem-05262217163D

 52 52  0     1  0  0  0  0  0999 V2000
   -2.9089    0.0158    4.4018 C   0  0  0  0  0  0  0  0  0  0  0  0
   -4.0058   -0.0485    3.8700 O   0  0  0  0  0  0  0  0  0  0  0  0
   -2.6804   -0.6254    5.7578 C   0  0  0  0  0  0  0  0  0  0  0  0
   -3.5800   -1.1581    6.0788 H   0  0  0  0  0  0  0  0  0  0  0  0
   -1.8529   -1.3366    5.7001 H   0  0  0  0  0  0  0  0  0  0  0  0
   -2.4418    0.1420    6.4982 H   0  0  0  0  0  0  0  0  0  0  0  0
   -1.8710    0.6613    3.7634 N   0  0  0  0  0  0  0  0  0  0  0  0
   -1.9368    1.1677    2.3860 C   0  0  2  0  0  0  0  0  0  0  0  0
   -0.5889    1.0071    1.6549 C   0  0  0  0  0  0  0  0  0  0  0  0
    0.4452    0.7945    2.2849 O   0  0  0  0  0  0  0  0  0  0  0  0
   -2.3523    2.6406    2.4332 C   0  0  0  0  0  0  0  0  0  0  0  0
   -0.9458    0.5846    4.1838 H   0  0  0  0  0  0  0  0  0  0  0  0
   -2.6827    0.6019    1.8170 H   0  0  0  0  0  0  0  0  0  0  0  0
   -1.6167    3.2290    2.9910 H   0  0  0  0  0  0  0  0  0  0  0  0
   -2.4330    3.0510    1.4221 H   0  0  0  0  0  0  0  0  0  0  0  0
   -3.3253    2.7426    2.9243 H   0  0  0  0  0  0  0  0  0  0  0  0
   -0.5099    1.1391    0.2815 N   0  0  0  0  0  0  0  0  0  0  0  0
    0.6948    0.7685   -0.4740 C   0  0  2  0  0  0  0  0  0  0  0  0
    1.6377    1.9809   -0.5814 C   0  0  0  0  0  0  0  0  0  0  0  0
    1.6177    2.7389   -1.5455 O   0  0  0  0  0  0  0  0  0  0  0  0
    0.2835    0.2469   -1.8630 C   0  0  0  0  0  0  0  0  0  0  0  0
   -0.4651   -1.0593   -1.7469 C   0  0  0  0  0  0  0  0  0  0  0  0
    0.2349   -2.2643   -1.5840 C   0  0  0  0  0  0  0  0  0  0  0  0
   -1.8670   -1.0875   -1.8067 C   0  0  0  0  0  0  0  0  0  0  0  0
   -0.4551   -3.4755   -1.4659 C   0  0  0  0  0  0  0  0  0  0  0  0
   -2.5579   -2.2982   -1.6889 C   0  0  0  0  0  0  0  0  0  0  0  0
   -1.8521   -3.4925   -1.5158 C   0  0  0  0  0  0  0  0  0  0  0  0
   -1.3819    1.2533   -0.2273 H   0  0  0  0  0  0  0  0  0  0  0  0
    1.2383   -0.0350    0.0355 H   0  0  0  0  0  0  0  0  0  0  0  0
    1.1787    0.0924   -2.4750 H   0  0  0  0  0  0  0  0  0  0  0  0
   -0.3320    0.9931   -2.3769 H   0  0  0  0  0  0  0  0  0  0  0  0
    1.3204   -2.2644   -1.5445 H   0  0  0  0  0  0  0  0  0  0  0  0
   -2.4281   -0.1697   -1.9516 H   0  0  0  0  0  0  0  0  0  0  0  0
    0.0949   -4.4031   -1.3355 H   0  0  0  0  0  0  0  0  0  0  0  0
   -3.6432   -2.3122   -1.7356 H   0  0  0  0  0  0  0  0  0  0  0  0
   -2.3886   -4.4327   -1.4247 H   0  0  0  0  0  0  0  0  0  0  0  0
    2.5829    2.1651    0.4078 N   0  0  0  0  0  0  0  0  0  0  0  0
    3.4665    3.3368    0.4998 C   0  0  2  0  0  0  0  0  0  0  0  0
    4.6868    3.2492   -0.4499 C   0  0  0  0  0  0  0  0  0  0  0  0
    5.8374    3.3163   -0.0335 O   0  0  0  0  0  0  0  0  0  0  0  0
    3.8675    3.4780    1.9736 C   0  0  0  0  0  0  0  0  0  0  0  0
    2.4518    1.5977    1.2462 H   0  0  0  0  0  0  0  0  0  0  0  0
    2.9075    4.2355    0.2184 H   0  0  0  0  0  0  0  0  0  0  0  0
    4.4380    2.6035    2.3032 H   0  0  0  0  0  0  0  0  0  0  0  0
    4.4880    4.3687    2.1150 H   0  0  0  0  0  0  0  0  0  0  0  0
    2.9781    3.5741    2.6040 H   0  0  0  0  0  0  0  0  0  0  0  0
    4.4750    3.1241   -1.8085 N   0  0  0  0  0  0  0  0  0  0  0  0
    5.5388    3.0630   -2.8007 C   0  0  0  0  0  0  0  0  0  0  0  0
    3.4986    3.0646   -2.1090 H   0  0  0  0  0  0  0  0  0  0  0  0
    6.1616    3.9620   -2.7487 H   0  0  0  0  0  0  0  0  0  0  0  0
    6.1707    2.1851   -2.6313 H   0  0  0  0  0  0  0  0  0  0  0  0
    5.1131    2.9959   -3.8064 H   0  0  0  0  0  0  0  0  0  0  0  0
  1  2  2  0  0  0  0
  1  3  1  0  0  0  0
  1  7  1  0  0  0  0
  3  4  1  0  0  0  0
  3  5  1  0  0  0  0
  3  6  1  0  0  0  0
  7  8  1  0  0  0  0
  7 12  1  0  0  0  0
  8  9  1  0  0  0  0
  8 11  1  0  0  0  0
  8 13  1  0  0  0  0
  9 10  2  0  0  0  0
  9 17  1  0  0  0  0
 11 14  1  0  0  0  0
 11 15  1  0  0  0  0
 11 16  1  0  0  0  0
 17 18  1  0  0  0  0
 17 28  1  0  0  0  0
 18 19  1  0  0  0  0
 18 21  1  0  0  0  0
 18 29  1  0  0  0  0
 19 20  2  0  0  0  0
 19 37  1  0  0  0  0
 21 22  1  0  0  0  0
 21 30  1  0  0  0  0
 21 31  1  0  0  0  0
 22 23  1  0  0  0  0
 22 24  2  0  0  0  0
 23 25  2  0  0  0  0
 23 32  1  0  0  0  0
 24 26  1  0  0  0  0
 24 33  1  0  0  0  0
 25 27  1  0  0  0  0
 25 34  1  0  0  0  0
 26 27  2  0  0  0  0
 26 35  1  0  0  0  0
 27 36  1  0  0  0  0
 37 38  1  0  0  0  0
 37 42  1  0  0  0  0
 38 39  1  0  0  0  0
 38 41  1  0  0  0  0
 38 43  1  0  0  0  0
 39 40  2  0  0  0  0
 39 47  1  0  0  0  0
 41 44  1  0  0  0  0
 41 45  1  0  0  0  0
 41 46  1  0  0  0  0
 47 48  1  0  0  0  0
 47 49  1  0  0  0  0
 48 50  1  0  0  0  0
 48 51  1  0  0  0  0
 48 52  1  0  0  0  0
M  END
$$$$

  -OEChem-05262217163D

 52 52  0     1  0  0  0  0  0999 V2000
   -2.9957    0.1543    4.4427 C   0  0  0  0  0  0  0  0  0  0  0  0
   -4.0953    0.2460    3.9206 O   0  0  0  0  0  0  0  0  0  0  0  0
   -2.8444   -0.5335    5.7865 C   0  0  0  0  0  0  0  0  0  0  0  0
   -3.8147   -0.8987    6.1348 H   0  0  0  0  0  0  0  0  0  0  0  0
   -2.1609   -1.3815    5.6978 H   0  0  0  0  0  0  0  0  0  0  0  0
   -2.4479    0.1697    6.5228 H   0  0  0  0  0  0  0  0  0  0  0  0
   -1.8854    0.6670    3.8060 N   0  0  0  0  0  0  0  0  0  0  0  0
   -1.8906    1.2041    2.4388 C   0  0  2  0  0  0  0  0  0  0  0  0
   -0.5759    0.8868    1.6982 C   0  0  0  0  0  0  0  0  0  0  0  0
    0.4204    0.5262    2.3204 O   0  0  0  0  0  0  0  0  0  0  0  0
   -2.1122    2.7178    2.5152 C   0  0  0  0  0  0  0  0  0  0  0  0
   -0.9759    0.4576    4.2152 H   0  0  0  0  0  0  0  0  0  0  0  0
   -2.7044    0.7490    1.8638 H   0  0  0  0  0  0  0  0  0  0  0  0
   -1.2990    3.1971    3.0700 H   0  0  0  0  0  0  0  0  0  0  0  0
   -2.1527    3.1523    1.5117 H   0  0  0  0  0  0  0  0  0  0  0  0
   -3.0572    2.9366    3.0229 H   0  0  0  0  0  0  0  0  0  0  0  0
   -0.4803    1.0479    0.3293 N   0  0  0  0  0  0  0  0  0  0  0  0
    0.7238    0.6970   -0.4350 C   0  0  2  0  0  0  0  0  0  0  0  0
    1.6692    1.9090   -0.5139 C   0  0  0  0  0  0  0  0  0  0  0  0
    1.4689    2.8199   -1.3108 O   0  0  0  0  0  0  0  0  0  0  0  0
    0.3159    0.2265   -1.8431 C   0  0  0  0  0  0  0  0  0  0  0  0
   -0.4409   -1.0795   -1.7855 C   0  0  0  0  0  0  0  0  0  0  0  0
    0.2500   -2.2949   -1.6668 C   0  0  0  0  0  0  0  0  0  0  0  0
   -1.8427   -1.0965   -1.8539 C   0  0  0  0  0  0  0  0  0  0  0  0
   -0.4485   -3.5057   -1.6072 C   0  0  0  0  0  0  0  0  0  0  0  0
   -2.5421   -2.3066   -1.7939 C   0  0  0  0  0  0  0  0  0  0  0  0
   -1.8451   -3.5118   -1.6689 C   0  0  0  0  0  0  0  0  0  0  0  0
   -1.3010    1.3757   -0.1721 H   0  0  0  0  0  0  0  0  0  0  0  0
    1.2615   -0.1250    0.0499 H   0  0  0  0  0  0  0  0  0  0  0  0
    1.2133    0.0920   -2.4563 H   0  0  0  0  0  0  0  0  0  0  0  0
   -0.2940    0.9942   -2.3313 H   0  0  0  0  0  0  0  0  0  0  0  0
    1.3349   -2.3043   -1.6189 H   0  0  0  0  0  0  0  0  0  0  0  0
   -2.3967   -0.1689   -1.9575 H   0  0  0  0  0  0  0  0  0  0  0  0
    0.0939   -4.4420   -1.5144 H   0  0  0  0  0  0  0  0  0  0  0  0
   -3.6271   -2.3113   -1.8466 H   0  0  0  0  0  0  0  0  0  0  0  0
   -2.3878   -4.4517   -1.6226 H   0  0  0  0  0  0  0  0  0  0  0  0
    2.8092    1.9337    0.2657 N   0  0  0  0  0  0  0  0  0  0  0  0
    3.7364    3.0736    0.3319 C   0  0  2  0  0  0  0  0  0  0  0  0
    4.7232    3.1078   -0.8607 C   0  0  0  0  0  0  0  0  0  0  0  0
    5.9369    3.0632   -0.6981 O   0  0  0  0  0  0  0  0  0  0  0  0
    4.4448    3.0043    1.6904 C   0  0  0  0  0  0  0  0  0  0  0  0
    2.8696    1.2251    0.9945 H   0  0  0  0  0  0  0  0  0  0  0  0
    3.1668    4.0087    0.3017 H   0  0  0  0  0  0  0  0  0  0  0  0
    5.0448    2.0917    1.7656 H   0  0  0  0  0  0  0  0  0  0  0  0
    5.1085    3.8657    1.8161 H   0  0  0  0  0  0  0  0  0  0  0  0
    3.7132    3.0118    2.5041 H   0  0  0  0  0  0  0  0  0  0  0  0
    4.2214    3.1986   -2.1437 N   0  0  0  0  0  0  0  0  0  0  0  0
    5.0453    3.2214   -3.3437 C   0  0  0  0  0  0  0  0  0  0  0  0
    3.2016    3.2087   -2.2292 H   0  0  0  0  0  0  0  0  0  0  0  0
    5.7104    4.0910   -3.3340 H   0  0  0  0  0  0  0  0  0  0  0  0
    5.6526    2.3128   -3.4085 H   0  0  0  0  0  0  0  0  0  0  0  0
    4.4123    3.2789   -4.2341 H   0  0  0  0  0  0  0  0  0  0  0  0
  1  2  2  0  0  0  0
  1  3  1  0  0  0  0
  1  7  1  0  0  0  0
  3  4  1  0  0  0  0
  3  5  1  0  0  0  0
  3  6  1  0  0  0  0
  7  8  1  0  0  0  0
  7 12  1  0  0  0  0
  8  9  1  0  0  0  0
  8 11  1  0  0  0  0
  8 13  1  0  0  0  0
  9 10  2  0  0  0  0
  9 17  1  0  0  0  0
 11 14  1  0  0  0  0
 11 15  1  0  0  0  0
 11 16  1  0  0  0  0
 17 18  1  0  0  0  0
 17 28  1  0  0  0  0
 18 19  1  0  0  0  0
 18 21  1  0  0  0  0
 18 29  1  0  0  0  0
 19 20  2  0  0  0  0
 19 37  1  0  0  0  0
 21 22  1  0  0  0  0
 21 30  1  0  0  0  0
 21 31  1  0  0  0  0
 22 23  1  0  0  0  0
 22 24  2  0  0  0  0
 23 25  2  0  0  0  0
 23 32  1  0  0  0  0
 24 26  1  0  0  0  0
 24 33  1  0  0  0  0
 25 27  1  0  0  0  0
 25 34  1  0  0  0  0
 26 27  2  0  0  0  0
 26 35  1  0  0  0  0
 27 36  1  0  0  0  0
 37 38  1  0  0  0  0
 37 42  1  0  0  0  0
 38 39  1  0  0  0  0
 38 41  1  0  0  0  0
 38 43  1  0  0  0  0
 39 40  2  0  0  0  0
 39 47  1  0  0  0  0
 41 44  1  0  0  0  0
 41 45  1  0  0  0  0
 41 46  1  0  0  0  0
 47 48  1  0  0  0  0
 47 49  1  0  0  0  0
 48 50  1  0  0  0  0
 48 51  1  0  0  0  0
 48 52  1  0  0  0  0
M  END
$$$$

  -OEChem-05262217163D

 52 52  0     1  0  0  0  0  0999 V2000
   -3.0501    0.2959    4.4643 C   0  0  0  0  0  0  0  0  0  0  0  0
   -4.1346    0.5321    3.9563 O   0  0  0  0  0  0  0  0  0  0  0  0
   -2.9730   -0.4314    5.7935 C   0  0  0  0  0  0  0  0  0  0  0  0
   -3.9769   -0.6963    6.1373 H   0  0  0  0  0  0  0  0  0  0  0  0
   -2.3856   -1.3465    5.6851 H   0  0  0  0  0  0  0  0  0  0  0  0
   -2.5016    0.2095    6.5427 H   0  0  0  0  0  0  0  0  0  0  0  0
   -1.8904    0.6799    3.8256 N   0  0  0  0  0  0  0  0  0  0  0  0
   -1.8393    1.2385    2.4684 C   0  0  2  0  0  0  0  0  0  0  0  0
   -0.5701    0.7884    1.7170 C   0  0  0  0  0  0  0  0  0  0  0  0
    0.3699    0.2868    2.3281 O   0  0  0  0  0  0  0  0  0  0  0  0
   -1.8903    2.7656    2.5736 C   0  0  0  0  0  0  0  0  0  0  0  0
   -1.0106    0.3484    4.2189 H   0  0  0  0  0  0  0  0  0  0  0  0
   -2.7005    0.8877    1.8894 H   0  0  0  0  0  0  0  0  0  0  0  0
   -1.0337    3.1393    3.1437 H   0  0  0  0  0  0  0  0  0  0  0  0
   -1.8723    3.2220    1.5793 H   0  0  0  0  0  0  0  0  0  0  0  0
   -2.8091    3.0793    3.0794 H   0  0  0  0  0  0  0  0  0  0  0  0
   -0.4593    0.9744    0.3524 N   0  0  0  0  0  0  0  0  0  0  0  0
    0.7461    0.6289   -0.4137 C   0  0  2  0  0  0  0  0  0  0  0  0
    1.7098    1.8264   -0.4711 C   0  0  0  0  0  0  0  0  0  0  0  0
    1.3812    2.8617   -1.0415 O   0  0  0  0  0  0  0  0  0  0  0  0
    0.3460    0.2002   -1.8354 C   0  0  0  0  0  0  0  0  0  0  0  0
   -0.4249   -1.0977   -1.8149 C   0  0  0  0  0  0  0  0  0  0  0  0
    0.2511   -2.3235   -1.7207 C   0  0  0  0  0  0  0  0  0  0  0  0
   -1.8264   -1.0956   -1.8840 C   0  0  0  0  0  0  0  0  0  0  0  0
   -0.4618   -3.5270   -1.6943 C   0  0  0  0  0  0  0  0  0  0  0  0
   -2.5407   -2.2979   -1.8542 C   0  0  0  0  0  0  0  0  0  0  0  0
   -1.8585   -3.5145   -1.7599 C   0  0  0  0  0  0  0  0  0  0  0  0
   -1.1947    1.4994   -0.1130 H   0  0  0  0  0  0  0  0  0  0  0  0
    1.2689   -0.2100    0.0578 H   0  0  0  0  0  0  0  0  0  0  0  0
    1.2462    0.0701   -2.4454 H   0  0  0  0  0  0  0  0  0  0  0  0
   -0.2520    0.9866   -2.3082 H   0  0  0  0  0  0  0  0  0  0  0  0
    1.3353   -2.3464   -1.6663 H   0  0  0  0  0  0  0  0  0  0  0  0
   -2.3685   -0.1583   -1.9607 H   0  0  0  0  0  0  0  0  0  0  0  0
    0.0699   -4.4714   -1.6219 H   0  0  0  0  0  0  0  0  0  0  0  0
   -3.6256   -2.2864   -1.9052 H   0  0  0  0  0  0  0  0  0  0  0  0
   -2.4127   -4.4484   -1.7379 H   0  0  0  0  0  0  0  0  0  0  0  0
    2.9864    1.7207    0.0465 N   0  0  0  0  0  0  0  0  0  0  0  0
    3.9599    2.8228    0.0720 C   0  0  2  0  0  0  0  0  0  0  0  0
    4.6690    3.0159   -1.2907 C   0  0  0  0  0  0  0  0  0  0  0  0
    5.8825    2.8980   -1.4111 O   0  0  0  0  0  0  0  0  0  0  0  0
    4.9367    2.5424    1.2206 C   0  0  0  0  0  0  0  0  0  0  0  0
    3.2030    0.8758    0.5695 H   0  0  0  0  0  0  0  0  0  0  0  0
    3.4423    3.7610    0.2986 H   0  0  0  0  0  0  0  0  0  0  0  0
    5.4861    1.6125    1.0420 H   0  0  0  0  0  0  0  0  0  0  0  0
    5.6600    3.3590    1.3107 H   0  0  0  0  0  0  0  0  0  0  0  0
    4.3968    2.4547    2.1683 H   0  0  0  0  0  0  0  0  0  0  0  0
    3.9115    3.3265   -2.4025 N   0  0  0  0  0  0  0  0  0  0  0  0
    4.4586    3.5030   -3.7404 C   0  0  0  0  0  0  0  0  0  0  0  0
    2.9000    3.3794   -2.2584 H   0  0  0  0  0  0  0  0  0  0  0  0
    5.2090    4.3002   -3.7450 H   0  0  0  0  0  0  0  0  0  0  0  0
    4.9263    2.5762   -4.0880 H   0  0  0  0  0  0  0  0  0  0  0  0
    3.6630    3.7741   -4.4408 H   0  0  0  0  0  0  0  0  0  0  0  0
  1  2  2  0  0  0  0
  1  3  1  0  0  0  0
  1  7  1  0  0  0  0
  3  4  1  0  0  0  0
  3  5  1  0  0  0  0
  3  6  1  0  0  0  0
  7  8  1  0  0  0  0
  7 12  1  0  0  0  0
  8  9  1  0  0  0  0
  8 11  1  0  0  0  0
  8 13  1  0  0  0  0
  9 10  2  0  0  0  0
  9 17  1  0  0  0  0
 11 14  1  0  0  0  0
 11 15  1  0  0  0  0
 11 16  1  0  0  0  0
 17 18  1  0  0  0  0
 17 28  1  0  0  0  0
 18 19  1  0  0  0  0
 18 21  1  0  0  0  0
 18 29  1  0  0  0  0
 19 20  2  0  0  0  0
 19 37  1  0  0  0  0
 21 22  1  0  0  0  0
 21 30  1  0  0  0  0
 21 31  1  0  0  0  0
 22 23  1  0  0  0  0
 22 24  2  0  0  0  0
 23 25  2  0  0  0  0
 23 32  1  0  0  0  0
 24 26  1  0  0  0  0
 24 33  1  0  0  0  0
 25 27  1  0  0  0  0
 25 34  1  0  0  0  0
 26 27  2  0  0  0  0
 26 35  1  0  0  0  0
 27 36  1  0  0  0  0
 37 38  1  0  0  0  0
 37 42  1  0  0  0  0
 38 39  1  0  0  0  0
 38 41  1  0  0  0  0
 38 43  1  0  0  0  0
 39 40  2  0  0  0  0
 39 47  1  0  0  0  0
 41 44  1  0  0  0  0
 41 45  1  0  0  0  0
 41 46  1  0  0  0  0
 47 48  1  0  0  0  0
 47 49  1  0  0  0  0
 48 50  1  0  0  0  0
 48 51  1  0  0  0  0
 48 52  1  0  0  0  0
M  END
$$$$

  -OEChem-05262217163D

 52 52  0     1  0  0  0  0  0999 V2000
   -3.0778    0.4161    4.4749 C   0  0  0  0  0  0  0  0  0  0  0  0
   -4.1327    0.7740    3.9753 O   0  0  0  0  0  0  0  0  0  0  0  0
   -3.0747   -0.3490    5.7848 C   0  0  0  0  0  0  0  0  0  0  0  0
   -4.0986   -0.4894    6.1425 H   0  0  0  0  0  0  0  0  0  0  0  0
   -2.6137   -1.3295    5.6428 H   0  0  0  0  0  0  0  0  0  0  0  0
   -2.5106    0.2056    6.5385 H   0  0  0  0  0  0  0  0  0  0  0  0
   -1.8846    0.6970    3.8443 N   0  0  0  0  0  0  0  0  0  0  0  0
   -1.7757    1.2822    2.5018 C   0  0  2  0  0  0  0  0  0  0  0  0
   -0.5572    0.7265    1.7370 C   0  0  0  0  0  0  0  0  0  0  0  0
    0.3322    0.1289    2.3366 O   0  0  0  0  0  0  0  0  0  0  0  0
   -1.6711    2.8034    2.6461 C   0  0  0  0  0  0  0  0  0  0  0  0
   -1.0424    0.2701    4.2282 H   0  0  0  0  0  0  0  0  0  0  0  0
   -2.6672    1.0357    1.9147 H   0  0  0  0  0  0  0  0  0  0  0  0
   -0.7832    3.0727    3.2270 H   0  0  0  0  0  0  0  0  0  0  0  0
   -1.6017    3.2800    1.6635 H   0  0  0  0  0  0  0  0  0  0  0  0
   -2.5549    3.1971    3.1586 H   0  0  0  0  0  0  0  0  0  0  0  0
   -0.4376    0.9262    0.3750 N   0  0  0  0  0  0  0  0  0  0  0  0
    0.7702    0.5752   -0.3861 C   0  0  2  0  0  0  0  0  0  0  0  0
    1.7523    1.7587   -0.4295 C   0  0  0  0  0  0  0  0  0  0  0  0
    1.3601    2.8710   -0.7685 O   0  0  0  0  0  0  0  0  0  0  0  0
    0.3778    0.1808   -1.8195 C   0  0  0  0  0  0  0  0  0  0  0  0
   -0.4149   -1.1040   -1.8369 C   0  0  0  0  0  0  0  0  0  0  0  0
    0.2404   -2.3422   -1.7624 C   0  0  0  0  0  0  0  0  0  0  0  0
   -1.8153   -1.0779   -1.9221 C   0  0  0  0  0  0  0  0  0  0  0  0
   -0.4919   -3.5343   -1.7694 C   0  0  0  0  0  0  0  0  0  0  0  0
   -2.5487   -2.2690   -1.9282 C   0  0  0  0  0  0  0  0  0  0  0  0
   -1.8872   -3.4979   -1.8512 C   0  0  0  0  0  0  0  0  0  0  0  0
   -1.0979    1.5690   -0.0541 H   0  0  0  0  0  0  0  0  0  0  0  0
    1.2773   -0.2768    0.0788 H   0  0  0  0  0  0  0  0  0  0  0  0
    1.2823    0.0480   -2.4227 H   0  0  0  0  0  0  0  0  0  0  0  0
   -0.2011    0.9879   -2.2813 H   0  0  0  0  0  0  0  0  0  0  0  0
    1.3234   -2.3846   -1.6991 H   0  0  0  0  0  0  0  0  0  0  0  0
   -2.3412   -0.1303   -1.9823 H   0  0  0  0  0  0  0  0  0  0  0  0
    0.0233   -4.4887   -1.7110 H   0  0  0  0  0  0  0  0  0  0  0  0
   -3.6324   -2.2395   -1.9923 H   0  0  0  0  0  0  0  0  0  0  0  0
   -2.4562   -4.4232   -1.8550 H   0  0  0  0  0  0  0  0  0  0  0  0
    3.1012    1.5648   -0.2002 N   0  0  0  0  0  0  0  0  0  0  0  0
    4.1109    2.6325   -0.2636 C   0  0  2  0  0  0  0  0  0  0  0  0
    4.5164    2.9724   -1.7186 C   0  0  0  0  0  0  0  0  0  0  0  0
    5.6624    2.8179   -2.1227 O   0  0  0  0  0  0  0  0  0  0  0  0
    5.2980    2.1919    0.6013 C   0  0  0  0  0  0  0  0  0  0  0  0
    3.3985    0.6353    0.0841 H   0  0  0  0  0  0  0  0  0  0  0  0
    3.7023    3.5483    0.1772 H   0  0  0  0  0  0  0  0  0  0  0  0
    5.7491    1.2784    0.2009 H   0  0  0  0  0  0  0  0  0  0  0  0
    6.0628    2.9750    0.6213 H   0  0  0  0  0  0  0  0  0  0  0  0
    4.9722    2.0022    1.6287 H   0  0  0  0  0  0  0  0  0  0  0  0
    3.5571    3.4524   -2.5881 N   0  0  0  0  0  0  0  0  0  0  0  0
    3.8109    3.7785   -3.9845 C   0  0  0  0  0  0  0  0  0  0  0  0
    2.6068    3.5270   -2.2161 H   0  0  0  0  0  0  0  0  0  0  0  0
    4.5674    4.5663   -4.0621 H   0  0  0  0  0  0  0  0  0  0  0  0
    4.1643    2.8945   -4.5254 H   0  0  0  0  0  0  0  0  0  0  0  0
    2.8927    4.1332   -4.4623 H   0  0  0  0  0  0  0  0  0  0  0  0
  1  2  2  0  0  0  0
  1  3  1  0  0  0  0
  1  7  1  0  0  0  0
  3  4  1  0  0  0  0
  3  5  1  0  0  0  0
  3  6  1  0  0  0  0
  7  8  1  0  0  0  0
  7 12  1  0  0  0  0
  8  9  1  0  0  0  0
  8 11  1  0  0  0  0
  8 13  1  0  0  0  0
  9 10  2  0  0  0  0
  9 17  1  0  0  0  0
 11 14  1  0  0  0  0
 11 15  1  0  0  0  0
 11 16  1  0  0  0  0
 17 18  1  0  0  0  0
 17 28  1  0  0  0  0
 18 19  1  0  0  0  0
 18 21  1  0  0  0  0
 18 29  1  0  0  0  0
 19 20  2  0  0  0  0
 19 37  1  0  0  0  0
 21 22  1  0  0  0  0
 21 30  1  0  0  0  0
 21 31  1  0  0  0  0
 22 23  1  0  0  0  0
 22 24  2  0  0  0  0
 23 25  2  0  0  0  0
 23 32  1  0  0  0  0
 24 26  1  0  0  0  0
 24 33  1  0  0  0  0
 25 27  1  0  0  0  0
 25 34  1  0  0  0  0
 26 27  2  0  0  0  0
 26 35  1  0  0  0  0
 27 36  1  0  0  0  0
 37 38  1  0  0  0  0
 37 42  1  0  0  0  0
 38 39  1  0  0  0  0
 38 41  1  0  0  0  0
 38 43  1  0  0  0  0
 39 40  2  0  0  0  0
 39 47  1  0  0  0  0
 41 44  1  0  0  0  0
 41 45  1  0  0  0  0
 41 46  1  0  0  0  0
 47 48  1  0  0  0  0
 47 49  1  0  0  0  0
 48 50  1  0  0  0  0
 48 51  1  0  0  0  0
 48 52  1  0  0  0  0
M  END
$$$$

  -OEChem-05262217163D

 52 52  0     1  0  0  0  0  0999 V2000
   -3.0706    0.5277    4.4773 C   0  0  0  0  0  0  0  0  0  0  0  0
   -4.0880    0.9919    3.9875 O   0  0  0  0  0  0  0  0  0  0  0  0
   -3.1398   -0.2574    5.7738 C   0  0  0  0  0  0  0  0  0  0  0  0
   -4.1669   -0.2754    6.1489 H   0  0  0  0  0  0  0  0  0  0  0  0
   -2.8078   -1.2849    5.6064 H   0  0  0  0  0  0  0  0  0  0  0  0
   -2.4986    0.2074    6.5266 H   0  0  0  0  0  0  0  0  0  0  0  0
   -1.8573    0.7083    3.8481 N   0  0  0  0  0  0  0  0  0  0  0  0
   -1.6948    1.3201    2.5227 C   0  0  2  0  0  0  0  0  0  0  0  0
   -0.5254    0.6882    1.7413 C   0  0  0  0  0  0  0  0  0  0  0  0
    0.3212    0.0189    2.3266 O   0  0  0  0  0  0  0  0  0  0  0  0
   -1.4642    2.8232    2.7082 C   0  0  0  0  0  0  0  0  0  0  0  0
   -1.0549    0.2044    4.2238 H   0  0  0  0  0  0  0  0  0  0  0  0
   -2.6021    1.1643    1.9289 H   0  0  0  0  0  0  0  0  0  0  0  0
   -0.5612    3.0019    3.3007 H   0  0  0  0  0  0  0  0  0  0  0  0
   -1.3473    3.3179    1.7392 H   0  0  0  0  0  0  0  0  0  0  0  0
   -2.3159    3.2765    3.2254 H   0  0  0  0  0  0  0  0  0  0  0  0
   -0.4070    0.8978    0.3804 N   0  0  0  0  0  0  0  0  0  0  0  0
    0.7960    0.5296   -0.3822 C   0  0  2  0  0  0  0  0  0  0  0  0
    1.8041    1.6923   -0.4205 C   0  0  0  0  0  0  0  0  0  0  0  0
    1.4047    2.8495   -0.5123 O   0  0  0  0  0  0  0  0  0  0  0  0
    0.3966    0.1560   -1.8195 C   0  0  0  0  0  0  0  0  0  0  0  0
   -0.4221   -1.1127   -1.8497 C   0  0  0  0  0  0  0  0  0  0  0  0
    0.2068   -2.3652   -1.7862 C   0  0  0  0  0  0  0  0  0  0  0  0
   -1.8214   -1.0569   -1.9430 C   0  0  0  0  0  0  0  0  0  0  0  0
   -0.5501   -3.5417   -1.8106 C   0  0  0  0  0  0  0  0  0  0  0  0
   -2.5792   -2.2325   -1.9685 C   0  0  0  0  0  0  0  0  0  0  0  0
   -1.9436   -3.4757   -1.9017 C   0  0  0  0  0  0  0  0  0  0  0  0
   -1.0075    1.6164   -0.0151 H   0  0  0  0  0  0  0  0  0  0  0  0
    1.2881   -0.3336    0.0778 H   0  0  0  0  0  0  0  0  0  0  0  0
    1.2973    0.0109   -2.4257 H   0  0  0  0  0  0  0  0  0  0  0  0
   -0.1659    0.9794   -2.2729 H   0  0  0  0  0  0  0  0  0  0  0  0
    1.2880   -2.4314   -1.7146 H   0  0  0  0  0  0  0  0  0  0  0  0
   -2.3279   -0.0981   -1.9950 H   0  0  0  0  0  0  0  0  0  0  0  0
   -0.0558   -4.5074   -1.7580 H   0  0  0  0  0  0  0  0  0  0  0  0
   -3.6618   -2.1798   -2.0403 H   0  0  0  0  0  0  0  0  0  0  0  0
   -2.5317   -4.3886   -1.9204 H   0  0  0  0  0  0  0  0  0  0  0  0
    3.1622    1.4458   -0.5017 N   0  0  0  0  0  0  0  0  0  0  0  0
    4.1829    2.4945   -0.6499 C   0  0  2  0  0  0  0  0  0  0  0  0
    4.2850    3.0075   -2.1069 C   0  0  0  0  0  0  0  0  0  0  0  0
    5.3040    2.8669   -2.7719 O   0  0  0  0  0  0  0  0  0  0  0  0
    5.5070    1.9299   -0.1201 C   0  0  0  0  0  0  0  0  0  0  0  0
    3.4666    0.4768   -0.4701 H   0  0  0  0  0  0  0  0  0  0  0  0
    3.9162    3.3540   -0.0254 H   0  0  0  0  0  0  0  0  0  0  0  0
    5.8266    1.0692   -0.7164 H   0  0  0  0  0  0  0  0  0  0  0  0
    6.2904    2.6933   -0.1687 H   0  0  0  0  0  0  0  0  0  0  0  0
    5.3985    1.6142    0.9221 H   0  0  0  0  0  0  0  0  0  0  0  0
    3.1875    3.6189   -2.6800 N   0  0  0  0  0  0  0  0  0  0  0  0
    3.1467    4.1034   -4.0527 C   0  0  0  0  0  0  0  0  0  0  0  0
    2.3455    3.6696   -2.1009 H   0  0  0  0  0  0  0  0  0  0  0  0
    3.9150    4.8672   -4.2115 H   0  0  0  0  0  0  0  0  0  0  0  0
    3.3159    3.2802   -4.7547 H   0  0  0  0  0  0  0  0  0  0  0  0
    2.1695    4.5468   -4.2672 H   0  0  0  0  0  0  0  0  0  0  0  0
  1  2  2  0  0  0  0
  1  3  1  0  0  0  0
  1  7  1  0  0  0  0
  3  4  1  0  0  0  0
  3  5  1  0  0  0  0
  3  6  1  0  0  0  0
  7  8  1  0  0  0  0
  7 12  1  0  0  0  0
  8  9  1  0  0  0  0
  8 11  1  0  0  0  0
  8 13  1  0  0  0  0
  9 10  2  0  0  0  0
  9 17  1  0  0  0  0
 11 14  1  0  0  0  0
 11 15  1  0  0  0  0
 11 16  1  0  0  0  0
 17 18  1  0  0  0  0
 17 28  1  0  0  0  0
 18 19  1  0  0  0  0
 18 21  1  0  0  0  0
 18 29  1  0  0  0  0
 19 20  2  0  0  0  0
 19 37  1  0  0  0  0
 21 22  1  0  0  0  0
 21 30  1  0  0  0  0
 21 31  1  0  0  0  0
 22 23  1  0  0  0  0
 22 24  2  0  0  0  0
 23 25  2  0  0  0  0
 23 32  1  0  0  0  0
 24 26  1  0  0  0  0
 24 33  1  0  0  0  0
 25 27  1  0  0  0  0
 25 34  1  0  0  0  0
 26 27  2  0  0  0  0
 26 35  1  0  0  0  0
 27 36  1  0  0  0  0
 37 38  1  0  0  0  0
 37 42  1  0  0  0  0
 38 39  1  0  0  0  0
 38 41  1  0  0  0  0
 38 43  1  0  0  0  0
 39 40  2  0  0  0  0
 39 47  1  0  0  0  0
 41 44  1  0  0  0  0
 41 45  1  0  0  0  0
 41 46  1  0  0  0  0
 47 48  1  0  0  0  0
 47 49  1  0  0  0  0
 48 50  1  0  0  0  0
 48 51  1  0  0  0  0
 48 52  1  0  0  0  0
M  END
$$$$

  -OEChem-05262217163D

 52 52  0     1  0  0  0  0  0999 V2000
   -3.0087    0.6361    4.4844 C   0  0  0  0  0  0  0  0  0  0  0  0
   -4.0056    1.1637    4.0173 O   0  0  0  0  0  0  0  0  0  0  0  0
   -3.1015   -0.1635    5.7703 C   0  0  0  0  0  0  0  0  0  0  0  0
   -4.1316   -0.1689    6.1375 H   0  0  0  0  0  0  0  0  0  0  0  0
   -2.7858   -1.1944    5.5923 H   0  0  0  0  0  0  0  0  0  0  0  0
   -2.4582    0.2809    6.5337 H   0  0  0  0  0  0  0  0  0  0  0  0
   -1.7967    0.7551    3.8385 N   0  0  0  0  0  0  0  0  0  0  0  0
   -1.6189    1.3664    2.5148 C   0  0  2  0  0  0  0  0  0  0  0  0
   -0.5129    0.6585    1.7059 C   0  0  0  0  0  0  0  0  0  0  0  0
    0.2978   -0.0679    2.2739 O   0  0  0  0  0  0  0  0  0  0  0  0
   -1.2736    2.8462    2.7079 C   0  0  0  0  0  0  0  0  0  0  0  0
   -1.0208    0.1975    4.1932 H   0  0  0  0  0  0  0  0  0  0  0  0
   -2.5470    1.2844    1.9386 H   0  0  0  0  0  0  0  0  0  0  0  0
   -0.3419    2.9509    3.2729 H   0  0  0  0  0  0  0  0  0  0  0  0
   -1.1502    3.3421    1.7401 H   0  0  0  0  0  0  0  0  0  0  0  0
   -2.0731    3.3541    3.2567 H   0  0  0  0  0  0  0  0  0  0  0  0
   -0.4056    0.8693    0.3439 N   0  0  0  0  0  0  0  0  0  0  0  0
    0.7894    0.4819   -0.4243 C   0  0  2  0  0  0  0  0  0  0  0  0
    1.8238    1.6234   -0.4750 C   0  0  0  0  0  0  0  0  0  0  0  0
    1.4714    2.7894   -0.3203 O   0  0  0  0  0  0  0  0  0  0  0  0
    0.3641    0.1083   -1.8549 C   0  0  0  0  0  0  0  0  0  0  0  0
   -0.4730   -1.1484   -1.8682 C   0  0  0  0  0  0  0  0  0  0  0  0
    0.1399   -2.4093   -1.8085 C   0  0  0  0  0  0  0  0  0  0  0  0
   -1.8725   -1.0739   -1.9362 C   0  0  0  0  0  0  0  0  0  0  0  0
   -0.6331   -3.5752   -1.8146 C   0  0  0  0  0  0  0  0  0  0  0  0
   -2.6467   -2.2390   -1.9422 C   0  0  0  0  0  0  0  0  0  0  0  0
   -2.0270   -3.4905   -1.8813 C   0  0  0  0  0  0  0  0  0  0  0  0
   -0.9667    1.6312   -0.0275 H   0  0  0  0  0  0  0  0  0  0  0  0
    1.2720   -0.3879    0.0340 H   0  0  0  0  0  0  0  0  0  0  0  0
    1.2509   -0.0533   -2.4766 H   0  0  0  0  0  0  0  0  0  0  0  0
   -0.1942    0.9377   -2.3020 H   0  0  0  0  0  0  0  0  0  0  0  0
    1.2211   -2.4904   -1.7554 H   0  0  0  0  0  0  0  0  0  0  0  0
   -2.3662   -0.1083   -1.9822 H   0  0  0  0  0  0  0  0  0  0  0  0
   -0.1508   -4.5471   -1.7664 H   0  0  0  0  0  0  0  0  0  0  0  0
   -3.7295   -2.1714   -1.9936 H   0  0  0  0  0  0  0  0  0  0  0  0
   -2.6278   -4.3953   -1.8853 H   0  0  0  0  0  0  0  0  0  0  0  0
    3.1255    1.3724   -0.8693 N   0  0  0  0  0  0  0  0  0  0  0  0
    4.1506    2.4124   -1.0458 C   0  0  2  0  0  0  0  0  0  0  0  0
    4.0102    3.1433   -2.4026 C   0  0  0  0  0  0  0  0  0  0  0  0
    4.8774    3.0759   -3.2649 O   0  0  0  0  0  0  0  0  0  0  0  0
    5.5192    1.7450   -0.8620 C   0  0  0  0  0  0  0  0  0  0  0  0
    3.3805    0.4080   -1.0627 H   0  0  0  0  0  0  0  0  0  0  0  0
    4.0439    3.1694   -0.2611 H   0  0  0  0  0  0  0  0  0  0  0  0
    5.6823    0.9789   -1.6267 H   0  0  0  0  0  0  0  0  0  0  0  0
    6.3168    2.4903   -0.9435 H   0  0  0  0  0  0  0  0  0  0  0  0
    5.5858    1.2764    0.1246 H   0  0  0  0  0  0  0  0  0  0  0  0
    2.8602    3.8637   -2.6578 N   0  0  0  0  0  0  0  0  0  0  0  0
    2.5850    4.5407   -3.9175 C   0  0  0  0  0  0  0  0  0  0  0  0
    2.1434    3.8420   -1.9282 H   0  0  0  0  0  0  0  0  0  0  0  0
    3.3454    5.3031   -4.1162 H   0  0  0  0  0  0  0  0  0  0  0  0
    2.5809    3.8231   -4.7444 H   0  0  0  0  0  0  0  0  0  0  0  0
    1.6068    5.0298   -3.8776 H   0  0  0  0  0  0  0  0  0  0  0  0
  1  2  2  0  0  0  0
  1  3  1  0  0  0  0
  1  7  1  0  0  0  0
  3  4  1  0  0  0  0
  3  5  1  0  0  0  0
  3  6  1  0  0  0  0
  7  8  1  0  0  0  0
  7 12  1  0  0  0  0
  8  9  1  0  0  0  0
  8 11  1  0  0  0  0
  8 13  1  0  0  0  0
  9 10  2  0  0  0  0
  9 17  1  0  0  0  0
 11 14  1  0  0  0  0
 11 15  1  0  0  0  0
 11 16  1  0  0  0  0
 17 18  1  0  0  0  0
 17 28  1  0  0  0  0
 18 19  1  0  0  0  0
 18 21  1  0  0  0  0
 18 29  1  0  0  0  0
 19 20  2  0  0  0  0
 19 37  1  0  0  0  0
 21 22  1  0  0  0  0
 21 30  1  0  0  0  0
 21 31  1  0  0  0  0
 22 23  1  0  0  0  0
 22 24  2  0  0  0  0
 23 25  2  0  0  0  0
 23 32  1  0  0  0  0
 24 26  1  0  0  0  0
 24 33  1  0  0  0  0
 25 27  1  0  0  0  0
 25 34  1  0  0  0  0
 26 27  2  0  0  0  0
 26 35  1  0  0  0  0
 27 36  1  0  0  0  0
 37 38  1  0  0  0  0
 37 42  1  0  0  0  0
 38 39  1  0  0  0  0
 38 41  1  0  0  0  0
 38 43  1  0  0  0  0
 39 40  2  0  0  0  0
 39 47  1  0  0  0  0
 41 44  1  0  0  0  0
 41 45  1  0  0  0  0
 41 46  1  0  0  0  0
 47 48  1  0  0  0  0
 47 49  1  0  0  0  0
 48 50  1  0  0  0  0
 48 51  1  0  0  0  0
 48 52  1  0  0  0  0
M  END
$$$$

  -OEChem-05262217163D

 52 52  0     1  0  0  0  0  0999 V2000
   -2.9136    0.6654    4.5037 C   0  0  0  0  0  0  0  0  0  0  0  0
   -3.9107    1.2160    4.0638 O   0  0  0  0  0  0  0  0  0  0  0  0
   -2.9876   -0.1274    5.7953 C   0  0  0  0  0  0  0  0  0  0  0  0
   -4.0153   -0.1454    6.1687 H   0  0  0  0  0  0  0  0  0  0  0  0
   -2.6579   -1.1547    5.6227 H   0  0  0  0  0  0  0  0  0  0  0  0
   -2.3458    0.3317    6.5511 H   0  0  0  0  0  0  0  0  0  0  0  0
   -1.7177    0.7545    3.8241 N   0  0  0  0  0  0  0  0  0  0  0  0
   -1.5643    1.3496    2.4902 C   0  0  2  0  0  0  0  0  0  0  0  0
   -0.5298    0.5832    1.6411 C   0  0  0  0  0  0  0  0  0  0  0  0
    0.2402   -0.2128    2.1725 O   0  0  0  0  0  0  0  0  0  0  0  0
   -1.1343    2.8091    2.6622 C   0  0  0  0  0  0  0  0  0  0  0  0
   -0.9487    0.1738    4.1561 H   0  0  0  0  0  0  0  0  0  0  0  0
   -2.5185    1.3138    1.9535 H   0  0  0  0  0  0  0  0  0  0  0  0
   -0.1733    2.8660    3.1839 H   0  0  0  0  0  0  0  0  0  0  0  0
   -1.0282    3.2975    1.6890 H   0  0  0  0  0  0  0  0  0  0  0  0
   -1.8817    3.3573    3.2440 H   0  0  0  0  0  0  0  0  0  0  0  0
   -0.4495    0.7987    0.2769 N   0  0  0  0  0  0  0  0  0  0  0  0
    0.7484    0.4126   -0.4883 C   0  0  2  0  0  0  0  0  0  0  0  0
    1.9301    1.3826   -0.2539 C   0  0  0  0  0  0  0  0  0  0  0  0
    1.7666    2.4426    0.3446 O   0  0  0  0  0  0  0  0  0  0  0  0
    0.3790    0.3664   -1.9837 C   0  0  0  0  0  0  0  0  0  0  0  0
   -0.5949   -0.7518   -2.2728 C   0  0  0  0  0  0  0  0  0  0  0  0
   -0.1350   -2.0686   -2.4278 C   0  0  0  0  0  0  0  0  0  0  0  0
   -1.9699   -0.4937   -2.3866 C   0  0  0  0  0  0  0  0  0  0  0  0
   -1.0331   -3.1092   -2.6881 C   0  0  0  0  0  0  0  0  0  0  0  0
   -2.8691   -1.5338   -2.6458 C   0  0  0  0  0  0  0  0  0  0  0  0
   -2.4009   -2.8423   -2.7962 C   0  0  0  0  0  0  0  0  0  0  0  0
   -0.9893    1.5857   -0.0697 H   0  0  0  0  0  0  0  0  0  0  0  0
    1.0772   -0.5851   -0.1782 H   0  0  0  0  0  0  0  0  0  0  0  0
    1.2770    0.2087   -2.5892 H   0  0  0  0  0  0  0  0  0  0  0  0
   -0.0478    1.3277   -2.2892 H   0  0  0  0  0  0  0  0  0  0  0  0
    0.9238   -2.2922   -2.3437 H   0  0  0  0  0  0  0  0  0  0  0  0
   -2.3484    0.5170   -2.2711 H   0  0  0  0  0  0  0  0  0  0  0  0
   -0.6685   -4.1257   -2.8040 H   0  0  0  0  0  0  0  0  0  0  0  0
   -3.9318   -1.3255   -2.7296 H   0  0  0  0  0  0  0  0  0  0  0  0
   -3.0990   -3.6502   -2.9963 H   0  0  0  0  0  0  0  0  0  0  0  0
    3.1425    1.1766   -0.8887 N   0  0  0  0  0  0  0  0  0  0  0  0
    4.2979    2.0811   -0.7840 C   0  0  2  0  0  0  0  0  0  0  0  0
    4.1719    3.3080   -1.7188 C   0  0  0  0  0  0  0  0  0  0  0  0
    4.9521    3.4981   -2.6439 O   0  0  0  0  0  0  0  0  0  0  0  0
    5.5584    1.2497   -1.0549 C   0  0  0  0  0  0  0  0  0  0  0  0
    3.2431    0.3324   -1.4444 H   0  0  0  0  0  0  0  0  0  0  0  0
    4.3689    2.4660    0.2392 H   0  0  0  0  0  0  0  0  0  0  0  0
    5.5411    0.8402   -2.0701 H   0  0  0  0  0  0  0  0  0  0  0  0
    6.4528    1.8721   -0.9495 H   0  0  0  0  0  0  0  0  0  0  0  0
    5.6302    0.4218   -0.3430 H   0  0  0  0  0  0  0  0  0  0  0  0
    3.1453    4.2068   -1.5088 N   0  0  0  0  0  0  0  0  0  0  0  0
    2.9156    5.3893   -2.3269 C   0  0  0  0  0  0  0  0  0  0  0  0
    2.4886    3.9735   -0.7592 H   0  0  0  0  0  0  0  0  0  0  0  0
    3.7980    6.0378   -2.3176 H   0  0  0  0  0  0  0  0  0  0  0  0
    2.6989    5.1031   -3.3612 H   0  0  0  0  0  0  0  0  0  0  0  0
    2.0655    5.9576   -1.9378 H   0  0  0  0  0  0  0  0  0  0  0  0
  1  2  2  0  0  0  0
  1  3  1  0  0  0  0
  1  7  1  0  0  0  0
  3  4  1  0  0  0  0
  3  5  1  0  0  0  0
  3  6  1  0  0  0  0
  7  8  1  0  0  0  0
  7 12  1  0  0  0  0
  8  9  1  0  0  0  0
  8 11  1  0  0  0  0
  8 13  1  0  0  0  0
  9 10  2  0  0  0  0
  9 17  1  0  0  0  0
 11 14  1  0  0  0  0
 11 15  1  0  0  0  0
 11 16  1  0  0  0  0
 17 18  1  0  0  0  0
 17 28  1  0  0  0  0
 18 19  1  0  0  0  0
 18 21  1  0  0  0  0
 18 29  1  0  0  0  0
 19 20  2  0  0  0  0
 19 37  1  0  0  0  0
 21 22  1  0  0  0  0
 21 30  1  0  0  0  0
 21 31  1  0  0  0  0
 22 23  1  0  0  0  0
 22 24  2  0  0  0  0
 23 25  2  0  0  0  0
 23 32  1  0  0  0  0
 24 26  1  0  0  0  0
 24 33  1  0  0  0  0
 25 27  1  0  0  0  0
 25 34  1  0  0  0  0
 26 27  2  0  0  0  0
 26 35  1  0  0  0  0
 27 36  1  0  0  0  0
 37 38  1  0  0  0  0
 37 42  1  0  0  0  0
 38 39  1  0  0  0  0
 38 41  1  0  0  0  0
 38 43  1  0  0  0  0
 39 40  2  0  0  0  0
 39 47  1  0  0  0  0
 41 44  1  0  0  0  0
 41 45  1  0  0  0  0
 41 46  1  0  0  0  0
 47 48  1  0  0  0  0
 47 49  1  0  0  0  0
 48 50  1  0  0  0  0
 48 51  1  0  0  0  0
 48 52  1  0  0  0  0
M  END
$$$$

  -OEChem-05262217163D

 52 52  0     1  0  0  0  0  0999 V2000
   -2.8488    0.7706    4.4848 C   0  0  0  0  0  0  0  0  0  0  0  0
   -3.7899    1.4237    4.0620 O   0  0  0  0  0  0  0  0  0  0  0  0
   -2.9965   -0.0410    5.7579 C   0  0  0  0  0  0  0  0  0  0  0  0
   -3.9933    0.1046    6.1832 H   0  0  0  0  0  0  0  0  0  0  0  0
   -2.8576   -1.1031    5.5423 H   0  0  0  0  0  0  0  0  0  0  0  0
   -2.2505    0.2753    6.4909 H   0  0  0  0  0  0  0  0  0  0  0  0
   -1.6521    0.7601    3.8008 N   0  0  0  0  0  0  0  0  0  0  0  0
   -1.4426    1.3819    2.4871 C   0  0  2  0  0  0  0  0  0  0  0  0
   -0.4636    0.5661    1.6194 C   0  0  0  0  0  0  0  0  0  0  0  0
    0.2678   -0.2748    2.1355 O   0  0  0  0  0  0  0  0  0  0  0  0
   -0.9018    2.7984    2.7037 C   0  0  0  0  0  0  0  0  0  0  0  0
   -0.9342    0.1104    4.1197 H   0  0  0  0  0  0  0  0  0  0  0  0
   -2.3928    1.4362    1.9449 H   0  0  0  0  0  0  0  0  0  0  0  0
    0.0569    2.7647    3.2318 H   0  0  0  0  0  0  0  0  0  0  0  0
   -0.7503    3.3033    1.7449 H   0  0  0  0  0  0  0  0  0  0  0  0
   -1.6077    3.3881    3.2970 H   0  0  0  0  0  0  0  0  0  0  0  0
   -0.3996    0.7808    0.2538 N   0  0  0  0  0  0  0  0  0  0  0  0
    0.7796    0.3709   -0.5286 C   0  0  2  0  0  0  0  0  0  0  0  0
    1.9843    1.3222   -0.3091 C   0  0  0  0  0  0  0  0  0  0  0  0
    1.9124    2.2578    0.4830 O   0  0  0  0  0  0  0  0  0  0  0  0
    0.3710    0.3234   -2.0154 C   0  0  0  0  0  0  0  0  0  0  0  0
   -0.6282   -0.7792   -2.2735 C   0  0  0  0  0  0  0  0  0  0  0  0
   -0.1978   -2.1052   -2.4333 C   0  0  0  0  0  0  0  0  0  0  0  0
   -1.9996   -0.4934   -2.3597 C   0  0  0  0  0  0  0  0  0  0  0  0
   -1.1228   -3.1281   -2.6692 C   0  0  0  0  0  0  0  0  0  0  0  0
   -2.9253   -1.5156   -2.5941 C   0  0  0  0  0  0  0  0  0  0  0  0
   -2.4871   -2.8338   -2.7486 C   0  0  0  0  0  0  0  0  0  0  0  0
   -0.9231    1.5835   -0.0809 H   0  0  0  0  0  0  0  0  0  0  0  0
    1.0984   -0.6316   -0.2223 H   0  0  0  0  0  0  0  0  0  0  0  0
    1.2465    0.1400   -2.6453 H   0  0  0  0  0  0  0  0  0  0  0  0
   -0.0437    1.2914   -2.3168 H   0  0  0  0  0  0  0  0  0  0  0  0
    0.8579   -2.3504   -2.3691 H   0  0  0  0  0  0  0  0  0  0  0  0
   -2.3551    0.5255   -2.2418 H   0  0  0  0  0  0  0  0  0  0  0  0
   -0.7818   -4.1525   -2.7884 H   0  0  0  0  0  0  0  0  0  0  0  0
   -3.9851   -1.2856   -2.6553 H   0  0  0  0  0  0  0  0  0  0  0  0
   -3.2055   -3.6282   -2.9288 H   0  0  0  0  0  0  0  0  0  0  0  0
    3.0724    1.2991   -1.1654 N   0  0  0  0  0  0  0  0  0  0  0  0
    4.1778    2.2697   -1.1324 C   0  0  2  0  0  0  0  0  0  0  0  0
    3.8051    3.6057   -1.8202 C   0  0  0  0  0  0  0  0  0  0  0  0
    4.3708    3.9871   -2.8375 O   0  0  0  0  0  0  0  0  0  0  0  0
    5.4000    1.5941   -1.7666 C   0  0  0  0  0  0  0  0  0  0  0  0
    3.0837    0.5862   -1.8887 H   0  0  0  0  0  0  0  0  0  0  0  0
    4.4305    2.5022   -0.0921 H   0  0  0  0  0  0  0  0  0  0  0  0
    5.2048    1.3509   -2.8160 H   0  0  0  0  0  0  0  0  0  0  0  0
    6.2666    2.2615   -1.7219 H   0  0  0  0  0  0  0  0  0  0  0  0
    5.6481    0.6721   -1.2322 H   0  0  0  0  0  0  0  0  0  0  0  0
    2.7902    4.3755   -1.2879 N   0  0  0  0  0  0  0  0  0  0  0  0
    2.3329    5.6336   -1.8618 C   0  0  0  0  0  0  0  0  0  0  0  0
    2.3156    3.9898   -0.4673 H   0  0  0  0  0  0  0  0  0  0  0  0
    3.1403    6.3732   -1.8519 H   0  0  0  0  0  0  0  0  0  0  0  0
    2.0015    5.4867   -2.8951 H   0  0  0  0  0  0  0  0  0  0  0  0
    1.4930    6.0297   -1.2833 H   0  0  0  0  0  0  0  0  0  0  0  0
  1  2  2  0  0  0  0
  1  3  1  0  0  0  0
  1  7  1  0  0  0  0
  3  4  1  0  0  0  0
  3  5  1  0  0  0  0
  3  6  1  0  0  0  0
  7  8  1  0  0  0  0
  7 12  1  0  0  0  0
  8  9  1  0  0  0  0
  8 11  1  0  0  0  0
  8 13  1  0  0  0  0
  9 10  2  0  0  0  0
  9 17  1  0  0  0  0
 11 14  1  0  0  0  0
 11 15  1  0  0  0  0
 11 16  1  0  0  0  0
 17 18  1  0  0  0  0
 17 28  1  0  0  0  0
 18 19  1  0  0  0  0
 18 21  1  0  0  0  0
 18 29  1  0  0  0  0
 19 20  2  0  0  0  0
 19 37  1  0  0  0  0
 21 22  1  0  0  0  0
 21 30  1  0  0  0  0
 21 31  1  0  0  0  0
 22 23  1  0  0  0  0
 22 24  2  0  0  0  0
 23 25  2  0  0  0  0
 23 32  1  0  0  0  0
 24 26  1  0  0  0  0
 24 33  1  0  0  0  0
 25 27  1  0  0  0  0
 25 34  1  0  0  0  0
 26 27  2  0  0  0  0
 26 35  1  0  0  0  0
 27 36  1  0  0  0  0
 37 38  1  0  0  0  0
 37 42  1  0  0  0  0
 38 39  1  0  0  0  0
 38 41  1  0  0  0  0
 38 43  1  0  0  0  0
 39 40  2  0  0  0  0
 39 47  1  0  0  0  0
 41 44  1  0  0  0  0
 41 45  1  0  0  0  0
 41 46  1  0  0  0  0
 47 48  1  0  0  0  0
 47 49  1  0  0  0  0
 48 50  1  0  0  0  0
 48 51  1  0  0  0  0
 48 52  1  0  0  0  0
M  END
$$$$

  -OEChem-05262217163D

 52 52  0     1  0  0  0  0  0999 V2000
   -2.7404    0.8382    4.4542 C   0  0  0  0  0  0  0  0  0  0  0  0
   -3.7274    1.4090    4.0168 O   0  0  0  0  0  0  0  0  0  0  0  0
   -2.8240    0.0619    5.7548 C   0  0  0  0  0  0  0  0  0  0  0  0
   -3.8382    0.1139    6.1607 H   0  0  0  0  0  0  0  0  0  0  0  0
   -2.5669   -0.9859    5.5810 H   0  0  0  0  0  0  0  0  0  0  0  0
   -2.1299    0.4845    6.4854 H   0  0  0  0  0  0  0  0  0  0  0  0
   -1.5479    0.8892    3.7649 N   0  0  0  0  0  0  0  0  0  0  0  0
   -1.3960    1.4459    2.4147 C   0  0  2  0  0  0  0  0  0  0  0  0
   -0.4385    0.5976    1.5535 C   0  0  0  0  0  0  0  0  0  0  0  0
    0.2739   -0.2556    2.0752 O   0  0  0  0  0  0  0  0  0  0  0  0
   -0.8703    2.8785    2.5431 C   0  0  0  0  0  0  0  0  0  0  0  0
   -0.7967    0.2831    4.0925 H   0  0  0  0  0  0  0  0  0  0  0  0
   -2.3645    1.4606    1.9039 H   0  0  0  0  0  0  0  0  0  0  0  0
    0.1090    2.8832    3.0330 H   0  0  0  0  0  0  0  0  0  0  0  0
   -0.7660    3.3414    1.5574 H   0  0  0  0  0  0  0  0  0  0  0  0
   -1.5619    3.4839    3.1375 H   0  0  0  0  0  0  0  0  0  0  0  0
   -0.3901    0.7838    0.1828 N   0  0  0  0  0  0  0  0  0  0  0  0
    0.7691    0.3462   -0.6161 C   0  0  2  0  0  0  0  0  0  0  0  0
    1.9906    1.2901   -0.4366 C   0  0  0  0  0  0  0  0  0  0  0  0
    2.0620    2.0533    0.5219 O   0  0  0  0  0  0  0  0  0  0  0  0
    0.3172    0.2507   -2.0890 C   0  0  0  0  0  0  0  0  0  0  0  0
   -0.6908   -0.8574   -2.2846 C   0  0  0  0  0  0  0  0  0  0  0  0
   -0.2692   -2.1899   -2.4148 C   0  0  0  0  0  0  0  0  0  0  0  0
   -2.0633   -0.5694   -2.3411 C   0  0  0  0  0  0  0  0  0  0  0  0
   -1.2039   -3.2159   -2.5932 C   0  0  0  0  0  0  0  0  0  0  0  0
   -2.9982   -1.5945   -2.5186 C   0  0  0  0  0  0  0  0  0  0  0  0
   -2.5688   -2.9185   -2.6439 C   0  0  0  0  0  0  0  0  0  0  0  0
   -0.9235    1.5744   -0.1643 H   0  0  0  0  0  0  0  0  0  0  0  0
    1.0885   -0.6497   -0.2897 H   0  0  0  0  0  0  0  0  0  0  0  0
    1.1729    0.0366   -2.7358 H   0  0  0  0  0  0  0  0  0  0  0  0
   -0.1020    1.2096   -2.4121 H   0  0  0  0  0  0  0  0  0  0  0  0
    0.7873   -2.4371   -2.3737 H   0  0  0  0  0  0  0  0  0  0  0  0
   -2.4124    0.4539   -2.2440 H   0  0  0  0  0  0  0  0  0  0  0  0
   -0.8698   -4.2448   -2.6901 H   0  0  0  0  0  0  0  0  0  0  0  0
   -4.0584   -1.3622   -2.5575 H   0  0  0  0  0  0  0  0  0  0  0  0
   -3.2945   -3.7151   -2.7787 H   0  0  0  0  0  0  0  0  0  0  0  0
    2.9156    1.4770   -1.4516 N   0  0  0  0  0  0  0  0  0  0  0  0
    3.9807    2.4925   -1.4267 C   0  0  2  0  0  0  0  0  0  0  0  0
    3.4456    3.9090   -1.7486 C   0  0  0  0  0  0  0  0  0  0  0  0
    3.7107    4.4755   -2.8019 O   0  0  0  0  0  0  0  0  0  0  0  0
    5.0783    2.0371   -2.3963 C   0  0  0  0  0  0  0  0  0  0  0  0
    2.7942    0.9349   -2.3015 H   0  0  0  0  0  0  0  0  0  0  0  0
    4.4220    2.5355   -0.4248 H   0  0  0  0  0  0  0  0  0  0  0  0
    4.6894    1.9685   -3.4172 H   0  0  0  0  0  0  0  0  0  0  0  0
    5.9079    2.7515   -2.3905 H   0  0  0  0  0  0  0  0  0  0  0  0
    5.4657    1.0573   -2.1013 H   0  0  0  0  0  0  0  0  0  0  0  0
    2.6232    4.5366   -0.8343 N   0  0  0  0  0  0  0  0  0  0  0  0
    1.9975    5.8332   -1.0550 C   0  0  0  0  0  0  0  0  0  0  0  0
    2.3382    3.9706   -0.0303 H   0  0  0  0  0  0  0  0  0  0  0  0
    2.7539    6.5900   -1.2877 H   0  0  0  0  0  0  0  0  0  0  0  0
    1.2864    5.7786   -1.8856 H   0  0  0  0  0  0  0  0  0  0  0  0
    1.4602    6.1503   -0.1560 H   0  0  0  0  0  0  0  0  0  0  0  0
  1  2  2  0  0  0  0
  1  3  1  0  0  0  0
  1  7  1  0  0  0  0
  3  4  1  0  0  0  0
  3  5  1  0  0  0  0
  3  6  1  0  0  0  0
  7  8  1  0  0  0  0
  7 12  1  0  0  0  0
  8  9  1  0  0  0  0
  8 11  1  0  0  0  0
  8 13  1  0  0  0  0
  9 10  2  0  0  0  0
  9 17  1  0  0  0  0
 11 14  1  0  0  0  0
 11 15  1  0  0  0  0
 11 16  1  0  0  0  0
 17 18  1  0  0  0  0
 17 28  1  0  0  0  0
 18 19  1  0  0  0  0
 18 21  1  0  0  0  0
 18 29  1  0  0  0  0
 19 20  2  0  0  0  0
 19 37  1  0  0  0  0
 21 22  1  0  0  0  0
 21 30  1  0  0  0  0
 21 31  1  0  0  0  0
 22 23  1  0  0  0  0
 22 24  2  0  0  0  0
 23 25  2  0  0  0  0
 23 32  1  0  0  0  0
 24 26  1  0  0  0  0
 24 33  1  0  0  0  0
 25 27  1  0  0  0  0
 25 34  1  0  0  0  0
 26 27  2  0  0  0  0
 26 35  1  0  0  0  0
 27 36  1  0  0  0  0
 37 38  1  0  0  0  0
 37 42  1  0  0  0  0
 38 39  1  0  0  0  0
 38 41  1  0  0  0  0
 38 43  1  0  0  0  0
 39 40  2  0  0  0  0
 39 47  1  0  0  0  0
 41 44  1  0  0  0  0
 41 45  1  0  0  0  0
 41 46  1  0  0  0  0
 47 48  1  0  0  0  0
 47 49  1  0  0  0  0
 48 50  1  0  0  0  0
 48 51  1  0  0  0  0
 48 52  1  0  0  0  0
M  END
$$$$

  -OEChem-05262217163D

 52 52  0     1  0  0  0  0  0999 V2000
   -2.6478    0.9750    4.4329 C   0  0  0  0  0  0  0  0  0  0  0  0
   -3.6029    1.6059    4.0072 O   0  0  0  0  0  0  0  0  0  0  0  0
   -2.7585    0.2181    5.7431 C   0  0  0  0  0  0  0  0  0  0  0  0
   -3.7667    0.3205    6.1543 H   0  0  0  0  0  0  0  0  0  0  0  0
   -2.5508   -0.8424    5.5813 H   0  0  0  0  0  0  0  0  0  0  0  0
   -2.0413    0.6168    6.4646 H   0  0  0  0  0  0  0  0  0  0  0  0
   -1.4664    0.9458    3.7234 N   0  0  0  0  0  0  0  0  0  0  0  0
   -1.2971    1.5013    2.3748 C   0  0  2  0  0  0  0  0  0  0  0  0
   -0.3919    0.6120    1.4990 C   0  0  0  0  0  0  0  0  0  0  0  0
    0.3043   -0.2588    2.0120 O   0  0  0  0  0  0  0  0  0  0  0  0
   -0.6950    2.9037    2.5047 C   0  0  0  0  0  0  0  0  0  0  0  0
   -0.7473    0.2972    4.0421 H   0  0  0  0  0  0  0  0  0  0  0  0
   -2.2685    1.5692    1.8738 H   0  0  0  0  0  0  0  0  0  0  0  0
    0.2836    2.8552    2.9937 H   0  0  0  0  0  0  0  0  0  0  0  0
   -0.5668    3.3614    1.5192 H   0  0  0  0  0  0  0  0  0  0  0  0
   -1.3527    3.5442    3.1009 H   0  0  0  0  0  0  0  0  0  0  0  0
   -0.3793    0.7804    0.1250 N   0  0  0  0  0  0  0  0  0  0  0  0
    0.7588    0.3404   -0.7022 C   0  0  2  0  0  0  0  0  0  0  0  0
    1.9753    1.2975   -0.5652 C   0  0  0  0  0  0  0  0  0  0  0  0
    2.2206    1.8588    0.4970 O   0  0  0  0  0  0  0  0  0  0  0  0
    0.2710    0.1983   -2.1593 C   0  0  0  0  0  0  0  0  0  0  0  0
   -0.7222   -0.9304   -2.2967 C   0  0  0  0  0  0  0  0  0  0  0  0
   -0.2798   -2.2580   -2.4011 C   0  0  0  0  0  0  0  0  0  0  0  0
   -2.1004   -0.6670   -2.3255 C   0  0  0  0  0  0  0  0  0  0  0  0
   -1.1994   -3.3048   -2.5260 C   0  0  0  0  0  0  0  0  0  0  0  0
   -3.0206   -1.7130   -2.4507 C   0  0  0  0  0  0  0  0  0  0  0  0
   -2.5703   -3.0326   -2.5507 C   0  0  0  0  0  0  0  0  0  0  0  0
   -0.9267    1.5637   -0.2168 H   0  0  0  0  0  0  0  0  0  0  0  0
    1.1002   -0.6441   -0.3633 H   0  0  0  0  0  0  0  0  0  0  0  0
    1.1160   -0.0229   -2.8185 H   0  0  0  0  0  0  0  0  0  0  0  0
   -0.1732    1.1398   -2.4991 H   0  0  0  0  0  0  0  0  0  0  0  0
    0.7816   -2.4855   -2.3789 H   0  0  0  0  0  0  0  0  0  0  0  0
   -2.4654    0.3522   -2.2474 H   0  0  0  0  0  0  0  0  0  0  0  0
   -0.8493   -4.3302   -2.6008 H   0  0  0  0  0  0  0  0  0  0  0  0
   -4.0857   -1.5010   -2.4681 H   0  0  0  0  0  0  0  0  0  0  0  0
   -3.2849   -3.8451   -2.6456 H   0  0  0  0  0  0  0  0  0  0  0  0
    2.6889    1.7240   -1.6743 N   0  0  0  0  0  0  0  0  0  0  0  0
    3.6989    2.7938   -1.6497 C   0  0  2  0  0  0  0  0  0  0  0  0
    3.0580    4.2014   -1.5717 C   0  0  0  0  0  0  0  0  0  0  0  0
    3.0781    4.9719   -2.5238 O   0  0  0  0  0  0  0  0  0  0  0  0
    4.5857    2.6133   -2.8884 C   0  0  0  0  0  0  0  0  0  0  0  0
    2.3959    1.3712   -2.5802 H   0  0  0  0  0  0  0  0  0  0  0  0
    4.3348    2.6780   -0.7651 H   0  0  0  0  0  0  0  0  0  0  0  0
    3.9946    2.7102   -3.8049 H   0  0  0  0  0  0  0  0  0  0  0  0
    5.3730    3.3737   -2.9044 H   0  0  0  0  0  0  0  0  0  0  0  0
    5.0591    1.6267   -2.8792 H   0  0  0  0  0  0  0  0  0  0  0  0
    2.4097    4.5805   -0.4130 N   0  0  0  0  0  0  0  0  0  0  0  0
    1.6905    5.8371   -0.2540 C   0  0  0  0  0  0  0  0  0  0  0  0
    2.3218    3.8563    0.3051 H   0  0  0  0  0  0  0  0  0  0  0  0
    2.3533    6.6863   -0.4516 H   0  0  0  0  0  0  0  0  0  0  0  0
    0.8424    5.8832   -0.9450 H   0  0  0  0  0  0  0  0  0  0  0  0
    1.3113    5.9276    0.7686 H   0  0  0  0  0  0  0  0  0  0  0  0
  1  2  2  0  0  0  0
  1  3  1  0  0  0  0
  1  7  1  0  0  0  0
  3  4  1  0  0  0  0
  3  5  1  0  0  0  0
  3  6  1  0  0  0  0
  7  8  1  0  0  0  0
  7 12  1  0  0  0  0
  8  9  1  0  0  0  0
  8 11  1  0  0  0  0
  8 13  1  0  0  0  0
  9 10  2  0  0  0  0
  9 17  1  0  0  0  0
 11 14  1  0  0  0  0
 11 15  1  0  0  0  0
 11 16  1  0  0  0  0
 17 18  1  0  0  0  0
 17 28  1  0  0  0  0
 18 19  1  0  0  0  0
 18 21  1  0  0  0  0
 18 29  1  0  0  0  0
 19 20  2  0  0  0  0
 19 37  1  0  0  0  0
 21 22  1  0  0  0  0
 21 30  1  0  0  0  0
 21 31  1  0  0  0  0
 22 23  1  0  0  0  0
 22 24  2  0  0  0  0
 23 25  2  0  0  0  0
 23 32  1  0  0  0  0
 24 26  1  0  0  0  0
 24 33  1  0  0  0  0
 25 27  1  0  0  0  0
 25 34  1  0  0  0  0
 26 27  2  0  0  0  0
 26 35  1  0  0  0  0
 27 36  1  0  0  0  0
 37 38  1  0  0  0  0
 37 42  1  0  0  0  0
 38 39  1  0  0  0  0
 38 41  1  0  0  0  0
 38 43  1  0  0  0  0
 39 40  2  0  0  0  0
 39 47  1  0  0  0  0
 41 44  1  0  0  0  0
 41 45  1  0  0  0  0
 41 46  1  0  0  0  0
 47 48  1  0  0  0  0
 47 49  1  0  0  0  0
 48 50  1  0  0  0  0
 48 51  1  0  0  0  0
 48 52  1  0  0  0  0
M  END
$$$$

  -OEChem-05262217163D

 52 52  0     1  0  0  0  0  0999 V2000
   -2.5014    1.0829    4.4607 C   0  0  0  0  0  0  0  0  0  0  0  0
   -3.4765    1.7063    4.0712 O   0  0  0  0  0  0  0  0  0  0  0  0
   -2.5478    0.3456    5.7857 C   0  0  0  0  0  0  0  0  0  0  0  0
   -3.5320    0.4612    6.2483 H   0  0  0  0  0  0  0  0  0  0  0  0
   -2.3563   -0.7185    5.6274 H   0  0  0  0  0  0  0  0  0  0  0  0
   -1.7908    0.7483    6.4628 H   0  0  0  0  0  0  0  0  0  0  0  0
   -1.3587    1.0363    3.6914 N   0  0  0  0  0  0  0  0  0  0  0  0
   -1.2655    1.5446    2.3173 C   0  0  2  0  0  0  0  0  0  0  0  0
   -0.3745    0.6440    1.4379 C   0  0  0  0  0  0  0  0  0  0  0  0
    0.3344   -0.2145    1.9529 O   0  0  0  0  0  0  0  0  0  0  0  0
   -0.6988    2.9670    2.3672 C   0  0  0  0  0  0  0  0  0  0  0  0
   -0.6255    0.3920    3.9867 H   0  0  0  0  0  0  0  0  0  0  0  0
   -2.2598    1.5667    1.8589 H   0  0  0  0  0  0  0  0  0  0  0  0
    0.3079    2.9623    2.7980 H   0  0  0  0  0  0  0  0  0  0  0  0
   -0.6443    3.3962    1.3623 H   0  0  0  0  0  0  0  0  0  0  0  0
   -1.3391    3.6076    2.9819 H   0  0  0  0  0  0  0  0  0  0  0  0
   -0.3919    0.7862    0.0611 N   0  0  0  0  0  0  0  0  0  0  0  0
    0.7348    0.3531   -0.7852 C   0  0  2  0  0  0  0  0  0  0  0  0
    1.9296    1.3376   -0.6885 C   0  0  0  0  0  0  0  0  0  0  0  0
    2.3672    1.6926    0.3991 O   0  0  0  0  0  0  0  0  0  0  0  0
    0.2285    0.1611   -2.2294 C   0  0  0  0  0  0  0  0  0  0  0  0
   -0.7370   -0.9961   -2.3204 C   0  0  0  0  0  0  0  0  0  0  0  0
   -0.2611   -2.3138   -2.3974 C   0  0  0  0  0  0  0  0  0  0  0  0
   -2.1223   -0.7706   -2.3298 C   0  0  0  0  0  0  0  0  0  0  0  0
   -1.1543   -3.3878   -2.4768 C   0  0  0  0  0  0  0  0  0  0  0  0
   -3.0163   -1.8437   -2.4093 C   0  0  0  0  0  0  0  0  0  0  0  0
   -2.5323   -3.1530   -2.4824 C   0  0  0  0  0  0  0  0  0  0  0  0
   -0.9713    1.5439   -0.2860 H   0  0  0  0  0  0  0  0  0  0  0  0
    1.1080   -0.6146   -0.4309 H   0  0  0  0  0  0  0  0  0  0  0  0
    1.0738   -0.0501   -2.8931 H   0  0  0  0  0  0  0  0  0  0  0  0
   -0.2492    1.0799   -2.5856 H   0  0  0  0  0  0  0  0  0  0  0  0
    0.8066   -2.5116   -2.3881 H   0  0  0  0  0  0  0  0  0  0  0  0
   -2.5134    0.2404   -2.2714 H   0  0  0  0  0  0  0  0  0  0  0  0
   -0.7776   -4.4052   -2.5305 H   0  0  0  0  0  0  0  0  0  0  0  0
   -4.0869   -1.6601   -2.4120 H   0  0  0  0  0  0  0  0  0  0  0  0
   -3.2255   -3.9869   -2.5412 H   0  0  0  0  0  0  0  0  0  0  0  0
    2.4114    2.0002   -1.8062 N   0  0  0  0  0  0  0  0  0  0  0  0
    3.3579    3.1252   -1.7491 C   0  0  2  0  0  0  0  0  0  0  0  0
    2.6748    4.4337   -1.2818 C   0  0  0  0  0  0  0  0  0  0  0  0
    2.4449    5.3529   -2.0580 O   0  0  0  0  0  0  0  0  0  0  0  0
    4.0050    3.2538   -3.1332 C   0  0  0  0  0  0  0  0  0  0  0  0
    1.9400    1.8230   -2.6879 H   0  0  0  0  0  0  0  0  0  0  0  0
    4.1540    2.9011   -1.0305 H   0  0  0  0  0  0  0  0  0  0  0  0
    3.2490    3.4636   -3.8968 H   0  0  0  0  0  0  0  0  0  0  0  0
    4.7337    4.0708   -3.1349 H   0  0  0  0  0  0  0  0  0  0  0  0
    4.5241    2.3276   -3.3981 H   0  0  0  0  0  0  0  0  0  0  0  0
    2.2665    4.5432    0.0326 N   0  0  0  0  0  0  0  0  0  0  0  0
    1.5336    5.6824    0.5671 C   0  0  0  0  0  0  0  0  0  0  0  0
    2.3666    3.6976    0.6013 H   0  0  0  0  0  0  0  0  0  0  0  0
    2.0979    6.6081    0.4124 H   0  0  0  0  0  0  0  0  0  0  0  0
    0.5601    5.7764    0.0753 H   0  0  0  0  0  0  0  0  0  0  0  0
    1.3702    5.5544    1.6415 H   0  0  0  0  0  0  0  0  0  0  0  0
  1  2  2  0  0  0  0
  1  3  1  0  0  0  0
  1  7  1  0  0  0  0
  3  4  1  0  0  0  0
  3  5  1  0  0  0  0
  3  6  1  0  0  0  0
  7  8  1  0  0  0  0
  7 12  1  0  0  0  0
  8  9  1  0  0  0  0
  8 11  1  0  0  0  0
  8 13  1  0  0  0  0
  9 10  2  0  0  0  0
  9 17  1  0  0  0  0
 11 14  1  0  0  0  0
 11 15  1  0  0  0  0
 11 16  1  0  0  0  0
 17 18  1  0  0  0  0
 17 28  1  0  0  0  0
 18 19  1  0  0  0  0
 18 21  1  0  0  0  0
 18 29  1  0  0  0  0
 19 20  2  0  0  0  0
 19 37  1  0  0  0  0
 21 22  1  0  0  0  0
 21 30  1  0  0  0  0
 21 31  1  0  0  0  0
 22 23  1  0  0  0  0
 22 24  2  0  0  0  0
 23 25  2  0  0  0  0
 23 32  1  0  0  0  0
 24 26  1  0  0  0  0
 24 33  1  0  0  0  0
 25 27  1  0  0  0  0
 25 34  1  0  0  0  0
 26 27  2  0  0  0  0
 26 35  1  0  0  0  0
 27 36  1  0  0  0  0
 37 38  1  0  0  0  0
 37 42  1  0  0  0  0
 38 39  1  0  0  0  0
 38 41  1  0  0  0  0
 38 43  1  0  0  0  0
 39 40  2  0  0  0  0
 39 47  1  0  0  0  0
 41 44  1  0  0  0  0
 41 45  1  0  0  0  0
 41 46  1  0  0  0  0
 47 48  1  0  0  0  0
 47 49  1  0  0  0  0
 48 50  1  0  0  0  0
 48 51  1  0  0  0  0
 48 52  1  0  0  0  0
M  END
$$$$

  -OEChem-05262217163D

 52 52  0     1  0  0  0  0  0999 V2000
   -2.4943    1.0008    4.4519 C   0  0  0  0  0  0  0  0  0  0  0  0
   -3.5036    1.5683    4.0639 O   0  0  0  0  0  0  0  0  0  0  0  0
   -2.4903    0.2799    5.7865 C   0  0  0  0  0  0  0  0  0  0  0  0
   -3.4630    0.3852    6.2753 H   0  0  0  0  0  0  0  0  0  0  0  0
   -2.2851   -0.7828    5.6360 H   0  0  0  0  0  0  0  0  0  0  0  0
   -1.7215    0.7040    6.4369 H   0  0  0  0  0  0  0  0  0  0  0  0
   -1.3575    1.0074    3.6724 N   0  0  0  0  0  0  0  0  0  0  0  0
   -1.2941    1.5369    2.3049 C   0  0  2  0  0  0  0  0  0  0  0  0
   -0.3094    0.7357    1.4295 C   0  0  0  0  0  0  0  0  0  0  0  0
    0.4960   -0.0260    1.9524 O   0  0  0  0  0  0  0  0  0  0  0  0
   -0.8678    3.0060    2.3773 C   0  0  0  0  0  0  0  0  0  0  0  0
   -0.5804    0.4179    3.9701 H   0  0  0  0  0  0  0  0  0  0  0  0
   -2.2809    1.4678    1.8343 H   0  0  0  0  0  0  0  0  0  0  0  0
    0.1229    3.0932    2.8348 H   0  0  0  0  0  0  0  0  0  0  0  0
   -0.8295    3.4465    1.3766 H   0  0  0  0  0  0  0  0  0  0  0  0
   -1.5816    3.5777    2.9789 H   0  0  0  0  0  0  0  0  0  0  0  0
   -0.3691    0.8375    0.0505 N   0  0  0  0  0  0  0  0  0  0  0  0
    0.7385    0.4294   -0.8322 C   0  0  2  0  0  0  0  0  0  0  0  0
    1.8981    1.4549   -0.8118 C   0  0  0  0  0  0  0  0  0  0  0  0
    2.5708    1.6281    0.1956 O   0  0  0  0  0  0  0  0  0  0  0  0
    0.1900    0.1860   -2.2517 C   0  0  0  0  0  0  0  0  0  0  0  0
   -0.7308   -1.0102   -2.2831 C   0  0  0  0  0  0  0  0  0  0  0  0
   -0.2020   -2.3080   -2.3498 C   0  0  0  0  0  0  0  0  0  0  0  0
   -2.1242   -0.8432   -2.2477 C   0  0  0  0  0  0  0  0  0  0  0  0
   -1.0502   -3.4201   -2.3730 C   0  0  0  0  0  0  0  0  0  0  0  0
   -2.9733   -1.9547   -2.2705 C   0  0  0  0  0  0  0  0  0  0  0  0
   -2.4365   -3.2439   -2.3322 C   0  0  0  0  0  0  0  0  0  0  0  0
   -1.0417    1.5059   -0.3116 H   0  0  0  0  0  0  0  0  0  0  0  0
    1.1603   -0.5154   -0.4696 H   0  0  0  0  0  0  0  0  0  0  0  0
    1.0224    0.0014   -2.9393 H   0  0  0  0  0  0  0  0  0  0  0  0
   -0.3411    1.0746   -2.6078 H   0  0  0  0  0  0  0  0  0  0  0  0
    0.8728   -2.4601   -2.3763 H   0  0  0  0  0  0  0  0  0  0  0  0
   -2.5573    0.1507   -2.1998 H   0  0  0  0  0  0  0  0  0  0  0  0
   -0.6314   -4.4214   -2.4190 H   0  0  0  0  0  0  0  0  0  0  0  0
   -4.0501   -1.8175   -2.2382 H   0  0  0  0  0  0  0  0  0  0  0  0
   -3.0953   -4.1076   -2.3476 H   0  0  0  0  0  0  0  0  0  0  0  0
    2.1059    2.3224   -1.8725 N   0  0  0  0  0  0  0  0  0  0  0  0
    3.0267    3.4685   -1.8229 C   0  0  2  0  0  0  0  0  0  0  0  0
    2.4388    4.6436   -1.0043 C   0  0  0  0  0  0  0  0  0  0  0  0
    2.0641    5.6782   -1.5426 O   0  0  0  0  0  0  0  0  0  0  0  0
    3.3629    3.8590   -3.2677 C   0  0  0  0  0  0  0  0  0  0  0  0
    1.4503    2.2739   -2.6463 H   0  0  0  0  0  0  0  0  0  0  0  0
    3.9613    3.1692   -1.3357 H   0  0  0  0  0  0  0  0  0  0  0  0
    2.4602    4.1647   -3.8065 H   0  0  0  0  0  0  0  0  0  0  0  0
    4.0705    4.6946   -3.2782 H   0  0  0  0  0  0  0  0  0  0  0  0
    3.8181    3.0155   -3.7958 H   0  0  0  0  0  0  0  0  0  0  0  0
    2.2816    4.5001    0.3601 N   0  0  0  0  0  0  0  0  0  0  0  0
    1.6824    5.5085    1.2232 C   0  0  0  0  0  0  0  0  0  0  0  0
    2.5070    3.5774    0.7437 H   0  0  0  0  0  0  0  0  0  0  0  0
    2.2030    6.4656    1.1133 H   0  0  0  0  0  0  0  0  0  0  0  0
    0.6266    5.6503    0.9711 H   0  0  0  0  0  0  0  0  0  0  0  0
    1.7524    5.1977    2.2700 H   0  0  0  0  0  0  0  0  0  0  0  0
  1  2  2  0  0  0  0
  1  3  1  0  0  0  0
  1  7  1  0  0  0  0
  3  4  1  0  0  0  0
  3  5  1  0  0  0  0
  3  6  1  0  0  0  0
  7  8  1  0  0  0  0
  7 12  1  0  0  0  0
  8  9  1  0  0  0  0
  8 11  1  0  0  0  0
  8 13  1  0  0  0  0
  9 10  2  0  0  0  0
  9 17  1  0  0  0  0
 11 14  1  0  0  0  0
 11 15  1  0  0  0  0
 11 16  1  0  0  0  0
 17 18  1  0  0  0  0
 17 28  1  0  0  0  0
 18 19  1  0  0  0  0
 18 21  1  0  0  0  0
 18 29  1  0  0  0  0
 19 20  2  0  0  0  0
 19 37  1  0  0  0  0
 21 22  1  0  0  0  0
 21 30  1  0  0  0  0
 21 31  1  0  0  0  0
 22 23  1  0  0  0  0
 22 24  2  0  0  0  0
 23 25  2  0  0  0  0
 23 32  1  0  0  0  0
 24 26  1  0  0  0  0
 24 33  1  0  0  0  0
 25 27  1  0  0  0  0
 25 34  1  0  0  0  0
 26 27  2  0  0  0  0
 26 35  1  0  0  0  0
 27 36  1  0  0  0  0
 37 38  1  0  0  0  0
 37 42  1  0  0  0  0
 38 39  1  0  0  0  0
 38 41  1  0  0  0  0
 38 43  1  0  0  0  0
 39 40  2  0  0  0  0
 39 47  1  0  0  0  0
 41 44  1  0  0  0  0
 41 45  1  0  0  0  0
 41 46  1  0  0  0  0
 47 48  1  0  0  0  0
 47 49  1  0  0  0  0
 48 50  1  0  0  0  0
 48 51  1  0  0  0  0
 48 52  1  0  0  0  0
M  END
$$$$

  -OEChem-05262217163D

 52 52  0     1  0  0  0  0  0999 V2000
   -2.4699    0.7378    4.4025 C   0  0  0  0  0  0  0  0  0  0  0  0
   -3.5845    0.9975    3.9766 O   0  0  0  0  0  0  0  0  0  0  0  0
   -2.3066    0.0463    5.7431 C   0  0  0  0  0  0  0  0  0  0  0  0
   -3.2862   -0.1664    6.1797 H   0  0  0  0  0  0  0  0  0  0  0  0
   -1.7669   -0.8951    5.6143 H   0  0  0  0  0  0  0  0  0  0  0  0
   -1.7470    0.6884    6.4275 H   0  0  0  0  0  0  0  0  0  0  0  0
   -1.3544    1.0604    3.6597 N   0  0  0  0  0  0  0  0  0  0  0  0
   -1.3967    1.5435    2.2739 C   0  0  2  0  0  0  0  0  0  0  0  0
   -0.2518    0.9459    1.4317 C   0  0  0  0  0  0  0  0  0  0  0  0
    0.7076    0.4250    1.9862 O   0  0  0  0  0  0  0  0  0  0  0  0
   -1.3040    3.0714    2.2954 C   0  0  0  0  0  0  0  0  0  0  0  0
   -0.4595    0.6960    3.9862 H   0  0  0  0  0  0  0  0  0  0  0  0
   -2.3386    1.2441    1.8022 H   0  0  0  0  0  0  0  0  0  0  0  0
   -0.3726    3.3893    2.7745 H   0  0  0  0  0  0  0  0  0  0  0  0
   -1.3283    3.4750    1.2786 H   0  0  0  0  0  0  0  0  0  0  0  0
   -2.1452    3.4933    2.8548 H   0  0  0  0  0  0  0  0  0  0  0  0
   -0.3250    0.9669    0.0505 N   0  0  0  0  0  0  0  0  0  0  0  0
    0.7621    0.5383   -0.8471 C   0  0  2  0  0  0  0  0  0  0  0  0
    1.8960    1.5851   -0.9088 C   0  0  0  0  0  0  0  0  0  0  0  0
    2.8151    1.5745   -0.1016 O   0  0  0  0  0  0  0  0  0  0  0  0
    0.1862    0.2382   -2.2434 C   0  0  0  0  0  0  0  0  0  0  0  0
   -0.7205   -0.9678   -2.2055 C   0  0  0  0  0  0  0  0  0  0  0  0
   -0.1804   -2.2623   -2.2341 C   0  0  0  0  0  0  0  0  0  0  0  0
   -2.1142   -0.8117   -2.1404 C   0  0  0  0  0  0  0  0  0  0  0  0
   -1.0185   -3.3817   -2.1895 C   0  0  0  0  0  0  0  0  0  0  0  0
   -2.9526   -1.9303   -2.0944 C   0  0  0  0  0  0  0  0  0  0  0  0
   -2.4048   -3.2159   -2.1183 C   0  0  0  0  0  0  0  0  0  0  0  0
   -1.1622    1.3718   -0.3563 H   0  0  0  0  0  0  0  0  0  0  0  0
    1.2100   -0.3830   -0.4563 H   0  0  0  0  0  0  0  0  0  0  0  0
    1.0071    0.0407   -2.9413 H   0  0  0  0  0  0  0  0  0  0  0  0
   -0.3628    1.1059   -2.6225 H   0  0  0  0  0  0  0  0  0  0  0  0
    0.8954   -2.4047   -2.2835 H   0  0  0  0  0  0  0  0  0  0  0  0
   -2.5565    0.1791   -2.1247 H   0  0  0  0  0  0  0  0  0  0  0  0
   -0.5920   -4.3804   -2.2064 H   0  0  0  0  0  0  0  0  0  0  0  0
   -4.0298   -1.8011   -2.0400 H   0  0  0  0  0  0  0  0  0  0  0  0
   -3.0553   -4.0851   -2.0819 H   0  0  0  0  0  0  0  0  0  0  0  0
    1.8703    2.6012   -1.8495 N   0  0  0  0  0  0  0  0  0  0  0  0
    2.7549    3.7739   -1.7884 C   0  0  2  0  0  0  0  0  0  0  0  0
    2.3279    4.7527   -0.6669 C   0  0  0  0  0  0  0  0  0  0  0  0
    1.8474    5.8505   -0.9213 O   0  0  0  0  0  0  0  0  0  0  0  0
    2.7584    4.4230   -3.1773 C   0  0  0  0  0  0  0  0  0  0  0  0
    1.0324    2.6739   -2.4176 H   0  0  0  0  0  0  0  0  0  0  0  0
    3.7791    3.4537   -1.5681 H   0  0  0  0  0  0  0  0  0  0  0  0
    1.7533    4.7608   -3.4495 H   0  0  0  0  0  0  0  0  0  0  0  0
    3.4282    5.2889   -3.1872 H   0  0  0  0  0  0  0  0  0  0  0  0
    3.1050    3.7091   -3.9308 H   0  0  0  0  0  0  0  0  0  0  0  0
    2.4291    4.3532    0.6511 N   0  0  0  0  0  0  0  0  0  0  0  0
    2.0010    5.1614    1.7838 C   0  0  0  0  0  0  0  0  0  0  0  0
    2.7414    3.3900    0.8095 H   0  0  0  0  0  0  0  0  0  0  0  0
    2.5608    6.1019    1.8150 H   0  0  0  0  0  0  0  0  0  0  0  0
    0.9328    5.3896    1.7109 H   0  0  0  0  0  0  0  0  0  0  0  0
    2.1784    4.6220    2.7192 H   0  0  0  0  0  0  0  0  0  0  0  0
  1  2  2  0  0  0  0
  1  3  1  0  0  0  0
  1  7  1  0  0  0  0
  3  4  1  0  0  0  0
  3  5  1  0  0  0  0
  3  6  1  0  0  0  0
  7  8  1  0  0  0  0
  7 12  1  0  0  0  0
  8  9  1  0  0  0  0
  8 11  1  0  0  0  0
  8 13  1  0  0  0  0
  9 10  2  0  0  0  0
  9 17  1  0  0  0  0
 11 14  1  0  0  0  0
 11 15  1  0  0  0  0
 11 16  1  0  0  0  0
 17 18  1  0  0  0  0
 17 28  1  0  0  0  0
 18 19  1  0  0  0  0
 18 21  1  0  0  0  0
 18 29  1  0  0  0  0
 19 20  2  0  0  0  0
 19 37  1  0  0  0  0
 21 22  1  0  0  0  0
 21 30  1  0  0  0  0
 21 31  1  0  0  0  0
 22 23  1  0  0  0  0
 22 24  2  0  0  0  0
 23 25  2  0  0  0  0
 23 32  1  0  0  0  0
 24 26  1  0  0  0  0
 24 33  1  0  0  0  0
 25 27  1  0  0  0  0
 25 34  1  0  0  0  0
 26 27  2  0  0  0  0
 26 35  1  0  0  0  0
 27 36  1  0  0  0  0
 37 38  1  0  0  0  0
 37 42  1  0  0  0  0
 38 39  1  0  0  0  0
 38 41  1  0  0  0  0
 38 43  1  0  0  0  0
 39 40  2  0  0  0  0
 39 47  1  0  0  0  0
 41 44  1  0  0  0  0
 41 45  1  0  0  0  0
 41 46  1  0  0  0  0
 47 48  1  0  0  0  0
 47 49  1  0  0  0  0
 48 50  1  0  0  0  0
 48 51  1  0  0  0  0
 48 52  1  0  0  0  0
M  END
$$$$

  -OEChem-05262217163D

 52 52  0     1  0  0  0  0  0999 V2000
   -2.4037    0.3865    4.3169 C   0  0  0  0  0  0  0  0  0  0  0  0
   -3.5127    0.2562    3.8229 O   0  0  0  0  0  0  0  0  0  0  0  0
   -2.0963   -0.2315    5.6678 C   0  0  0  0  0  0  0  0  0  0  0  0
   -2.9359   -0.8484    6.0001 H   0  0  0  0  0  0  0  0  0  0  0  0
   -1.2050   -0.8600    5.5983 H   0  0  0  0  0  0  0  0  0  0  0  0
   -1.9231    0.5552    6.4060 H   0  0  0  0  0  0  0  0  0  0  0  0
   -1.4246    1.0893    3.6467 N   0  0  0  0  0  0  0  0  0  0  0  0
   -1.5458    1.5533    2.2582 C   0  0  2  0  0  0  0  0  0  0  0  0
   -0.2954    1.1982    1.4287 C   0  0  0  0  0  0  0  0  0  0  0  0
    0.7730    0.9916    1.9895 O   0  0  0  0  0  0  0  0  0  0  0  0
   -1.7568    3.0692    2.2828 C   0  0  0  0  0  0  0  0  0  0  0  0
   -0.4800    1.0332    4.0255 H   0  0  0  0  0  0  0  0  0  0  0  0
   -2.4056    1.0801    1.7717 H   0  0  0  0  0  0  0  0  0  0  0  0
   -0.9026    3.5680    2.7515 H   0  0  0  0  0  0  0  0  0  0  0  0
   -1.8713    3.4586    1.2666 H   0  0  0  0  0  0  0  0  0  0  0  0
   -2.6589    3.3153    2.8518 H   0  0  0  0  0  0  0  0  0  0  0  0
   -0.3742    1.1384    0.0489 N   0  0  0  0  0  0  0  0  0  0  0  0
    0.7245    0.6766   -0.8168 C   0  0  2  0  0  0  0  0  0  0  0  0
    1.8390    1.7347   -0.9354 C   0  0  0  0  0  0  0  0  0  0  0  0
    2.9176    1.5733   -0.3802 O   0  0  0  0  0  0  0  0  0  0  0  0
    0.1672    0.3080   -2.2029 C   0  0  0  0  0  0  0  0  0  0  0  0
   -0.7307   -0.9021   -2.1167 C   0  0  0  0  0  0  0  0  0  0  0  0
   -0.1760   -2.1901   -2.0784 C   0  0  0  0  0  0  0  0  0  0  0  0
   -2.1269   -0.7587   -2.0743 C   0  0  0  0  0  0  0  0  0  0  0  0
   -1.0010   -3.3160   -1.9869 C   0  0  0  0  0  0  0  0  0  0  0  0
   -2.9526   -1.8844   -1.9813 C   0  0  0  0  0  0  0  0  0  0  0  0
   -2.3896   -3.1632   -1.9364 C   0  0  0  0  0  0  0  0  0  0  0  0
   -1.3123    1.1419   -0.3404 H   0  0  0  0  0  0  0  0  0  0  0  0
    1.1808   -0.2178   -0.3760 H   0  0  0  0  0  0  0  0  0  0  0  0
    0.9982    0.0864   -2.8815 H   0  0  0  0  0  0  0  0  0  0  0  0
   -0.3824    1.1532   -2.6287 H   0  0  0  0  0  0  0  0  0  0  0  0
    0.9016   -2.3228   -2.1148 H   0  0  0  0  0  0  0  0  0  0  0  0
   -2.5819    0.2259   -2.1169 H   0  0  0  0  0  0  0  0  0  0  0  0
   -0.5625   -4.3094   -1.9540 H   0  0  0  0  0  0  0  0  0  0  0  0
   -4.0322   -1.7680   -1.9452 H   0  0  0  0  0  0  0  0  0  0  0  0
   -3.0301   -4.0375   -1.8635 H   0  0  0  0  0  0  0  0  0  0  0  0
    1.6613    2.8650   -1.7144 N   0  0  0  0  0  0  0  0  0  0  0  0
    2.5698    4.0194   -1.6438 C   0  0  2  0  0  0  0  0  0  0  0  0
    2.3791    4.8093   -0.3247 C   0  0  0  0  0  0  0  0  0  0  0  0
    1.8930    5.9342   -0.3168 O   0  0  0  0  0  0  0  0  0  0  0  0
    2.3313    4.8745   -2.8942 C   0  0  0  0  0  0  0  0  0  0  0  0
    0.7135    3.0371   -2.0342 H   0  0  0  0  0  0  0  0  0  0  0  0
    3.6097    3.6757   -1.6696 H   0  0  0  0  0  0  0  0  0  0  0  0
    1.3032    5.2493   -2.9170 H   0  0  0  0  0  0  0  0  0  0  0  0
    3.0118    5.7319   -2.9002 H   0  0  0  0  0  0  0  0  0  0  0  0
    2.5099    4.2854   -3.7989 H   0  0  0  0  0  0  0  0  0  0  0  0
    2.6865    4.2007    0.8766 N   0  0  0  0  0  0  0  0  0  0  0  0
    2.4068    4.7852    2.1800 C   0  0  0  0  0  0  0  0  0  0  0  0
    2.9618    3.2150    0.8247 H   0  0  0  0  0  0  0  0  0  0  0  0
    2.9236    5.7443    2.2884 H   0  0  0  0  0  0  0  0  0  0  0  0
    1.3313    4.9461    2.3046 H   0  0  0  0  0  0  0  0  0  0  0  0
    2.7519    4.1155    2.9737 H   0  0  0  0  0  0  0  0  0  0  0  0
  1  2  2  0  0  0  0
  1  3  1  0  0  0  0
  1  7  1  0  0  0  0
  3  4  1  0  0  0  0
  3  5  1  0  0  0  0
  3  6  1  0  0  0  0
  7  8  1  0  0  0  0
  7 12  1  0  0  0  0
  8  9  1  0  0  0  0
  8 11  1  0  0  0  0
  8 13  1  0  0  0  0
  9 10  2  0  0  0  0
  9 17  1  0  0  0  0
 11 14  1  0  0  0  0
 11 15  1  0  0  0  0
 11 16  1  0  0  0  0
 17 18  1  0  0  0  0
 17 28  1  0  0  0  0
 18 19  1  0  0  0  0
 18 21  1  0  0  0  0
 18 29  1  0  0  0  0
 19 20  2  0  0  0  0
 19 37  1  0  0  0  0
 21 22  1  0  0  0  0
 21 30  1  0  0  0  0
 21 31  1  0  0  0  0
 22 23  1  0  0  0  0
 22 24  2  0  0  0  0
 23 25  2  0  0  0  0
 23 32  1  0  0  0  0
 24 26  1  0  0  0  0
 24 33  1  0  0  0  0
 25 27  1  0  0  0  0
 25 34  1  0  0  0  0
 26 27  2  0  0  0  0
 26 35  1  0  0  0  0
 27 36  1  0  0  0  0
 37 38  1  0  0  0  0
 37 42  1  0  0  0  0
 38 39  1  0  0  0  0
 38 41  1  0  0  0  0
 38 43  1  0  0  0  0
 39 40  2  0  0  0  0
 39 47  1  0  0  0  0
 41 44  1  0  0  0  0
 41 45  1  0  0  0  0
 41 46  1  0  0  0  0
 47 48  1  0  0  0  0
 47 49  1  0  0  0  0
 48 50  1  0  0  0  0
 48 51  1  0  0  0  0
 48 52  1  0  0  0  0
M  END
$$$$

  -OEChem-05262217163D

 52 52  0     1  0  0  0  0  0999 V2000
   -2.2480    0.3277    4.3326 C   0  0  0  0  0  0  0  0  0  0  0  0
   -3.3237    0.0275    3.8394 O   0  0  0  0  0  0  0  0  0  0  0  0
   -1.8614   -0.2103    5.6975 C   0  0  0  0  0  0  0  0  0  0  0  0
   -2.6450   -0.8711    6.0789 H   0  0  0  0  0  0  0  0  0  0  0  0
   -0.9286   -0.7751    5.6265 H   0  0  0  0  0  0  0  0  0  0  0  0
   -1.7262    0.6167    6.3988 H   0  0  0  0  0  0  0  0  0  0  0  0
   -1.3778    1.1533    3.6517 N   0  0  0  0  0  0  0  0  0  0  0  0
   -1.5563    1.5678    2.2533 C   0  0  2  0  0  0  0  0  0  0  0  0
   -0.3049    1.2662    1.4045 C   0  0  0  0  0  0  0  0  0  0  0  0
    0.7889    1.1479    1.9433 O   0  0  0  0  0  0  0  0  0  0  0  0
   -1.8592    3.0682    2.2409 C   0  0  0  0  0  0  0  0  0  0  0  0
   -0.4356    1.2308    4.0318 H   0  0  0  0  0  0  0  0  0  0  0  0
   -2.3960    1.0322    1.7989 H   0  0  0  0  0  0  0  0  0  0  0  0
   -1.0299    3.6316    2.6810 H   0  0  0  0  0  0  0  0  0  0  0  0
   -2.0130    3.4209    1.2165 H   0  0  0  0  0  0  0  0  0  0  0  0
   -2.7662    3.2755    2.8176 H   0  0  0  0  0  0  0  0  0  0  0  0
   -0.4034    1.1788    0.0268 N   0  0  0  0  0  0  0  0  0  0  0  0
    0.7064    0.7243   -0.8291 C   0  0  2  0  0  0  0  0  0  0  0  0
    1.7858    1.8127   -0.9653 C   0  0  0  0  0  0  0  0  0  0  0  0
    2.9390    1.5990   -0.6153 O   0  0  0  0  0  0  0  0  0  0  0  0
    0.1701    0.3370   -2.2169 C   0  0  0  0  0  0  0  0  0  0  0  0
   -0.7115   -0.8846   -2.1269 C   0  0  0  0  0  0  0  0  0  0  0  0
   -0.1417   -2.1651   -2.0695 C   0  0  0  0  0  0  0  0  0  0  0  0
   -2.1096   -0.7576   -2.1062 C   0  0  0  0  0  0  0  0  0  0  0  0
   -0.9548   -3.2996   -1.9756 C   0  0  0  0  0  0  0  0  0  0  0  0
   -2.9230   -1.8918   -2.0116 C   0  0  0  0  0  0  0  0  0  0  0  0
   -2.3457   -3.1631   -1.9450 C   0  0  0  0  0  0  0  0  0  0  0  0
   -1.3464    1.0836   -0.3399 H   0  0  0  0  0  0  0  0  0  0  0  0
    1.1834   -0.1531   -0.3762 H   0  0  0  0  0  0  0  0  0  0  0  0
    1.0114    0.1213   -2.8852 H   0  0  0  0  0  0  0  0  0  0  0  0
   -0.3853    1.1724   -2.6552 H   0  0  0  0  0  0  0  0  0  0  0  0
    0.9380   -2.2844   -2.0909 H   0  0  0  0  0  0  0  0  0  0  0  0
   -2.5747    0.2211   -2.1696 H   0  0  0  0  0  0  0  0  0  0  0  0
   -0.5053   -4.2872   -1.9255 H   0  0  0  0  0  0  0  0  0  0  0  0
   -4.0041   -1.7872   -1.9927 H   0  0  0  0  0  0  0  0  0  0  0  0
   -2.9768   -4.0441   -1.8715 H   0  0  0  0  0  0  0  0  0  0  0  0
    1.4639    3.0459   -1.5030 N   0  0  0  0  0  0  0  0  0  0  0  0
    2.3298    4.2206   -1.3268 C   0  0  2  0  0  0  0  0  0  0  0  0
    2.2687    4.7421    0.1304 C   0  0  0  0  0  0  0  0  0  0  0  0
    1.6934    5.7870    0.4122 O   0  0  0  0  0  0  0  0  0  0  0  0
    1.9028    5.2704   -2.3595 C   0  0  0  0  0  0  0  0  0  0  0  0
    0.4703    3.2192   -1.6186 H   0  0  0  0  0  0  0  0  0  0  0  0
    3.3712    3.9525   -1.5359 H   0  0  0  0  0  0  0  0  0  0  0  0
    0.8644    5.5753   -2.1958 H   0  0  0  0  0  0  0  0  0  0  0  0
    2.5396    6.1573   -2.2819 H   0  0  0  0  0  0  0  0  0  0  0  0
    1.9939    4.8668   -3.3724 H   0  0  0  0  0  0  0  0  0  0  0  0
    2.7860    3.9601    1.1446 N   0  0  0  0  0  0  0  0  0  0  0  0
    2.5800    4.2342    2.5593 C   0  0  0  0  0  0  0  0  0  0  0  0
    3.0841    3.0194    0.8700 H   0  0  0  0  0  0  0  0  0  0  0  0
    2.9480    5.2331    2.8154 H   0  0  0  0  0  0  0  0  0  0  0  0
    1.5162    4.1732    2.8095 H   0  0  0  0  0  0  0  0  0  0  0  0
    3.1216    3.5014    3.1652 H   0  0  0  0  0  0  0  0  0  0  0  0
  1  2  2  0  0  0  0
  1  3  1  0  0  0  0
  1  7  1  0  0  0  0
  3  4  1  0  0  0  0
  3  5  1  0  0  0  0
  3  6  1  0  0  0  0
  7  8  1  0  0  0  0
  7 12  1  0  0  0  0
  8  9  1  0  0  0  0
  8 11  1  0  0  0  0
  8 13  1  0  0  0  0
  9 10  2  0  0  0  0
  9 17  1  0  0  0  0
 11 14  1  0  0  0  0
 11 15  1  0  0  0  0
 11 16  1  0  0  0  0
 17 18  1  0  0  0  0
 17 28  1  0  0  0  0
 18 19  1  0  0  0  0
 18 21  1  0  0  0  0
 18 29  1  0  0  0  0
 19 20  2  0  0  0  0
 19 37  1  0  0  0  0
 21 22  1  0  0  0  0
 21 30  1  0  0  0  0
 21 31  1  0  0  0  0
 22 23  1  0  0  0  0
 22 24  2  0  0  0  0
 23 25  2  0  0  0  0
 23 32  1  0  0  0  0
 24 26  1  0  0  0  0
 24 33  1  0  0  0  0
 25 27  1  0  0  0  0
 25 34  1  0  0  0  0
 26 27  2  0  0  0  0
 26 35  1  0  0  0  0
 27 36  1  0  0  0  0
 37 38  1  0  0  0  0
 37 42  1  0  0  0  0
 38 39  1  0  0  0  0
 38 41  1  0  0  0  0
 38 43  1  0  0  0  0
 39 40  2  0  0  0  0
 39 47  1  0  0  0  0
 41 44  1  0  0  0  0
 41 45  1  0  0  0  0
 41 46  1  0  0  0  0
 47 48  1  0  0  0  0
 47 49  1  0  0  0  0
 48 50  1  0  0  0  0
 48 51  1  0  0  0  0
 48 52  1  0  0  0  0
M  END
$$$$

  -OEChem-05262217163D

 52 52  0     1  0  0  0  0  0999 V2000
   -2.3562    0.2391    4.4440 C   0  0  0  0  0  0  0  0  0  0  0  0
   -3.4654   -0.0214    4.0049 O   0  0  0  0  0  0  0  0  0  0  0  0
   -1.9419   -0.2647    5.8136 C   0  0  0  0  0  0  0  0  0  0  0  0
   -2.7340   -0.8849    6.2426 H   0  0  0  0  0  0  0  0  0  0  0  0
   -1.0320   -0.8642    5.7313 H   0  0  0  0  0  0  0  0  0  0  0  0
   -1.7546    0.5797    6.4813 H   0  0  0  0  0  0  0  0  0  0  0  0
   -1.4722    0.9804    3.6886 N   0  0  0  0  0  0  0  0  0  0  0  0
   -1.7046    1.3712    2.2923 C   0  0  2  0  0  0  0  0  0  0  0  0
   -0.4216    1.2549    1.4447 C   0  0  0  0  0  0  0  0  0  0  0  0
    0.6769    1.2249    1.9864 O   0  0  0  0  0  0  0  0  0  0  0  0
   -2.2285    2.8095    2.2826 C   0  0  0  0  0  0  0  0  0  0  0  0
   -0.5176    1.0622    4.0365 H   0  0  0  0  0  0  0  0  0  0  0  0
   -2.4532    0.7125    1.8389 H   0  0  0  0  0  0  0  0  0  0  0  0
   -1.4892    3.4893    2.7189 H   0  0  0  0  0  0  0  0  0  0  0  0
   -2.4417    3.1354    1.2604 H   0  0  0  0  0  0  0  0  0  0  0  0
   -3.1524    2.8784    2.8658 H   0  0  0  0  0  0  0  0  0  0  0  0
   -0.5001    1.1912    0.0644 N   0  0  0  0  0  0  0  0  0  0  0  0
    0.6514    0.8094   -0.7732 C   0  0  2  0  0  0  0  0  0  0  0  0
    1.6893    1.9405   -0.8810 C   0  0  0  0  0  0  0  0  0  0  0  0
    2.8869    1.6955   -0.8118 O   0  0  0  0  0  0  0  0  0  0  0  0
    0.1576    0.4339   -2.1790 C   0  0  0  0  0  0  0  0  0  0  0  0
   -0.6704   -0.8272   -2.1356 C   0  0  0  0  0  0  0  0  0  0  0  0
   -0.0443   -2.0817   -2.0991 C   0  0  0  0  0  0  0  0  0  0  0  0
   -2.0729   -0.7632   -2.1320 C   0  0  0  0  0  0  0  0  0  0  0  0
   -0.8067   -3.2533   -2.0440 C   0  0  0  0  0  0  0  0  0  0  0  0
   -2.8360   -1.9346   -2.0762 C   0  0  0  0  0  0  0  0  0  0  0  0
   -2.2026   -3.1799   -2.0295 C   0  0  0  0  0  0  0  0  0  0  0  0
   -1.4269    1.0079   -0.3110 H   0  0  0  0  0  0  0  0  0  0  0  0
    1.1585   -0.0562   -0.3299 H   0  0  0  0  0  0  0  0  0  0  0  0
    1.0198    0.2703   -2.8352 H   0  0  0  0  0  0  0  0  0  0  0  0
   -0.4233    1.2573   -2.6071 H   0  0  0  0  0  0  0  0  0  0  0  0
    1.0400   -2.1512   -2.1080 H   0  0  0  0  0  0  0  0  0  0  0  0
   -2.5800    0.1954   -2.1789 H   0  0  0  0  0  0  0  0  0  0  0  0
   -0.3143   -4.2209   -2.0117 H   0  0  0  0  0  0  0  0  0  0  0  0
   -3.9210   -1.8791   -2.0718 H   0  0  0  0  0  0  0  0  0  0  0  0
   -2.7940   -4.0902   -1.9851 H   0  0  0  0  0  0  0  0  0  0  0  0
    1.2774    3.2398   -1.1158 N   0  0  0  0  0  0  0  0  0  0  0  0
    2.1824    4.3937   -1.0150 C   0  0  2  0  0  0  0  0  0  0  0  0
    2.4999    4.7349    0.4606 C   0  0  0  0  0  0  0  0  0  0  0  0
    2.0797    5.7596    0.9855 O   0  0  0  0  0  0  0  0  0  0  0  0
    1.5354    5.5584   -1.7747 C   0  0  0  0  0  0  0  0  0  0  0  0
    0.2839    3.4094   -0.9922 H   0  0  0  0  0  0  0  0  0  0  0  0
    3.1337    4.1633   -1.5066 H   0  0  0  0  0  0  0  0  0  0  0  0
    0.5803    5.8363   -1.3174 H   0  0  0  0  0  0  0  0  0  0  0  0
    2.1939    6.4327   -1.7573 H   0  0  0  0  0  0  0  0  0  0  0  0
    1.3571    5.2804   -2.8179 H   0  0  0  0  0  0  0  0  0  0  0  0
    3.2114    3.8256    1.2175 N   0  0  0  0  0  0  0  0  0  0  0  0
    3.3651    3.9295    2.6612 C   0  0  0  0  0  0  0  0  0  0  0  0
    3.3871    2.9218    0.7706 H   0  0  0  0  0  0  0  0  0  0  0  0
    3.8047    4.8949    2.9330 H   0  0  0  0  0  0  0  0  0  0  0  0
    2.3933    3.8301    3.1555 H   0  0  0  0  0  0  0  0  0  0  0  0
    4.0242    3.1361    3.0265 H   0  0  0  0  0  0  0  0  0  0  0  0
  1  2  2  0  0  0  0
  1  3  1  0  0  0  0
  1  7  1  0  0  0  0
  3  4  1  0  0  0  0
  3  5  1  0  0  0  0
  3  6  1  0  0  0  0
  7  8  1  0  0  0  0
  7 12  1  0  0  0  0
  8  9  1  0  0  0  0
  8 11  1  0  0  0  0
  8 13  1  0  0  0  0
  9 10  2  0  0  0  0
  9 17  1  0  0  0  0
 11 14  1  0  0  0  0
 11 15  1  0  0  0  0
 11 16  1  0  0  0  0
 17 18  1  0  0  0  0
 17 28  1  0  0  0  0
 18 19  1  0  0  0  0
 18 21  1  0  0  0  0
 18 29  1  0  0  0  0
 19 20  2  0  0  0  0
 19 37  1  0  0  0  0
 21 22  1  0  0  0  0
 21 30  1  0  0  0  0
 21 31  1  0  0  0  0
 22 23  1  0  0  0  0
 22 24  2  0  0  0  0
 23 25  2  0  0  0  0
 23 32  1  0  0  0  0
 24 26  1  0  0  0  0
 24 33  1  0  0  0  0
 25 27  1  0  0  0  0
 25 34  1  0  0  0  0
 26 27  2  0  0  0  0
 26 35  1  0  0  0  0
 27 36  1  0  0  0  0
 37 38  1  0  0  0  0
 37 42  1  0  0  0  0
 38 39  1  0  0  0  0
 38 41  1  0  0  0  0
 38 43  1  0  0  0  0
 39 40  2  0  0  0  0
 39 47  1  0  0  0  0
 41 44  1  0  0  0  0
 41 45  1  0  0  0  0
 41 46  1  0  0  0  0
 47 48  1  0  0  0  0
 47 49  1  0  0  0  0
 48 50  1  0  0  0  0
 48 51  1  0  0  0  0
 48 52  1  0  0  0  0
M  END
$$$$

  -OEChem-05262217163D

 52 52  0     1  0  0  0  0  0999 V2000
   -2.4686    0.1430    4.4946 C   0  0  0  0  0  0  0  0  0  0  0  0
   -3.5674   -0.1573    4.0550 O   0  0  0  0  0  0  0  0  0  0  0  0
   -2.0579   -0.2967    5.8873 C   0  0  0  0  0  0  0  0  0  0  0  0
   -2.8575   -0.8834    6.3483 H   0  0  0  0  0  0  0  0  0  0  0  0
   -1.1563   -0.9118    5.8339 H   0  0  0  0  0  0  0  0  0  0  0  0
   -1.8581    0.5775    6.5119 H   0  0  0  0  0  0  0  0  0  0  0  0
   -1.5947    0.8750    3.7189 N   0  0  0  0  0  0  0  0  0  0  0  0
   -1.8329    1.2285    2.3139 C   0  0  2  0  0  0  0  0  0  0  0  0
   -0.5297    1.2102    1.4899 C   0  0  0  0  0  0  0  0  0  0  0  0
    0.5600    1.2248    2.0492 O   0  0  0  0  0  0  0  0  0  0  0  0
   -2.4767    2.6174    2.2713 C   0  0  0  0  0  0  0  0  0  0  0  0
   -0.6462    0.9986    4.0719 H   0  0  0  0  0  0  0  0  0  0  0  0
   -2.5138    0.5011    1.8587 H   0  0  0  0  0  0  0  0  0  0  0  0
   -1.8119    3.3615    2.7223 H   0  0  0  0  0  0  0  0  0  0  0  0
   -2.6846    2.9153    1.2394 H   0  0  0  0  0  0  0  0  0  0  0  0
   -3.4211    2.6133    2.8252 H   0  0  0  0  0  0  0  0  0  0  0  0
   -0.5765    1.1837    0.1074 N   0  0  0  0  0  0  0  0  0  0  0  0
    0.6084    0.8683   -0.7119 C   0  0  2  0  0  0  0  0  0  0  0  0
    1.6189    2.0290   -0.7762 C   0  0  0  0  0  0  0  0  0  0  0  0
    2.8055    1.8058   -0.9814 O   0  0  0  0  0  0  0  0  0  0  0  0
    0.1509    0.5144   -2.1354 C   0  0  0  0  0  0  0  0  0  0  0  0
   -0.6318   -0.7765   -2.1372 C   0  0  0  0  0  0  0  0  0  0  0  0
    0.0375   -2.0091   -2.1223 C   0  0  0  0  0  0  0  0  0  0  0  0
   -2.0357   -0.7616   -2.1594 C   0  0  0  0  0  0  0  0  0  0  0  0
   -0.6838   -3.2077   -2.1095 C   0  0  0  0  0  0  0  0  0  0  0  0
   -2.7576   -1.9599   -2.1463 C   0  0  0  0  0  0  0  0  0  0  0  0
   -2.0817   -3.1834   -2.1184 C   0  0  0  0  0  0  0  0  0  0  0  0
   -1.4853    0.9687   -0.2949 H   0  0  0  0  0  0  0  0  0  0  0  0
    1.1342    0.0085   -0.2806 H   0  0  0  0  0  0  0  0  0  0  0  0
    1.0278    0.3982   -2.7823 H   0  0  0  0  0  0  0  0  0  0  0  0
   -0.4522    1.3288   -2.5506 H   0  0  0  0  0  0  0  0  0  0  0  0
    1.1236   -2.0401   -2.1145 H   0  0  0  0  0  0  0  0  0  0  0  0
   -2.5751    0.1798   -2.1951 H   0  0  0  0  0  0  0  0  0  0  0  0
   -0.1573   -4.1577   -2.0922 H   0  0  0  0  0  0  0  0  0  0  0  0
   -3.8438   -1.9423   -2.1621 H   0  0  0  0  0  0  0  0  0  0  0  0
   -2.6417   -4.1143   -2.1081 H   0  0  0  0  0  0  0  0  0  0  0  0
    1.1850    3.3385   -0.6815 N   0  0  0  0  0  0  0  0  0  0  0  0
    2.0936    4.4917   -0.6073 C   0  0  2  0  0  0  0  0  0  0  0  0
    2.7540    4.6187    0.7868 C   0  0  0  0  0  0  0  0  0  0  0  0
    2.5208    5.5696    1.5243 O   0  0  0  0  0  0  0  0  0  0  0  0
    1.2894    5.7357   -1.0045 C   0  0  0  0  0  0  0  0  0  0  0  0
    0.2360    3.4583   -0.3402 H   0  0  0  0  0  0  0  0  0  0  0  0
    2.9017    4.3707   -1.3369 H   0  0  0  0  0  0  0  0  0  0  0  0
    0.4680    5.9064   -0.3015 H   0  0  0  0  0  0  0  0  0  0  0  0
    1.9347    6.6198   -1.0027 H   0  0  0  0  0  0  0  0  0  0  0  0
    0.8724    5.6153   -2.0087 H   0  0  0  0  0  0  0  0  0  0  0  0
    3.6013    3.6172    1.2169 N   0  0  0  0  0  0  0  0  0  0  0  0
    4.1364    3.5401    2.5684 C   0  0  0  0  0  0  0  0  0  0  0  0
    3.6533    2.7912    0.6155 H   0  0  0  0  0  0  0  0  0  0  0  0
    4.6816    4.4563    2.8183 H   0  0  0  0  0  0  0  0  0  0  0  0
    3.3264    3.4015    3.2918 H   0  0  0  0  0  0  0  0  0  0  0  0
    4.8261    2.6948    2.6524 H   0  0  0  0  0  0  0  0  0  0  0  0
  1  2  2  0  0  0  0
  1  3  1  0  0  0  0
  1  7  1  0  0  0  0
  3  4  1  0  0  0  0
  3  5  1  0  0  0  0
  3  6  1  0  0  0  0
  7  8  1  0  0  0  0
  7 12  1  0  0  0  0
  8  9  1  0  0  0  0
  8 11  1  0  0  0  0
  8 13  1  0  0  0  0
  9 10  2  0  0  0  0
  9 17  1  0  0  0  0
 11 14  1  0  0  0  0
 11 15  1  0  0  0  0
 11 16  1  0  0  0  0
 17 18  1  0  0  0  0
 17 28  1  0  0  0  0
 18 19  1  0  0  0  0
 18 21  1  0  0  0  0
 18 29  1  0  0  0  0
 19 20  2  0  0  0  0
 19 37  1  0  0  0  0
 21 22  1  0  0  0  0
 21 30  1  0  0  0  0
 21 31  1  0  0  0  0
 22 23  1  0  0  0  0
 22 24  2  0  0  0  0
 23 25  2  0  0  0  0
 23 32  1  0  0  0  0
 24 26  1  0  0  0  0
 24 33  1  0  0  0  0
 25 27  1  0  0  0  0
 25 34  1  0  0  0  0
 26 27  2  0  0  0  0
 26 35  1  0  0  0  0
 27 36  1  0  0  0  0
 37 38  1  0  0  0  0
 37 42  1  0  0  0  0
 38 39  1  0  0  0  0
 38 41  1  0  0  0  0
 38 43  1  0  0  0  0
 39 40  2  0  0  0  0
 39 47  1  0  0  0  0
 41 44  1  0  0  0  0
 41 45  1  0  0  0  0
 41 46  1  0  0  0  0
 47 48  1  0  0  0  0
 47 49  1  0  0  0  0
 48 50  1  0  0  0  0
 48 51  1  0  0  0  0
 48 52  1  0  0  0  0
M  END
$$$$

  -OEChem-05262217163D

 52 52  0     1  0  0  0  0  0999 V2000
   -2.6995   -0.0415    4.4464 C   0  0  0  0  0  0  0  0  0  0  0  0
   -3.7781   -0.3313    3.9532 O   0  0  0  0  0  0  0  0  0  0  0  0
   -2.3354   -0.5389    5.8325 C   0  0  0  0  0  0  0  0  0  0  0  0
   -3.1715   -1.0956    6.2650 H   0  0  0  0  0  0  0  0  0  0  0  0
   -1.4652   -1.1975    5.7763 H   0  0  0  0  0  0  0  0  0  0  0  0
   -2.1022    0.3071    6.4837 H   0  0  0  0  0  0  0  0  0  0  0  0
   -1.8046    0.7299    3.7357 N   0  0  0  0  0  0  0  0  0  0  0  0
   -1.9940    1.1420    2.3392 C   0  0  2  0  0  0  0  0  0  0  0  0
   -0.6580    1.1790    1.5702 C   0  0  0  0  0  0  0  0  0  0  0  0
    0.4058    1.2224    2.1750 O   0  0  0  0  0  0  0  0  0  0  0  0
   -2.6573    2.5221    2.3337 C   0  0  0  0  0  0  0  0  0  0  0  0
   -0.8735    0.8529    4.1330 H   0  0  0  0  0  0  0  0  0  0  0  0
   -2.6465    0.4271    1.8259 H   0  0  0  0  0  0  0  0  0  0  0  0
   -2.0214    3.2557    2.8399 H   0  0  0  0  0  0  0  0  0  0  0  0
   -2.8337    2.8608    1.3084 H   0  0  0  0  0  0  0  0  0  0  0  0
   -3.6201    2.4796    2.8535 H   0  0  0  0  0  0  0  0  0  0  0  0
   -0.6405    1.1848    0.1874 N   0  0  0  0  0  0  0  0  0  0  0  0
    0.5835    0.9033   -0.5881 C   0  0  2  0  0  0  0  0  0  0  0  0
    1.5989    2.0659   -0.5960 C   0  0  0  0  0  0  0  0  0  0  0  0
    2.7271    1.8923   -1.0409 O   0  0  0  0  0  0  0  0  0  0  0  0
    0.1765    0.5716   -2.0346 C   0  0  0  0  0  0  0  0  0  0  0  0
   -0.5884   -0.7291   -2.0888 C   0  0  0  0  0  0  0  0  0  0  0  0
    0.0972   -1.9526   -2.0767 C   0  0  0  0  0  0  0  0  0  0  0  0
   -1.9905   -0.7329   -2.1610 C   0  0  0  0  0  0  0  0  0  0  0  0
   -0.6071   -3.1608   -2.1144 C   0  0  0  0  0  0  0  0  0  0  0  0
   -2.6951   -1.9406   -2.1980 C   0  0  0  0  0  0  0  0  0  0  0  0
   -2.0040   -3.1552   -2.1715 C   0  0  0  0  0  0  0  0  0  0  0  0
   -1.5269    0.9699   -0.2622 H   0  0  0  0  0  0  0  0  0  0  0  0
    1.0985    0.0384   -0.1548 H   0  0  0  0  0  0  0  0  0  0  0  0
    1.0729    0.4783   -2.6581 H   0  0  0  0  0  0  0  0  0  0  0  0
   -0.4220    1.3875   -2.4530 H   0  0  0  0  0  0  0  0  0  0  0  0
    1.1827   -1.9688   -2.0319 H   0  0  0  0  0  0  0  0  0  0  0  0
   -2.5423    0.2012   -2.1975 H   0  0  0  0  0  0  0  0  0  0  0  0
   -0.0683   -4.1039   -2.0996 H   0  0  0  0  0  0  0  0  0  0  0  0
   -3.7799   -1.9375   -2.2510 H   0  0  0  0  0  0  0  0  0  0  0  0
   -2.5513   -4.0933   -2.2002 H   0  0  0  0  0  0  0  0  0  0  0  0
    1.2289    3.3362   -0.1951 N   0  0  0  0  0  0  0  0  0  0  0  0
    2.1297    4.4989   -0.1920 C   0  0  2  0  0  0  0  0  0  0  0  0
    3.1223    4.4848    0.9964 C   0  0  0  0  0  0  0  0  0  0  0  0
    3.1617    5.3982    1.8126 O   0  0  0  0  0  0  0  0  0  0  0  0
    1.2501    5.7551   -0.2189 C   0  0  0  0  0  0  0  0  0  0  0  0
    0.3683    3.3921    0.3416 H   0  0  0  0  0  0  0  0  0  0  0  0
    2.7306    4.4943   -1.1076 H   0  0  0  0  0  0  0  0  0  0  0  0
    0.6342    5.8137    0.6842 H   0  0  0  0  0  0  0  0  0  0  0  0
    1.8745    6.6528   -0.2705 H   0  0  0  0  0  0  0  0  0  0  0  0
    0.5923    5.7427   -1.0932 H   0  0  0  0  0  0  0  0  0  0  0  0
    4.0017    3.4285    1.1262 N   0  0  0  0  0  0  0  0  0  0  0  0
    4.9607    3.2944    2.2138 C   0  0  0  0  0  0  0  0  0  0  0  0
    3.9024    2.6721    0.4447 H   0  0  0  0  0  0  0  0  0  0  0  0
    5.6694    4.1288    2.2029 H   0  0  0  0  0  0  0  0  0  0  0  0
    4.4456    3.2807    3.1799 H   0  0  0  0  0  0  0  0  0  0  0  0
    5.5230    2.3618    2.1078 H   0  0  0  0  0  0  0  0  0  0  0  0
  1  2  2  0  0  0  0
  1  3  1  0  0  0  0
  1  7  1  0  0  0  0
  3  4  1  0  0  0  0
  3  5  1  0  0  0  0
  3  6  1  0  0  0  0
  7  8  1  0  0  0  0
  7 12  1  0  0  0  0
  8  9  1  0  0  0  0
  8 11  1  0  0  0  0
  8 13  1  0  0  0  0
  9 10  2  0  0  0  0
  9 17  1  0  0  0  0
 11 14  1  0  0  0  0
 11 15  1  0  0  0  0
 11 16  1  0  0  0  0
 17 18  1  0  0  0  0
 17 28  1  0  0  0  0
 18 19  1  0  0  0  0
 18 21  1  0  0  0  0
 18 29  1  0  0  0  0
 19 20  2  0  0  0  0
 19 37  1  0  0  0  0
 21 22  1  0  0  0  0
 21 30  1  0  0  0  0
 21 31  1  0  0  0  0
 22 23  1  0  0  0  0
 22 24  2  0  0  0  0
 23 25  2  0  0  0  0
 23 32  1  0  0  0  0
 24 26  1  0  0  0  0
 24 33  1  0  0  0  0
 25 27  1  0  0  0  0
 25 34  1  0  0  0  0
 26 27  2  0  0  0  0
 26 35  1  0  0  0  0
 27 36  1  0  0  0  0
 37 38  1  0  0  0  0
 37 42  1  0  0  0  0
 38 39  1  0  0  0  0
 38 41  1  0  0  0  0
 38 43  1  0  0  0  0
 39 40  2  0  0  0  0
 39 47  1  0  0  0  0
 41 44  1  0  0  0  0
 41 45  1  0  0  0  0
 41 46  1  0  0  0  0
 47 48  1  0  0  0  0
 47 49  1  0  0  0  0
 48 50  1  0  0  0  0
 48 51  1  0  0  0  0
 48 52  1  0  0  0  0
M  END
$$$$

  -OEChem-05262217163D

 52 52  0     1  0  0  0  0  0999 V2000
   -2.8116   -0.1292    4.4094 C   0  0  0  0  0  0  0  0  0  0  0  0
   -3.8678   -0.4442    3.8841 O   0  0  0  0  0  0  0  0  0  0  0  0
   -2.4775   -0.6194    5.8055 C   0  0  0  0  0  0  0  0  0  0  0  0
   -3.3119   -1.1985    6.2112 H   0  0  0  0  0  0  0  0  0  0  0  0
   -1.5891   -1.2551    5.7755 H   0  0  0  0  0  0  0  0  0  0  0  0
   -2.2864    0.2313    6.4642 H   0  0  0  0  0  0  0  0  0  0  0  0
   -1.9147    0.6641    3.7256 N   0  0  0  0  0  0  0  0  0  0  0  0
   -2.0741    1.0697    2.3233 C   0  0  2  0  0  0  0  0  0  0  0  0
   -0.7161    1.1755    1.6014 C   0  0  0  0  0  0  0  0  0  0  0  0
    0.3240    1.2733    2.2403 O   0  0  0  0  0  0  0  0  0  0  0  0
   -2.8071    2.4137    2.2904 C   0  0  0  0  0  0  0  0  0  0  0  0
   -1.0014    0.8149    4.1532 H   0  0  0  0  0  0  0  0  0  0  0  0
   -2.6686    0.3214    1.7877 H   0  0  0  0  0  0  0  0  0  0  0  0
   -2.2279    3.1792    2.8169 H   0  0  0  0  0  0  0  0  0  0  0  0
   -2.9639    2.7418    1.2586 H   0  0  0  0  0  0  0  0  0  0  0  0
   -3.7848    2.3226    2.7745 H   0  0  0  0  0  0  0  0  0  0  0  0
   -0.6512    1.2050    0.2215 N   0  0  0  0  0  0  0  0  0  0  0  0
    0.5931    0.9454   -0.5305 C   0  0  2  0  0  0  0  0  0  0  0  0
    1.6125    2.1092   -0.4989 C   0  0  0  0  0  0  0  0  0  0  0  0
    2.6496    2.0383   -1.1484 O   0  0  0  0  0  0  0  0  0  0  0  0
    0.2006    0.6253   -1.9856 C   0  0  0  0  0  0  0  0  0  0  0  0
   -0.5534   -0.6814   -2.0601 C   0  0  0  0  0  0  0  0  0  0  0  0
    0.1403   -1.9005   -2.0552 C   0  0  0  0  0  0  0  0  0  0  0  0
   -1.9552   -0.6943   -2.1441 C   0  0  0  0  0  0  0  0  0  0  0  0
   -0.5552   -3.1130   -2.1122 C   0  0  0  0  0  0  0  0  0  0  0  0
   -2.6512   -1.9065   -2.2000 C   0  0  0  0  0  0  0  0  0  0  0  0
   -1.9514   -3.1163   -2.1815 C   0  0  0  0  0  0  0  0  0  0  0  0
   -1.5217    0.9893   -0.2577 H   0  0  0  0  0  0  0  0  0  0  0  0
    1.1020    0.0760   -0.0997 H   0  0  0  0  0  0  0  0  0  0  0  0
    1.1005    0.5427   -2.6051 H   0  0  0  0  0  0  0  0  0  0  0  0
   -0.3996    1.4418   -2.4005 H   0  0  0  0  0  0  0  0  0  0  0  0
    1.2254   -1.9099   -2.0017 H   0  0  0  0  0  0  0  0  0  0  0  0
   -2.5133    0.2365   -2.1758 H   0  0  0  0  0  0  0  0  0  0  0  0
   -0.0102   -4.0525   -2.1034 H   0  0  0  0  0  0  0  0  0  0  0  0
   -3.7358   -1.9101   -2.2627 H   0  0  0  0  0  0  0  0  0  0  0  0
   -2.4914   -4.0578   -2.2270 H   0  0  0  0  0  0  0  0  0  0  0  0
    1.3432    3.2776    0.1890 N   0  0  0  0  0  0  0  0  0  0  0  0
    2.2461    4.4382    0.2395 C   0  0  2  0  0  0  0  0  0  0  0  0
    3.4440    4.2291    1.1980 C   0  0  0  0  0  0  0  0  0  0  0  0
    3.6568    4.9836    2.1403 O   0  0  0  0  0  0  0  0  0  0  0  0
    1.3931    5.6578    0.6097 C   0  0  0  0  0  0  0  0  0  0  0  0
    0.6474    3.1827    0.9260 H   0  0  0  0  0  0  0  0  0  0  0  0
    2.6651    4.6151   -0.7568 H   0  0  0  0  0  0  0  0  0  0  0  0
    0.9599    5.5361    1.6077 H   0  0  0  0  0  0  0  0  0  0  0  0
    2.0067    6.5645    0.6073 H   0  0  0  0  0  0  0  0  0  0  0  0
    0.5815    5.7893   -0.1121 H   0  0  0  0  0  0  0  0  0  0  0  0
    4.3147    3.1836    0.9649 N   0  0  0  0  0  0  0  0  0  0  0  0
    5.4756    2.8874    1.7920 C   0  0  0  0  0  0  0  0  0  0  0  0
    4.0850    2.5723    0.1774 H   0  0  0  0  0  0  0  0  0  0  0  0
    6.1827    3.7231    1.7703 H   0  0  0  0  0  0  0  0  0  0  0  0
    5.1720    2.7076    2.8285 H   0  0  0  0  0  0  0  0  0  0  0  0
    5.9847    1.9930    1.4199 H   0  0  0  0  0  0  0  0  0  0  0  0
  1  2  2  0  0  0  0
  1  3  1  0  0  0  0
  1  7  1  0  0  0  0
  3  4  1  0  0  0  0
  3  5  1  0  0  0  0
  3  6  1  0  0  0  0
  7  8  1  0  0  0  0
  7 12  1  0  0  0  0
  8  9  1  0  0  0  0
  8 11  1  0  0  0  0
  8 13  1  0  0  0  0
  9 10  2  0  0  0  0
  9 17  1  0  0  0  0
 11 14  1  0  0  0  0
 11 15  1  0  0  0  0
 11 16  1  0  0  0  0
 17 18  1  0  0  0  0
 17 28  1  0  0  0  0
 18 19  1  0  0  0  0
 18 21  1  0  0  0  0
 18 29  1  0  0  0  0
 19 20  2  0  0  0  0
 19 37  1  0  0  0  0
 21 22  1  0  0  0  0
 21 30  1  0  0  0  0
 21 31  1  0  0  0  0
 22 23  1  0  0  0  0
 22 24  2  0  0  0  0
 23 25  2  0  0  0  0
 23 32  1  0  0  0  0
 24 26  1  0  0  0  0
 24 33  1  0  0  0  0
 25 27  1  0  0  0  0
 25 34  1  0  0  0  0
 26 27  2  0  0  0  0
 26 35  1  0  0  0  0
 27 36  1  0  0  0  0
 37 38  1  0  0  0  0
 37 42  1  0  0  0  0
 38 39  1  0  0  0  0
 38 41  1  0  0  0  0
 38 43  1  0  0  0  0
 39 40  2  0  0  0  0
 39 47  1  0  0  0  0
 41 44  1  0  0  0  0
 41 45  1  0  0  0  0
 41 46  1  0  0  0  0
 47 48  1  0  0  0  0
 47 49  1  0  0  0  0
 48 50  1  0  0  0  0
 48 51  1  0  0  0  0
 48 52  1  0  0  0  0
M  END
$$$$

  -OEChem-05262217163D

 52 52  0     1  0  0  0  0  0999 V2000
   -2.9462   -0.1270    4.3910 C   0  0  0  0  0  0  0  0  0  0  0  0
   -4.0126   -0.3740    3.8506 O   0  0  0  0  0  0  0  0  0  0  0  0
   -2.6603   -0.6438    5.7884 C   0  0  0  0  0  0  0  0  0  0  0  0
   -3.5477   -1.1347    6.1981 H   0  0  0  0  0  0  0  0  0  0  0  0
   -1.8405   -1.3657    5.7585 H   0  0  0  0  0  0  0  0  0  0  0  0
   -2.3832    0.1849    6.4446 H   0  0  0  0  0  0  0  0  0  0  0  0
   -1.9929    0.6120    3.7227 N   0  0  0  0  0  0  0  0  0  0  0  0
   -2.1110    1.0443    2.3240 C   0  0  2  0  0  0  0  0  0  0  0  0
   -0.7341    1.1192    1.6336 C   0  0  0  0  0  0  0  0  0  0  0  0
    0.2940    1.1632    2.2993 O   0  0  0  0  0  0  0  0  0  0  0  0
   -2.8012    2.4117    2.2960 C   0  0  0  0  0  0  0  0  0  0  0  0
   -1.0786    0.7069    4.1637 H   0  0  0  0  0  0  0  0  0  0  0  0
   -2.7174    0.3228    1.7655 H   0  0  0  0  0  0  0  0  0  0  0  0
   -2.2067    3.1525    2.8406 H   0  0  0  0  0  0  0  0  0  0  0  0
   -2.9312    2.7573    1.2659 H   0  0  0  0  0  0  0  0  0  0  0  0
   -3.7891    2.3465    2.7635 H   0  0  0  0  0  0  0  0  0  0  0  0
   -0.6370    1.1858    0.2566 N   0  0  0  0  0  0  0  0  0  0  0  0
    0.6140    0.9551   -0.4954 C   0  0  2  0  0  0  0  0  0  0  0  0
    1.6288    2.1254   -0.4216 C   0  0  0  0  0  0  0  0  0  0  0  0
    2.5407    2.2173   -1.2362 O   0  0  0  0  0  0  0  0  0  0  0  0
    0.2240    0.6558   -1.9578 C   0  0  0  0  0  0  0  0  0  0  0  0
   -0.5150   -0.6581   -2.0573 C   0  0  0  0  0  0  0  0  0  0  0  0
    0.1933   -1.8689   -2.0753 C   0  0  0  0  0  0  0  0  0  0  0  0
   -1.9164   -0.6858   -2.1422 C   0  0  0  0  0  0  0  0  0  0  0  0
   -0.4877   -3.0884   -2.1533 C   0  0  0  0  0  0  0  0  0  0  0  0
   -2.5980   -1.9050   -2.2191 C   0  0  0  0  0  0  0  0  0  0  0  0
   -1.8839   -3.1067   -2.2209 C   0  0  0  0  0  0  0  0  0  0  0  0
   -1.5055    1.0364   -0.2500 H   0  0  0  0  0  0  0  0  0  0  0  0
    1.1263    0.0798   -0.0815 H   0  0  0  0  0  0  0  0  0  0  0  0
    1.1226    0.5908   -2.5809 H   0  0  0  0  0  0  0  0  0  0  0  0
   -0.3841    1.4734   -2.3584 H   0  0  0  0  0  0  0  0  0  0  0  0
    1.2785   -1.8665   -2.0236 H   0  0  0  0  0  0  0  0  0  0  0  0
   -2.4851    0.2389   -2.1572 H   0  0  0  0  0  0  0  0  0  0  0  0
    0.0685   -4.0214   -2.1622 H   0  0  0  0  0  0  0  0  0  0  0  0
   -3.6823   -1.9202   -2.2826 H   0  0  0  0  0  0  0  0  0  0  0  0
   -2.4131   -4.0536   -2.2807 H   0  0  0  0  0  0  0  0  0  0  0  0
    1.4989    3.1227    0.5261 N   0  0  0  0  0  0  0  0  0  0  0  0
    2.3992    4.2789    0.6502 C   0  0  2  0  0  0  0  0  0  0  0  0
    3.7533    3.9215    1.3109 C   0  0  0  0  0  0  0  0  0  0  0  0
    4.1280    4.4562    2.3480 O   0  0  0  0  0  0  0  0  0  0  0  0
    1.6299    5.3638    1.4139 C   0  0  0  0  0  0  0  0  0  0  0  0
    0.9477    2.8562    1.3434 H   0  0  0  0  0  0  0  0  0  0  0  0
    2.6257    4.6705   -0.3471 H   0  0  0  0  0  0  0  0  0  0  0  0
    1.3880    5.0227    2.4255 H   0  0  0  0  0  0  0  0  0  0  0  0
    2.2317    6.2749    1.4901 H   0  0  0  0  0  0  0  0  0  0  0  0
    0.6987    5.6084    0.8940 H   0  0  0  0  0  0  0  0  0  0  0  0
    4.5747    2.9953    0.6993 N   0  0  0  0  0  0  0  0  0  0  0  0
    5.8657    2.5738    1.2245 C   0  0  0  0  0  0  0  0  0  0  0  0
    4.2082    2.5599   -0.1507 H   0  0  0  0  0  0  0  0  0  0  0  0
    6.5438    3.4296    1.3055 H   0  0  0  0  0  0  0  0  0  0  0  0
    5.7478    2.1216    2.2147 H   0  0  0  0  0  0  0  0  0  0  0  0
    6.3199    1.8347    0.5577 H   0  0  0  0  0  0  0  0  0  0  0  0
  1  2  2  0  0  0  0
  1  3  1  0  0  0  0
  1  7  1  0  0  0  0
  3  4  1  0  0  0  0
  3  5  1  0  0  0  0
  3  6  1  0  0  0  0
  7  8  1  0  0  0  0
  7 12  1  0  0  0  0
  8  9  1  0  0  0  0
  8 11  1  0  0  0  0
  8 13  1  0  0  0  0
  9 10  2  0  0  0  0
  9 17  1  0  0  0  0
 11 14  1  0  0  0  0
 11 15  1  0  0  0  0
 11 16  1  0  0  0  0
 17 18  1  0  0  0  0
 17 28  1  0  0  0  0
 18 19  1  0  0  0  0
 18 21  1  0  0  0  0
 18 29  1  0  0  0  0
 19 20  2  0  0  0  0
 19 37  1  0  0  0  0
 21 22  1  0  0  0  0
 21 30  1  0  0  0  0
 21 31  1  0  0  0  0
 22 23  1  0  0  0  0
 22 24  2  0  0  0  0
 23 25  2  0  0  0  0
 23 32  1  0  0  0  0
 24 26  1  0  0  0  0
 24 33  1  0  0  0  0
 25 27  1  0  0  0  0
 25 34  1  0  0  0  0
 26 27  2  0  0  0  0
 26 35  1  0  0  0  0
 27 36  1  0  0  0  0
 37 38  1  0  0  0  0
 37 42  1  0  0  0  0
 38 39  1  0  0  0  0
 38 41  1  0  0  0  0
 38 43  1  0  0  0  0
 39 40  2  0  0  0  0
 39 47  1  0  0  0  0
 41 44  1  0  0  0  0
 41 45  1  0  0  0  0
 41 46  1  0  0  0  0
 47 48  1  0  0  0  0
 47 49  1  0  0  0  0
 48 50  1  0  0  0  0
 48 51  1  0  0  0  0
 48 52  1  0  0  0  0
M  END
$$$$

  -OEChem-05262217163D

 52 52  0     1  0  0  0  0  0999 V2000
   -3.0362   -0.1192    4.3613 C   0  0  0  0  0  0  0  0  0  0  0  0
   -4.1009   -0.3089    3.7949 O   0  0  0  0  0  0  0  0  0  0  0  0
   -2.8001   -0.6781    5.7519 C   0  0  0  0  0  0  0  0  0  0  0  0
   -3.6727   -1.2490    6.0814 H   0  0  0  0  0  0  0  0  0  0  0  0
   -1.9290   -1.3379    5.7477 H   0  0  0  0  0  0  0  0  0  0  0  0
   -2.6265    0.1382    6.4573 H   0  0  0  0  0  0  0  0  0  0  0  0
   -2.0430    0.6022    3.7329 N   0  0  0  0  0  0  0  0  0  0  0  0
   -2.1149    1.0683    2.3418 C   0  0  2  0  0  0  0  0  0  0  0  0
   -0.7304    1.0610    1.6635 C   0  0  0  0  0  0  0  0  0  0  0  0
    0.2918    0.9961    2.3380 O   0  0  0  0  0  0  0  0  0  0  0  0
   -2.7062    2.4811    2.3367 C   0  0  0  0  0  0  0  0  0  0  0  0
   -1.1323    0.6399    4.1897 H   0  0  0  0  0  0  0  0  0  0  0  0
   -2.7642    0.4031    1.7621 H   0  0  0  0  0  0  0  0  0  0  0  0
   -2.0685    3.1654    2.9058 H   0  0  0  0  0  0  0  0  0  0  0  0
   -2.7962    2.8579    1.3135 H   0  0  0  0  0  0  0  0  0  0  0  0
   -3.7028    2.4757    2.7897 H   0  0  0  0  0  0  0  0  0  0  0  0
   -0.6213    1.1651    0.2894 N   0  0  0  0  0  0  0  0  0  0  0  0
    0.6271    0.9609   -0.4733 C   0  0  2  0  0  0  0  0  0  0  0  0
    1.6341    2.1364   -0.3644 C   0  0  0  0  0  0  0  0  0  0  0  0
    2.3980    2.4055   -1.2850 O   0  0  0  0  0  0  0  0  0  0  0  0
    0.2339    0.6817   -1.9395 C   0  0  0  0  0  0  0  0  0  0  0  0
   -0.4901   -0.6384   -2.0593 C   0  0  0  0  0  0  0  0  0  0  0  0
    0.2350   -1.8383   -2.1015 C   0  0  0  0  0  0  0  0  0  0  0  0
   -1.8911   -0.6845   -2.1385 C   0  0  0  0  0  0  0  0  0  0  0  0
   -0.4284   -3.0657   -2.2019 C   0  0  0  0  0  0  0  0  0  0  0  0
   -2.5556   -1.9119   -2.2366 C   0  0  0  0  0  0  0  0  0  0  0  0
   -1.8243   -3.1030   -2.2655 C   0  0  0  0  0  0  0  0  0  0  0  0
   -1.4929    1.1142   -0.2307 H   0  0  0  0  0  0  0  0  0  0  0  0
    1.1452    0.0799   -0.0798 H   0  0  0  0  0  0  0  0  0  0  0  0
    1.1299    0.6371   -2.5679 H   0  0  0  0  0  0  0  0  0  0  0  0
   -0.3852    1.4994   -2.3227 H   0  0  0  0  0  0  0  0  0  0  0  0
    1.3201   -1.8211   -2.0531 H   0  0  0  0  0  0  0  0  0  0  0  0
   -2.4729    0.2319   -2.1317 H   0  0  0  0  0  0  0  0  0  0  0  0
    0.1417   -3.9898   -2.2313 H   0  0  0  0  0  0  0  0  0  0  0  0
   -3.6400   -1.9416   -2.2949 H   0  0  0  0  0  0  0  0  0  0  0  0
   -2.3394   -4.0563   -2.3426 H   0  0  0  0  0  0  0  0  0  0  0  0
    1.6915    2.9203    0.7720 N   0  0  0  0  0  0  0  0  0  0  0  0
    2.6096    4.0520    0.9693 C   0  0  2  0  0  0  0  0  0  0  0  0
    4.0531    3.6035    1.3052 C   0  0  0  0  0  0  0  0  0  0  0  0
    4.6164    3.9541    2.3354 O   0  0  0  0  0  0  0  0  0  0  0  0
    1.9939    4.9430    2.0551 C   0  0  0  0  0  0  0  0  0  0  0  0
    1.2329    2.5207    1.5944 H   0  0  0  0  0  0  0  0  0  0  0  0
    2.6644    4.6394    0.0466 H   0  0  0  0  0  0  0  0  0  0  0  0
    1.9320    4.4032    3.0056 H   0  0  0  0  0  0  0  0  0  0  0  0
    2.6065    5.8379    2.2043 H   0  0  0  0  0  0  0  0  0  0  0  0
    0.9874    5.2588    1.7648 H   0  0  0  0  0  0  0  0  0  0  0  0
    4.7334    2.8022    0.4100 N   0  0  0  0  0  0  0  0  0  0  0  0
    6.0860    2.3064    0.6213 C   0  0  0  0  0  0  0  0  0  0  0  0
    4.2182    2.5271   -0.4299 H   0  0  0  0  0  0  0  0  0  0  0  0
    6.7862    3.1405    0.7354 H   0  0  0  0  0  0  0  0  0  0  0  0
    6.1288    1.6838    1.5210 H   0  0  0  0  0  0  0  0  0  0  0  0
    6.4039    1.7025   -0.2339 H   0  0  0  0  0  0  0  0  0  0  0  0
  1  2  2  0  0  0  0
  1  3  1  0  0  0  0
  1  7  1  0  0  0  0
  3  4  1  0  0  0  0
  3  5  1  0  0  0  0
  3  6  1  0  0  0  0
  7  8  1  0  0  0  0
  7 12  1  0  0  0  0
  8  9  1  0  0  0  0
  8 11  1  0  0  0  0
  8 13  1  0  0  0  0
  9 10  2  0  0  0  0
  9 17  1  0  0  0  0
 11 14  1  0  0  0  0
 11 15  1  0  0  0  0
 11 16  1  0  0  0  0
 17 18  1  0  0  0  0
 17 28  1  0  0  0  0
 18 19  1  0  0  0  0
 18 21  1  0  0  0  0
 18 29  1  0  0  0  0
 19 20  2  0  0  0  0
 19 37  1  0  0  0  0
 21 22  1  0  0  0  0
 21 30  1  0  0  0  0
 21 31  1  0  0  0  0
 22 23  1  0  0  0  0
 22 24  2  0  0  0  0
 23 25  2  0  0  0  0
 23 32  1  0  0  0  0
 24 26  1  0  0  0  0
 24 33  1  0  0  0  0
 25 27  1  0  0  0  0
 25 34  1  0  0  0  0
 26 27  2  0  0  0  0
 26 35  1  0  0  0  0
 27 36  1  0  0  0  0
 37 38  1  0  0  0  0
 37 42  1  0  0  0  0
 38 39  1  0  0  0  0
 38 41  1  0  0  0  0
 38 43  1  0  0  0  0
 39 40  2  0  0  0  0
 39 47  1  0  0  0  0
 41 44  1  0  0  0  0
 41 45  1  0  0  0  0
 41 46  1  0  0  0  0
 47 48  1  0  0  0  0
 47 49  1  0  0  0  0
 48 50  1  0  0  0  0
 48 51  1  0  0  0  0
 48 52  1  0  0  0  0
M  END
$$$$

  -OEChem-05262217163D

 52 52  0     1  0  0  0  0  0999 V2000
   -3.1481   -0.0304    4.3671 C   0  0  0  0  0  0  0  0  0  0  0  0
   -4.2339   -0.0599    3.8101 O   0  0  0  0  0  0  0  0  0  0  0  0
   -2.9801   -0.6405    5.7458 C   0  0  0  0  0  0  0  0  0  0  0  0
   -3.9437   -0.9984    6.1194 H   0  0  0  0  0  0  0  0  0  0  0  0
   -2.2849   -1.4823    5.6995 H   0  0  0  0  0  0  0  0  0  0  0  0
   -2.5904    0.1076    6.4404 H   0  0  0  0  0  0  0  0  0  0  0  0
   -2.0697    0.5548    3.7378 N   0  0  0  0  0  0  0  0  0  0  0  0
   -2.0950    1.0734    2.3639 C   0  0  2  0  0  0  0  0  0  0  0  0
   -0.7118    0.9772    1.6892 C   0  0  0  0  0  0  0  0  0  0  0  0
    0.2958    0.7880    2.3639 O   0  0  0  0  0  0  0  0  0  0  0  0
   -2.5691    2.5297    2.4042 C   0  0  0  0  0  0  0  0  0  0  0  0
   -1.1586    0.4657    4.1861 H   0  0  0  0  0  0  0  0  0  0  0  0
   -2.7935    0.4822    1.7616 H   0  0  0  0  0  0  0  0  0  0  0  0
   -1.8832    3.1395    3.0011 H   0  0  0  0  0  0  0  0  0  0  0  0
   -2.6185    2.9473    1.3940 H   0  0  0  0  0  0  0  0  0  0  0  0
   -3.5672    2.5912    2.8501 H   0  0  0  0  0  0  0  0  0  0  0  0
   -0.5885    1.1179    0.3190 N   0  0  0  0  0  0  0  0  0  0  0  0
    0.6592    0.9154   -0.4437 C   0  0  2  0  0  0  0  0  0  0  0  0
    1.6717    2.0802   -0.2853 C   0  0  0  0  0  0  0  0  0  0  0  0
    2.2662    2.5513   -1.2488 O   0  0  0  0  0  0  0  0  0  0  0  0
    0.2805    0.6733   -1.9199 C   0  0  0  0  0  0  0  0  0  0  0  0
   -0.4565   -0.6354   -2.0797 C   0  0  0  0  0  0  0  0  0  0  0  0
    0.2542   -1.8431   -2.1415 C   0  0  0  0  0  0  0  0  0  0  0  0
   -1.8569   -0.6622   -2.1757 C   0  0  0  0  0  0  0  0  0  0  0  0
   -0.4230   -3.0590   -2.2811 C   0  0  0  0  0  0  0  0  0  0  0  0
   -2.5354   -1.8779   -2.3123 C   0  0  0  0  0  0  0  0  0  0  0  0
   -1.8186   -3.0771   -2.3637 C   0  0  0  0  0  0  0  0  0  0  0  0
   -1.4544    1.1856   -0.2086 H   0  0  0  0  0  0  0  0  0  0  0  0
    1.1649    0.0188   -0.0695 H   0  0  0  0  0  0  0  0  0  0  0  0
    1.1864    0.6319   -2.5346 H   0  0  0  0  0  0  0  0  0  0  0  0
   -0.3234    1.5065   -2.2942 H   0  0  0  0  0  0  0  0  0  0  0  0
    1.3386   -1.8414   -2.0789 H   0  0  0  0  0  0  0  0  0  0  0  0
   -2.4268    0.2611   -2.1514 H   0  0  0  0  0  0  0  0  0  0  0  0
    0.1361   -3.9891   -2.3264 H   0  0  0  0  0  0  0  0  0  0  0  0
   -3.6193   -1.8918   -2.3834 H   0  0  0  0  0  0  0  0  0  0  0  0
   -2.3448   -4.0213   -2.4727 H   0  0  0  0  0  0  0  0  0  0  0  0
    1.9353    2.6161    0.9600 N   0  0  0  0  0  0  0  0  0  0  0  0
    2.8583    3.7277    1.2308 C   0  0  2  0  0  0  0  0  0  0  0  0
    4.3435    3.2916    1.2052 C   0  0  0  0  0  0  0  0  0  0  0  0
    5.0790    3.4364    2.1744 O   0  0  0  0  0  0  0  0  0  0  0  0
    2.4382    4.3409    2.5721 C   0  0  0  0  0  0  0  0  0  0  0  0
    1.5296    2.1121    1.7533 H   0  0  0  0  0  0  0  0  0  0  0  0
    2.7379    4.4956    0.4594 H   0  0  0  0  0  0  0  0  0  0  0  0
    2.5410    3.6071    3.3782 H   0  0  0  0  0  0  0  0  0  0  0  0
    3.0668    5.2055    2.8082 H   0  0  0  0  0  0  0  0  0  0  0  0
    1.3964    4.6729    2.5301 H   0  0  0  0  0  0  0  0  0  0  0  0
    4.8606    2.7456    0.0474 N   0  0  0  0  0  0  0  0  0  0  0  0
    6.2354    2.2900   -0.0994 C   0  0  0  0  0  0  0  0  0  0  0  0
    4.2021    2.6256   -0.7264 H   0  0  0  0  0  0  0  0  0  0  0  0
    6.9340    3.1043    0.1193 H   0  0  0  0  0  0  0  0  0  0  0  0
    6.4378    1.4583    0.5831 H   0  0  0  0  0  0  0  0  0  0  0  0
    6.4112    1.9494   -1.1243 H   0  0  0  0  0  0  0  0  0  0  0  0
  1  2  2  0  0  0  0
  1  3  1  0  0  0  0
  1  7  1  0  0  0  0
  3  4  1  0  0  0  0
  3  5  1  0  0  0  0
  3  6  1  0  0  0  0
  7  8  1  0  0  0  0
  7 12  1  0  0  0  0
  8  9  1  0  0  0  0
  8 11  1  0  0  0  0
  8 13  1  0  0  0  0
  9 10  2  0  0  0  0
  9 17  1  0  0  0  0
 11 14  1  0  0  0  0
 11 15  1  0  0  0  0
 11 16  1  0  0  0  0
 17 18  1  0  0  0  0
 17 28  1  0  0  0  0
 18 19  1  0  0  0  0
 18 21  1  0  0  0  0
 18 29  1  0  0  0  0
 19 20  2  0  0  0  0
 19 37  1  0  0  0  0
 21 22  1  0  0  0  0
 21 30  1  0  0  0  0
 21 31  1  0  0  0  0
 22 23  1  0  0  0  0
 22 24  2  0  0  0  0
 23 25  2  0  0  0  0
 23 32  1  0  0  0  0
 24 26  1  0  0  0  0
 24 33  1  0  0  0  0
 25 27  1  0  0  0  0
 25 34  1  0  0  0  0
 26 27  2  0  0  0  0
 26 35  1  0  0  0  0
 27 36  1  0  0  0  0
 37 38  1  0  0  0  0
 37 42  1  0  0  0  0
 38 39  1  0  0  0  0
 38 41  1  0  0  0  0
 38 43  1  0  0  0  0
 39 40  2  0  0  0  0
 39 47  1  0  0  0  0
 41 44  1  0  0  0  0
 41 45  1  0  0  0  0
 41 46  1  0  0  0  0
 47 48  1  0  0  0  0
 47 49  1  0  0  0  0
 48 50  1  0  0  0  0
 48 51  1  0  0  0  0
 48 52  1  0  0  0  0
M  END
$$$$

  -OEChem-05262217163D

 52 52  0     1  0  0  0  0  0999 V2000
   -3.1763   -0.0210    4.3181 C   0  0  0  0  0  0  0  0  0  0  0  0
   -4.2546    0.0077    3.7469 O   0  0  0  0  0  0  0  0  0  0  0  0
   -3.0386   -0.7263    5.6544 C   0  0  0  0  0  0  0  0  0  0  0  0
   -4.0120   -1.0984    5.9862 H   0  0  0  0  0  0  0  0  0  0  0  0
   -2.3515   -1.5709    5.5618 H   0  0  0  0  0  0  0  0  0  0  0  0
   -2.6529   -0.0327    6.4055 H   0  0  0  0  0  0  0  0  0  0  0  0
   -2.0766    0.5766    3.7393 N   0  0  0  0  0  0  0  0  0  0  0  0
   -2.0630    1.1472    2.3858 C   0  0  2  0  0  0  0  0  0  0  0  0
   -0.6913    0.9666    1.7043 C   0  0  0  0  0  0  0  0  0  0  0  0
    0.3027    0.6976    2.3733 O   0  0  0  0  0  0  0  0  0  0  0  0
   -2.4227    2.6327    2.4847 C   0  0  0  0  0  0  0  0  0  0  0  0
   -1.1740    0.4280    4.1886 H   0  0  0  0  0  0  0  0  0  0  0  0
   -2.8053    0.6372    1.7619 H   0  0  0  0  0  0  0  0  0  0  0  0
   -1.6881    3.1646    3.0978 H   0  0  0  0  0  0  0  0  0  0  0  0
   -2.4459    3.0911    1.4914 H   0  0  0  0  0  0  0  0  0  0  0  0
   -3.4103    2.7533    2.9415 H   0  0  0  0  0  0  0  0  0  0  0  0
   -0.5619    1.1112    0.3350 N   0  0  0  0  0  0  0  0  0  0  0  0
    0.6822    0.8729   -0.4201 C   0  0  2  0  0  0  0  0  0  0  0  0
    1.7161    2.0117   -0.2385 C   0  0  0  0  0  0  0  0  0  0  0  0
    2.1559    2.6453   -1.1919 O   0  0  0  0  0  0  0  0  0  0  0  0
    0.3202    0.6453   -1.9016 C   0  0  0  0  0  0  0  0  0  0  0  0
   -0.4517   -0.6414   -2.0794 C   0  0  0  0  0  0  0  0  0  0  0  0
    0.2263   -1.8685   -2.1348 C   0  0  0  0  0  0  0  0  0  0  0  0
   -1.8506   -0.6300   -2.1977 C   0  0  0  0  0  0  0  0  0  0  0  0
   -0.4813   -3.0652   -2.2905 C   0  0  0  0  0  0  0  0  0  0  0  0
   -2.5592   -1.8267   -2.3532 C   0  0  0  0  0  0  0  0  0  0  0  0
   -1.8748   -3.0449   -2.3974 C   0  0  0  0  0  0  0  0  0  0  0  0
   -1.4160    1.2643   -0.1937 H   0  0  0  0  0  0  0  0  0  0  0  0
    1.1603   -0.0392   -0.0468 H   0  0  0  0  0  0  0  0  0  0  0  0
    1.2363    0.5858   -2.4993 H   0  0  0  0  0  0  0  0  0  0  0  0
   -0.2559    1.4957   -2.2811 H   0  0  0  0  0  0  0  0  0  0  0  0
    1.3090   -1.8976   -2.0543 H   0  0  0  0  0  0  0  0  0  0  0  0
   -2.3958    0.3083   -2.1765 H   0  0  0  0  0  0  0  0  0  0  0  0
    0.0521   -4.0106   -2.3289 H   0  0  0  0  0  0  0  0  0  0  0  0
   -3.6417   -1.8114   -2.4431 H   0  0  0  0  0  0  0  0  0  0  0  0
   -2.4242   -3.9741   -2.5191 H   0  0  0  0  0  0  0  0  0  0  0  0
    2.1964    2.3104    1.0209 N   0  0  0  0  0  0  0  0  0  0  0  0
    3.1288    3.4015    1.3394 C   0  0  2  0  0  0  0  0  0  0  0  0
    4.5987    3.0537    0.9974 C   0  0  0  0  0  0  0  0  0  0  0  0
    5.4877    3.0957    1.8401 O   0  0  0  0  0  0  0  0  0  0  0  0
    2.9275    3.7428    2.8212 C   0  0  0  0  0  0  0  0  0  0  0  0
    1.8063    1.7574    1.7895 H   0  0  0  0  0  0  0  0  0  0  0  0
    2.8645    4.2873    0.7519 H   0  0  0  0  0  0  0  0  0  0  0  0
    3.1985    2.8904    3.4523 H   0  0  0  0  0  0  0  0  0  0  0  0
    3.5543    4.5948    3.1032 H   0  0  0  0  0  0  0  0  0  0  0  0
    1.8828    4.0033    3.0151 H   0  0  0  0  0  0  0  0  0  0  0  0
    4.9214    2.7008   -0.2980 N   0  0  0  0  0  0  0  0  0  0  0  0
    6.2616    2.3413   -0.7389 C   0  0  0  0  0  0  0  0  0  0  0  0
    4.1454    2.6763   -0.9643 H   0  0  0  0  0  0  0  0  0  0  0  0
    6.9556    3.1711   -0.5702 H   0  0  0  0  0  0  0  0  0  0  0  0
    6.6214    1.4628   -0.1931 H   0  0  0  0  0  0  0  0  0  0  0  0
    6.2566    2.1071   -1.8076 H   0  0  0  0  0  0  0  0  0  0  0  0
  1  2  2  0  0  0  0
  1  3  1  0  0  0  0
  1  7  1  0  0  0  0
  3  4  1  0  0  0  0
  3  5  1  0  0  0  0
  3  6  1  0  0  0  0
  7  8  1  0  0  0  0
  7 12  1  0  0  0  0
  8  9  1  0  0  0  0
  8 11  1  0  0  0  0
  8 13  1  0  0  0  0
  9 10  2  0  0  0  0
  9 17  1  0  0  0  0
 11 14  1  0  0  0  0
 11 15  1  0  0  0  0
 11 16  1  0  0  0  0
 17 18  1  0  0  0  0
 17 28  1  0  0  0  0
 18 19  1  0  0  0  0
 18 21  1  0  0  0  0
 18 29  1  0  0  0  0
 19 20  2  0  0  0  0
 19 37  1  0  0  0  0
 21 22  1  0  0  0  0
 21 30  1  0  0  0  0
 21 31  1  0  0  0  0
 22 23  1  0  0  0  0
 22 24  2  0  0  0  0
 23 25  2  0  0  0  0
 23 32  1  0  0  0  0
 24 26  1  0  0  0  0
 24 33  1  0  0  0  0
 25 27  1  0  0  0  0
 25 34  1  0  0  0  0
 26 27  2  0  0  0  0
 26 35  1  0  0  0  0
 27 36  1  0  0  0  0
 37 38  1  0  0  0  0
 37 42  1  0  0  0  0
 38 39  1  0  0  0  0
 38 41  1  0  0  0  0
 38 43  1  0  0  0  0
 39 40  2  0  0  0  0
 39 47  1  0  0  0  0
 41 44  1  0  0  0  0
 41 45  1  0  0  0  0
 41 46  1  0  0  0  0
 47 48  1  0  0  0  0
 47 49  1  0  0  0  0
 48 50  1  0  0  0  0
 48 51  1  0  0  0  0
 48 52  1  0  0  0  0
M  END
$$$$

  -OEChem-05262217163D

 52 52  0     1  0  0  0  0  0999 V2000
   -3.1476    0.0491    4.3512 C   0  0  0  0  0  0  0  0  0  0  0  0
   -4.2324    0.1322    3.7978 O   0  0  0  0  0  0  0  0  0  0  0  0
   -3.0257   -0.6470    5.6934 C   0  0  0  0  0  0  0  0  0  0  0  0
   -3.9954   -1.0503    5.9983 H   0  0  0  0  0  0  0  0  0  0  0  0
   -2.3094   -1.4692    5.6241 H   0  0  0  0  0  0  0  0  0  0  0  0
   -2.6842    0.0622    6.4514 H   0  0  0  0  0  0  0  0  0  0  0  0
   -2.0261    0.5815    3.7509 N   0  0  0  0  0  0  0  0  0  0  0  0
   -2.0039    1.1522    2.3978 C   0  0  2  0  0  0  0  0  0  0  0  0
   -0.6497    0.9131    1.6994 C   0  0  0  0  0  0  0  0  0  0  0  0
    0.3394    0.5901    2.3533 O   0  0  0  0  0  0  0  0  0  0  0  0
   -2.2972    2.6520    2.5030 C   0  0  0  0  0  0  0  0  0  0  0  0
   -1.1261    0.3924    4.1900 H   0  0  0  0  0  0  0  0  0  0  0  0
   -2.7756    0.6755    1.7834 H   0  0  0  0  0  0  0  0  0  0  0  0
   -1.5314    3.1510    3.1055 H   0  0  0  0  0  0  0  0  0  0  0  0
   -2.3142    3.1123    1.5104 H   0  0  0  0  0  0  0  0  0  0  0  0
   -3.2719    2.8151    2.9744 H   0  0  0  0  0  0  0  0  0  0  0  0
   -0.5258    1.0666    0.3305 N   0  0  0  0  0  0  0  0  0  0  0  0
    0.7109    0.7896   -0.4190 C   0  0  2  0  0  0  0  0  0  0  0  0
    1.7656    1.9000   -0.2102 C   0  0  0  0  0  0  0  0  0  0  0  0
    2.0563    2.6944   -1.0982 O   0  0  0  0  0  0  0  0  0  0  0  0
    0.3597    0.6029   -1.9078 C   0  0  0  0  0  0  0  0  0  0  0  0
   -0.4617   -0.6468   -2.1198 C   0  0  0  0  0  0  0  0  0  0  0  0
    0.1659   -1.8996   -2.1893 C   0  0  0  0  0  0  0  0  0  0  0  0
   -1.8565   -0.5743   -2.2608 C   0  0  0  0  0  0  0  0  0  0  0  0
   -0.5877   -3.0624   -2.3805 C   0  0  0  0  0  0  0  0  0  0  0  0
   -2.6112   -1.7367   -2.4532 C   0  0  0  0  0  0  0  0  0  0  0  0
   -1.9772   -2.9814   -2.5108 C   0  0  0  0  0  0  0  0  0  0  0  0
   -1.3697    1.2775   -0.1948 H   0  0  0  0  0  0  0  0  0  0  0  0
    1.1563   -0.1443   -0.0589 H   0  0  0  0  0  0  0  0  0  0  0  0
    1.2816    0.5219   -2.4941 H   0  0  0  0  0  0  0  0  0  0  0  0
   -0.1800    1.4814   -2.2774 H   0  0  0  0  0  0  0  0  0  0  0  0
    1.2449   -1.9752   -2.0919 H   0  0  0  0  0  0  0  0  0  0  0  0
   -2.3619    0.3858   -2.2293 H   0  0  0  0  0  0  0  0  0  0  0  0
   -0.0930   -4.0283   -2.4289 H   0  0  0  0  0  0  0  0  0  0  0  0
   -3.6901   -1.6733   -2.5622 H   0  0  0  0  0  0  0  0  0  0  0  0
   -2.5625   -3.8841   -2.6610 H   0  0  0  0  0  0  0  0  0  0  0  0
    2.4531    1.9595    0.9854 N   0  0  0  0  0  0  0  0  0  0  0  0
    3.3895    3.0297    1.3592 C   0  0  2  0  0  0  0  0  0  0  0  0
    4.7972    2.8377    0.7435 C   0  0  0  0  0  0  0  0  0  0  0  0
    5.8071    2.7897    1.4361 O   0  0  0  0  0  0  0  0  0  0  0  0
    3.4121    3.0887    2.8913 C   0  0  0  0  0  0  0  0  0  0  0  0
    2.0871    1.3567    1.7275 H   0  0  0  0  0  0  0  0  0  0  0  0
    3.0097    3.9890    0.9928 H   0  0  0  0  0  0  0  0  0  0  0  0
    3.7962    2.1511    3.3063 H   0  0  0  0  0  0  0  0  0  0  0  0
    4.0555    3.9067    3.2308 H   0  0  0  0  0  0  0  0  0  0  0  0
    2.4039    3.2578    3.2816 H   0  0  0  0  0  0  0  0  0  0  0  0
    4.9222    2.7419   -0.6282 N   0  0  0  0  0  0  0  0  0  0  0  0
    6.1887    2.5669   -1.3246 C   0  0  0  0  0  0  0  0  0  0  0  0
    4.0511    2.7846   -1.1634 H   0  0  0  0  0  0  0  0  0  0  0  0
    6.8680    3.3945   -1.0957 H   0  0  0  0  0  0  0  0  0  0  0  0
    6.6631    1.6266   -1.0254 H   0  0  0  0  0  0  0  0  0  0  0  0
    6.0236    2.5434   -2.4059 H   0  0  0  0  0  0  0  0  0  0  0  0
  1  2  2  0  0  0  0
  1  3  1  0  0  0  0
  1  7  1  0  0  0  0
  3  4  1  0  0  0  0
  3  5  1  0  0  0  0
  3  6  1  0  0  0  0
  7  8  1  0  0  0  0
  7 12  1  0  0  0  0
  8  9  1  0  0  0  0
  8 11  1  0  0  0  0
  8 13  1  0  0  0  0
  9 10  2  0  0  0  0
  9 17  1  0  0  0  0
 11 14  1  0  0  0  0
 11 15  1  0  0  0  0
 11 16  1  0  0  0  0
 17 18  1  0  0  0  0
 17 28  1  0  0  0  0
 18 19  1  0  0  0  0
 18 21  1  0  0  0  0
 18 29  1  0  0  0  0
 19 20  2  0  0  0  0
 19 37  1  0  0  0  0
 21 22  1  0  0  0  0
 21 30  1  0  0  0  0
 21 31  1  0  0  0  0
 22 23  1  0  0  0  0
 22 24  2  0  0  0  0
 23 25  2  0  0  0  0
 23 32  1  0  0  0  0
 24 26  1  0  0  0  0
 24 33  1  0  0  0  0
 25 27  1  0  0  0  0
 25 34  1  0  0  0  0
 26 27  2  0  0  0  0
 26 35  1  0  0  0  0
 27 36  1  0  0  0  0
 37 38  1  0  0  0  0
 37 42  1  0  0  0  0
 38 39  1  0  0  0  0
 38 41  1  0  0  0  0
 38 43  1  0  0  0  0
 39 40  2  0  0  0  0
 39 47  1  0  0  0  0
 41 44  1  0  0  0  0
 41 45  1  0  0  0  0
 41 46  1  0  0  0  0
 47 48  1  0  0  0  0
 47 49  1  0  0  0  0
 48 50  1  0  0  0  0
 48 51  1  0  0  0  0
 48 52  1  0  0  0  0
M  END
$$$$

  -OEChem-05262217163D

 52 52  0     1  0  0  0  0  0999 V2000
   -3.0998    0.1104    4.4003 C   0  0  0  0  0  0  0  0  0  0  0  0
   -4.1903    0.2212    3.8630 O   0  0  0  0  0  0  0  0  0  0  0  0
   -2.9788   -0.5741    5.7487 C   0  0  0  0  0  0  0  0  0  0  0  0
   -3.9576   -0.9337    6.0781 H   0  0  0  0  0  0  0  0  0  0  0  0
   -2.2975   -1.4252    5.6761 H   0  0  0  0  0  0  0  0  0  0  0  0
   -2.5944    0.1299    6.4906 H   0  0  0  0  0  0  0  0  0  0  0  0
   -1.9724    0.6012    3.7762 N   0  0  0  0  0  0  0  0  0  0  0  0
   -1.9549    1.1545    2.4155 C   0  0  2  0  0  0  0  0  0  0  0  0
   -0.6227    0.8633    1.6961 C   0  0  0  0  0  0  0  0  0  0  0  0
    0.3642    0.4958    2.3310 O   0  0  0  0  0  0  0  0  0  0  0  0
   -2.1949    2.6645    2.5045 C   0  0  0  0  0  0  0  0  0  0  0  0
   -1.0716    0.3859    4.2015 H   0  0  0  0  0  0  0  0  0  0  0  0
   -2.7525    0.6971    1.8199 H   0  0  0  0  0  0  0  0  0  0  0  0
   -1.4037    3.1450    3.0889 H   0  0  0  0  0  0  0  0  0  0  0  0
   -2.2102    3.1117    1.5059 H   0  0  0  0  0  0  0  0  0  0  0  0
   -3.1566    2.8670    2.9870 H   0  0  0  0  0  0  0  0  0  0  0  0
   -0.5095    1.0275    0.3277 N   0  0  0  0  0  0  0  0  0  0  0  0
    0.7228    0.7276   -0.4151 C   0  0  2  0  0  0  0  0  0  0  0  0
    1.7808    1.8255   -0.1786 C   0  0  0  0  0  0  0  0  0  0  0  0
    1.9223    2.7637   -0.9560 O   0  0  0  0  0  0  0  0  0  0  0  0
    0.3909    0.5771   -1.9117 C   0  0  0  0  0  0  0  0  0  0  0  0
   -0.4627   -0.6441   -2.1598 C   0  0  0  0  0  0  0  0  0  0  0  0
    0.1275   -1.9142   -2.2425 C   0  0  0  0  0  0  0  0  0  0  0  0
   -1.8524   -0.5264   -2.3211 C   0  0  0  0  0  0  0  0  0  0  0  0
   -0.6584   -3.0491   -2.4692 C   0  0  0  0  0  0  0  0  0  0  0  0
   -2.6390   -1.6610   -2.5486 C   0  0  0  0  0  0  0  0  0  0  0  0
   -2.0422   -2.9229   -2.6211 C   0  0  0  0  0  0  0  0  0  0  0  0
   -1.3395    1.3025   -0.1900 H   0  0  0  0  0  0  0  0  0  0  0  0
    1.1457   -0.2209   -0.0666 H   0  0  0  0  0  0  0  0  0  0  0  0
    1.3206    0.4828   -2.4834 H   0  0  0  0  0  0  0  0  0  0  0  0
   -0.1187    1.4764   -2.2741 H   0  0  0  0  0  0  0  0  0  0  0  0
    1.2018   -2.0254   -2.1285 H   0  0  0  0  0  0  0  0  0  0  0  0
   -2.3290    0.4479   -2.2778 H   0  0  0  0  0  0  0  0  0  0  0  0
   -0.1935   -4.0290   -2.5290 H   0  0  0  0  0  0  0  0  0  0  0  0
   -3.7138   -1.5636   -2.6729 H   0  0  0  0  0  0  0  0  0  0  0  0
   -2.6520   -3.8040   -2.7991 H   0  0  0  0  0  0  0  0  0  0  0  0
    2.6603    1.6879    0.8767 N   0  0  0  0  0  0  0  0  0  0  0  0
    3.6430    2.7096    1.2680 C   0  0  2  0  0  0  0  0  0  0  0  0
    4.9279    2.6688    0.4049 C   0  0  0  0  0  0  0  0  0  0  0  0
    6.0395    2.5406    0.9044 O   0  0  0  0  0  0  0  0  0  0  0  0
    3.9229    2.5120    2.7629 C   0  0  0  0  0  0  0  0  0  0  0  0
    2.3743    1.0087    1.5846 H   0  0  0  0  0  0  0  0  0  0  0  0
    3.2043    3.7048    1.1388 H   0  0  0  0  0  0  0  0  0  0  0  0
    4.3790    1.5332    2.9424 H   0  0  0  0  0  0  0  0  0  0  0  0
    4.6077    3.2848    3.1263 H   0  0  0  0  0  0  0  0  0  0  0  0
    2.9939    2.5769    3.3377 H   0  0  0  0  0  0  0  0  0  0  0  0
    4.8224    2.8087   -0.9647 N   0  0  0  0  0  0  0  0  0  0  0  0
    5.9567    2.8110   -1.8779 C   0  0  0  0  0  0  0  0  0  0  0  0
    3.8748    2.9220   -1.3339 H   0  0  0  0  0  0  0  0  0  0  0  0
    6.6340    3.6390   -1.6447 H   0  0  0  0  0  0  0  0  0  0  0  0
    6.5106    1.8696   -1.8027 H   0  0  0  0  0  0  0  0  0  0  0  0
    5.6099    2.9269   -2.9092 H   0  0  0  0  0  0  0  0  0  0  0  0
  1  2  2  0  0  0  0
  1  3  1  0  0  0  0
  1  7  1  0  0  0  0
  3  4  1  0  0  0  0
  3  5  1  0  0  0  0
  3  6  1  0  0  0  0
  7  8  1  0  0  0  0
  7 12  1  0  0  0  0
  8  9  1  0  0  0  0
  8 11  1  0  0  0  0
  8 13  1  0  0  0  0
  9 10  2  0  0  0  0
  9 17  1  0  0  0  0
 11 14  1  0  0  0  0
 11 15  1  0  0  0  0
 11 16  1  0  0  0  0
 17 18  1  0  0  0  0
 17 28  1  0  0  0  0
 18 19  1  0  0  0  0
 18 21  1  0  0  0  0
 18 29  1  0  0  0  0
 19 20  2  0  0  0  0
 19 37  1  0  0  0  0
 21 22  1  0  0  0  0
 21 30  1  0  0  0  0
 21 31  1  0  0  0  0
 22 23  1  0  0  0  0
 22 24  2  0  0  0  0
 23 25  2  0  0  0  0
 23 32  1  0  0  0  0
 24 26  1  0  0  0  0
 24 33  1  0  0  0  0
 25 27  1  0  0  0  0
 25 34  1  0  0  0  0
 26 27  2  0  0  0  0
 26 35  1  0  0  0  0
 27 36  1  0  0  0  0
 37 38  1  0  0  0  0
 37 42  1  0  0  0  0
 38 39  1  0  0  0  0
 38 41  1  0  0  0  0
 38 43  1  0  0  0  0
 39 40  2  0  0  0  0
 39 47  1  0  0  0  0
 41 44  1  0  0  0  0
 41 45  1  0  0  0  0
 41 46  1  0  0  0  0
 47 48  1  0  0  0  0
 47 49  1  0  0  0  0
 48 50  1  0  0  0  0
 48 51  1  0  0  0  0
 48 52  1  0  0  0  0
M  END
$$$$

  -OEChem-05262217163D

 52 52  0     1  0  0  0  0  0999 V2000
   -3.0760    0.2199    4.4470 C   0  0  0  0  0  0  0  0  0  0  0  0
   -4.1673    0.3806    3.9243 O   0  0  0  0  0  0  0  0  0  0  0  0
   -2.9692   -0.4659    5.7961 C   0  0  0  0  0  0  0  0  0  0  0  0
   -3.9527   -0.8175    6.1202 H   0  0  0  0  0  0  0  0  0  0  0  0
   -2.2948   -1.3230    5.7277 H   0  0  0  0  0  0  0  0  0  0  0  0
   -2.5824    0.2341    6.5406 H   0  0  0  0  0  0  0  0  0  0  0  0
   -1.9336    0.6514    3.8066 N   0  0  0  0  0  0  0  0  0  0  0  0
   -1.9021    1.1783    2.4360 C   0  0  2  0  0  0  0  0  0  0  0  0
   -0.6114    0.7702    1.6971 C   0  0  0  0  0  0  0  0  0  0  0  0
    0.3453    0.3080    2.3155 O   0  0  0  0  0  0  0  0  0  0  0  0
   -2.0221    2.7035    2.5054 C   0  0  0  0  0  0  0  0  0  0  0  0
   -1.0405    0.3859    4.2192 H   0  0  0  0  0  0  0  0  0  0  0  0
   -2.7446    0.7757    1.8631 H   0  0  0  0  0  0  0  0  0  0  0  0
   -1.1764    3.1296    3.0550 H   0  0  0  0  0  0  0  0  0  0  0  0
   -2.0377    3.1351    1.5001 H   0  0  0  0  0  0  0  0  0  0  0  0
   -2.9484    2.9874    3.0151 H   0  0  0  0  0  0  0  0  0  0  0  0
   -0.4944    0.9473    0.3313 N   0  0  0  0  0  0  0  0  0  0  0  0
    0.7336    0.6281   -0.4077 C   0  0  2  0  0  0  0  0  0  0  0  0
    1.8073    1.7032   -0.1499 C   0  0  0  0  0  0  0  0  0  0  0  0
    1.7819    2.7774   -0.7420 O   0  0  0  0  0  0  0  0  0  0  0  0
    0.4182    0.5226   -1.9111 C   0  0  0  0  0  0  0  0  0  0  0  0
   -0.4676   -0.6655   -2.2025 C   0  0  0  0  0  0  0  0  0  0  0  0
    0.0848   -1.9505   -2.3094 C   0  0  0  0  0  0  0  0  0  0  0  0
   -1.8509   -0.5012   -2.3772 C   0  0  0  0  0  0  0  0  0  0  0  0
   -0.7327   -3.0546   -2.5737 C   0  0  0  0  0  0  0  0  0  0  0  0
   -2.6692   -1.6047   -2.6422 C   0  0  0  0  0  0  0  0  0  0  0  0
   -2.1102   -2.8822   -2.7387 C   0  0  0  0  0  0  0  0  0  0  0  0
   -1.2697    1.3783   -0.1639 H   0  0  0  0  0  0  0  0  0  0  0  0
    1.1295   -0.3371   -0.0745 H   0  0  0  0  0  0  0  0  0  0  0  0
    1.3531    0.4156   -2.4716 H   0  0  0  0  0  0  0  0  0  0  0  0
   -0.0598    1.4447   -2.2590 H   0  0  0  0  0  0  0  0  0  0  0  0
    1.1536   -2.0975   -2.1855 H   0  0  0  0  0  0  0  0  0  0  0  0
   -2.2973    0.4863   -2.3125 H   0  0  0  0  0  0  0  0  0  0  0  0
   -0.2971   -4.0464   -2.6517 H   0  0  0  0  0  0  0  0  0  0  0  0
   -3.7386   -1.4695   -2.7759 H   0  0  0  0  0  0  0  0  0  0  0  0
   -2.7448   -3.7393   -2.9446 H   0  0  0  0  0  0  0  0  0  0  0  0
    2.8672    1.4201    0.6892 N   0  0  0  0  0  0  0  0  0  0  0  0
    3.8804    2.4090    1.0883 C   0  0  2  0  0  0  0  0  0  0  0  0
    4.9847    2.6001    0.0199 C   0  0  0  0  0  0  0  0  0  0  0  0
    6.1688    2.4086    0.2706 O   0  0  0  0  0  0  0  0  0  0  0  0
    4.4352    1.9623    2.4464 C   0  0  0  0  0  0  0  0  0  0  0  0
    2.7457    0.6023    1.2846 H   0  0  0  0  0  0  0  0  0  0  0  0
    3.4013    3.3835    1.2299 H   0  0  0  0  0  0  0  0  0  0  0  0
    4.9442    0.9973    2.3554 H   0  0  0  0  0  0  0  0  0  0  0  0
    5.1529    2.6978    2.8234 H   0  0  0  0  0  0  0  0  0  0  0  0
    3.6260    1.8650    3.1768 H   0  0  0  0  0  0  0  0  0  0  0  0
    4.6269    3.0131   -1.2482 N   0  0  0  0  0  0  0  0  0  0  0  0
    5.5695    3.2185   -2.3386 C   0  0  0  0  0  0  0  0  0  0  0  0
    3.6259    3.1479   -1.4121 H   0  0  0  0  0  0  0  0  0  0  0  0
    6.2956    3.9943   -2.0744 H   0  0  0  0  0  0  0  0  0  0  0  0
    6.1076    2.2909   -2.5599 H   0  0  0  0  0  0  0  0  0  0  0  0
    5.0384    3.5340   -3.2416 H   0  0  0  0  0  0  0  0  0  0  0  0
  1  2  2  0  0  0  0
  1  3  1  0  0  0  0
  1  7  1  0  0  0  0
  3  4  1  0  0  0  0
  3  5  1  0  0  0  0
  3  6  1  0  0  0  0
  7  8  1  0  0  0  0
  7 12  1  0  0  0  0
  8  9  1  0  0  0  0
  8 11  1  0  0  0  0
  8 13  1  0  0  0  0
  9 10  2  0  0  0  0
  9 17  1  0  0  0  0
 11 14  1  0  0  0  0
 11 15  1  0  0  0  0
 11 16  1  0  0  0  0
 17 18  1  0  0  0  0
 17 28  1  0  0  0  0
 18 19  1  0  0  0  0
 18 21  1  0  0  0  0
 18 29  1  0  0  0  0
 19 20  2  0  0  0  0
 19 37  1  0  0  0  0
 21 22  1  0  0  0  0
 21 30  1  0  0  0  0
 21 31  1  0  0  0  0
 22 23  1  0  0  0  0
 22 24  2  0  0  0  0
 23 25  2  0  0  0  0
 23 32  1  0  0  0  0
 24 26  1  0  0  0  0
 24 33  1  0  0  0  0
 25 27  1  0  0  0  0
 25 34  1  0  0  0  0
 26 27  2  0  0  0  0
 26 35  1  0  0  0  0
 27 36  1  0  0  0  0
 37 38  1  0  0  0  0
 37 42  1  0  0  0  0
 38 39  1  0  0  0  0
 38 41  1  0  0  0  0
 38 43  1  0  0  0  0
 39 40  2  0  0  0  0
 39 47  1  0  0  0  0
 41 44  1  0  0  0  0
 41 45  1  0  0  0  0
 41 46  1  0  0  0  0
 47 48  1  0  0  0  0
 47 49  1  0  0  0  0
 48 50  1  0  0  0  0
 48 51  1  0  0  0  0
 48 52  1  0  0  0  0
M  END
$$$$

  -OEChem-05262217163D

 52 52  0     1  0  0  0  0  0999 V2000
   -3.0889    0.3293    4.4686 C   0  0  0  0  0  0  0  0  0  0  0  0
   -4.1651    0.6054    3.9631 O   0  0  0  0  0  0  0  0  0  0  0  0
   -3.0351   -0.3908    5.8029 C   0  0  0  0  0  0  0  0  0  0  0  0
   -4.0471   -0.6198    6.1494 H   0  0  0  0  0  0  0  0  0  0  0  0
   -2.4788   -1.3259    5.7004 H   0  0  0  0  0  0  0  0  0  0  0  0
   -2.5417    0.2396    6.5469 H   0  0  0  0  0  0  0  0  0  0  0  0
   -1.9173    0.6633    3.8235 N   0  0  0  0  0  0  0  0  0  0  0  0
   -1.8493    1.2115    2.4629 C   0  0  2  0  0  0  0  0  0  0  0  0
   -0.6088    0.6982    1.7038 C   0  0  0  0  0  0  0  0  0  0  0  0
    0.3022    0.1334    2.3044 O   0  0  0  0  0  0  0  0  0  0  0  0
   -1.8270    2.7398    2.5612 C   0  0  0  0  0  0  0  0  0  0  0  0
   -1.0494    0.3024    4.2172 H   0  0  0  0  0  0  0  0  0  0  0  0
   -2.7305    0.9000    1.8916 H   0  0  0  0  0  0  0  0  0  0  0  0
   -0.9459    3.0751    3.1176 H   0  0  0  0  0  0  0  0  0  0  0  0
   -1.8012    3.1902    1.5643 H   0  0  0  0  0  0  0  0  0  0  0  0
   -2.7230    3.0985    3.0780 H   0  0  0  0  0  0  0  0  0  0  0  0
   -0.4885    0.8915    0.3408 N   0  0  0  0  0  0  0  0  0  0  0  0
    0.7389    0.5647   -0.3970 C   0  0  2  0  0  0  0  0  0  0  0  0
    1.8320    1.6162   -0.1295 C   0  0  0  0  0  0  0  0  0  0  0  0
    1.6770    2.7785   -0.4910 O   0  0  0  0  0  0  0  0  0  0  0  0
    0.4363    0.4895   -1.9029 C   0  0  0  0  0  0  0  0  0  0  0  0
   -0.4653   -0.6792   -2.2209 C   0  0  0  0  0  0  0  0  0  0  0  0
    0.0668   -1.9718   -2.3443 C   0  0  0  0  0  0  0  0  0  0  0  0
   -1.8443   -0.4897   -2.3985 C   0  0  0  0  0  0  0  0  0  0  0  0
   -0.7667   -3.0578   -2.6327 C   0  0  0  0  0  0  0  0  0  0  0  0
   -2.6784   -1.5750   -2.6869 C   0  0  0  0  0  0  0  0  0  0  0  0
   -2.1401   -2.8598   -2.8031 C   0  0  0  0  0  0  0  0  0  0  0  0
   -1.1864    1.4739   -0.1129 H   0  0  0  0  0  0  0  0  0  0  0  0
    1.1146   -0.4121   -0.0746 H   0  0  0  0  0  0  0  0  0  0  0  0
    1.3737    0.3772   -2.4582 H   0  0  0  0  0  0  0  0  0  0  0  0
   -0.0249    1.4251   -2.2370 H   0  0  0  0  0  0  0  0  0  0  0  0
    1.1321   -2.1387   -2.2165 H   0  0  0  0  0  0  0  0  0  0  0  0
   -2.2751    0.5031   -2.3152 H   0  0  0  0  0  0  0  0  0  0  0  0
   -0.3476   -4.0555   -2.7251 H   0  0  0  0  0  0  0  0  0  0  0  0
   -3.7451   -1.4207   -2.8218 H   0  0  0  0  0  0  0  0  0  0  0  0
   -2.7880   -3.7024   -3.0275 H   0  0  0  0  0  0  0  0  0  0  0  0
    3.0351    1.2424    0.4375 N   0  0  0  0  0  0  0  0  0  0  0  0
    4.1027    2.1879    0.7975 C   0  0  2  0  0  0  0  0  0  0  0  0
    4.9682    2.6009   -0.4186 C   0  0  0  0  0  0  0  0  0  0  0  0
    6.1778    2.4082   -0.4464 O   0  0  0  0  0  0  0  0  0  0  0  0
    4.9199    1.5391    1.9219 C   0  0  0  0  0  0  0  0  0  0  0  0
    3.0804    0.3031    0.8248 H   0  0  0  0  0  0  0  0  0  0  0  0
    3.6577    3.1053    1.1973 H   0  0  0  0  0  0  0  0  0  0  0  0
    5.3963    0.6182    1.5705 H   0  0  0  0  0  0  0  0  0  0  0  0
    5.7020    2.2235    2.2655 H   0  0  0  0  0  0  0  0  0  0  0  0
    4.2754    1.2981    2.7730 H   0  0  0  0  0  0  0  0  0  0  0  0
    4.3625    3.2134   -1.4979 N   0  0  0  0  0  0  0  0  0  0  0  0
    5.0681    3.6480   -2.6951 C   0  0  0  0  0  0  0  0  0  0  0  0
    3.3491    3.3396   -1.4343 H   0  0  0  0  0  0  0  0  0  0  0  0
    5.8448    4.3759   -2.4385 H   0  0  0  0  0  0  0  0  0  0  0  0
    5.5358    2.7938   -3.1954 H   0  0  0  0  0  0  0  0  0  0  0  0
    4.3697    4.1193   -3.3932 H   0  0  0  0  0  0  0  0  0  0  0  0
  1  2  2  0  0  0  0
  1  3  1  0  0  0  0
  1  7  1  0  0  0  0
  3  4  1  0  0  0  0
  3  5  1  0  0  0  0
  3  6  1  0  0  0  0
  7  8  1  0  0  0  0
  7 12  1  0  0  0  0
  8  9  1  0  0  0  0
  8 11  1  0  0  0  0
  8 13  1  0  0  0  0
  9 10  2  0  0  0  0
  9 17  1  0  0  0  0
 11 14  1  0  0  0  0
 11 15  1  0  0  0  0
 11 16  1  0  0  0  0
 17 18  1  0  0  0  0
 17 28  1  0  0  0  0
 18 19  1  0  0  0  0
 18 21  1  0  0  0  0
 18 29  1  0  0  0  0
 19 20  2  0  0  0  0
 19 37  1  0  0  0  0
 21 22  1  0  0  0  0
 21 30  1  0  0  0  0
 21 31  1  0  0  0  0
 22 23  1  0  0  0  0
 22 24  2  0  0  0  0
 23 25  2  0  0  0  0
 23 32  1  0  0  0  0
 24 26  1  0  0  0  0
 24 33  1  0  0  0  0
 25 27  1  0  0  0  0
 25 34  1  0  0  0  0
 26 27  2  0  0  0  0
 26 35  1  0  0  0  0
 27 36  1  0  0  0  0
 37 38  1  0  0  0  0
 37 42  1  0  0  0  0
 38 39  1  0  0  0  0
 38 41  1  0  0  0  0
 38 43  1  0  0  0  0
 39 40  2  0  0  0  0
 39 47  1  0  0  0  0
 41 44  1  0  0  0  0
 41 45  1  0  0  0  0
 41 46  1  0  0  0  0
 47 48  1  0  0  0  0
 47 49  1  0  0  0  0
 48 50  1  0  0  0  0
 48 51  1  0  0  0  0
 48 52  1  0  0  0  0
M  END
$$$$

  -OEChem-05262217163D

 52 52  0     1  0  0  0  0  0999 V2000
   -3.1043    0.4394    4.5019 C   0  0  0  0  0  0  0  0  0  0  0  0
   -4.1425    0.8662    4.0219 O   0  0  0  0  0  0  0  0  0  0  0  0
   -3.1271   -0.3100    5.8210 C   0  0  0  0  0  0  0  0  0  0  0  0
   -4.1463   -0.3459    6.2159 H   0  0  0  0  0  0  0  0  0  0  0  0
   -2.7695   -1.3323    5.6762 H   0  0  0  0  0  0  0  0  0  0  0  0
   -2.4854    0.1934    6.5482 H   0  0  0  0  0  0  0  0  0  0  0  0
   -1.9098    0.6311    3.8406 N   0  0  0  0  0  0  0  0  0  0  0  0
   -1.7888    1.2216    2.5011 C   0  0  2  0  0  0  0  0  0  0  0  0
   -0.5960    0.6319    1.7208 C   0  0  0  0  0  0  0  0  0  0  0  0
    0.2711   -0.0153    2.3020 O   0  0  0  0  0  0  0  0  0  0  0  0
   -1.6309    2.7379    2.6550 C   0  0  0  0  0  0  0  0  0  0  0  0
   -1.0847    0.1650    4.2155 H   0  0  0  0  0  0  0  0  0  0  0  0
   -2.6933    1.0094    1.9205 H   0  0  0  0  0  0  0  0  0  0  0  0
   -0.7277    2.9727    3.2275 H   0  0  0  0  0  0  0  0  0  0  0  0
   -1.5568    3.2198    1.6755 H   0  0  0  0  0  0  0  0  0  0  0  0
   -2.4951    3.1577    3.1796 H   0  0  0  0  0  0  0  0  0  0  0  0
   -0.4746    0.8468    0.3609 N   0  0  0  0  0  0  0  0  0  0  0  0
    0.7520    0.5184   -0.3798 C   0  0  2  0  0  0  0  0  0  0  0  0
    1.8637    1.5477   -0.1023 C   0  0  0  0  0  0  0  0  0  0  0  0
    1.6330    2.7476   -0.2167 O   0  0  0  0  0  0  0  0  0  0  0  0
    0.4564    0.4775   -1.8882 C   0  0  0  0  0  0  0  0  0  0  0  0
   -0.4584   -0.6713   -2.2391 C   0  0  0  0  0  0  0  0  0  0  0  0
    0.0584   -1.9673   -2.3881 C   0  0  0  0  0  0  0  0  0  0  0  0
   -1.8335   -0.4609   -2.4241 C   0  0  0  0  0  0  0  0  0  0  0  0
   -0.7853   -3.0359   -2.7097 C   0  0  0  0  0  0  0  0  0  0  0  0
   -2.6783   -1.5289   -2.7454 C   0  0  0  0  0  0  0  0  0  0  0  0
   -2.1545   -2.8172   -2.8871 C   0  0  0  0  0  0  0  0  0  0  0  0
   -1.1115    1.5228   -0.0506 H   0  0  0  0  0  0  0  0  0  0  0  0
    1.1122   -0.4683   -0.0701 H   0  0  0  0  0  0  0  0  0  0  0  0
    1.3948    0.3654   -2.4417 H   0  0  0  0  0  0  0  0  0  0  0  0
    0.0092    1.4262   -2.2039 H   0  0  0  0  0  0  0  0  0  0  0  0
    1.1201   -2.1507   -2.2539 H   0  0  0  0  0  0  0  0  0  0  0  0
   -2.2537    0.5344   -2.3193 H   0  0  0  0  0  0  0  0  0  0  0  0
   -0.3767   -4.0361   -2.8212 H   0  0  0  0  0  0  0  0  0  0  0  0
   -3.7416   -1.3577   -2.8862 H   0  0  0  0  0  0  0  0  0  0  0  0
   -2.8098   -3.6471   -3.1353 H   0  0  0  0  0  0  0  0  0  0  0  0
    3.1571    1.1362    0.1602 N   0  0  0  0  0  0  0  0  0  0  0  0
    4.2754    2.0525    0.4339 C   0  0  2  0  0  0  0  0  0  0  0  0
    4.8659    2.6693   -0.8578 C   0  0  0  0  0  0  0  0  0  0  0  0
    6.0370    2.5031   -1.1771 O   0  0  0  0  0  0  0  0  0  0  0  0
    5.3138    1.2760    1.2536 C   0  0  0  0  0  0  0  0  0  0  0  0
    3.3103    0.1397    0.2880 H   0  0  0  0  0  0  0  0  0  0  0  0
    3.9211    2.8844    1.0519 H   0  0  0  0  0  0  0  0  0  0  0  0
    5.7137    0.4371    0.6752 H   0  0  0  0  0  0  0  0  0  0  0  0
    6.1452    1.9326    1.5297 H   0  0  0  0  0  0  0  0  0  0  0  0
    4.8630    0.8872    2.1717 H   0  0  0  0  0  0  0  0  0  0  0  0
    4.0490    3.4250   -1.6753 N   0  0  0  0  0  0  0  0  0  0  0  0
    4.4841    4.0439   -2.9193 C   0  0  0  0  0  0  0  0  0  0  0  0
    3.0741    3.5166   -1.3785 H   0  0  0  0  0  0  0  0  0  0  0  0
    5.2955    4.7543   -2.7298 H   0  0  0  0  0  0  0  0  0  0  0  0
    4.8378    3.2825   -3.6221 H   0  0  0  0  0  0  0  0  0  0  0  0
    3.6527    4.5834   -3.3824 H   0  0  0  0  0  0  0  0  0  0  0  0
  1  2  2  0  0  0  0
  1  3  1  0  0  0  0
  1  7  1  0  0  0  0
  3  4  1  0  0  0  0
  3  5  1  0  0  0  0
  3  6  1  0  0  0  0
  7  8  1  0  0  0  0
  7 12  1  0  0  0  0
  8  9  1  0  0  0  0
  8 11  1  0  0  0  0
  8 13  1  0  0  0  0
  9 10  2  0  0  0  0
  9 17  1  0  0  0  0
 11 14  1  0  0  0  0
 11 15  1  0  0  0  0
 11 16  1  0  0  0  0
 17 18  1  0  0  0  0
 17 28  1  0  0  0  0
 18 19  1  0  0  0  0
 18 21  1  0  0  0  0
 18 29  1  0  0  0  0
 19 20  2  0  0  0  0
 19 37  1  0  0  0  0
 21 22  1  0  0  0  0
 21 30  1  0  0  0  0
 21 31  1  0  0  0  0
 22 23  1  0  0  0  0
 22 24  2  0  0  0  0
 23 25  2  0  0  0  0
 23 32  1  0  0  0  0
 24 26  1  0  0  0  0
 24 33  1  0  0  0  0
 25 27  1  0  0  0  0
 25 34  1  0  0  0  0
 26 27  2  0  0  0  0
 26 35  1  0  0  0  0
 27 36  1  0  0  0  0
 37 38  1  0  0  0  0
 37 42  1  0  0  0  0
 38 39  1  0  0  0  0
 38 41  1  0  0  0  0
 38 43  1  0  0  0  0
 39 40  2  0  0  0  0
 39 47  1  0  0  0  0
 41 44  1  0  0  0  0
 41 45  1  0  0  0  0
 41 46  1  0  0  0  0
 47 48  1  0  0  0  0
 47 49  1  0  0  0  0
 48 50  1  0  0  0  0
 48 51  1  0  0  0  0
 48 52  1  0  0  0  0
M  END
$$$$

  -OEChem-05262217163D

 52 52  0     1  0  0  0  0  0999 V2000
   -3.0342    0.5324    4.5104 C   0  0  0  0  0  0  0  0  0  0  0  0
   -4.0633    0.9962    4.0452 O   0  0  0  0  0  0  0  0  0  0  0  0
   -3.0692   -0.2449    5.8125 C   0  0  0  0  0  0  0  0  0  0  0  0
   -4.0972   -0.3225    6.1779 H   0  0  0  0  0  0  0  0  0  0  0  0
   -2.6740   -1.2518    5.6569 H   0  0  0  0  0  0  0  0  0  0  0  0
   -2.4639    0.2641    6.5664 H   0  0  0  0  0  0  0  0  0  0  0  0
   -1.8376    0.7010    3.8471 N   0  0  0  0  0  0  0  0  0  0  0  0
   -1.7109    1.2787    2.5028 C   0  0  2  0  0  0  0  0  0  0  0  0
   -0.5924    0.5925    1.6928 C   0  0  0  0  0  0  0  0  0  0  0  0
    0.2283   -0.1286    2.2543 O   0  0  0  0  0  0  0  0  0  0  0  0
   -1.4248    2.7764    2.6476 C   0  0  0  0  0  0  0  0  0  0  0  0
   -1.0320    0.1869    4.2016 H   0  0  0  0  0  0  0  0  0  0  0  0
   -2.6451    1.1411    1.9476 H   0  0  0  0  0  0  0  0  0  0  0  0
   -0.4824    2.9362    3.1817 H   0  0  0  0  0  0  0  0  0  0  0  0
   -1.3514    3.2526    1.6651 H   0  0  0  0  0  0  0  0  0  0  0  0
   -2.2303    3.2630    3.2069 H   0  0  0  0  0  0  0  0  0  0  0  0
   -0.4769    0.8149    0.3333 N   0  0  0  0  0  0  0  0  0  0  0  0
    0.7462    0.4652   -0.4053 C   0  0  2  0  0  0  0  0  0  0  0  0
    1.8779    1.4723   -0.1224 C   0  0  0  0  0  0  0  0  0  0  0  0
    1.6223    2.6656    0.0132 O   0  0  0  0  0  0  0  0  0  0  0  0
    0.4489    0.4395   -1.9139 C   0  0  0  0  0  0  0  0  0  0  0  0
   -0.4898   -0.6892   -2.2677 C   0  0  0  0  0  0  0  0  0  0  0  0
   -0.0005   -1.9951   -2.4237 C   0  0  0  0  0  0  0  0  0  0  0  0
   -1.8621   -0.4509   -2.4391 C   0  0  0  0  0  0  0  0  0  0  0  0
   -0.8686   -3.0461   -2.7386 C   0  0  0  0  0  0  0  0  0  0  0  0
   -2.7313   -1.5008   -2.7542 C   0  0  0  0  0  0  0  0  0  0  0  0
   -2.2349   -2.7992   -2.9027 C   0  0  0  0  0  0  0  0  0  0  0  0
   -1.0522    1.5630   -0.0427 H   0  0  0  0  0  0  0  0  0  0  0  0
    1.0890   -0.5285   -0.0984 H   0  0  0  0  0  0  0  0  0  0  0  0
    1.3833    0.3114   -2.4706 H   0  0  0  0  0  0  0  0  0  0  0  0
    0.0199    1.3988   -2.2227 H   0  0  0  0  0  0  0  0  0  0  0  0
    1.0580   -2.2010   -2.2983 H   0  0  0  0  0  0  0  0  0  0  0  0
   -2.2609    0.5523   -2.3267 H   0  0  0  0  0  0  0  0  0  0  0  0
   -0.4820   -4.0545   -2.8543 H   0  0  0  0  0  0  0  0  0  0  0  0
   -3.7924   -1.3078   -2.8835 H   0  0  0  0  0  0  0  0  0  0  0  0
   -2.9098   -3.6150   -3.1456 H   0  0  0  0  0  0  0  0  0  0  0  0
    3.2014    1.0737   -0.1630 N   0  0  0  0  0  0  0  0  0  0  0  0
    4.3424    1.9756    0.0589 C   0  0  2  0  0  0  0  0  0  0  0  0
    4.6815    2.8165   -1.1960 C   0  0  0  0  0  0  0  0  0  0  0  0
    5.7663    2.7294   -1.7583 O   0  0  0  0  0  0  0  0  0  0  0  0
    5.5199    1.1174    0.5379 C   0  0  0  0  0  0  0  0  0  0  0  0
    3.3882    0.0827   -0.2878 H   0  0  0  0  0  0  0  0  0  0  0  0
    4.0985    2.6804    0.8614 H   0  0  0  0  0  0  0  0  0  0  0  0
    5.8135    0.3986   -0.2339 H   0  0  0  0  0  0  0  0  0  0  0  0
    6.3827    1.7522    0.7642 H   0  0  0  0  0  0  0  0  0  0  0  0
    5.2486    0.5684    1.4448 H   0  0  0  0  0  0  0  0  0  0  0  0
    3.7296    3.6782   -1.7035 N   0  0  0  0  0  0  0  0  0  0  0  0
    3.9178    4.4943   -2.8949 C   0  0  0  0  0  0  0  0  0  0  0  0
    2.8269    3.6866   -1.2216 H   0  0  0  0  0  0  0  0  0  0  0  0
    4.7479    5.1940   -2.7527 H   0  0  0  0  0  0  0  0  0  0  0  0
    4.1339    3.8620   -3.7625 H   0  0  0  0  0  0  0  0  0  0  0  0
    3.0116    5.0710   -3.1034 H   0  0  0  0  0  0  0  0  0  0  0  0
  1  2  2  0  0  0  0
  1  3  1  0  0  0  0
  1  7  1  0  0  0  0
  3  4  1  0  0  0  0
  3  5  1  0  0  0  0
  3  6  1  0  0  0  0
  7  8  1  0  0  0  0
  7 12  1  0  0  0  0
  8  9  1  0  0  0  0
  8 11  1  0  0  0  0
  8 13  1  0  0  0  0
  9 10  2  0  0  0  0
  9 17  1  0  0  0  0
 11 14  1  0  0  0  0
 11 15  1  0  0  0  0
 11 16  1  0  0  0  0
 17 18  1  0  0  0  0
 17 28  1  0  0  0  0
 18 19  1  0  0  0  0
 18 21  1  0  0  0  0
 18 29  1  0  0  0  0
 19 20  2  0  0  0  0
 19 37  1  0  0  0  0
 21 22  1  0  0  0  0
 21 30  1  0  0  0  0
 21 31  1  0  0  0  0
 22 23  1  0  0  0  0
 22 24  2  0  0  0  0
 23 25  2  0  0  0  0
 23 32  1  0  0  0  0
 24 26  1  0  0  0  0
 24 33  1  0  0  0  0
 25 27  1  0  0  0  0
 25 34  1  0  0  0  0
 26 27  2  0  0  0  0
 26 35  1  0  0  0  0
 27 36  1  0  0  0  0
 37 38  1  0  0  0  0
 37 42  1  0  0  0  0
 38 39  1  0  0  0  0
 38 41  1  0  0  0  0
 38 43  1  0  0  0  0
 39 40  2  0  0  0  0
 39 47  1  0  0  0  0
 41 44  1  0  0  0  0
 41 45  1  0  0  0  0
 41 46  1  0  0  0  0
 47 48  1  0  0  0  0
 47 49  1  0  0  0  0
 48 50  1  0  0  0  0
 48 51  1  0  0  0  0
 48 52  1  0  0  0  0
M  END
$$$$

  -OEChem-05262217163D

 52 52  0     1  0  0  0  0  0999 V2000
   -3.0302    0.5970    4.5116 C   0  0  0  0  0  0  0  0  0  0  0  0
   -4.0079    1.1717    4.0592 O   0  0  0  0  0  0  0  0  0  0  0  0
   -3.1391   -0.1865    5.8064 C   0  0  0  0  0  0  0  0  0  0  0  0
   -4.1397   -0.0728    6.2329 H   0  0  0  0  0  0  0  0  0  0  0  0
   -2.9551   -1.2468    5.6170 H   0  0  0  0  0  0  0  0  0  0  0  0
   -2.4057    0.1811    6.5284 H   0  0  0  0  0  0  0  0  0  0  0  0
   -1.8266    0.6516    3.8417 N   0  0  0  0  0  0  0  0  0  0  0  0
   -1.6368    1.2758    2.5261 C   0  0  2  0  0  0  0  0  0  0  0  0
   -0.5391    0.5654    1.7090 C   0  0  0  0  0  0  0  0  0  0  0  0
    0.2509   -0.1973    2.2588 O   0  0  0  0  0  0  0  0  0  0  0  0
   -1.2726    2.7486    2.7372 C   0  0  0  0  0  0  0  0  0  0  0  0
   -1.0668    0.0675    4.1886 H   0  0  0  0  0  0  0  0  0  0  0  0
   -2.5655    1.2116    1.9490 H   0  0  0  0  0  0  0  0  0  0  0  0
   -0.3412    2.8345    3.3062 H   0  0  0  0  0  0  0  0  0  0  0  0
   -1.1395    3.2549    1.7763 H   0  0  0  0  0  0  0  0  0  0  0  0
   -2.0676    3.2600    3.2892 H   0  0  0  0  0  0  0  0  0  0  0  0
   -0.4251    0.7958    0.3509 N   0  0  0  0  0  0  0  0  0  0  0  0
    0.7901    0.4331   -0.3953 C   0  0  2  0  0  0  0  0  0  0  0  0
    1.9472    1.4163   -0.1179 C   0  0  0  0  0  0  0  0  0  0  0  0
    1.7131    2.5663    0.2444 O   0  0  0  0  0  0  0  0  0  0  0  0
    0.4712    0.4329   -1.9002 C   0  0  0  0  0  0  0  0  0  0  0  0
   -0.4927   -0.6731   -2.2577 C   0  0  0  0  0  0  0  0  0  0  0  0
   -0.0343   -1.9869   -2.4396 C   0  0  0  0  0  0  0  0  0  0  0  0
   -1.8608   -0.4020   -2.4137 C   0  0  0  0  0  0  0  0  0  0  0  0
   -0.9284   -3.0116   -2.7698 C   0  0  0  0  0  0  0  0  0  0  0  0
   -2.7555   -1.4255   -2.7437 C   0  0  0  0  0  0  0  0  0  0  0  0
   -2.2894   -2.7311   -2.9223 C   0  0  0  0  0  0  0  0  0  0  0  0
   -0.9821    1.5638   -0.0111 H   0  0  0  0  0  0  0  0  0  0  0  0
    1.1194   -0.5695   -0.1012 H   0  0  0  0  0  0  0  0  0  0  0  0
    1.3927    0.2937   -2.4746 H   0  0  0  0  0  0  0  0  0  0  0  0
    0.0570    1.4044   -2.1902 H   0  0  0  0  0  0  0  0  0  0  0  0
    1.0197   -2.2199   -2.3238 H   0  0  0  0  0  0  0  0  0  0  0  0
   -2.2368    0.6071   -2.2780 H   0  0  0  0  0  0  0  0  0  0  0  0
   -0.5660   -4.0263   -2.9070 H   0  0  0  0  0  0  0  0  0  0  0  0
   -3.8127   -1.2057   -2.8609 H   0  0  0  0  0  0  0  0  0  0  0  0
   -2.9837   -3.5259   -3.1790 H   0  0  0  0  0  0  0  0  0  0  0  0
    3.2447    1.0862   -0.4665 N   0  0  0  0  0  0  0  0  0  0  0  0
    4.3883    2.0068   -0.3684 C   0  0  2  0  0  0  0  0  0  0  0  0
    4.4342    3.0093   -1.5477 C   0  0  0  0  0  0  0  0  0  0  0  0
    5.3540    3.0135   -2.3568 O   0  0  0  0  0  0  0  0  0  0  0  0
    5.6585    1.1534   -0.2586 C   0  0  0  0  0  0  0  0  0  0  0  0
    3.4075    0.1554   -0.8393 H   0  0  0  0  0  0  0  0  0  0  0  0
    4.3052    2.5960    0.5514 H   0  0  0  0  0  0  0  0  0  0  0  0
    5.7970    0.5472   -1.1595 H   0  0  0  0  0  0  0  0  0  0  0  0
    6.5365    1.7956   -0.1364 H   0  0  0  0  0  0  0  0  0  0  0  0
    5.5968    0.4872    0.6071 H   0  0  0  0  0  0  0  0  0  0  0  0
    3.3940    3.9030   -1.7085 N   0  0  0  0  0  0  0  0  0  0  0  0
    3.2958    4.8544   -2.8066 C   0  0  0  0  0  0  0  0  0  0  0  0
    2.6252    3.8238   -1.0379 H   0  0  0  0  0  0  0  0  0  0  0  0
    4.1404    5.5508   -2.7861 H   0  0  0  0  0  0  0  0  0  0  0  0
    3.2929    4.3312   -3.7684 H   0  0  0  0  0  0  0  0  0  0  0  0
    2.3698    5.4312   -2.7236 H   0  0  0  0  0  0  0  0  0  0  0  0
  1  2  2  0  0  0  0
  1  3  1  0  0  0  0
  1  7  1  0  0  0  0
  3  4  1  0  0  0  0
  3  5  1  0  0  0  0
  3  6  1  0  0  0  0
  7  8  1  0  0  0  0
  7 12  1  0  0  0  0
  8  9  1  0  0  0  0
  8 11  1  0  0  0  0
  8 13  1  0  0  0  0
  9 10  2  0  0  0  0
  9 17  1  0  0  0  0
 11 14  1  0  0  0  0
 11 15  1  0  0  0  0
 11 16  1  0  0  0  0
 17 18  1  0  0  0  0
 17 28  1  0  0  0  0
 18 19  1  0  0  0  0
 18 21  1  0  0  0  0
 18 29  1  0  0  0  0
 19 20  2  0  0  0  0
 19 37  1  0  0  0  0
 21 22  1  0  0  0  0
 21 30  1  0  0  0  0
 21 31  1  0  0  0  0
 22 23  1  0  0  0  0
 22 24  2  0  0  0  0
 23 25  2  0  0  0  0
 23 32  1  0  0  0  0
 24 26  1  0  0  0  0
 24 33  1  0  0  0  0
 25 27  1  0  0  0  0
 25 34  1  0  0  0  0
 26 27  2  0  0  0  0
 26 35  1  0  0  0  0
 27 36  1  0  0  0  0
 37 38  1  0  0  0  0
 37 42  1  0  0  0  0
 38 39  1  0  0  0  0
 38 41  1  0  0  0  0
 38 43  1  0  0  0  0
 39 40  2  0  0  0  0
 39 47  1  0  0  0  0
 41 44  1  0  0  0  0
 41 45  1  0  0  0  0
 41 46  1  0  0  0  0
 47 48  1  0  0  0  0
 47 49  1  0  0  0  0
 48 50  1  0  0  0  0
 48 51  1  0  0  0  0
 48 52  1  0  0  0  0
M  END
$$$$

  -OEChem-05262217163D

 52 52  0     1  0  0  0  0  0999 V2000
   -2.9487    0.6075    4.5360 C   0  0  0  0  0  0  0  0  0  0  0  0
   -3.9227    1.2118    4.1149 O   0  0  0  0  0  0  0  0  0  0  0  0
   -3.0432   -0.1890    5.8236 C   0  0  0  0  0  0  0  0  0  0  0  0
   -4.0470   -0.1011    6.2485 H   0  0  0  0  0  0  0  0  0  0  0  0
   -2.8349   -1.2434    5.6262 H   0  0  0  0  0  0  0  0  0  0  0  0
   -2.3193    0.1889    6.5496 H   0  0  0  0  0  0  0  0  0  0  0  0
   -1.7612    0.6377    3.8373 N   0  0  0  0  0  0  0  0  0  0  0  0
   -1.5948    1.2469    2.5119 C   0  0  2  0  0  0  0  0  0  0  0  0
   -0.5689    0.4782    1.6549 C   0  0  0  0  0  0  0  0  0  0  0  0
    0.1495   -0.3799    2.1613 O   0  0  0  0  0  0  0  0  0  0  0  0
   -1.1476    2.6994    2.7021 C   0  0  0  0  0  0  0  0  0  0  0  0
   -1.0153    0.0195    4.1544 H   0  0  0  0  0  0  0  0  0  0  0  0
   -2.5480    1.2287    1.9726 H   0  0  0  0  0  0  0  0  0  0  0  0
   -0.1870    2.7378    3.2261 H   0  0  0  0  0  0  0  0  0  0  0  0
   -1.0341    3.1981    1.7351 H   0  0  0  0  0  0  0  0  0  0  0  0
   -1.8885    3.2507    3.2897 H   0  0  0  0  0  0  0  0  0  0  0  0
   -0.4643    0.7264    0.2976 N   0  0  0  0  0  0  0  0  0  0  0  0
    0.7572    0.3780   -0.4486 C   0  0  2  0  0  0  0  0  0  0  0  0
    2.0210    1.1045    0.0781 C   0  0  0  0  0  0  0  0  0  0  0  0
    1.9262    2.0586    0.8458 O   0  0  0  0  0  0  0  0  0  0  0  0
    0.5339    0.7225   -1.9342 C   0  0  0  0  0  0  0  0  0  0  0  0
   -0.5195   -0.1680   -2.5496 C   0  0  0  0  0  0  0  0  0  0  0  0
   -0.1917   -1.4621   -2.9824 C   0  0  0  0  0  0  0  0  0  0  0  0
   -1.8388    0.2867   -2.7006 C   0  0  0  0  0  0  0  0  0  0  0  0
   -1.1680   -2.2904   -3.5466 C   0  0  0  0  0  0  0  0  0  0  0  0
   -2.8155   -0.5402   -3.2655 C   0  0  0  0  0  0  0  0  0  0  0  0
   -2.4806   -1.8301   -3.6873 C   0  0  0  0  0  0  0  0  0  0  0  0
   -1.0012    1.5195   -0.0380 H   0  0  0  0  0  0  0  0  0  0  0  0
    0.9365   -0.6982   -0.3526 H   0  0  0  0  0  0  0  0  0  0  0  0
    1.4643    0.5927   -2.4958 H   0  0  0  0  0  0  0  0  0  0  0  0
    0.2464    1.7751   -2.0310 H   0  0  0  0  0  0  0  0  0  0  0  0
    0.8228   -1.8343   -2.8792 H   0  0  0  0  0  0  0  0  0  0  0  0
   -2.1139    1.2861   -2.3789 H   0  0  0  0  0  0  0  0  0  0  0  0
   -0.9075   -3.2924   -3.8750 H   0  0  0  0  0  0  0  0  0  0  0  0
   -3.8345   -0.1806   -3.3762 H   0  0  0  0  0  0  0  0  0  0  0  0
   -3.2390   -2.4735   -4.1242 H   0  0  0  0  0  0  0  0  0  0  0  0
    3.2520    0.8814   -0.5149 N   0  0  0  0  0  0  0  0  0  0  0  0
    4.4823    1.6156   -0.1786 C   0  0  2  0  0  0  0  0  0  0  0  0
    4.5479    3.0060   -0.8573 C   0  0  0  0  0  0  0  0  0  0  0  0
    5.4180    3.2858   -1.6730 O   0  0  0  0  0  0  0  0  0  0  0  0
    5.6665    0.7144   -0.5507 C   0  0  0  0  0  0  0  0  0  0  0  0
    3.3087    0.1470   -1.2142 H   0  0  0  0  0  0  0  0  0  0  0  0
    4.5217    1.7853    0.9031 H   0  0  0  0  0  0  0  0  0  0  0  0
    5.6794    0.5187   -1.6277 H   0  0  0  0  0  0  0  0  0  0  0  0
    6.6100    1.1971   -0.2765 H   0  0  0  0  0  0  0  0  0  0  0  0
    5.6014   -0.2407   -0.0204 H   0  0  0  0  0  0  0  0  0  0  0  0
    3.5939    3.9531   -0.5430 N   0  0  0  0  0  0  0  0  0  0  0  0
    3.5456    5.2898   -1.1189 C   0  0  0  0  0  0  0  0  0  0  0  0
    2.8619    3.6549    0.1074 H   0  0  0  0  0  0  0  0  0  0  0  0
    4.4581    5.8438   -0.8751 H   0  0  0  0  0  0  0  0  0  0  0  0
    3.4453    5.2355   -2.2078 H   0  0  0  0  0  0  0  0  0  0  0  0
    2.6892    5.8413   -0.7193 H   0  0  0  0  0  0  0  0  0  0  0  0
  1  2  2  0  0  0  0
  1  3  1  0  0  0  0
  1  7  1  0  0  0  0
  3  4  1  0  0  0  0
  3  5  1  0  0  0  0
  3  6  1  0  0  0  0
  7  8  1  0  0  0  0
  7 12  1  0  0  0  0
  8  9  1  0  0  0  0
  8 11  1  0  0  0  0
  8 13  1  0  0  0  0
  9 10  2  0  0  0  0
  9 17  1  0  0  0  0
 11 14  1  0  0  0  0
 11 15  1  0  0  0  0
 11 16  1  0  0  0  0
 17 18  1  0  0  0  0
 17 28  1  0  0  0  0
 18 19  1  0  0  0  0
 18 21  1  0  0  0  0
 18 29  1  0  0  0  0
 19 20  2  0  0  0  0
 19 37  1  0  0  0  0
 21 22  1  0  0  0  0
 21 30  1  0  0  0  0
 21 31  1  0  0  0  0
 22 23  1  0  0  0  0
 22 24  2  0  0  0  0
 23 25  2  0  0  0  0
 23 32  1  0  0  0  0
 24 26  1  0  0  0  0
 24 33  1  0  0  0  0
 25 27  1  0  0  0  0
 25 34  1  0  0  0  0
 26 27  2  0  0  0  0
 26 35  1  0  0  0  0
 27 36  1  0  0  0  0
 37 38  1  0  0  0  0
 37 42  1  0  0  0  0
 38 39  1  0  0  0  0
 38 41  1  0  0  0  0
 38 43  1  0  0  0  0
 39 40  2  0  0  0  0
 39 47  1  0  0  0  0
 41 44  1  0  0  0  0
 41 45  1  0  0  0  0
 41 46  1  0  0  0  0
 47 48  1  0  0  0  0
 47 49  1  0  0  0  0
 48 50  1  0  0  0  0
 48 51  1  0  0  0  0
 48 52  1  0  0  0  0
M  END
$$$$

  -OEChem-05262217163D

 52 52  0     1  0  0  0  0  0999 V2000
   -2.8665    0.6689    4.5229 C   0  0  0  0  0  0  0  0  0  0  0  0
   -3.8188    1.3167    4.1168 O   0  0  0  0  0  0  0  0  0  0  0  0
   -2.9862   -0.1453    5.7974 C   0  0  0  0  0  0  0  0  0  0  0  0
   -3.9756   -0.0067    6.2424 H   0  0  0  0  0  0  0  0  0  0  0  0
   -2.8438   -1.2062    5.5772 H   0  0  0  0  0  0  0  0  0  0  0  0
   -2.2288    0.1749    6.5171 H   0  0  0  0  0  0  0  0  0  0  0  0
   -1.6819    0.6655    3.8185 N   0  0  0  0  0  0  0  0  0  0  0  0
   -1.4997    1.2835    2.4996 C   0  0  2  0  0  0  0  0  0  0  0  0
   -0.5202    0.4783    1.6220 C   0  0  0  0  0  0  0  0  0  0  0  0
    0.1641   -0.4170    2.1104 O   0  0  0  0  0  0  0  0  0  0  0  0
   -0.9804    2.7102    2.7030 C   0  0  0  0  0  0  0  0  0  0  0  0
   -0.9589    0.0133    4.1204 H   0  0  0  0  0  0  0  0  0  0  0  0
   -2.4579    1.3188    1.9703 H   0  0  0  0  0  0  0  0  0  0  0  0
   -0.0098    2.6946    3.2102 H   0  0  0  0  0  0  0  0  0  0  0  0
   -0.8599    3.2176    1.7411 H   0  0  0  0  0  0  0  0  0  0  0  0
   -1.6839    3.2870    3.3119 H   0  0  0  0  0  0  0  0  0  0  0  0
   -0.4357    0.7249    0.2626 N   0  0  0  0  0  0  0  0  0  0  0  0
    0.7689    0.3704   -0.5105 C   0  0  2  0  0  0  0  0  0  0  0  0
    2.0594    1.0858   -0.0201 C   0  0  0  0  0  0  0  0  0  0  0  0
    2.0330    1.8684    0.9255 O   0  0  0  0  0  0  0  0  0  0  0  0
    0.4845    0.6994   -1.9916 C   0  0  0  0  0  0  0  0  0  0  0  0
   -0.5863   -0.2038   -2.5560 C   0  0  0  0  0  0  0  0  0  0  0  0
   -0.2666   -1.5000   -2.9885 C   0  0  0  0  0  0  0  0  0  0  0  0
   -1.9135    0.2409   -2.6595 C   0  0  0  0  0  0  0  0  0  0  0  0
   -1.2581   -2.3398   -3.5071 C   0  0  0  0  0  0  0  0  0  0  0  0
   -2.9056   -0.5982   -3.1774 C   0  0  0  0  0  0  0  0  0  0  0  0
   -2.5782   -1.8895   -3.6008 C   0  0  0  0  0  0  0  0  0  0  0  0
   -0.9722    1.5228   -0.0613 H   0  0  0  0  0  0  0  0  0  0  0  0
    0.9478   -0.7059   -0.4140 H   0  0  0  0  0  0  0  0  0  0  0  0
    1.3877    0.5660   -2.5939 H   0  0  0  0  0  0  0  0  0  0  0  0
    0.1883    1.7494   -2.0877 H   0  0  0  0  0  0  0  0  0  0  0  0
    0.7535   -1.8652   -2.9192 H   0  0  0  0  0  0  0  0  0  0  0  0
   -2.1828    1.2416   -2.3371 H   0  0  0  0  0  0  0  0  0  0  0  0
   -1.0031   -3.3430   -3.8360 H   0  0  0  0  0  0  0  0  0  0  0  0
   -3.9311   -0.2473   -3.2499 H   0  0  0  0  0  0  0  0  0  0  0  0
   -3.3487   -2.5418   -4.0019 H   0  0  0  0  0  0  0  0  0  0  0  0
    3.1982    1.1043   -0.8092 N   0  0  0  0  0  0  0  0  0  0  0  0
    4.4098    1.8848   -0.5094 C   0  0  2  0  0  0  0  0  0  0  0  0
    4.2667    3.3755   -0.9040 C   0  0  0  0  0  0  0  0  0  0  0  0
    4.9660    3.8837   -1.7721 O   0  0  0  0  0  0  0  0  0  0  0  0
    5.5858    1.1938   -1.2113 C   0  0  0  0  0  0  0  0  0  0  0  0
    3.1907    0.5410   -1.6540 H   0  0  0  0  0  0  0  0  0  0  0  0
    4.6052    1.8553    0.5681 H   0  0  0  0  0  0  0  0  0  0  0  0
    5.4468    1.2018   -2.2972 H   0  0  0  0  0  0  0  0  0  0  0  0
    6.5217    1.7125   -0.9794 H   0  0  0  0  0  0  0  0  0  0  0  0
    5.6753    0.1561   -0.8758 H   0  0  0  0  0  0  0  0  0  0  0  0
    3.3160    4.1498   -0.2698 N   0  0  0  0  0  0  0  0  0  0  0  0
    3.0758    5.5558   -0.5629 C   0  0  0  0  0  0  0  0  0  0  0  0
    2.7230    3.6648    0.4092 H   0  0  0  0  0  0  0  0  0  0  0  0
    3.9800    6.1450   -0.3778 H   0  0  0  0  0  0  0  0  0  0  0  0
    2.7791    5.6837   -1.6090 H   0  0  0  0  0  0  0  0  0  0  0  0
    2.2752    5.9428    0.0747 H   0  0  0  0  0  0  0  0  0  0  0  0
  1  2  2  0  0  0  0
  1  3  1  0  0  0  0
  1  7  1  0  0  0  0
  3  4  1  0  0  0  0
  3  5  1  0  0  0  0
  3  6  1  0  0  0  0
  7  8  1  0  0  0  0
  7 12  1  0  0  0  0
  8  9  1  0  0  0  0
  8 11  1  0  0  0  0
  8 13  1  0  0  0  0
  9 10  2  0  0  0  0
  9 17  1  0  0  0  0
 11 14  1  0  0  0  0
 11 15  1  0  0  0  0
 11 16  1  0  0  0  0
 17 18  1  0  0  0  0
 17 28  1  0  0  0  0
 18 19  1  0  0  0  0
 18 21  1  0  0  0  0
 18 29  1  0  0  0  0
 19 20  2  0  0  0  0
 19 37  1  0  0  0  0
 21 22  1  0  0  0  0
 21 30  1  0  0  0  0
 21 31  1  0  0  0  0
 22 23  1  0  0  0  0
 22 24  2  0  0  0  0
 23 25  2  0  0  0  0
 23 32  1  0  0  0  0
 24 26  1  0  0  0  0
 24 33  1  0  0  0  0
 25 27  1  0  0  0  0
 25 34  1  0  0  0  0
 26 27  2  0  0  0  0
 26 35  1  0  0  0  0
 27 36  1  0  0  0  0
 37 38  1  0  0  0  0
 37 42  1  0  0  0  0
 38 39  1  0  0  0  0
 38 41  1  0  0  0  0
 38 43  1  0  0  0  0
 39 40  2  0  0  0  0
 39 47  1  0  0  0  0
 41 44  1  0  0  0  0
 41 45  1  0  0  0  0
 41 46  1  0  0  0  0
 47 48  1  0  0  0  0
 47 49  1  0  0  0  0
 48 50  1  0  0  0  0
 48 51  1  0  0  0  0
 48 52  1  0  0  0  0
M  END
$$$$

  -OEChem-05262217163D

 52 52  0     1  0  0  0  0  0999 V2000
   -2.7624    0.7843    4.5035 C   0  0  0  0  0  0  0  0  0  0  0  0
   -3.6706    1.5094    4.1283 O   0  0  0  0  0  0  0  0  0  0  0  0
   -2.9299   -0.0631    5.7506 C   0  0  0  0  0  0  0  0  0  0  0  0
   -3.9008    0.1345    6.2134 H   0  0  0  0  0  0  0  0  0  0  0  0
   -2.8722   -1.1231    5.4909 H   0  0  0  0  0  0  0  0  0  0  0  0
   -2.1426    0.1721    6.4707 H   0  0  0  0  0  0  0  0  0  0  0  0
   -1.5876    0.7224    3.7854 N   0  0  0  0  0  0  0  0  0  0  0  0
   -1.3812    1.3593    2.4789 C   0  0  2  0  0  0  0  0  0  0  0  0
   -0.4783    0.5050    1.5664 C   0  0  0  0  0  0  0  0  0  0  0  0
    0.1629   -0.4341    2.0291 O   0  0  0  0  0  0  0  0  0  0  0  0
   -0.7532    2.7372    2.7090 C   0  0  0  0  0  0  0  0  0  0  0  0
   -0.9078    0.0132    4.0585 H   0  0  0  0  0  0  0  0  0  0  0  0
   -2.3420    1.4799    1.9673 H   0  0  0  0  0  0  0  0  0  0  0  0
    0.2180    2.6358    3.2050 H   0  0  0  0  0  0  0  0  0  0  0  0
   -0.6041    3.2571    1.7581 H   0  0  0  0  0  0  0  0  0  0  0  0
   -1.4057    3.3502    3.3391 H   0  0  0  0  0  0  0  0  0  0  0  0
   -0.4313    0.7442    0.2036 N   0  0  0  0  0  0  0  0  0  0  0  0
    0.7533    0.3925   -0.6036 C   0  0  2  0  0  0  0  0  0  0  0  0
    2.0606    1.1158   -0.1617 C   0  0  0  0  0  0  0  0  0  0  0  0
    2.1536    1.6677    0.9296 O   0  0  0  0  0  0  0  0  0  0  0  0
    0.4061    0.6618   -2.0846 C   0  0  0  0  0  0  0  0  0  0  0  0
   -0.6609   -0.2869   -2.5772 C   0  0  0  0  0  0  0  0  0  0  0  0
   -0.3210   -1.5889   -2.9762 C   0  0  0  0  0  0  0  0  0  0  0  0
   -2.0029    0.1184   -2.6471 C   0  0  0  0  0  0  0  0  0  0  0  0
   -1.3056   -2.4718   -3.4319 C   0  0  0  0  0  0  0  0  0  0  0  0
   -2.9885   -0.7641   -3.1016 C   0  0  0  0  0  0  0  0  0  0  0  0
   -2.6401   -2.0599   -3.4940 C   0  0  0  0  0  0  0  0  0  0  0  0
   -0.9637    1.5528   -0.0998 H   0  0  0  0  0  0  0  0  0  0  0  0
    0.9489   -0.6792   -0.4862 H   0  0  0  0  0  0  0  0  0  0  0  0
    1.2869    0.5201   -2.7168 H   0  0  0  0  0  0  0  0  0  0  0  0
    0.0819    1.7005   -2.2092 H   0  0  0  0  0  0  0  0  0  0  0  0
    0.7106   -1.9243   -2.9304 H   0  0  0  0  0  0  0  0  0  0  0  0
   -2.2890    1.1213   -2.3467 H   0  0  0  0  0  0  0  0  0  0  0  0
   -1.0341   -3.4785   -3.7359 H   0  0  0  0  0  0  0  0  0  0  0  0
   -4.0251   -0.4430   -3.1490 H   0  0  0  0  0  0  0  0  0  0  0  0
   -3.4054   -2.7462   -3.8455 H   0  0  0  0  0  0  0  0  0  0  0  0
    3.0584    1.4081   -1.0785 N   0  0  0  0  0  0  0  0  0  0  0  0
    4.2455    2.2298   -0.7912 C   0  0  2  0  0  0  0  0  0  0  0  0
    3.9342    3.7469   -0.8122 C   0  0  0  0  0  0  0  0  0  0  0  0
    4.4203    4.4949   -1.6518 O   0  0  0  0  0  0  0  0  0  0  0  0
    5.3320    1.8310   -1.7981 C   0  0  0  0  0  0  0  0  0  0  0  0
    2.9373    1.0644   -2.0259 H   0  0  0  0  0  0  0  0  0  0  0  0
    4.6193    1.9929    0.2109 H   0  0  0  0  0  0  0  0  0  0  0  0
    5.0088    2.0466   -2.8215 H   0  0  0  0  0  0  0  0  0  0  0  0
    6.2526    2.3899   -1.6020 H   0  0  0  0  0  0  0  0  0  0  0  0
    5.5542    0.7627   -1.7175 H   0  0  0  0  0  0  0  0  0  0  0  0
    3.0705    4.2666    0.1310 N   0  0  0  0  0  0  0  0  0  0  0  0
    2.6864    5.6688    0.2090 C   0  0  0  0  0  0  0  0  0  0  0  0
    2.6436    3.5884    0.7681 H   0  0  0  0  0  0  0  0  0  0  0  0
    3.5608    6.2928    0.4207 H   0  0  0  0  0  0  0  0  0  0  0  0
    2.2377    5.9970   -0.7342 H   0  0  0  0  0  0  0  0  0  0  0  0
    1.9549    5.8146    1.0095 H   0  0  0  0  0  0  0  0  0  0  0  0
  1  2  2  0  0  0  0
  1  3  1  0  0  0  0
  1  7  1  0  0  0  0
  3  4  1  0  0  0  0
  3  5  1  0  0  0  0
  3  6  1  0  0  0  0
  7  8  1  0  0  0  0
  7 12  1  0  0  0  0
  8  9  1  0  0  0  0
  8 11  1  0  0  0  0
  8 13  1  0  0  0  0
  9 10  2  0  0  0  0
  9 17  1  0  0  0  0
 11 14  1  0  0  0  0
 11 15  1  0  0  0  0
 11 16  1  0  0  0  0
 17 18  1  0  0  0  0
 17 28  1  0  0  0  0
 18 19  1  0  0  0  0
 18 21  1  0  0  0  0
 18 29  1  0  0  0  0
 19 20  2  0  0  0  0
 19 37  1  0  0  0  0
 21 22  1  0  0  0  0
 21 30  1  0  0  0  0
 21 31  1  0  0  0  0
 22 23  1  0  0  0  0
 22 24  2  0  0  0  0
 23 25  2  0  0  0  0
 23 32  1  0  0  0  0
 24 26  1  0  0  0  0
 24 33  1  0  0  0  0
 25 27  1  0  0  0  0
 25 34  1  0  0  0  0
 26 27  2  0  0  0  0
 26 35  1  0  0  0  0
 27 36  1  0  0  0  0
 37 38  1  0  0  0  0
 37 42  1  0  0  0  0
 38 39  1  0  0  0  0
 38 41  1  0  0  0  0
 38 43  1  0  0  0  0
 39 40  2  0  0  0  0
 39 47  1  0  0  0  0
 41 44  1  0  0  0  0
 41 45  1  0  0  0  0
 41 46  1  0  0  0  0
 47 48  1  0  0  0  0
 47 49  1  0  0  0  0
 48 50  1  0  0  0  0
 48 51  1  0  0  0  0
 48 52  1  0  0  0  0
M  END
$$$$

  -OEChem-05262217163D

 52 52  0     1  0  0  0  0  0999 V2000
   -2.6190    0.9059    4.5111 C   0  0  0  0  0  0  0  0  0  0  0  0
   -3.5112    1.6572    4.1493 O   0  0  0  0  0  0  0  0  0  0  0  0
   -2.7821    0.0844    5.7760 C   0  0  0  0  0  0  0  0  0  0  0  0
   -3.7678    0.2613    6.2157 H   0  0  0  0  0  0  0  0  0  0  0  0
   -2.6856   -0.9795    5.5457 H   0  0  0  0  0  0  0  0  0  0  0  0
   -2.0160    0.3639    6.5033 H   0  0  0  0  0  0  0  0  0  0  0  0
   -1.4656    0.7949    3.7649 N   0  0  0  0  0  0  0  0  0  0  0  0
   -1.2733    1.4068    2.4445 C   0  0  2  0  0  0  0  0  0  0  0  0
   -0.4239    0.5116    1.5200 C   0  0  0  0  0  0  0  0  0  0  0  0
    0.1896   -0.4479    1.9765 O   0  0  0  0  0  0  0  0  0  0  0  0
   -0.5939    2.7661    2.6383 C   0  0  0  0  0  0  0  0  0  0  0  0
   -0.8055    0.0636    4.0285 H   0  0  0  0  0  0  0  0  0  0  0  0
   -2.2432    1.5520    1.9571 H   0  0  0  0  0  0  0  0  0  0  0  0
    0.3855    2.6388    3.1114 H   0  0  0  0  0  0  0  0  0  0  0  0
   -0.4518    3.2677    1.6763 H   0  0  0  0  0  0  0  0  0  0  0  0
   -1.2092    3.4093    3.2757 H   0  0  0  0  0  0  0  0  0  0  0  0
   -0.4052    0.7358    0.1540 N   0  0  0  0  0  0  0  0  0  0  0  0
    0.7604    0.3882   -0.6824 C   0  0  2  0  0  0  0  0  0  0  0  0
    2.0719    1.1287   -0.2801 C   0  0  0  0  0  0  0  0  0  0  0  0
    2.3170    1.4255    0.8832 O   0  0  0  0  0  0  0  0  0  0  0  0
    0.3727    0.6247   -2.1591 C   0  0  0  0  0  0  0  0  0  0  0  0
   -0.6918   -0.3469   -2.6103 C   0  0  0  0  0  0  0  0  0  0  0  0
   -0.3427   -1.6506   -2.9948 C   0  0  0  0  0  0  0  0  0  0  0  0
   -2.0403    0.0397   -2.6612 C   0  0  0  0  0  0  0  0  0  0  0  0
   -1.3244   -2.5550   -3.4129 C   0  0  0  0  0  0  0  0  0  0  0  0
   -3.0231   -0.8645   -3.0791 C   0  0  0  0  0  0  0  0  0  0  0  0
   -2.6653   -2.1628   -3.4539 C   0  0  0  0  0  0  0  0  0  0  0  0
   -0.9546    1.5339   -0.1469 H   0  0  0  0  0  0  0  0  0  0  0  0
    0.9723   -0.6791   -0.5536 H   0  0  0  0  0  0  0  0  0  0  0  0
    1.2423    0.4797   -2.8069 H   0  0  0  0  0  0  0  0  0  0  0  0
    0.0309    1.6564   -2.2948 H   0  0  0  0  0  0  0  0  0  0  0  0
    0.6942   -1.9711   -2.9651 H   0  0  0  0  0  0  0  0  0  0  0  0
   -2.3344    1.0447   -2.3754 H   0  0  0  0  0  0  0  0  0  0  0  0
   -1.0454   -3.5637   -3.7034 H   0  0  0  0  0  0  0  0  0  0  0  0
   -4.0651   -0.5592   -3.1117 H   0  0  0  0  0  0  0  0  0  0  0  0
   -3.4282   -2.8659   -3.7758 H   0  0  0  0  0  0  0  0  0  0  0  0
    2.8965    1.6989   -1.2385 N   0  0  0  0  0  0  0  0  0  0  0  0
    4.0139    2.6091   -0.9384 C   0  0  2  0  0  0  0  0  0  0  0  0
    3.5214    4.0354   -0.5941 C   0  0  0  0  0  0  0  0  0  0  0  0
    3.6876    4.9774   -1.3593 O   0  0  0  0  0  0  0  0  0  0  0  0
    4.9689    2.5833   -2.1382 C   0  0  0  0  0  0  0  0  0  0  0  0
    2.6203    1.5958   -2.2099 H   0  0  0  0  0  0  0  0  0  0  0  0
    4.5666    2.2385   -0.0682 H   0  0  0  0  0  0  0  0  0  0  0  0
    4.4674    2.9462   -3.0409 H   0  0  0  0  0  0  0  0  0  0  0  0
    5.8355    3.2234   -1.9442 H   0  0  0  0  0  0  0  0  0  0  0  0
    5.3260    1.5652   -2.3203 H   0  0  0  0  0  0  0  0  0  0  0  0
    2.8312    4.2372    0.5842 N   0  0  0  0  0  0  0  0  0  0  0  0
    2.2318    5.5059    0.9726 C   0  0  0  0  0  0  0  0  0  0  0  0
    2.6206    3.3939    1.1253 H   0  0  0  0  0  0  0  0  0  0  0  0
    2.9877    6.2981    0.9868 H   0  0  0  0  0  0  0  0  0  0  0  0
    1.4397    5.7863    0.2708 H   0  0  0  0  0  0  0  0  0  0  0  0
    1.7980    5.4260    1.9739 H   0  0  0  0  0  0  0  0  0  0  0  0
  1  2  2  0  0  0  0
  1  3  1  0  0  0  0
  1  7  1  0  0  0  0
  3  4  1  0  0  0  0
  3  5  1  0  0  0  0
  3  6  1  0  0  0  0
  7  8  1  0  0  0  0
  7 12  1  0  0  0  0
  8  9  1  0  0  0  0
  8 11  1  0  0  0  0
  8 13  1  0  0  0  0
  9 10  2  0  0  0  0
  9 17  1  0  0  0  0
 11 14  1  0  0  0  0
 11 15  1  0  0  0  0
 11 16  1  0  0  0  0
 17 18  1  0  0  0  0
 17 28  1  0  0  0  0
 18 19  1  0  0  0  0
 18 21  1  0  0  0  0
 18 29  1  0  0  0  0
 19 20  2  0  0  0  0
 19 37  1  0  0  0  0
 21 22  1  0  0  0  0
 21 30  1  0  0  0  0
 21 31  1  0  0  0  0
 22 23  1  0  0  0  0
 22 24  2  0  0  0  0
 23 25  2  0  0  0  0
 23 32  1  0  0  0  0
 24 26  1  0  0  0  0
 24 33  1  0  0  0  0
 25 27  1  0  0  0  0
 25 34  1  0  0  0  0
 26 27  2  0  0  0  0
 26 35  1  0  0  0  0
 27 36  1  0  0  0  0
 37 38  1  0  0  0  0
 37 42  1  0  0  0  0
 38 39  1  0  0  0  0
 38 41  1  0  0  0  0
 38 43  1  0  0  0  0
 39 40  2  0  0  0  0
 39 47  1  0  0  0  0
 41 44  1  0  0  0  0
 41 45  1  0  0  0  0
 41 46  1  0  0  0  0
 47 48  1  0  0  0  0
 47 49  1  0  0  0  0
 48 50  1  0  0  0  0
 48 51  1  0  0  0  0
 48 52  1  0  0  0  0
M  END
$$$$

  -OEChem-05262217163D

 52 52  0     1  0  0  0  0  0999 V2000
   -2.5843    0.9134    4.4585 C   0  0  0  0  0  0  0  0  0  0  0  0
   -3.5149    1.6054    4.0757 O   0  0  0  0  0  0  0  0  0  0  0  0
   -2.7179    0.0887    5.7247 C   0  0  0  0  0  0  0  0  0  0  0  0
   -3.7390    0.1532    6.1109 H   0  0  0  0  0  0  0  0  0  0  0  0
   -2.4871   -0.9587    5.5149 H   0  0  0  0  0  0  0  0  0  0  0  0
   -2.0284    0.4612    6.4862 H   0  0  0  0  0  0  0  0  0  0  0  0
   -1.4115    0.8729    3.7354 N   0  0  0  0  0  0  0  0  0  0  0  0
   -1.2395    1.4737    2.4070 C   0  0  2  0  0  0  0  0  0  0  0  0
   -0.3668    0.5908    1.4932 C   0  0  0  0  0  0  0  0  0  0  0  0
    0.2996   -0.3212    1.9695 O   0  0  0  0  0  0  0  0  0  0  0  0
   -0.5946    2.8511    2.5824 C   0  0  0  0  0  0  0  0  0  0  0  0
   -0.7188    0.1771    4.0114 H   0  0  0  0  0  0  0  0  0  0  0  0
   -2.2130    1.5881    1.9185 H   0  0  0  0  0  0  0  0  0  0  0  0
    0.3881    2.7532    3.0553 H   0  0  0  0  0  0  0  0  0  0  0  0
   -0.4671    3.3433    1.6137 H   0  0  0  0  0  0  0  0  0  0  0  0
   -1.2246    3.4864    3.2130 H   0  0  0  0  0  0  0  0  0  0  0  0
   -0.3945    0.7690    0.1210 N   0  0  0  0  0  0  0  0  0  0  0  0
    0.7546    0.4471   -0.7471 C   0  0  2  0  0  0  0  0  0  0  0  0
    2.0381    1.2586   -0.4087 C   0  0  0  0  0  0  0  0  0  0  0  0
    2.4936    1.3100    0.7260 O   0  0  0  0  0  0  0  0  0  0  0  0
    0.3196    0.6091   -2.2189 C   0  0  0  0  0  0  0  0  0  0  0  0
   -0.7091   -0.4272   -2.6048 C   0  0  0  0  0  0  0  0  0  0  0  0
   -0.3109   -1.7278   -2.9508 C   0  0  0  0  0  0  0  0  0  0  0  0
   -2.0752   -0.1053   -2.6271 C   0  0  0  0  0  0  0  0  0  0  0  0
   -1.2616   -2.6916   -3.3045 C   0  0  0  0  0  0  0  0  0  0  0  0
   -3.0263   -1.0682   -2.9804 C   0  0  0  0  0  0  0  0  0  0  0  0
   -2.6200   -2.3621   -3.3186 C   0  0  0  0  0  0  0  0  0  0  0  0
   -1.0038    1.5174   -0.1929 H   0  0  0  0  0  0  0  0  0  0  0  0
    1.0209   -0.6041   -0.5883 H   0  0  0  0  0  0  0  0  0  0  0  0
    1.1851    0.4830   -2.8777 H   0  0  0  0  0  0  0  0  0  0  0  0
   -0.0771    1.6161   -2.3840 H   0  0  0  0  0  0  0  0  0  0  0  0
    0.7404   -1.9997   -2.9405 H   0  0  0  0  0  0  0  0  0  0  0  0
   -2.4075    0.8950   -2.3682 H   0  0  0  0  0  0  0  0  0  0  0  0
   -0.9450   -3.6977   -3.5652 H   0  0  0  0  0  0  0  0  0  0  0  0
   -4.0814   -0.8115   -2.9911 H   0  0  0  0  0  0  0  0  0  0  0  0
   -3.3585   -3.1109   -3.5903 H   0  0  0  0  0  0  0  0  0  0  0  0
    2.6273    2.0897   -1.3493 N   0  0  0  0  0  0  0  0  0  0  0  0
    3.7127    3.0373   -1.0497 C   0  0  2  0  0  0  0  0  0  0  0  0
    3.1983    4.2933   -0.3046 C   0  0  0  0  0  0  0  0  0  0  0  0
    3.1463    5.3889   -0.8501 O   0  0  0  0  0  0  0  0  0  0  0  0
    4.4094    3.3740   -2.3741 C   0  0  0  0  0  0  0  0  0  0  0  0
    2.1701    2.1650   -2.2526 H   0  0  0  0  0  0  0  0  0  0  0  0
    4.4521    2.5559   -0.3999 H   0  0  0  0  0  0  0  0  0  0  0  0
    3.7138    3.8595   -3.0661 H   0  0  0  0  0  0  0  0  0  0  0  0
    5.2498    4.0528   -2.1972 H   0  0  0  0  0  0  0  0  0  0  0  0
    4.7945    2.4640   -2.8440 H   0  0  0  0  0  0  0  0  0  0  0  0
    2.7443    4.1651    0.9931 N   0  0  0  0  0  0  0  0  0  0  0  0
    2.1812    5.2583    1.7732 C   0  0  0  0  0  0  0  0  0  0  0  0
    2.7074    3.2101    1.3614 H   0  0  0  0  0  0  0  0  0  0  0  0
    2.8916    6.0893    1.8365 H   0  0  0  0  0  0  0  0  0  0  0  0
    1.2553    5.6193    1.3139 H   0  0  0  0  0  0  0  0  0  0  0  0
    1.9569    4.9200    2.7894 H   0  0  0  0  0  0  0  0  0  0  0  0
  1  2  2  0  0  0  0
  1  3  1  0  0  0  0
  1  7  1  0  0  0  0
  3  4  1  0  0  0  0
  3  5  1  0  0  0  0
  3  6  1  0  0  0  0
  7  8  1  0  0  0  0
  7 12  1  0  0  0  0
  8  9  1  0  0  0  0
  8 11  1  0  0  0  0
  8 13  1  0  0  0  0
  9 10  2  0  0  0  0
  9 17  1  0  0  0  0
 11 14  1  0  0  0  0
 11 15  1  0  0  0  0
 11 16  1  0  0  0  0
 17 18  1  0  0  0  0
 17 28  1  0  0  0  0
 18 19  1  0  0  0  0
 18 21  1  0  0  0  0
 18 29  1  0  0  0  0
 19 20  2  0  0  0  0
 19 37  1  0  0  0  0
 21 22  1  0  0  0  0
 21 30  1  0  0  0  0
 21 31  1  0  0  0  0
 22 23  1  0  0  0  0
 22 24  2  0  0  0  0
 23 25  2  0  0  0  0
 23 32  1  0  0  0  0
 24 26  1  0  0  0  0
 24 33  1  0  0  0  0
 25 27  1  0  0  0  0
 25 34  1  0  0  0  0
 26 27  2  0  0  0  0
 26 35  1  0  0  0  0
 27 36  1  0  0  0  0
 37 38  1  0  0  0  0
 37 42  1  0  0  0  0
 38 39  1  0  0  0  0
 38 41  1  0  0  0  0
 38 43  1  0  0  0  0
 39 40  2  0  0  0  0
 39 47  1  0  0  0  0
 41 44  1  0  0  0  0
 41 45  1  0  0  0  0
 41 46  1  0  0  0  0
 47 48  1  0  0  0  0
 47 49  1  0  0  0  0
 48 50  1  0  0  0  0
 48 51  1  0  0  0  0
 48 52  1  0  0  0  0
M  END
$$$$

  -OEChem-05262217163D

 52 52  0     1  0  0  0  0  0999 V2000
   -2.5413    0.8422    4.5026 C   0  0  0  0  0  0  0  0  0  0  0  0
   -3.5895    1.3347    4.1154 O   0  0  0  0  0  0  0  0  0  0  0  0
   -2.4766    0.1460    5.8488 C   0  0  0  0  0  0  0  0  0  0  0  0
   -3.4545    0.1783    6.3371 H   0  0  0  0  0  0  0  0  0  0  0  0
   -2.1839   -0.8982    5.7152 H   0  0  0  0  0  0  0  0  0  0  0  0
   -1.7453    0.6429    6.4907 H   0  0  0  0  0  0  0  0  0  0  0  0
   -1.4145    0.9121    3.7121 N   0  0  0  0  0  0  0  0  0  0  0  0
   -1.3994    1.4216    2.3354 C   0  0  2  0  0  0  0  0  0  0  0  0
   -0.3380    0.7057    1.4747 C   0  0  0  0  0  0  0  0  0  0  0  0
    0.4913   -0.0206    2.0067 O   0  0  0  0  0  0  0  0  0  0  0  0
   -1.1216    2.9276    2.3818 C   0  0  0  0  0  0  0  0  0  0  0  0
   -0.6000    0.3742    4.0085 H   0  0  0  0  0  0  0  0  0  0  0  0
   -2.3731    1.2457    1.8661 H   0  0  0  0  0  0  0  0  0  0  0  0
   -0.1514    3.1219    2.8499 H   0  0  0  0  0  0  0  0  0  0  0  0
   -1.1126    3.3521    1.3734 H   0  0  0  0  0  0  0  0  0  0  0  0
   -1.8965    3.4378    2.9628 H   0  0  0  0  0  0  0  0  0  0  0  0
   -0.3686    0.8280    0.0964 N   0  0  0  0  0  0  0  0  0  0  0  0
    0.7700    0.5299   -0.7935 C   0  0  2  0  0  0  0  0  0  0  0  0
    2.0189    1.4036   -0.5088 C   0  0  0  0  0  0  0  0  0  0  0  0
    2.7371    1.2052    0.4605 O   0  0  0  0  0  0  0  0  0  0  0  0
    0.3074    0.6428   -2.2597 C   0  0  0  0  0  0  0  0  0  0  0  0
   -0.6878   -0.4390   -2.6033 C   0  0  0  0  0  0  0  0  0  0  0  0
   -0.2447   -1.7308   -2.9249 C   0  0  0  0  0  0  0  0  0  0  0  0
   -2.0652   -0.1686   -2.6144 C   0  0  0  0  0  0  0  0  0  0  0  0
   -1.1621   -2.7381   -3.2418 C   0  0  0  0  0  0  0  0  0  0  0  0
   -2.9832   -1.1756   -2.9310 C   0  0  0  0  0  0  0  0  0  0  0  0
   -2.5321   -2.4609   -3.2441 C   0  0  0  0  0  0  0  0  0  0  0  0
   -1.1102    1.4140   -0.2732 H   0  0  0  0  0  0  0  0  0  0  0  0
    1.0840   -0.5049   -0.6146 H   0  0  0  0  0  0  0  0  0  0  0  0
    1.1712    0.5396   -2.9256 H   0  0  0  0  0  0  0  0  0  0  0  0
   -0.1325    1.6287   -2.4417 H   0  0  0  0  0  0  0  0  0  0  0  0
    0.8167   -1.9610   -2.9248 H   0  0  0  0  0  0  0  0  0  0  0  0
   -2.4322    0.8252   -2.3786 H   0  0  0  0  0  0  0  0  0  0  0  0
   -0.8101   -3.7365   -3.4846 H   0  0  0  0  0  0  0  0  0  0  0  0
   -4.0477   -0.9598   -2.9339 H   0  0  0  0  0  0  0  0  0  0  0  0
   -3.2452   -3.2429   -3.4889 H   0  0  0  0  0  0  0  0  0  0  0  0
    2.3671    2.4498   -1.3484 N   0  0  0  0  0  0  0  0  0  0  0  0
    3.4306    3.4184   -1.0400 C   0  0  2  0  0  0  0  0  0  0  0  0
    3.0046    4.4107    0.0703 C   0  0  0  0  0  0  0  0  0  0  0  0
    2.7829    5.5909   -0.1725 O   0  0  0  0  0  0  0  0  0  0  0  0
    3.8146    4.1162   -2.3500 C   0  0  0  0  0  0  0  0  0  0  0  0
    1.7119    2.6861   -2.0868 H   0  0  0  0  0  0  0  0  0  0  0  0
    4.3172    2.8876   -0.6765 H   0  0  0  0  0  0  0  0  0  0  0  0
    2.9612    4.6640   -2.7625 H   0  0  0  0  0  0  0  0  0  0  0  0
    4.6288    4.8264   -2.1741 H   0  0  0  0  0  0  0  0  0  0  0  0
    4.1507    3.3819   -3.0883 H   0  0  0  0  0  0  0  0  0  0  0  0
    2.8250    3.9435    1.3575 N   0  0  0  0  0  0  0  0  0  0  0  0
    2.3917    4.7697    2.4755 C   0  0  0  0  0  0  0  0  0  0  0  0
    2.9245    2.9317    1.4876 H   0  0  0  0  0  0  0  0  0  0  0  0
    3.1070    5.5797    2.6518 H   0  0  0  0  0  0  0  0  0  0  0  0
    1.4078    5.2052    2.2732 H   0  0  0  0  0  0  0  0  0  0  0  0
    2.3235    4.1652    3.3851 H   0  0  0  0  0  0  0  0  0  0  0  0
  1  2  2  0  0  0  0
  1  3  1  0  0  0  0
  1  7  1  0  0  0  0
  3  4  1  0  0  0  0
  3  5  1  0  0  0  0
  3  6  1  0  0  0  0
  7  8  1  0  0  0  0
  7 12  1  0  0  0  0
  8  9  1  0  0  0  0
  8 11  1  0  0  0  0
  8 13  1  0  0  0  0
  9 10  2  0  0  0  0
  9 17  1  0  0  0  0
 11 14  1  0  0  0  0
 11 15  1  0  0  0  0
 11 16  1  0  0  0  0
 17 18  1  0  0  0  0
 17 28  1  0  0  0  0
 18 19  1  0  0  0  0
 18 21  1  0  0  0  0
 18 29  1  0  0  0  0
 19 20  2  0  0  0  0
 19 37  1  0  0  0  0
 21 22  1  0  0  0  0
 21 30  1  0  0  0  0
 21 31  1  0  0  0  0
 22 23  1  0  0  0  0
 22 24  2  0  0  0  0
 23 25  2  0  0  0  0
 23 32  1  0  0  0  0
 24 26  1  0  0  0  0
 24 33  1  0  0  0  0
 25 27  1  0  0  0  0
 25 34  1  0  0  0  0
 26 27  2  0  0  0  0
 26 35  1  0  0  0  0
 27 36  1  0  0  0  0
 37 38  1  0  0  0  0
 37 42  1  0  0  0  0
 38 39  1  0  0  0  0
 38 41  1  0  0  0  0
 38 43  1  0  0  0  0
 39 40  2  0  0  0  0
 39 47  1  0  0  0  0
 41 44  1  0  0  0  0
 41 45  1  0  0  0  0
 41 46  1  0  0  0  0
 47 48  1  0  0  0  0
 47 49  1  0  0  0  0
 48 50  1  0  0  0  0
 48 51  1  0  0  0  0
 48 52  1  0  0  0  0
M  END
$$$$

  -OEChem-05262217163D

 52 52  0     1  0  0  0  0  0999 V2000
   -2.4752    0.4476    4.4459 C   0  0  0  0  0  0  0  0  0  0  0  0
   -3.6087    0.4739    3.9924 O   0  0  0  0  0  0  0  0  0  0  0  0
   -2.2193   -0.1204    5.8292 C   0  0  0  0  0  0  0  0  0  0  0  0
   -3.1521   -0.4913    6.2632 H   0  0  0  0  0  0  0  0  0  0  0  0
   -1.5067   -0.9466    5.7683 H   0  0  0  0  0  0  0  0  0  0  0  0
   -1.8116    0.6559    6.4809 H   0  0  0  0  0  0  0  0  0  0  0  0
   -1.4227    0.9268    3.6954 N   0  0  0  0  0  0  0  0  0  0  0  0
   -1.5327    1.3576    2.2960 C   0  0  2  0  0  0  0  0  0  0  0  0
   -0.2438    1.0577    1.5030 C   0  0  0  0  0  0  0  0  0  0  0  0
    0.7927    0.8145    2.1049 O   0  0  0  0  0  0  0  0  0  0  0  0
   -1.8377    2.8585    2.2770 C   0  0  0  0  0  0  0  0  0  0  0  0
   -0.4812    0.7727    4.0556 H   0  0  0  0  0  0  0  0  0  0  0  0
   -2.3499    0.8164    1.8070 H   0  0  0  0  0  0  0  0  0  0  0  0
   -1.0292    3.4195    2.7570 H   0  0  0  0  0  0  0  0  0  0  0  0
   -1.9480    3.2164    1.2491 H   0  0  0  0  0  0  0  0  0  0  0  0
   -2.7698    3.0621    2.8140 H   0  0  0  0  0  0  0  0  0  0  0  0
   -0.2721    1.0623    0.1184 N   0  0  0  0  0  0  0  0  0  0  0  0
    0.8427    0.6777   -0.7690 C   0  0  2  0  0  0  0  0  0  0  0  0
    2.1065    1.5461   -0.5740 C   0  0  0  0  0  0  0  0  0  0  0  0
    3.0241    1.1645    0.1395 O   0  0  0  0  0  0  0  0  0  0  0  0
    0.3560    0.7304   -2.2294 C   0  0  0  0  0  0  0  0  0  0  0  0
   -0.6820   -0.3340   -2.4895 C   0  0  0  0  0  0  0  0  0  0  0  0
   -0.2922   -1.6571   -2.7461 C   0  0  0  0  0  0  0  0  0  0  0  0
   -2.0488   -0.0120   -2.4913 C   0  0  0  0  0  0  0  0  0  0  0  0
   -1.2531   -2.6463   -2.9815 C   0  0  0  0  0  0  0  0  0  0  0  0
   -3.0100   -1.0004   -2.7275 C   0  0  0  0  0  0  0  0  0  0  0  0
   -2.6122   -2.3185   -2.9697 C   0  0  0  0  0  0  0  0  0  0  0  0
   -1.1974    1.1103   -0.2985 H   0  0  0  0  0  0  0  0  0  0  0  0
    1.1390   -0.3512   -0.5346 H   0  0  0  0  0  0  0  0  0  0  0  0
    1.2042    0.5676   -2.9039 H   0  0  0  0  0  0  0  0  0  0  0  0
   -0.0560    1.7191   -2.4561 H   0  0  0  0  0  0  0  0  0  0  0  0
    0.7606   -1.9253   -2.7580 H   0  0  0  0  0  0  0  0  0  0  0  0
   -2.3750    1.0087   -2.3172 H   0  0  0  0  0  0  0  0  0  0  0  0
   -0.9435   -3.6700   -3.1740 H   0  0  0  0  0  0  0  0  0  0  0  0
   -4.0663   -0.7459   -2.7272 H   0  0  0  0  0  0  0  0  0  0  0  0
   -3.3580   -3.0870   -3.1522 H   0  0  0  0  0  0  0  0  0  0  0  0
    2.2998    2.7096   -1.2995 N   0  0  0  0  0  0  0  0  0  0  0  0
    3.3454    3.6839   -0.9478 C   0  0  2  0  0  0  0  0  0  0  0  0
    3.0010    4.4405    0.3610 C   0  0  0  0  0  0  0  0  0  0  0  0
    2.7926    5.6480    0.3663 O   0  0  0  0  0  0  0  0  0  0  0  0
    3.5271    4.6194   -2.1491 C   0  0  0  0  0  0  0  0  0  0  0  0
    1.4892    3.0606   -1.7993 H   0  0  0  0  0  0  0  0  0  0  0  0
    4.2966    3.1658   -0.7833 H   0  0  0  0  0  0  0  0  0  0  0  0
    2.6035    5.1700   -2.3541 H   0  0  0  0  0  0  0  0  0  0  0  0
    4.3232    5.3431   -1.9470 H   0  0  0  0  0  0  0  0  0  0  0  0
    3.7999    4.0463   -3.0403 H   0  0  0  0  0  0  0  0  0  0  0  0
    2.8481    3.7311    1.5371 N   0  0  0  0  0  0  0  0  0  0  0  0
    2.4182    4.3191    2.7972 C   0  0  0  0  0  0  0  0  0  0  0  0
    2.9495    2.7128    1.4732 H   0  0  0  0  0  0  0  0  0  0  0  0
    3.1465    5.0611    3.1407 H   0  0  0  0  0  0  0  0  0  0  0  0
    1.4445    4.8058    2.6816 H   0  0  0  0  0  0  0  0  0  0  0  0
    2.3279    3.5412    3.5614 H   0  0  0  0  0  0  0  0  0  0  0  0
  1  2  2  0  0  0  0
  1  3  1  0  0  0  0
  1  7  1  0  0  0  0
  3  4  1  0  0  0  0
  3  5  1  0  0  0  0
  3  6  1  0  0  0  0
  7  8  1  0  0  0  0
  7 12  1  0  0  0  0
  8  9  1  0  0  0  0
  8 11  1  0  0  0  0
  8 13  1  0  0  0  0
  9 10  2  0  0  0  0
  9 17  1  0  0  0  0
 11 14  1  0  0  0  0
 11 15  1  0  0  0  0
 11 16  1  0  0  0  0
 17 18  1  0  0  0  0
 17 28  1  0  0  0  0
 18 19  1  0  0  0  0
 18 21  1  0  0  0  0
 18 29  1  0  0  0  0
 19 20  2  0  0  0  0
 19 37  1  0  0  0  0
 21 22  1  0  0  0  0
 21 30  1  0  0  0  0
 21 31  1  0  0  0  0
 22 23  1  0  0  0  0
 22 24  2  0  0  0  0
 23 25  2  0  0  0  0
 23 32  1  0  0  0  0
 24 26  1  0  0  0  0
 24 33  1  0  0  0  0
 25 27  1  0  0  0  0
 25 34  1  0  0  0  0
 26 27  2  0  0  0  0
 26 35  1  0  0  0  0
 27 36  1  0  0  0  0
 37 38  1  0  0  0  0
 37 42  1  0  0  0  0
 38 39  1  0  0  0  0
 38 41  1  0  0  0  0
 38 43  1  0  0  0  0
 39 40  2  0  0  0  0
 39 47  1  0  0  0  0
 41 44  1  0  0  0  0
 41 45  1  0  0  0  0
 41 46  1  0  0  0  0
 47 48  1  0  0  0  0
 47 49  1  0  0  0  0
 48 50  1  0  0  0  0
 48 51  1  0  0  0  0
 48 52  1  0  0  0  0
M  END
$$$$

  -OEChem-05262217163D

 52 52  0     1  0  0  0  0  0999 V2000
   -2.3796    0.3378    4.4350 C   0  0  0  0  0  0  0  0  0  0  0  0
   -3.5113    0.2596    3.9835 O   0  0  0  0  0  0  0  0  0  0  0  0
   -2.0583   -0.2499    5.7963 C   0  0  0  0  0  0  0  0  0  0  0  0
   -2.9490   -0.7167    6.2261 H   0  0  0  0  0  0  0  0  0  0  0  0
   -1.2756   -1.0066    5.7012 H   0  0  0  0  0  0  0  0  0  0  0  0
   -1.7138    0.5379    6.4705 H   0  0  0  0  0  0  0  0  0  0  0  0
   -1.3863    0.9515    3.7021 N   0  0  0  0  0  0  0  0  0  0  0  0
   -1.5391    1.3917    2.3094 C   0  0  2  0  0  0  0  0  0  0  0  0
   -0.2585    1.1323    1.4906 C   0  0  0  0  0  0  0  0  0  0  0  0
    0.8036    0.9445    2.0694 O   0  0  0  0  0  0  0  0  0  0  0  0
   -1.8801    2.8843    2.3128 C   0  0  0  0  0  0  0  0  0  0  0  0
   -0.4323    0.8680    4.0522 H   0  0  0  0  0  0  0  0  0  0  0  0
   -2.3519    0.8370    1.8286 H   0  0  0  0  0  0  0  0  0  0  0  0
   -1.0773    3.4594    2.7855 H   0  0  0  0  0  0  0  0  0  0  0  0
   -2.0162    3.2512    1.2911 H   0  0  0  0  0  0  0  0  0  0  0  0
   -2.8074    3.0586    2.8679 H   0  0  0  0  0  0  0  0  0  0  0  0
   -0.3114    1.1169    0.1069 N   0  0  0  0  0  0  0  0  0  0  0  0
    0.8108    0.7390   -0.7722 C   0  0  2  0  0  0  0  0  0  0  0  0
    2.0479    1.6415   -0.5874 C   0  0  0  0  0  0  0  0  0  0  0  0
    3.0575    1.2120   -0.0455 O   0  0  0  0  0  0  0  0  0  0  0  0
    0.3400    0.7649   -2.2366 C   0  0  0  0  0  0  0  0  0  0  0  0
   -0.6779   -0.3208   -2.4869 C   0  0  0  0  0  0  0  0  0  0  0  0
   -0.2610   -1.6402   -2.7182 C   0  0  0  0  0  0  0  0  0  0  0  0
   -2.0506   -0.0263   -2.4965 C   0  0  0  0  0  0  0  0  0  0  0  0
   -1.2007   -2.6531   -2.9362 C   0  0  0  0  0  0  0  0  0  0  0  0
   -2.9907   -1.0389   -2.7150 C   0  0  0  0  0  0  0  0  0  0  0  0
   -2.5661   -2.3532   -2.9313 C   0  0  0  0  0  0  0  0  0  0  0  0
   -1.2438    1.0973   -0.2976 H   0  0  0  0  0  0  0  0  0  0  0  0
    1.1277   -0.2800   -0.5213 H   0  0  0  0  0  0  0  0  0  0  0  0
    1.1986    0.6079   -2.8988 H   0  0  0  0  0  0  0  0  0  0  0  0
   -0.0850    1.7435   -2.4819 H   0  0  0  0  0  0  0  0  0  0  0  0
    0.7973   -1.8863   -2.7224 H   0  0  0  0  0  0  0  0  0  0  0  0
   -2.3970    0.9908   -2.3414 H   0  0  0  0  0  0  0  0  0  0  0  0
   -0.8695   -3.6732   -3.1090 H   0  0  0  0  0  0  0  0  0  0  0  0
   -4.0517   -0.8061   -2.7206 H   0  0  0  0  0  0  0  0  0  0  0  0
   -3.2956   -3.1402   -3.1001 H   0  0  0  0  0  0  0  0  0  0  0  0
    2.0679    2.9289   -1.0944 N   0  0  0  0  0  0  0  0  0  0  0  0
    3.0867    3.9104   -0.6908 C   0  0  2  0  0  0  0  0  0  0  0  0
    2.8270    4.4336    0.7444 C   0  0  0  0  0  0  0  0  0  0  0  0
    2.5512    5.6087    0.9563 O   0  0  0  0  0  0  0  0  0  0  0  0
    3.0999    5.0234   -1.7457 C   0  0  0  0  0  0  0  0  0  0  0  0
    1.1733    3.2916   -1.4088 H   0  0  0  0  0  0  0  0  0  0  0  0
    4.0771    3.4424   -0.6904 H   0  0  0  0  0  0  0  0  0  0  0  0
    2.1327    5.5348   -1.7813 H   0  0  0  0  0  0  0  0  0  0  0  0
    3.8724    5.7614   -1.5068 H   0  0  0  0  0  0  0  0  0  0  0  0
    3.3138    4.6078   -2.7351 H   0  0  0  0  0  0  0  0  0  0  0  0
    2.8202    3.5428    1.8006 N   0  0  0  0  0  0  0  0  0  0  0  0
    2.4374    3.8953    3.1599 C   0  0  0  0  0  0  0  0  0  0  0  0
    2.9341    2.5525    1.5630 H   0  0  0  0  0  0  0  0  0  0  0  0
    3.1260    4.6405    3.5710 H   0  0  0  0  0  0  0  0  0  0  0  0
    1.4216    4.3027    3.1790 H   0  0  0  0  0  0  0  0  0  0  0  0
    2.4657    3.0069    3.7982 H   0  0  0  0  0  0  0  0  0  0  0  0
  1  2  2  0  0  0  0
  1  3  1  0  0  0  0
  1  7  1  0  0  0  0
  3  4  1  0  0  0  0
  3  5  1  0  0  0  0
  3  6  1  0  0  0  0
  7  8  1  0  0  0  0
  7 12  1  0  0  0  0
  8  9  1  0  0  0  0
  8 11  1  0  0  0  0
  8 13  1  0  0  0  0
  9 10  2  0  0  0  0
  9 17  1  0  0  0  0
 11 14  1  0  0  0  0
 11 15  1  0  0  0  0
 11 16  1  0  0  0  0
 17 18  1  0  0  0  0
 17 28  1  0  0  0  0
 18 19  1  0  0  0  0
 18 21  1  0  0  0  0
 18 29  1  0  0  0  0
 19 20  2  0  0  0  0
 19 37  1  0  0  0  0
 21 22  1  0  0  0  0
 21 30  1  0  0  0  0
 21 31  1  0  0  0  0
 22 23  1  0  0  0  0
 22 24  2  0  0  0  0
 23 25  2  0  0  0  0
 23 32  1  0  0  0  0
 24 26  1  0  0  0  0
 24 33  1  0  0  0  0
 25 27  1  0  0  0  0
 25 34  1  0  0  0  0
 26 27  2  0  0  0  0
 26 35  1  0  0  0  0
 27 36  1  0  0  0  0
 37 38  1  0  0  0  0
 37 42  1  0  0  0  0
 38 39  1  0  0  0  0
 38 41  1  0  0  0  0
 38 43  1  0  0  0  0
 39 40  2  0  0  0  0
 39 47  1  0  0  0  0
 41 44  1  0  0  0  0
 41 45  1  0  0  0  0
 41 46  1  0  0  0  0
 47 48  1  0  0  0  0
 47 49  1  0  0  0  0
 48 50  1  0  0  0  0
 48 51  1  0  0  0  0
 48 52  1  0  0  0  0
M  END
$$$$

  -OEChem-05262217163D

 52 52  0     1  0  0  0  0  0999 V2000
   -2.3910    0.2647    4.4716 C   0  0  0  0  0  0  0  0  0  0  0  0
   -3.5183    0.1299    4.0230 O   0  0  0  0  0  0  0  0  0  0  0  0
   -2.0459   -0.2832    5.8438 C   0  0  0  0  0  0  0  0  0  0  0  0
   -2.9175   -0.7776    6.2822 H   0  0  0  0  0  0  0  0  0  0  0  0
   -1.2329   -1.0091    5.7633 H   0  0  0  0  0  0  0  0  0  0  0  0
   -1.7348    0.5312    6.5027 H   0  0  0  0  0  0  0  0  0  0  0  0
   -1.4262    0.9080    3.7258 N   0  0  0  0  0  0  0  0  0  0  0  0
   -1.6048    1.3332    2.3314 C   0  0  2  0  0  0  0  0  0  0  0  0
   -0.3162    1.1381    1.5065 C   0  0  0  0  0  0  0  0  0  0  0  0
    0.7585    0.9968    2.0763 O   0  0  0  0  0  0  0  0  0  0  0  0
   -2.0225    2.8063    2.3295 C   0  0  0  0  0  0  0  0  0  0  0  0
   -0.4707    0.8847    4.0802 H   0  0  0  0  0  0  0  0  0  0  0  0
   -2.3903    0.7350    1.8572 H   0  0  0  0  0  0  0  0  0  0  0  0
   -1.2448    3.4255    2.7890 H   0  0  0  0  0  0  0  0  0  0  0  0
   -2.1896    3.1582    1.3071 H   0  0  0  0  0  0  0  0  0  0  0  0
   -2.9512    2.9362    2.8947 H   0  0  0  0  0  0  0  0  0  0  0  0
   -0.3709    1.1206    0.1227 N   0  0  0  0  0  0  0  0  0  0  0  0
    0.7759    0.7925   -0.7446 C   0  0  2  0  0  0  0  0  0  0  0  0
    1.9687    1.7497   -0.5536 C   0  0  0  0  0  0  0  0  0  0  0  0
    3.0709    1.3192   -0.2413 O   0  0  0  0  0  0  0  0  0  0  0  0
    0.3255    0.8177   -2.2147 C   0  0  0  0  0  0  0  0  0  0  0  0
   -0.6501   -0.2995   -2.4941 C   0  0  0  0  0  0  0  0  0  0  0  0
   -0.1843   -1.6006   -2.7346 C   0  0  0  0  0  0  0  0  0  0  0  0
   -2.0323   -0.0531   -2.5196 C   0  0  0  0  0  0  0  0  0  0  0  0
   -1.0847   -2.6426   -2.9796 C   0  0  0  0  0  0  0  0  0  0  0  0
   -2.9333   -1.0952   -2.7634 C   0  0  0  0  0  0  0  0  0  0  0  0
   -2.4597   -2.3907   -2.9908 C   0  0  0  0  0  0  0  0  0  0  0  0
   -1.2996    1.0376   -0.2826 H   0  0  0  0  0  0  0  0  0  0  0  0
    1.1330   -0.2136   -0.4968 H   0  0  0  0  0  0  0  0  0  0  0  0
    1.1988    0.6975   -2.8654 H   0  0  0  0  0  0  0  0  0  0  0  0
   -0.1264    1.7851   -2.4561 H   0  0  0  0  0  0  0  0  0  0  0  0
    0.8819   -1.8091   -2.7264 H   0  0  0  0  0  0  0  0  0  0  0  0
   -2.4164    0.9492   -2.3568 H   0  0  0  0  0  0  0  0  0  0  0  0
   -0.7146   -3.6479   -3.1600 H   0  0  0  0  0  0  0  0  0  0  0  0
   -4.0019   -0.9003   -2.7797 H   0  0  0  0  0  0  0  0  0  0  0  0
   -3.1589   -3.2005   -3.1794 H   0  0  0  0  0  0  0  0  0  0  0  0
    1.8182    3.1048   -0.7875 N   0  0  0  0  0  0  0  0  0  0  0  0
    2.8338    4.0941   -0.3987 C   0  0  2  0  0  0  0  0  0  0  0  0
    2.7941    4.3663    1.1243 C   0  0  0  0  0  0  0  0  0  0  0  0
    2.4420    5.4518    1.5720 O   0  0  0  0  0  0  0  0  0  0  0  0
    2.6034    5.3535   -1.2425 C   0  0  0  0  0  0  0  0  0  0  0  0
    0.8610    3.4299   -0.8818 H   0  0  0  0  0  0  0  0  0  0  0  0
    3.8344    3.7157   -0.6350 H   0  0  0  0  0  0  0  0  0  0  0  0
    1.6152    5.7788   -1.0406 H   0  0  0  0  0  0  0  0  0  0  0  0
    3.3597    6.1090   -1.0073 H   0  0  0  0  0  0  0  0  0  0  0  0
    2.6727    5.1158   -2.3083 H   0  0  0  0  0  0  0  0  0  0  0  0
    3.0751    3.3333    1.9966 N   0  0  0  0  0  0  0  0  0  0  0  0
    2.8377    3.4075    3.4308 C   0  0  0  0  0  0  0  0  0  0  0  0
    3.1909    2.4097    1.5702 H   0  0  0  0  0  0  0  0  0  0  0  0
    3.4172    4.2236    3.8747 H   0  0  0  0  0  0  0  0  0  0  0  0
    1.7749    3.5745    3.6339 H   0  0  0  0  0  0  0  0  0  0  0  0
    3.1386    2.4703    3.9088 H   0  0  0  0  0  0  0  0  0  0  0  0
  1  2  2  0  0  0  0
  1  3  1  0  0  0  0
  1  7  1  0  0  0  0
  3  4  1  0  0  0  0
  3  5  1  0  0  0  0
  3  6  1  0  0  0  0
  7  8  1  0  0  0  0
  7 12  1  0  0  0  0
  8  9  1  0  0  0  0
  8 11  1  0  0  0  0
  8 13  1  0  0  0  0
  9 10  2  0  0  0  0
  9 17  1  0  0  0  0
 11 14  1  0  0  0  0
 11 15  1  0  0  0  0
 11 16  1  0  0  0  0
 17 18  1  0  0  0  0
 17 28  1  0  0  0  0
 18 19  1  0  0  0  0
 18 21  1  0  0  0  0
 18 29  1  0  0  0  0
 19 20  2  0  0  0  0
 19 37  1  0  0  0  0
 21 22  1  0  0  0  0
 21 30  1  0  0  0  0
 21 31  1  0  0  0  0
 22 23  1  0  0  0  0
 22 24  2  0  0  0  0
 23 25  2  0  0  0  0
 23 32  1  0  0  0  0
 24 26  1  0  0  0  0
 24 33  1  0  0  0  0
 25 27  1  0  0  0  0
 25 34  1  0  0  0  0
 26 27  2  0  0  0  0
 26 35  1  0  0  0  0
 27 36  1  0  0  0  0
 37 38  1  0  0  0  0
 37 42  1  0  0  0  0
 38 39  1  0  0  0  0
 38 41  1  0  0  0  0
 38 43  1  0  0  0  0
 39 40  2  0  0  0  0
 39 47  1  0  0  0  0
 41 44  1  0  0  0  0
 41 45  1  0  0  0  0
 41 46  1  0  0  0  0
 47 48  1  0  0  0  0
 47 49  1  0  0  0  0
 48 50  1  0  0  0  0
 48 51  1  0  0  0  0
 48 52  1  0  0  0  0
M  END
$$$$

  -OEChem-05262217163D

 52 52  0     1  0  0  0  0  0999 V2000
   -2.4421    0.2183    4.5110 C   0  0  0  0  0  0  0  0  0  0  0  0
   -3.5618    0.0104    4.0707 O   0  0  0  0  0  0  0  0  0  0  0  0
   -2.0721   -0.2447    5.9075 C   0  0  0  0  0  0  0  0  0  0  0  0
   -2.9336   -0.7163    6.3886 H   0  0  0  0  0  0  0  0  0  0  0  0
   -1.2565   -0.9701    5.8564 H   0  0  0  0  0  0  0  0  0  0  0  0
   -1.7544    0.6084    6.5120 H   0  0  0  0  0  0  0  0  0  0  0  0
   -1.5075    0.8676    3.7331 N   0  0  0  0  0  0  0  0  0  0  0  0
   -1.7112    1.2344    2.3261 C   0  0  2  0  0  0  0  0  0  0  0  0
   -0.4029    1.1378    1.5153 C   0  0  0  0  0  0  0  0  0  0  0  0
    0.6744    1.0560    2.0920 O   0  0  0  0  0  0  0  0  0  0  0  0
   -2.2687    2.6600    2.2797 C   0  0  0  0  0  0  0  0  0  0  0  0
   -0.5536    0.9174    4.0894 H   0  0  0  0  0  0  0  0  0  0  0  0
   -2.4311    0.5493    1.8651 H   0  0  0  0  0  0  0  0  0  0  0  0
   -1.5630    3.3621    2.7359 H   0  0  0  0  0  0  0  0  0  0  0  0
   -2.4518    2.9706    1.2468 H   0  0  0  0  0  0  0  0  0  0  0  0
   -3.2154    2.7124    2.8271 H   0  0  0  0  0  0  0  0  0  0  0  0
   -0.4397    1.1306    0.1312 N   0  0  0  0  0  0  0  0  0  0  0  0
    0.7375    0.8616   -0.7159 C   0  0  2  0  0  0  0  0  0  0  0  0
    1.8879    1.8650   -0.5036 C   0  0  0  0  0  0  0  0  0  0  0  0
    3.0478    1.4771   -0.4485 O   0  0  0  0  0  0  0  0  0  0  0  0
    0.3119    0.8887   -2.1922 C   0  0  0  0  0  0  0  0  0  0  0  0
   -0.6116   -0.2649   -2.4994 C   0  0  0  0  0  0  0  0  0  0  0  0
   -0.0888   -1.5428   -2.7465 C   0  0  0  0  0  0  0  0  0  0  0  0
   -2.0017   -0.0745   -2.5465 C   0  0  0  0  0  0  0  0  0  0  0  0
   -0.9416   -2.6185   -3.0154 C   0  0  0  0  0  0  0  0  0  0  0  0
   -2.8553   -1.1500   -2.8157 C   0  0  0  0  0  0  0  0  0  0  0  0
   -2.3254   -2.4230   -3.0470 C   0  0  0  0  0  0  0  0  0  0  0  0
   -1.3550    0.9828   -0.2866 H   0  0  0  0  0  0  0  0  0  0  0  0
    1.1326   -0.1314   -0.4729 H   0  0  0  0  0  0  0  0  0  0  0  0
    1.2001    0.8129   -2.8295 H   0  0  0  0  0  0  0  0  0  0  0  0
   -0.1745    1.8410   -2.4279 H   0  0  0  0  0  0  0  0  0  0  0  0
    0.9849   -1.7070   -2.7228 H   0  0  0  0  0  0  0  0  0  0  0  0
   -2.4273    0.9107   -2.3820 H   0  0  0  0  0  0  0  0  0  0  0  0
   -0.5279   -3.6060   -3.1994 H   0  0  0  0  0  0  0  0  0  0  0  0
   -3.9305   -0.9979   -2.8499 H   0  0  0  0  0  0  0  0  0  0  0  0
   -2.9872   -3.2588   -3.2556 H   0  0  0  0  0  0  0  0  0  0  0  0
    1.6233    3.2205   -0.4302 N   0  0  0  0  0  0  0  0  0  0  0  0
    2.6320    4.2107   -0.0266 C   0  0  2  0  0  0  0  0  0  0  0  0
    2.8616    4.1899    1.5036 C   0  0  0  0  0  0  0  0  0  0  0  0
    2.5241    5.1291    2.2158 O   0  0  0  0  0  0  0  0  0  0  0  0
    2.1733    5.5779   -0.5472 C   0  0  0  0  0  0  0  0  0  0  0  0
    0.6466    3.4661   -0.3015 H   0  0  0  0  0  0  0  0  0  0  0  0
    3.5917    3.9799   -0.5012 H   0  0  0  0  0  0  0  0  0  0  0  0
    1.2156    5.8615   -0.0993 H   0  0  0  0  0  0  0  0  0  0  0  0
    2.9127    6.3451   -0.2964 H   0  0  0  0  0  0  0  0  0  0  0  0
    2.0577    5.5523   -1.6349 H   0  0  0  0  0  0  0  0  0  0  0  0
    3.3961    3.0555    2.0807 N   0  0  0  0  0  0  0  0  0  0  0  0
    3.4179    2.8267    3.5178 C   0  0  0  0  0  0  0  0  0  0  0  0
    3.4893    2.2492    1.4581 H   0  0  0  0  0  0  0  0  0  0  0  0
    3.9757    3.6207    4.0249 H   0  0  0  0  0  0  0  0  0  0  0  0
    2.3980    2.7999    3.9151 H   0  0  0  0  0  0  0  0  0  0  0  0
    3.9011    1.8701    3.7382 H   0  0  0  0  0  0  0  0  0  0  0  0
  1  2  2  0  0  0  0
  1  3  1  0  0  0  0
  1  7  1  0  0  0  0
  3  4  1  0  0  0  0
  3  5  1  0  0  0  0
  3  6  1  0  0  0  0
  7  8  1  0  0  0  0
  7 12  1  0  0  0  0
  8  9  1  0  0  0  0
  8 11  1  0  0  0  0
  8 13  1  0  0  0  0
  9 10  2  0  0  0  0
  9 17  1  0  0  0  0
 11 14  1  0  0  0  0
 11 15  1  0  0  0  0
 11 16  1  0  0  0  0
 17 18  1  0  0  0  0
 17 28  1  0  0  0  0
 18 19  1  0  0  0  0
 18 21  1  0  0  0  0
 18 29  1  0  0  0  0
 19 20  2  0  0  0  0
 19 37  1  0  0  0  0
 21 22  1  0  0  0  0
 21 30  1  0  0  0  0
 21 31  1  0  0  0  0
 22 23  1  0  0  0  0
 22 24  2  0  0  0  0
 23 25  2  0  0  0  0
 23 32  1  0  0  0  0
 24 26  1  0  0  0  0
 24 33  1  0  0  0  0
 25 27  1  0  0  0  0
 25 34  1  0  0  0  0
 26 27  2  0  0  0  0
 26 35  1  0  0  0  0
 27 36  1  0  0  0  0
 37 38  1  0  0  0  0
 37 42  1  0  0  0  0
 38 39  1  0  0  0  0
 38 41  1  0  0  0  0
 38 43  1  0  0  0  0
 39 40  2  0  0  0  0
 39 47  1  0  0  0  0
 41 44  1  0  0  0  0
 41 45  1  0  0  0  0
 41 46  1  0  0  0  0
 47 48  1  0  0  0  0
 47 49  1  0  0  0  0
 48 50  1  0  0  0  0
 48 51  1  0  0  0  0
 48 52  1  0  0  0  0
M  END
$$$$

  -OEChem-05262217163D

 52 52  0     1  0  0  0  0  0999 V2000
   -2.5812    0.1633    4.5331 C   0  0  0  0  0  0  0  0  0  0  0  0
   -3.6792   -0.1143    4.0769 O   0  0  0  0  0  0  0  0  0  0  0  0
   -2.2260   -0.2204    5.9574 C   0  0  0  0  0  0  0  0  0  0  0  0
   -3.0667   -0.7360    6.4303 H   0  0  0  0  0  0  0  0  0  0  0  0
   -1.3589   -0.8852    5.9599 H   0  0  0  0  0  0  0  0  0  0  0  0
   -1.9914    0.6755    6.5375 H   0  0  0  0  0  0  0  0  0  0  0  0
   -1.6588    0.8213    3.7475 N   0  0  0  0  0  0  0  0  0  0  0  0
   -1.8498    1.1233    2.3232 C   0  0  2  0  0  0  0  0  0  0  0  0
   -0.5155    1.1028    1.5498 C   0  0  0  0  0  0  0  0  0  0  0  0
    0.5494    1.0772    2.1537 O   0  0  0  0  0  0  0  0  0  0  0  0
   -2.5171    2.4975    2.2078 C   0  0  0  0  0  0  0  0  0  0  0  0
   -0.7174    0.9345    4.1231 H   0  0  0  0  0  0  0  0  0  0  0  0
   -2.4998    0.3672    1.8696 H   0  0  0  0  0  0  0  0  0  0  0  0
   -1.8773    3.2719    2.6437 H   0  0  0  0  0  0  0  0  0  0  0  0
   -2.7065    2.7484    1.1599 H   0  0  0  0  0  0  0  0  0  0  0  0
   -3.4745    2.4983    2.7389 H   0  0  0  0  0  0  0  0  0  0  0  0
   -0.5089    1.1204    0.1656 N   0  0  0  0  0  0  0  0  0  0  0  0
    0.7030    0.9143   -0.6511 C   0  0  2  0  0  0  0  0  0  0  0  0
    1.8191    1.9499   -0.4011 C   0  0  0  0  0  0  0  0  0  0  0  0
    2.9905    1.6500   -0.5958 O   0  0  0  0  0  0  0  0  0  0  0  0
    0.3062    0.9603   -2.1355 C   0  0  0  0  0  0  0  0  0  0  0  0
   -0.5672   -0.2189   -2.4901 C   0  0  0  0  0  0  0  0  0  0  0  0
    0.0083   -1.4699   -2.7561 C   0  0  0  0  0  0  0  0  0  0  0  0
   -1.9622   -0.0791   -2.5660 C   0  0  0  0  0  0  0  0  0  0  0  0
   -0.7977   -2.5691   -3.0711 C   0  0  0  0  0  0  0  0  0  0  0  0
   -2.7686   -1.1778   -2.8823 C   0  0  0  0  0  0  0  0  0  0  0  0
   -2.1868   -2.4241   -3.1315 C   0  0  0  0  0  0  0  0  0  0  0  0
   -1.4038    0.9451   -0.2849 H   0  0  0  0  0  0  0  0  0  0  0  0
    1.1273   -0.0692   -0.4199 H   0  0  0  0  0  0  0  0  0  0  0  0
    1.2080    0.9324   -2.7572 H   0  0  0  0  0  0  0  0  0  0  0  0
   -0.2095    1.9005   -2.3571 H   0  0  0  0  0  0  0  0  0  0  0  0
    1.0868   -1.5944   -2.7123 H   0  0  0  0  0  0  0  0  0  0  0  0
   -2.4291    0.8849   -2.3887 H   0  0  0  0  0  0  0  0  0  0  0  0
   -0.3436   -3.5358   -3.2695 H   0  0  0  0  0  0  0  0  0  0  0  0
   -3.8475   -1.0642   -2.9394 H   0  0  0  0  0  0  0  0  0  0  0  0
   -2.8128   -3.2774   -3.3775 H   0  0  0  0  0  0  0  0  0  0  0  0
    1.5071    3.2395   -0.0109 N   0  0  0  0  0  0  0  0  0  0  0  0
    2.5162    4.2274    0.3963 C   0  0  2  0  0  0  0  0  0  0  0  0
    3.0573    3.9446    1.8186 C   0  0  0  0  0  0  0  0  0  0  0  0
    2.8534    4.7168    2.7488 O   0  0  0  0  0  0  0  0  0  0  0  0
    1.8792    5.6159    0.2614 C   0  0  0  0  0  0  0  0  0  0  0  0
    0.5595    3.3676    0.3305 H   0  0  0  0  0  0  0  0  0  0  0  0
    3.3708    4.1853   -0.2872 H   0  0  0  0  0  0  0  0  0  0  0  0
    1.0144    5.7105    0.9258 H   0  0  0  0  0  0  0  0  0  0  0  0
    2.6042    6.3924    0.5255 H   0  0  0  0  0  0  0  0  0  0  0  0
    1.5511    5.7853   -0.7685 H   0  0  0  0  0  0  0  0  0  0  0  0
    3.7617    2.7785    2.0434 N   0  0  0  0  0  0  0  0  0  0  0  0
    4.1325    2.3098    3.3709 C   0  0  0  0  0  0  0  0  0  0  0  0
    3.7722    2.1143    1.2656 H   0  0  0  0  0  0  0  0  0  0  0  0
    4.6993    3.0786    3.9068 H   0  0  0  0  0  0  0  0  0  0  0  0
    3.2372    2.0610    3.9501 H   0  0  0  0  0  0  0  0  0  0  0  0
    4.7573    1.4149    3.2930 H   0  0  0  0  0  0  0  0  0  0  0  0
  1  2  2  0  0  0  0
  1  3  1  0  0  0  0
  1  7  1  0  0  0  0
  3  4  1  0  0  0  0
  3  5  1  0  0  0  0
  3  6  1  0  0  0  0
  7  8  1  0  0  0  0
  7 12  1  0  0  0  0
  8  9  1  0  0  0  0
  8 11  1  0  0  0  0
  8 13  1  0  0  0  0
  9 10  2  0  0  0  0
  9 17  1  0  0  0  0
 11 14  1  0  0  0  0
 11 15  1  0  0  0  0
 11 16  1  0  0  0  0
 17 18  1  0  0  0  0
 17 28  1  0  0  0  0
 18 19  1  0  0  0  0
 18 21  1  0  0  0  0
 18 29  1  0  0  0  0
 19 20  2  0  0  0  0
 19 37  1  0  0  0  0
 21 22  1  0  0  0  0
 21 30  1  0  0  0  0
 21 31  1  0  0  0  0
 22 23  1  0  0  0  0
 22 24  2  0  0  0  0
 23 25  2  0  0  0  0
 23 32  1  0  0  0  0
 24 26  1  0  0  0  0
 24 33  1  0  0  0  0
 25 27  1  0  0  0  0
 25 34  1  0  0  0  0
 26 27  2  0  0  0  0
 26 35  1  0  0  0  0
 27 36  1  0  0  0  0
 37 38  1  0  0  0  0
 37 42  1  0  0  0  0
 38 39  1  0  0  0  0
 38 41  1  0  0  0  0
 38 43  1  0  0  0  0
 39 40  2  0  0  0  0
 39 47  1  0  0  0  0
 41 44  1  0  0  0  0
 41 45  1  0  0  0  0
 41 46  1  0  0  0  0
 47 48  1  0  0  0  0
 47 49  1  0  0  0  0
 48 50  1  0  0  0  0
 48 51  1  0  0  0  0
 48 52  1  0  0  0  0
M  END
$$$$

  -OEChem-05262217163D

 52 52  0     1  0  0  0  0  0999 V2000
   -2.9621   -0.0599    4.3938 C   0  0  0  0  0  0  0  0  0  0  0  0
   -4.0080   -0.3487    3.8341 O   0  0  0  0  0  0  0  0  0  0  0  0
   -2.7008   -0.5294    5.8123 C   0  0  0  0  0  0  0  0  0  0  0  0
   -3.5473   -1.1185    6.1764 H   0  0  0  0  0  0  0  0  0  0  0  0
   -1.8017   -1.1499    5.8414 H   0  0  0  0  0  0  0  0  0  0  0  0
   -2.5625    0.3317    6.4706 H   0  0  0  0  0  0  0  0  0  0  0  0
   -2.0115    0.6868    3.7301 N   0  0  0  0  0  0  0  0  0  0  0  0
   -2.1024    1.0704    2.3154 C   0  0  2  0  0  0  0  0  0  0  0  0
   -0.7137    1.1202    1.6462 C   0  0  0  0  0  0  0  0  0  0  0  0
    0.3015    1.1547    2.3289 O   0  0  0  0  0  0  0  0  0  0  0  0
   -2.7896    2.4366    2.2307 C   0  0  0  0  0  0  0  0  0  0  0  0
   -1.1072    0.8055    4.1862 H   0  0  0  0  0  0  0  0  0  0  0  0
   -2.7001    0.3315    1.7700 H   0  0  0  0  0  0  0  0  0  0  0  0
   -2.2019    3.1947    2.7585 H   0  0  0  0  0  0  0  0  0  0  0  0
   -2.9046    2.7465    1.1877 H   0  0  0  0  0  0  0  0  0  0  0  0
   -3.7841    2.3884    2.6864 H   0  0  0  0  0  0  0  0  0  0  0  0
   -0.6000    1.1481    0.2684 N   0  0  0  0  0  0  0  0  0  0  0  0
    0.6620    0.9475   -0.4736 C   0  0  2  0  0  0  0  0  0  0  0  0
    1.7954    1.9571   -0.1758 C   0  0  0  0  0  0  0  0  0  0  0  0
    2.9186    1.7551   -0.6232 O   0  0  0  0  0  0  0  0  0  0  0  0
    0.3332    0.9976   -1.9766 C   0  0  0  0  0  0  0  0  0  0  0  0
   -0.5183   -0.1829   -2.3768 C   0  0  0  0  0  0  0  0  0  0  0  0
    0.0771   -1.4290   -2.6207 C   0  0  0  0  0  0  0  0  0  0  0  0
   -1.9088   -0.0502   -2.5191 C   0  0  0  0  0  0  0  0  0  0  0  0
   -0.7054   -2.5307   -2.9814 C   0  0  0  0  0  0  0  0  0  0  0  0
   -2.6924   -1.1522   -2.8786 C   0  0  0  0  0  0  0  0  0  0  0  0
   -2.0909   -2.3935   -3.1071 C   0  0  0  0  0  0  0  0  0  0  0  0
   -1.4598    0.9718   -0.2456 H   0  0  0  0  0  0  0  0  0  0  0  0
    1.0623   -0.0412   -0.2244 H   0  0  0  0  0  0  0  0  0  0  0  0
    1.2599    0.9737   -2.5609 H   0  0  0  0  0  0  0  0  0  0  0  0
   -0.1741    1.9377   -2.2183 H   0  0  0  0  0  0  0  0  0  0  0  0
    1.1533   -1.5462   -2.5275 H   0  0  0  0  0  0  0  0  0  0  0  0
   -2.3882    0.9108   -2.3598 H   0  0  0  0  0  0  0  0  0  0  0  0
   -0.2355   -3.4929   -3.1643 H   0  0  0  0  0  0  0  0  0  0  0  0
   -3.7681   -1.0448   -2.9873 H   0  0  0  0  0  0  0  0  0  0  0  0
   -2.6975   -3.2496   -3.3882 H   0  0  0  0  0  0  0  0  0  0  0  0
    1.5484    3.1457    0.4855 N   0  0  0  0  0  0  0  0  0  0  0  0
    2.5802    4.1536    0.7737 C   0  0  2  0  0  0  0  0  0  0  0  0
    3.5038    3.7474    1.9484 C   0  0  0  0  0  0  0  0  0  0  0  0
    3.5968    4.4301    2.9621 O   0  0  0  0  0  0  0  0  0  0  0  0
    1.8558    5.4832    1.0158 C   0  0  0  0  0  0  0  0  0  0  0  0
    0.7235    3.1318    1.0803 H   0  0  0  0  0  0  0  0  0  0  0  0
    3.2215    4.2794   -0.1052 H   0  0  0  0  0  0  0  0  0  0  0  0
    1.2119    5.4153    1.8985 H   0  0  0  0  0  0  0  0  0  0  0  0
    2.5822    6.2862    1.1778 H   0  0  0  0  0  0  0  0  0  0  0  0
    1.2392    5.7453    0.1504 H   0  0  0  0  0  0  0  0  0  0  0  0
    4.2604    2.5977    1.8401 N   0  0  0  0  0  0  0  0  0  0  0  0
    5.1161    2.0826    2.8992 C   0  0  0  0  0  0  0  0  0  0  0  0
    4.1074    2.0370    0.9983 H   0  0  0  0  0  0  0  0  0  0  0  0
    5.8856    2.8162    3.1612 H   0  0  0  0  0  0  0  0  0  0  0  0
    4.5242    1.8564    3.7920 H   0  0  0  0  0  0  0  0  0  0  0  0
    5.6116    1.1646    2.5692 H   0  0  0  0  0  0  0  0  0  0  0  0
  1  2  2  0  0  0  0
  1  3  1  0  0  0  0
  1  7  1  0  0  0  0
  3  4  1  0  0  0  0
  3  5  1  0  0  0  0
  3  6  1  0  0  0  0
  7  8  1  0  0  0  0
  7 12  1  0  0  0  0
  8  9  1  0  0  0  0
  8 11  1  0  0  0  0
  8 13  1  0  0  0  0
  9 10  2  0  0  0  0
  9 17  1  0  0  0  0
 11 14  1  0  0  0  0
 11 15  1  0  0  0  0
 11 16  1  0  0  0  0
 17 18  1  0  0  0  0
 17 28  1  0  0  0  0
 18 19  1  0  0  0  0
 18 21  1  0  0  0  0
 18 29  1  0  0  0  0
 19 20  2  0  0  0  0
 19 37  1  0  0  0  0
 21 22  1  0  0  0  0
 21 30  1  0  0  0  0
 21 31  1  0  0  0  0
 22 23  1  0  0  0  0
 22 24  2  0  0  0  0
 23 25  2  0  0  0  0
 23 32  1  0  0  0  0
 24 26  1  0  0  0  0
 24 33  1  0  0  0  0
 25 27  1  0  0  0  0
 25 34  1  0  0  0  0
 26 27  2  0  0  0  0
 26 35  1  0  0  0  0
 27 36  1  0  0  0  0
 37 38  1  0  0  0  0
 37 42  1  0  0  0  0
 38 39  1  0  0  0  0
 38 41  1  0  0  0  0
 38 43  1  0  0  0  0
 39 40  2  0  0  0  0
 39 47  1  0  0  0  0
 41 44  1  0  0  0  0
 41 45  1  0  0  0  0
 41 46  1  0  0  0  0
 47 48  1  0  0  0  0
 47 49  1  0  0  0  0
 48 50  1  0  0  0  0
 48 51  1  0  0  0  0
 48 52  1  0  0  0  0
M  END
$$$$

  -OEChem-05262217163D

 52 52  0     1  0  0  0  0  0999 V2000
   -3.1432   -0.0883    4.3531 C   0  0  0  0  0  0  0  0  0  0  0  0
   -4.1876   -0.3158    3.7632 O   0  0  0  0  0  0  0  0  0  0  0  0
   -2.9408   -0.5906    5.7702 C   0  0  0  0  0  0  0  0  0  0  0  0
   -3.8601   -1.0529    6.1406 H   0  0  0  0  0  0  0  0  0  0  0  0
   -2.1392   -1.3326    5.7914 H   0  0  0  0  0  0  0  0  0  0  0  0
   -2.6752    0.2406    6.4279 H   0  0  0  0  0  0  0  0  0  0  0  0
   -2.1379    0.6136    3.7222 N   0  0  0  0  0  0  0  0  0  0  0  0
   -2.1729    1.0196    2.3112 C   0  0  2  0  0  0  0  0  0  0  0  0
   -0.7606    1.0563    1.6923 C   0  0  0  0  0  0  0  0  0  0  0  0
    0.2295    1.0580    2.4131 O   0  0  0  0  0  0  0  0  0  0  0  0
   -2.8358    2.3981    2.2208 C   0  0  0  0  0  0  0  0  0  0  0  0
   -1.2439    0.6900    4.2065 H   0  0  0  0  0  0  0  0  0  0  0  0
   -2.7621    0.2972    1.7354 H   0  0  0  0  0  0  0  0  0  0  0  0
   -2.2592    3.1390    2.7841 H   0  0  0  0  0  0  0  0  0  0  0  0
   -2.9031    2.7267    1.1791 H   0  0  0  0  0  0  0  0  0  0  0  0
   -3.8490    2.3589    2.6340 H   0  0  0  0  0  0  0  0  0  0  0  0
   -0.5995    1.1132    0.3202 N   0  0  0  0  0  0  0  0  0  0  0  0
    0.6774    0.9478   -0.4077 C   0  0  2  0  0  0  0  0  0  0  0  0
    1.8025    1.9640   -0.0777 C   0  0  0  0  0  0  0  0  0  0  0  0
    2.8590    1.9242   -0.6984 O   0  0  0  0  0  0  0  0  0  0  0  0
    0.3462    1.0233   -1.9122 C   0  0  0  0  0  0  0  0  0  0  0  0
   -0.4860   -0.1613   -2.3417 C   0  0  0  0  0  0  0  0  0  0  0  0
    0.1260   -1.3933   -2.6145 C   0  0  0  0  0  0  0  0  0  0  0  0
   -1.8773   -0.0419   -2.4894 C   0  0  0  0  0  0  0  0  0  0  0  0
   -0.6412   -2.4950   -3.0072 C   0  0  0  0  0  0  0  0  0  0  0  0
   -2.6453   -1.1435   -2.8814 C   0  0  0  0  0  0  0  0  0  0  0  0
   -2.0276   -2.3711   -3.1379 C   0  0  0  0  0  0  0  0  0  0  0  0
   -1.4479    0.9802   -0.2244 H   0  0  0  0  0  0  0  0  0  0  0  0
    1.0867   -0.0417   -0.1779 H   0  0  0  0  0  0  0  0  0  0  0  0
    1.2698    1.0251   -2.5016 H   0  0  0  0  0  0  0  0  0  0  0  0
   -0.1750    1.9609   -2.1322 H   0  0  0  0  0  0  0  0  0  0  0  0
    1.2030   -1.4998   -2.5182 H   0  0  0  0  0  0  0  0  0  0  0  0
   -2.3702    0.9092   -2.3117 H   0  0  0  0  0  0  0  0  0  0  0  0
   -0.1589   -3.4464   -3.2126 H   0  0  0  0  0  0  0  0  0  0  0  0
   -3.7214   -1.0463   -2.9934 H   0  0  0  0  0  0  0  0  0  0  0  0
   -2.6232   -3.2265   -3.4439 H   0  0  0  0  0  0  0  0  0  0  0  0
    1.6296    2.9750    0.8488 N   0  0  0  0  0  0  0  0  0  0  0  0
    2.6494    3.9842    1.1750 C   0  0  2  0  0  0  0  0  0  0  0  0
    3.7714    3.4364    2.0915 C   0  0  0  0  0  0  0  0  0  0  0  0
    4.0341    3.9544    3.1708 O   0  0  0  0  0  0  0  0  0  0  0  0
    1.9142    5.1828    1.7873 C   0  0  0  0  0  0  0  0  0  0  0  0
    0.9330    2.7628    1.5636 H   0  0  0  0  0  0  0  0  0  0  0  0
    3.1304    4.3258    0.2524 H   0  0  0  0  0  0  0  0  0  0  0  0
    1.4219    4.8961    2.7222 H   0  0  0  0  0  0  0  0  0  0  0  0
    2.6204    5.9914    2.0018 H   0  0  0  0  0  0  0  0  0  0  0  0
    1.1576    5.5608    1.0934 H   0  0  0  0  0  0  0  0  0  0  0  0
    4.5210    2.3574    1.6671 N   0  0  0  0  0  0  0  0  0  0  0  0
    5.6184    1.7751    2.4268 C   0  0  0  0  0  0  0  0  0  0  0  0
    4.2693    1.9633    0.7574 H   0  0  0  0  0  0  0  0  0  0  0  0
    6.4240    2.5054    2.5547 H   0  0  0  0  0  0  0  0  0  0  0  0
    5.2723    1.4539    3.4148 H   0  0  0  0  0  0  0  0  0  0  0  0
    6.0205    0.9037    1.9011 H   0  0  0  0  0  0  0  0  0  0  0  0
  1  2  2  0  0  0  0
  1  3  1  0  0  0  0
  1  7  1  0  0  0  0
  3  4  1  0  0  0  0
  3  5  1  0  0  0  0
  3  6  1  0  0  0  0
  7  8  1  0  0  0  0
  7 12  1  0  0  0  0
  8  9  1  0  0  0  0
  8 11  1  0  0  0  0
  8 13  1  0  0  0  0
  9 10  2  0  0  0  0
  9 17  1  0  0  0  0
 11 14  1  0  0  0  0
 11 15  1  0  0  0  0
 11 16  1  0  0  0  0
 17 18  1  0  0  0  0
 17 28  1  0  0  0  0
 18 19  1  0  0  0  0
 18 21  1  0  0  0  0
 18 29  1  0  0  0  0
 19 20  2  0  0  0  0
 19 37  1  0  0  0  0
 21 22  1  0  0  0  0
 21 30  1  0  0  0  0
 21 31  1  0  0  0  0
 22 23  1  0  0  0  0
 22 24  2  0  0  0  0
 23 25  2  0  0  0  0
 23 32  1  0  0  0  0
 24 26  1  0  0  0  0
 24 33  1  0  0  0  0
 25 27  1  0  0  0  0
 25 34  1  0  0  0  0
 26 27  2  0  0  0  0
 26 35  1  0  0  0  0
 27 36  1  0  0  0  0
 37 38  1  0  0  0  0
 37 42  1  0  0  0  0
 38 39  1  0  0  0  0
 38 41  1  0  0  0  0
 38 43  1  0  0  0  0
 39 40  2  0  0  0  0
 39 47  1  0  0  0  0
 41 44  1  0  0  0  0
 41 45  1  0  0  0  0
 41 46  1  0  0  0  0
 47 48  1  0  0  0  0
 47 49  1  0  0  0  0
 48 50  1  0  0  0  0
 48 51  1  0  0  0  0
 48 52  1  0  0  0  0
M  END
$$$$

  -OEChem-05262217163D

 52 52  0     1  0  0  0  0  0999 V2000
   -3.3049   -0.0777    4.2919 C   0  0  0  0  0  0  0  0  0  0  0  0
   -4.3558   -0.1788    3.6788 O   0  0  0  0  0  0  0  0  0  0  0  0
   -3.1714   -0.6708    5.6818 C   0  0  0  0  0  0  0  0  0  0  0  0
   -4.1413   -1.0366    6.0306 H   0  0  0  0  0  0  0  0  0  0  0  0
   -2.4656   -1.5048    5.6645 H   0  0  0  0  0  0  0  0  0  0  0  0
   -2.8109    0.0885    6.3801 H   0  0  0  0  0  0  0  0  0  0  0  0
   -2.2305    0.5625    3.7111 N   0  0  0  0  0  0  0  0  0  0  0  0
   -2.2055    1.0405    2.3227 C   0  0  2  0  0  0  0  0  0  0  0  0
   -0.7832    0.9942    1.7275 C   0  0  0  0  0  0  0  0  0  0  0  0
    0.1876    0.8658    2.4640 O   0  0  0  0  0  0  0  0  0  0  0  0
   -2.7526    2.4711    2.2929 C   0  0  0  0  0  0  0  0  0  0  0  0
   -1.3403    0.5279    4.2068 H   0  0  0  0  0  0  0  0  0  0  0  0
   -2.8398    0.3980    1.7022 H   0  0  0  0  0  0  0  0  0  0  0  0
   -2.1295    3.1325    2.9036 H   0  0  0  0  0  0  0  0  0  0  0  0
   -2.7710    2.8559    1.2688 H   0  0  0  0  0  0  0  0  0  0  0  0
   -3.7740    2.4948    2.6868 H   0  0  0  0  0  0  0  0  0  0  0  0
   -0.5942    1.0866    0.3606 N   0  0  0  0  0  0  0  0  0  0  0  0
    0.6891    0.9536   -0.3639 C   0  0  2  0  0  0  0  0  0  0  0  0
    1.8057    1.9742   -0.0015 C   0  0  0  0  0  0  0  0  0  0  0  0
    2.7668    2.1254   -0.7480 O   0  0  0  0  0  0  0  0  0  0  0  0
    0.3549    1.0378   -1.8697 C   0  0  0  0  0  0  0  0  0  0  0  0
   -0.4544   -0.1582   -2.3135 C   0  0  0  0  0  0  0  0  0  0  0  0
    0.1807   -1.3754   -2.6009 C   0  0  0  0  0  0  0  0  0  0  0  0
   -1.8478   -0.0644   -2.4591 C   0  0  0  0  0  0  0  0  0  0  0  0
   -0.5660   -2.4871   -3.0057 C   0  0  0  0  0  0  0  0  0  0  0  0
   -2.5952   -1.1760   -2.8623 C   0  0  0  0  0  0  0  0  0  0  0  0
   -1.9548   -2.3888   -3.1327 C   0  0  0  0  0  0  0  0  0  0  0  0
   -1.4393    1.0625   -0.2039 H   0  0  0  0  0  0  0  0  0  0  0  0
    1.1083   -0.0343   -0.1471 H   0  0  0  0  0  0  0  0  0  0  0  0
    1.2763    1.0591   -2.4618 H   0  0  0  0  0  0  0  0  0  0  0  0
   -0.1816    1.9683   -2.0816 H   0  0  0  0  0  0  0  0  0  0  0  0
    1.2596   -1.4622   -2.5071 H   0  0  0  0  0  0  0  0  0  0  0  0
   -2.3587    0.8745   -2.2693 H   0  0  0  0  0  0  0  0  0  0  0  0
   -0.0661   -3.4268   -3.2226 H   0  0  0  0  0  0  0  0  0  0  0  0
   -3.6732   -1.0976   -2.9712 H   0  0  0  0  0  0  0  0  0  0  0  0
   -2.5344   -3.2523   -3.4464 H   0  0  0  0  0  0  0  0  0  0  0  0
    1.7537    2.7591    1.1348 N   0  0  0  0  0  0  0  0  0  0  0  0
    2.7748    3.7455    1.5198 C   0  0  2  0  0  0  0  0  0  0  0  0
    4.0399    3.0943    2.1304 C   0  0  0  0  0  0  0  0  0  0  0  0
    4.4304    3.3723    3.2583 O   0  0  0  0  0  0  0  0  0  0  0  0
    2.0995    4.7413    2.4706 C   0  0  0  0  0  0  0  0  0  0  0  0
    1.1445    2.3961    1.8707 H   0  0  0  0  0  0  0  0  0  0  0  0
    3.0980    4.2996    0.6326 H   0  0  0  0  0  0  0  0  0  0  0  0
    1.7659    4.2356    3.3825 H   0  0  0  0  0  0  0  0  0  0  0  0
    2.8006    5.5338    2.7507 H   0  0  0  0  0  0  0  0  0  0  0  0
    1.2331    5.2020    1.9869 H   0  0  0  0  0  0  0  0  0  0  0  0
    4.7632    2.1938    1.3739 N   0  0  0  0  0  0  0  0  0  0  0  0
    5.9679    1.5198    1.8372 C   0  0  0  0  0  0  0  0  0  0  0  0
    4.3927    1.9873    0.4429 H   0  0  0  0  0  0  0  0  0  0  0  0
    6.7549    2.2495    2.0535 H   0  0  0  0  0  0  0  0  0  0  0  0
    5.7595    0.9450    2.7456 H   0  0  0  0  0  0  0  0  0  0  0  0
    6.3342    0.8319    1.0693 H   0  0  0  0  0  0  0  0  0  0  0  0
  1  2  2  0  0  0  0
  1  3  1  0  0  0  0
  1  7  1  0  0  0  0
  3  4  1  0  0  0  0
  3  5  1  0  0  0  0
  3  6  1  0  0  0  0
  7  8  1  0  0  0  0
  7 12  1  0  0  0  0
  8  9  1  0  0  0  0
  8 11  1  0  0  0  0
  8 13  1  0  0  0  0
  9 10  2  0  0  0  0
  9 17  1  0  0  0  0
 11 14  1  0  0  0  0
 11 15  1  0  0  0  0
 11 16  1  0  0  0  0
 17 18  1  0  0  0  0
 17 28  1  0  0  0  0
 18 19  1  0  0  0  0
 18 21  1  0  0  0  0
 18 29  1  0  0  0  0
 19 20  2  0  0  0  0
 19 37  1  0  0  0  0
 21 22  1  0  0  0  0
 21 30  1  0  0  0  0
 21 31  1  0  0  0  0
 22 23  1  0  0  0  0
 22 24  2  0  0  0  0
 23 25  2  0  0  0  0
 23 32  1  0  0  0  0
 24 26  1  0  0  0  0
 24 33  1  0  0  0  0
 25 27  1  0  0  0  0
 25 34  1  0  0  0  0
 26 27  2  0  0  0  0
 26 35  1  0  0  0  0
 27 36  1  0  0  0  0
 37 38  1  0  0  0  0
 37 42  1  0  0  0  0
 38 39  1  0  0  0  0
 38 41  1  0  0  0  0
 38 43  1  0  0  0  0
 39 40  2  0  0  0  0
 39 47  1  0  0  0  0
 41 44  1  0  0  0  0
 41 45  1  0  0  0  0
 41 46  1  0  0  0  0
 47 48  1  0  0  0  0
 47 49  1  0  0  0  0
 48 50  1  0  0  0  0
 48 51  1  0  0  0  0
 48 52  1  0  0  0  0
M  END
$$$$

  -OEChem-05262217163D

 52 52  0     1  0  0  0  0  0999 V2000
   -3.4394   -0.0078    4.2695 C   0  0  0  0  0  0  0  0  0  0  0  0
   -4.4936    0.0412    3.6558 O   0  0  0  0  0  0  0  0  0  0  0  0
   -3.3821   -0.6584    5.6388 C   0  0  0  0  0  0  0  0  0  0  0  0
   -4.3783   -0.9965    5.9377 H   0  0  0  0  0  0  0  0  0  0  0  0
   -2.7103   -1.5199    5.6157 H   0  0  0  0  0  0  0  0  0  0  0  0
   -3.0179    0.0590    6.3781 H   0  0  0  0  0  0  0  0  0  0  0  0
   -2.2951    0.5217    3.7111 N   0  0  0  0  0  0  0  0  0  0  0  0
   -2.2122    1.0609    2.3471 C   0  0  2  0  0  0  0  0  0  0  0  0
   -0.7967    0.9056    1.7535 C   0  0  0  0  0  0  0  0  0  0  0  0
    0.1498    0.6347    2.4842 O   0  0  0  0  0  0  0  0  0  0  0  0
   -2.6138    2.5388    2.3850 C   0  0  0  0  0  0  0  0  0  0  0  0
   -1.4164    0.3649    4.2039 H   0  0  0  0  0  0  0  0  0  0  0  0
   -2.9024    0.5149    1.6944 H   0  0  0  0  0  0  0  0  0  0  0  0
   -1.9325    3.1040    3.0291 H   0  0  0  0  0  0  0  0  0  0  0  0
   -2.5851    2.9717    1.3806 H   0  0  0  0  0  0  0  0  0  0  0  0
   -3.6309    2.6459    2.7755 H   0  0  0  0  0  0  0  0  0  0  0  0
   -0.5908    1.0448    0.3926 N   0  0  0  0  0  0  0  0  0  0  0  0
    0.6958    0.9371   -0.3300 C   0  0  2  0  0  0  0  0  0  0  0  0
    1.8058    1.9497    0.0804 C   0  0  0  0  0  0  0  0  0  0  0  0
    2.6401    2.3241   -0.7368 O   0  0  0  0  0  0  0  0  0  0  0  0
    0.3722    1.0415   -1.8376 C   0  0  0  0  0  0  0  0  0  0  0  0
   -0.4208   -0.1549   -2.3079 C   0  0  0  0  0  0  0  0  0  0  0  0
    0.2309   -1.3601   -2.6097 C   0  0  0  0  0  0  0  0  0  0  0  0
   -1.8134   -0.0741   -2.4661 C   0  0  0  0  0  0  0  0  0  0  0  0
   -0.4980   -2.4725   -3.0435 C   0  0  0  0  0  0  0  0  0  0  0  0
   -2.5430   -1.1863   -2.8995 C   0  0  0  0  0  0  0  0  0  0  0  0
   -1.8859   -2.3865   -3.1861 C   0  0  0  0  0  0  0  0  0  0  0  0
   -1.4260    1.1636   -0.1742 H   0  0  0  0  0  0  0  0  0  0  0  0
    1.1175   -0.0539   -0.1323 H   0  0  0  0  0  0  0  0  0  0  0  0
    1.2976    1.0785   -2.4222 H   0  0  0  0  0  0  0  0  0  0  0  0
   -0.1706    1.9705   -2.0398 H   0  0  0  0  0  0  0  0  0  0  0  0
    1.3094   -1.4374   -2.5057 H   0  0  0  0  0  0  0  0  0  0  0  0
   -2.3372    0.8548   -2.2638 H   0  0  0  0  0  0  0  0  0  0  0  0
    0.0146   -3.4028   -3.2713 H   0  0  0  0  0  0  0  0  0  0  0  0
   -3.6204   -1.1181   -3.0191 H   0  0  0  0  0  0  0  0  0  0  0  0
   -2.4520   -3.2495   -3.5247 H   0  0  0  0  0  0  0  0  0  0  0  0
    1.9077    2.4645    1.3588 N   0  0  0  0  0  0  0  0  0  0  0  0
    2.9393    3.4115    1.8103 C   0  0  2  0  0  0  0  0  0  0  0  0
    4.3066    2.7317    2.0689 C   0  0  0  0  0  0  0  0  0  0  0  0
    4.8611    2.7866    3.1603 O   0  0  0  0  0  0  0  0  0  0  0  0
    2.3837    4.1226    3.0504 C   0  0  0  0  0  0  0  0  0  0  0  0
    1.3628    1.9718    2.0708 H   0  0  0  0  0  0  0  0  0  0  0  0
    3.1014    4.1689    1.0361 H   0  0  0  0  0  0  0  0  0  0  0  0
    2.2095    3.4045    3.8583 H   0  0  0  0  0  0  0  0  0  0  0  0
    3.0927    4.8780    3.4044 H   0  0  0  0  0  0  0  0  0  0  0  0
    1.4386    4.6210    2.8147 H   0  0  0  0  0  0  0  0  0  0  0  0
    4.9328    2.0673    1.0328 N   0  0  0  0  0  0  0  0  0  0  0  0
    6.2257    1.4075    1.1466 C   0  0  0  0  0  0  0  0  0  0  0  0
    4.4332    2.0525    0.1402 H   0  0  0  0  0  0  0  0  0  0  0  0
    7.0028    2.1333    1.4079 H   0  0  0  0  0  0  0  0  0  0  0  0
    6.1927    0.6315    1.9184 H   0  0  0  0  0  0  0  0  0  0  0  0
    6.4949    0.9385    0.1952 H   0  0  0  0  0  0  0  0  0  0  0  0
  1  2  2  0  0  0  0
  1  3  1  0  0  0  0
  1  7  1  0  0  0  0
  3  4  1  0  0  0  0
  3  5  1  0  0  0  0
  3  6  1  0  0  0  0
  7  8  1  0  0  0  0
  7 12  1  0  0  0  0
  8  9  1  0  0  0  0
  8 11  1  0  0  0  0
  8 13  1  0  0  0  0
  9 10  2  0  0  0  0
  9 17  1  0  0  0  0
 11 14  1  0  0  0  0
 11 15  1  0  0  0  0
 11 16  1  0  0  0  0
 17 18  1  0  0  0  0
 17 28  1  0  0  0  0
 18 19  1  0  0  0  0
 18 21  1  0  0  0  0
 18 29  1  0  0  0  0
 19 20  2  0  0  0  0
 19 37  1  0  0  0  0
 21 22  1  0  0  0  0
 21 30  1  0  0  0  0
 21 31  1  0  0  0  0
 22 23  1  0  0  0  0
 22 24  2  0  0  0  0
 23 25  2  0  0  0  0
 23 32  1  0  0  0  0
 24 26  1  0  0  0  0
 24 33  1  0  0  0  0
 25 27  1  0  0  0  0
 25 34  1  0  0  0  0
 26 27  2  0  0  0  0
 26 35  1  0  0  0  0
 27 36  1  0  0  0  0
 37 38  1  0  0  0  0
 37 42  1  0  0  0  0
 38 39  1  0  0  0  0
 38 41  1  0  0  0  0
 38 43  1  0  0  0  0
 39 40  2  0  0  0  0
 39 47  1  0  0  0  0
 41 44  1  0  0  0  0
 41 45  1  0  0  0  0
 41 46  1  0  0  0  0
 47 48  1  0  0  0  0
 47 49  1  0  0  0  0
 48 50  1  0  0  0  0
 48 51  1  0  0  0  0
 48 52  1  0  0  0  0
M  END
$$$$

  -OEChem-05262217163D

 52 52  0     1  0  0  0  0  0999 V2000
   -3.4702    0.0152    4.2628 C   0  0  0  0  0  0  0  0  0  0  0  0
   -4.5169    0.1550    3.6505 O   0  0  0  0  0  0  0  0  0  0  0  0
   -3.4568   -0.7022    5.5997 C   0  0  0  0  0  0  0  0  0  0  0  0
   -4.4641   -1.0434    5.8547 H   0  0  0  0  0  0  0  0  0  0  0  0
   -2.7932   -1.5691    5.5523 H   0  0  0  0  0  0  0  0  0  0  0  0
   -3.1058   -0.0260    6.3830 H   0  0  0  0  0  0  0  0  0  0  0  0
   -2.2941    0.5028    3.7333 N   0  0  0  0  0  0  0  0  0  0  0  0
   -2.1703    1.0841    2.3899 C   0  0  2  0  0  0  0  0  0  0  0  0
   -0.7804    0.8190    1.7755 C   0  0  0  0  0  0  0  0  0  0  0  0
    0.1378    0.4184    2.4834 O   0  0  0  0  0  0  0  0  0  0  0  0
   -2.4322    2.5902    2.4895 C   0  0  0  0  0  0  0  0  0  0  0  0
   -1.4295    0.2593    4.2148 H   0  0  0  0  0  0  0  0  0  0  0  0
   -2.9130    0.6315    1.7237 H   0  0  0  0  0  0  0  0  0  0  0  0
   -1.6966    3.0640    3.1474 H   0  0  0  0  0  0  0  0  0  0  0  0
   -2.3711    3.0586    1.5025 H   0  0  0  0  0  0  0  0  0  0  0  0
   -3.4322    2.7749    2.8952 H   0  0  0  0  0  0  0  0  0  0  0  0
   -0.5732    0.9920    0.4186 N   0  0  0  0  0  0  0  0  0  0  0  0
    0.7078    0.8664   -0.3096 C   0  0  2  0  0  0  0  0  0  0  0  0
    1.8358    1.8398    0.1413 C   0  0  0  0  0  0  0  0  0  0  0  0
    2.5149    2.4458   -0.6807 O   0  0  0  0  0  0  0  0  0  0  0  0
    0.3994    1.0042   -1.8173 C   0  0  0  0  0  0  0  0  0  0  0  0
   -0.4189   -0.1647   -2.3137 C   0  0  0  0  0  0  0  0  0  0  0  0
    0.2059   -1.3802   -2.6305 C   0  0  0  0  0  0  0  0  0  0  0  0
   -1.8078   -0.0482   -2.4824 C   0  0  0  0  0  0  0  0  0  0  0  0
   -0.5459   -2.4674   -3.0884 C   0  0  0  0  0  0  0  0  0  0  0  0
   -2.5604   -1.1345   -2.9419 C   0  0  0  0  0  0  0  0  0  0  0  0
   -1.9300   -2.3455   -3.2422 C   0  0  0  0  0  0  0  0  0  0  0  0
   -1.3905    1.2471   -0.1287 H   0  0  0  0  0  0  0  0  0  0  0  0
    1.1027   -0.1394   -0.1335 H   0  0  0  0  0  0  0  0  0  0  0  0
    1.3319    1.0298   -2.3914 H   0  0  0  0  0  0  0  0  0  0  0  0
   -0.1198    1.9492   -2.0080 H   0  0  0  0  0  0  0  0  0  0  0  0
    1.2811   -1.4859   -2.5182 H   0  0  0  0  0  0  0  0  0  0  0  0
   -2.3105    0.8891   -2.2660 H   0  0  0  0  0  0  0  0  0  0  0  0
   -0.0539   -3.4063   -3.3260 H   0  0  0  0  0  0  0  0  0  0  0  0
   -3.6345   -1.0376   -3.0707 H   0  0  0  0  0  0  0  0  0  0  0  0
   -2.5133   -3.1892   -3.5999 H   0  0  0  0  0  0  0  0  0  0  0  0
    2.1183    2.0640    1.4741 N   0  0  0  0  0  0  0  0  0  0  0  0
    3.1103    3.0181    1.9922 C   0  0  2  0  0  0  0  0  0  0  0  0
    4.5639    2.4914    1.8981 C   0  0  0  0  0  0  0  0  0  0  0  0
    5.2945    2.4278    2.8799 O   0  0  0  0  0  0  0  0  0  0  0  0
    2.6906    3.3563    3.4281 C   0  0  0  0  0  0  0  0  0  0  0  0
    1.6077    1.4808    2.1425 H   0  0  0  0  0  0  0  0  0  0  0  0
    3.0665    3.9413    1.4051 H   0  0  0  0  0  0  0  0  0  0  0  0
    2.7354    2.4642    4.0613 H   0  0  0  0  0  0  0  0  0  0  0  0
    3.3575    4.1148    3.8503 H   0  0  0  0  0  0  0  0  0  0  0  0
    1.6688    3.7474    3.4456 H   0  0  0  0  0  0  0  0  0  0  0  0
    5.0634    2.1094    0.6689 N   0  0  0  0  0  0  0  0  0  0  0  0
    6.4182    1.6219    0.4512 C   0  0  0  0  0  0  0  0  0  0  0  0
    4.4227    2.1975   -0.1239 H   0  0  0  0  0  0  0  0  0  0  0  0
    7.1496    2.3896    0.7243 H   0  0  0  0  0  0  0  0  0  0  0  0
    6.6049    0.7267    1.0533 H   0  0  0  0  0  0  0  0  0  0  0  0
    6.5618    1.3656   -0.6027 H   0  0  0  0  0  0  0  0  0  0  0  0
  1  2  2  0  0  0  0
  1  3  1  0  0  0  0
  1  7  1  0  0  0  0
  3  4  1  0  0  0  0
  3  5  1  0  0  0  0
  3  6  1  0  0  0  0
  7  8  1  0  0  0  0
  7 12  1  0  0  0  0
  8  9  1  0  0  0  0
  8 11  1  0  0  0  0
  8 13  1  0  0  0  0
  9 10  2  0  0  0  0
  9 17  1  0  0  0  0
 11 14  1  0  0  0  0
 11 15  1  0  0  0  0
 11 16  1  0  0  0  0
 17 18  1  0  0  0  0
 17 28  1  0  0  0  0
 18 19  1  0  0  0  0
 18 21  1  0  0  0  0
 18 29  1  0  0  0  0
 19 20  2  0  0  0  0
 19 37  1  0  0  0  0
 21 22  1  0  0  0  0
 21 30  1  0  0  0  0
 21 31  1  0  0  0  0
 22 23  1  0  0  0  0
 22 24  2  0  0  0  0
 23 25  2  0  0  0  0
 23 32  1  0  0  0  0
 24 26  1  0  0  0  0
 24 33  1  0  0  0  0
 25 27  1  0  0  0  0
 25 34  1  0  0  0  0
 26 27  2  0  0  0  0
 26 35  1  0  0  0  0
 27 36  1  0  0  0  0
 37 38  1  0  0  0  0
 37 42  1  0  0  0  0
 38 39  1  0  0  0  0
 38 41  1  0  0  0  0
 38 43  1  0  0  0  0
 39 40  2  0  0  0  0
 39 47  1  0  0  0  0
 41 44  1  0  0  0  0
 41 45  1  0  0  0  0
 41 46  1  0  0  0  0
 47 48  1  0  0  0  0
 47 49  1  0  0  0  0
 48 50  1  0  0  0  0
 48 51  1  0  0  0  0
 48 52  1  0  0  0  0
M  END
$$$$

  -OEChem-05262217163D

 52 52  0     1  0  0  0  0  0999 V2000
   -3.4860    0.1321    4.2514 C   0  0  0  0  0  0  0  0  0  0  0  0
   -4.5253    0.3201    3.6395 O   0  0  0  0  0  0  0  0  0  0  0  0
   -3.5049   -0.5821    5.5896 C   0  0  0  0  0  0  0  0  0  0  0  0
   -4.5275   -0.8698    5.8489 H   0  0  0  0  0  0  0  0  0  0  0  0
   -2.8876   -1.4824    5.5410 H   0  0  0  0  0  0  0  0  0  0  0  0
   -3.1157    0.0762    6.3704 H   0  0  0  0  0  0  0  0  0  0  0  0
   -2.2878    0.5598    3.7197 N   0  0  0  0  0  0  0  0  0  0  0  0
   -2.1369    1.1260    2.3726 C   0  0  2  0  0  0  0  0  0  0  0  0
   -0.7656    0.7819    1.7558 C   0  0  0  0  0  0  0  0  0  0  0  0
    0.1230    0.3063    2.4559 O   0  0  0  0  0  0  0  0  0  0  0  0
   -2.3169    2.6444    2.4647 C   0  0  0  0  0  0  0  0  0  0  0  0
   -1.4358    0.2700    4.1985 H   0  0  0  0  0  0  0  0  0  0  0  0
   -2.9050    0.7113    1.7104 H   0  0  0  0  0  0  0  0  0  0  0  0
   -1.5510    3.0824    3.1127 H   0  0  0  0  0  0  0  0  0  0  0  0
   -2.2398    3.1029    1.4743 H   0  0  0  0  0  0  0  0  0  0  0  0
   -3.3016    2.8840    2.8791 H   0  0  0  0  0  0  0  0  0  0  0  0
   -0.5438    0.9683    0.4032 N   0  0  0  0  0  0  0  0  0  0  0  0
    0.7386    0.7953   -0.3095 C   0  0  2  0  0  0  0  0  0  0  0  0
    1.8880    1.7163    0.1853 C   0  0  0  0  0  0  0  0  0  0  0  0
    2.4488    2.5001   -0.5733 O   0  0  0  0  0  0  0  0  0  0  0  0
    0.4705    0.9737   -1.8189 C   0  0  0  0  0  0  0  0  0  0  0  0
   -0.3915   -0.1470   -2.3500 C   0  0  0  0  0  0  0  0  0  0  0  0
    0.1826   -1.3853   -2.6738 C   0  0  0  0  0  0  0  0  0  0  0  0
   -1.7713    0.0344   -2.5344 C   0  0  0  0  0  0  0  0  0  0  0  0
   -0.6110   -2.4317   -3.1551 C   0  0  0  0  0  0  0  0  0  0  0  0
   -2.5659   -1.0116   -3.0156 C   0  0  0  0  0  0  0  0  0  0  0  0
   -1.9865   -2.2461   -3.3233 C   0  0  0  0  0  0  0  0  0  0  0  0
   -1.3335    1.3061   -0.1398 H   0  0  0  0  0  0  0  0  0  0  0  0
    1.0876   -0.2300   -0.1467 H   0  0  0  0  0  0  0  0  0  0  0  0
    1.4183    0.9672   -2.3683 H   0  0  0  0  0  0  0  0  0  0  0  0
   -0.0005    1.9446   -2.0037 H   0  0  0  0  0  0  0  0  0  0  0  0
    1.2502   -1.5408   -2.5477 H   0  0  0  0  0  0  0  0  0  0  0  0
   -2.2337    0.9905   -2.3105 H   0  0  0  0  0  0  0  0  0  0  0  0
   -0.1576   -3.3883   -3.3987 H   0  0  0  0  0  0  0  0  0  0  0  0
   -3.6331   -0.8649   -3.1540 H   0  0  0  0  0  0  0  0  0  0  0  0
   -2.6026   -3.0590   -3.6970 H   0  0  0  0  0  0  0  0  0  0  0  0
    2.3338    1.6629    1.4905 N   0  0  0  0  0  0  0  0  0  0  0  0
    3.3333    2.5613    2.0873 C   0  0  2  0  0  0  0  0  0  0  0  0
    4.7881    2.1706    1.7279 C   0  0  0  0  0  0  0  0  0  0  0  0
    5.6365    1.9715    2.5895 O   0  0  0  0  0  0  0  0  0  0  0  0
    3.0757    2.5682    3.5994 C   0  0  0  0  0  0  0  0  0  0  0  0
    1.8134    1.0357    2.1105 H   0  0  0  0  0  0  0  0  0  0  0  0
    3.1750    3.5789    1.7154 H   0  0  0  0  0  0  0  0  0  0  0  0
    3.2407    1.5715    4.0216 H   0  0  0  0  0  0  0  0  0  0  0  0
    3.7517    3.2713    4.0965 H   0  0  0  0  0  0  0  0  0  0  0  0
    2.0458    2.8715    3.8108 H   0  0  0  0  0  0  0  0  0  0  0  0
    5.1513    2.0756    0.3990 N   0  0  0  0  0  0  0  0  0  0  0  0
    6.4938    1.7501   -0.0611 C   0  0  0  0  0  0  0  0  0  0  0  0
    4.4143    2.2686   -0.2839 H   0  0  0  0  0  0  0  0  0  0  0  0
    7.2111    2.4984    0.2915 H   0  0  0  0  0  0  0  0  0  0  0  0
    6.7984    0.7665    0.3113 H   0  0  0  0  0  0  0  0  0  0  0  0
    6.5230    1.7309   -1.1547 H   0  0  0  0  0  0  0  0  0  0  0  0
  1  2  2  0  0  0  0
  1  3  1  0  0  0  0
  1  7  1  0  0  0  0
  3  4  1  0  0  0  0
  3  5  1  0  0  0  0
  3  6  1  0  0  0  0
  7  8  1  0  0  0  0
  7 12  1  0  0  0  0
  8  9  1  0  0  0  0
  8 11  1  0  0  0  0
  8 13  1  0  0  0  0
  9 10  2  0  0  0  0
  9 17  1  0  0  0  0
 11 14  1  0  0  0  0
 11 15  1  0  0  0  0
 11 16  1  0  0  0  0
 17 18  1  0  0  0  0
 17 28  1  0  0  0  0
 18 19  1  0  0  0  0
 18 21  1  0  0  0  0
 18 29  1  0  0  0  0
 19 20  2  0  0  0  0
 19 37  1  0  0  0  0
 21 22  1  0  0  0  0
 21 30  1  0  0  0  0
 21 31  1  0  0  0  0
 22 23  1  0  0  0  0
 22 24  2  0  0  0  0
 23 25  2  0  0  0  0
 23 32  1  0  0  0  0
 24 26  1  0  0  0  0
 24 33  1  0  0  0  0
 25 27  1  0  0  0  0
 25 34  1  0  0  0  0
 26 27  2  0  0  0  0
 26 35  1  0  0  0  0
 27 36  1  0  0  0  0
 37 38  1  0  0  0  0
 37 42  1  0  0  0  0
 38 39  1  0  0  0  0
 38 41  1  0  0  0  0
 38 43  1  0  0  0  0
 39 40  2  0  0  0  0
 39 47  1  0  0  0  0
 41 44  1  0  0  0  0
 41 45  1  0  0  0  0
 41 46  1  0  0  0  0
 47 48  1  0  0  0  0
 47 49  1  0  0  0  0
 48 50  1  0  0  0  0
 48 51  1  0  0  0  0
 48 52  1  0  0  0  0
M  END
$$$$

  -OEChem-05262217163D

 52 52  0     1  0  0  0  0  0999 V2000
   -3.4359    0.1650    4.2759 C   0  0  0  0  0  0  0  0  0  0  0  0
   -4.4745    0.4338    3.6935 O   0  0  0  0  0  0  0  0  0  0  0  0
   -3.4709   -0.5947    5.5886 C   0  0  0  0  0  0  0  0  0  0  0  0
   -4.5053   -0.8072    5.8738 H   0  0  0  0  0  0  0  0  0  0  0  0
   -2.9323   -1.5402    5.4872 H   0  0  0  0  0  0  0  0  0  0  0  0
   -3.0036    0.0006    6.3771 H   0  0  0  0  0  0  0  0  0  0  0  0
   -2.2257    0.5426    3.7337 N   0  0  0  0  0  0  0  0  0  0  0  0
   -2.0679    1.1531    2.4071 C   0  0  2  0  0  0  0  0  0  0  0  0
   -0.7227    0.7698    1.7567 C   0  0  0  0  0  0  0  0  0  0  0  0
    0.1705    0.2667    2.4328 O   0  0  0  0  0  0  0  0  0  0  0  0
   -2.1757    2.6737    2.5583 C   0  0  0  0  0  0  0  0  0  0  0  0
   -1.3812    0.2024    4.1918 H   0  0  0  0  0  0  0  0  0  0  0  0
   -2.8636    0.7994    1.7422 H   0  0  0  0  0  0  0  0  0  0  0  0
   -1.3860    3.0500    3.2165 H   0  0  0  0  0  0  0  0  0  0  0  0
   -2.0830    3.1660    1.5856 H   0  0  0  0  0  0  0  0  0  0  0  0
   -3.1455    2.9437    2.9887 H   0  0  0  0  0  0  0  0  0  0  0  0
   -0.5249    0.9513    0.3995 N   0  0  0  0  0  0  0  0  0  0  0  0
    0.7487    0.7393   -0.3135 C   0  0  2  0  0  0  0  0  0  0  0  0
    1.9042    1.6390    0.1940 C   0  0  0  0  0  0  0  0  0  0  0  0
    2.3347    2.5681   -0.4814 O   0  0  0  0  0  0  0  0  0  0  0  0
    0.5049    0.9331   -1.8237 C   0  0  0  0  0  0  0  0  0  0  0  0
   -0.3891   -0.1523   -2.3741 C   0  0  0  0  0  0  0  0  0  0  0  0
    0.1458   -1.4078   -2.6992 C   0  0  0  0  0  0  0  0  0  0  0  0
   -1.7584    0.0797   -2.5781 C   0  0  0  0  0  0  0  0  0  0  0  0
   -0.6757   -2.4198   -3.2061 C   0  0  0  0  0  0  0  0  0  0  0  0
   -2.5808   -0.9321   -3.0855 C   0  0  0  0  0  0  0  0  0  0  0  0
   -2.0399   -2.1828   -3.3978 C   0  0  0  0  0  0  0  0  0  0  0  0
   -1.3035    1.3336   -0.1300 H   0  0  0  0  0  0  0  0  0  0  0  0
    1.0711   -0.2949   -0.1534 H   0  0  0  0  0  0  0  0  0  0  0  0
    1.4613    0.9006   -2.3573 H   0  0  0  0  0  0  0  0  0  0  0  0
    0.0684    1.9204   -2.0088 H   0  0  0  0  0  0  0  0  0  0  0  0
    1.2047   -1.6030   -2.5567 H   0  0  0  0  0  0  0  0  0  0  0  0
   -2.1910    1.0489   -2.3505 H   0  0  0  0  0  0  0  0  0  0  0  0
   -0.2532   -3.3895   -3.4530 H   0  0  0  0  0  0  0  0  0  0  0  0
   -3.6396   -0.7462   -3.2413 H   0  0  0  0  0  0  0  0  0  0  0  0
   -2.6774   -2.9684   -3.7932 H   0  0  0  0  0  0  0  0  0  0  0  0
    2.5264    1.3618    1.3946 N   0  0  0  0  0  0  0  0  0  0  0  0
    3.5485    2.2146    2.0198 C   0  0  2  0  0  0  0  0  0  0  0  0
    4.9611    1.9952    1.4237 C   0  0  0  0  0  0  0  0  0  0  0  0
    5.9191    1.6898    2.1243 O   0  0  0  0  0  0  0  0  0  0  0  0
    3.4889    1.9472    3.5288 C   0  0  0  0  0  0  0  0  0  0  0  0
    2.0297    0.6947    1.9917 H   0  0  0  0  0  0  0  0  0  0  0  0
    3.2938    3.2672    1.8567 H   0  0  0  0  0  0  0  0  0  0  0  0
    3.7614    0.9094    3.7457 H   0  0  0  0  0  0  0  0  0  0  0  0
    4.1839    2.6061    4.0590 H   0  0  0  0  0  0  0  0  0  0  0  0
    2.4798    2.1311    3.9105 H   0  0  0  0  0  0  0  0  0  0  0  0
    5.1545    2.1747    0.0682 N   0  0  0  0  0  0  0  0  0  0  0  0
    6.4350    2.0098   -0.6056 C   0  0  0  0  0  0  0  0  0  0  0  0
    4.3260    2.4328   -0.4738 H   0  0  0  0  0  0  0  0  0  0  0  0
    7.1739    2.7090   -0.2004 H   0  0  0  0  0  0  0  0  0  0  0  0
    6.8073    0.9881   -0.4759 H   0  0  0  0  0  0  0  0  0  0  0  0
    6.3255    2.2053   -1.6765 H   0  0  0  0  0  0  0  0  0  0  0  0
  1  2  2  0  0  0  0
  1  3  1  0  0  0  0
  1  7  1  0  0  0  0
  3  4  1  0  0  0  0
  3  5  1  0  0  0  0
  3  6  1  0  0  0  0
  7  8  1  0  0  0  0
  7 12  1  0  0  0  0
  8  9  1  0  0  0  0
  8 11  1  0  0  0  0
  8 13  1  0  0  0  0
  9 10  2  0  0  0  0
  9 17  1  0  0  0  0
 11 14  1  0  0  0  0
 11 15  1  0  0  0  0
 11 16  1  0  0  0  0
 17 18  1  0  0  0  0
 17 28  1  0  0  0  0
 18 19  1  0  0  0  0
 18 21  1  0  0  0  0
 18 29  1  0  0  0  0
 19 20  2  0  0  0  0
 19 37  1  0  0  0  0
 21 22  1  0  0  0  0
 21 30  1  0  0  0  0
 21 31  1  0  0  0  0
 22 23  1  0  0  0  0
 22 24  2  0  0  0  0
 23 25  2  0  0  0  0
 23 32  1  0  0  0  0
 24 26  1  0  0  0  0
 24 33  1  0  0  0  0
 25 27  1  0  0  0  0
 25 34  1  0  0  0  0
 26 27  2  0  0  0  0
 26 35  1  0  0  0  0
 27 36  1  0  0  0  0
 37 38  1  0  0  0  0
 37 42  1  0  0  0  0
 38 39  1  0  0  0  0
 38 41  1  0  0  0  0
 38 43  1  0  0  0  0
 39 40  2  0  0  0  0
 39 47  1  0  0  0  0
 41 44  1  0  0  0  0
 41 45  1  0  0  0  0
 41 46  1  0  0  0  0
 47 48  1  0  0  0  0
 47 49  1  0  0  0  0
 48 50  1  0  0  0  0
 48 51  1  0  0  0  0
 48 52  1  0  0  0  0
M  END
$$$$

  -OEChem-05262217163D

 52 52  0     1  0  0  0  0  0999 V2000
   -3.3277    0.2138    4.3515 C   0  0  0  0  0  0  0  0  0  0  0  0
   -4.3804    0.4601    3.7851 O   0  0  0  0  0  0  0  0  0  0  0  0
   -3.3293   -0.4985    5.6907 C   0  0  0  0  0  0  0  0  0  0  0  0
   -4.3522   -0.7572    5.9786 H   0  0  0  0  0  0  0  0  0  0  0  0
   -2.7386   -1.4160    5.6277 H   0  0  0  0  0  0  0  0  0  0  0  0
   -2.9008    0.1508    6.4580 H   0  0  0  0  0  0  0  0  0  0  0  0
   -2.1319    0.5768    3.7689 N   0  0  0  0  0  0  0  0  0  0  0  0
   -2.0082    1.1449    2.4200 C   0  0  2  0  0  0  0  0  0  0  0  0
   -0.6927    0.7204    1.7360 C   0  0  0  0  0  0  0  0  0  0  0  0
    0.2059    0.1904    2.3858 O   0  0  0  0  0  0  0  0  0  0  0  0
   -2.0869    2.6705    2.5310 C   0  0  0  0  0  0  0  0  0  0  0  0
   -1.2758    0.2526    4.2167 H   0  0  0  0  0  0  0  0  0  0  0  0
   -2.8306    0.7857    1.7919 H   0  0  0  0  0  0  0  0  0  0  0  0
   -1.2664    3.0523    3.1470 H   0  0  0  0  0  0  0  0  0  0  0  0
   -2.0247    3.1334    1.5416 H   0  0  0  0  0  0  0  0  0  0  0  0
   -3.0351    2.9680    2.9903 H   0  0  0  0  0  0  0  0  0  0  0  0
   -0.5169    0.9091    0.3770 N   0  0  0  0  0  0  0  0  0  0  0  0
    0.7492    0.6636   -0.3323 C   0  0  2  0  0  0  0  0  0  0  0  0
    1.9048    1.5416    0.2036 C   0  0  0  0  0  0  0  0  0  0  0  0
    2.1967    2.6061   -0.3315 O   0  0  0  0  0  0  0  0  0  0  0  0
    0.5346    0.8913   -1.8414 C   0  0  0  0  0  0  0  0  0  0  0  0
   -0.3915   -0.1486   -2.4265 C   0  0  0  0  0  0  0  0  0  0  0  0
    0.0991   -1.4180   -2.7679 C   0  0  0  0  0  0  0  0  0  0  0  0
   -1.7467    0.1412   -2.6502 C   0  0  0  0  0  0  0  0  0  0  0  0
   -0.7528   -2.3871   -3.3081 C   0  0  0  0  0  0  0  0  0  0  0  0
   -2.5996   -0.8275   -3.1908 C   0  0  0  0  0  0  0  0  0  0  0  0
   -2.1032   -2.0928   -3.5180 C   0  0  0  0  0  0  0  0  0  0  0  0
   -1.2781    1.3445   -0.1362 H   0  0  0  0  0  0  0  0  0  0  0  0
    1.0440   -0.3807   -0.1852 H   0  0  0  0  0  0  0  0  0  0  0  0
    1.4984    0.8361   -2.3588 H   0  0  0  0  0  0  0  0  0  0  0  0
    0.1349    1.8962   -2.0147 H   0  0  0  0  0  0  0  0  0  0  0  0
    1.1469   -1.6578   -2.6127 H   0  0  0  0  0  0  0  0  0  0  0  0
   -2.1444    1.1228   -2.4126 H   0  0  0  0  0  0  0  0  0  0  0  0
   -0.3649   -3.3680   -3.5665 H   0  0  0  0  0  0  0  0  0  0  0  0
   -3.6474   -0.5968   -3.3611 H   0  0  0  0  0  0  0  0  0  0  0  0
   -2.7644   -2.8450   -3.9389 H   0  0  0  0  0  0  0  0  0  0  0  0
    2.6938    1.0758    1.2369 N   0  0  0  0  0  0  0  0  0  0  0  0
    3.7481    1.8680    1.8894 C   0  0  2  0  0  0  0  0  0  0  0  0
    5.0759    1.8815    1.0915 C   0  0  0  0  0  0  0  0  0  0  0  0
    6.1375    1.5328    1.5950 O   0  0  0  0  0  0  0  0  0  0  0  0
    3.9149    1.3064    3.3070 C   0  0  0  0  0  0  0  0  0  0  0  0
    2.2654    0.3266    1.7841 H   0  0  0  0  0  0  0  0  0  0  0  0
    3.4187    2.9083    1.9789 H   0  0  0  0  0  0  0  0  0  0  0  0
    4.2601    0.2680    3.2704 H   0  0  0  0  0  0  0  0  0  0  0  0
    4.6495    1.8956    3.8651 H   0  0  0  0  0  0  0  0  0  0  0  0
    2.9637    1.3410    3.8469 H   0  0  0  0  0  0  0  0  0  0  0  0
    5.0730    2.3285   -0.2150 N   0  0  0  0  0  0  0  0  0  0  0  0
    6.2616    2.4243   -1.0505 C   0  0  0  0  0  0  0  0  0  0  0  0
    4.1667    2.6235   -0.5875 H   0  0  0  0  0  0  0  0  0  0  0  0
    6.9820    3.1222   -0.6112 H   0  0  0  0  0  0  0  0  0  0  0  0
    6.7374    1.4436   -1.1539 H   0  0  0  0  0  0  0  0  0  0  0  0
    5.9929    2.7854   -2.0478 H   0  0  0  0  0  0  0  0  0  0  0  0
  1  2  2  0  0  0  0
  1  3  1  0  0  0  0
  1  7  1  0  0  0  0
  3  4  1  0  0  0  0
  3  5  1  0  0  0  0
  3  6  1  0  0  0  0
  7  8  1  0  0  0  0
  7 12  1  0  0  0  0
  8  9  1  0  0  0  0
  8 11  1  0  0  0  0
  8 13  1  0  0  0  0
  9 10  2  0  0  0  0
  9 17  1  0  0  0  0
 11 14  1  0  0  0  0
 11 15  1  0  0  0  0
 11 16  1  0  0  0  0
 17 18  1  0  0  0  0
 17 28  1  0  0  0  0
 18 19  1  0  0  0  0
 18 21  1  0  0  0  0
 18 29  1  0  0  0  0
 19 20  2  0  0  0  0
 19 37  1  0  0  0  0
 21 22  1  0  0  0  0
 21 30  1  0  0  0  0
 21 31  1  0  0  0  0
 22 23  1  0  0  0  0
 22 24  2  0  0  0  0
 23 25  2  0  0  0  0
 23 32  1  0  0  0  0
 24 26  1  0  0  0  0
 24 33  1  0  0  0  0
 25 27  1  0  0  0  0
 25 34  1  0  0  0  0
 26 27  2  0  0  0  0
 26 35  1  0  0  0  0
 27 36  1  0  0  0  0
 37 38  1  0  0  0  0
 37 42  1  0  0  0  0
 38 39  1  0  0  0  0
 38 41  1  0  0  0  0
 38 43  1  0  0  0  0
 39 40  2  0  0  0  0
 39 47  1  0  0  0  0
 41 44  1  0  0  0  0
 41 45  1  0  0  0  0
 41 46  1  0  0  0  0
 47 48  1  0  0  0  0
 47 49  1  0  0  0  0
 48 50  1  0  0  0  0
 48 51  1  0  0  0  0
 48 52  1  0  0  0  0
M  END
$$$$

  -OEChem-05262217163D

 52 52  0     1  0  0  0  0  0999 V2000
   -3.2436    0.2880    4.4145 C   0  0  0  0  0  0  0  0  0  0  0  0
   -4.2994    0.5951    3.8844 O   0  0  0  0  0  0  0  0  0  0  0  0
   -3.2417   -0.4178    5.7579 C   0  0  0  0  0  0  0  0  0  0  0  0
   -4.2677   -0.6047    6.0870 H   0  0  0  0  0  0  0  0  0  0  0  0
   -2.7189   -1.3740    5.6782 H   0  0  0  0  0  0  0  0  0  0  0  0
   -2.7401    0.2026    6.5049 H   0  0  0  0  0  0  0  0  0  0  0  0
   -2.0494    0.5794    3.7898 N   0  0  0  0  0  0  0  0  0  0  0  0
   -1.9378    1.1481    2.4401 C   0  0  2  0  0  0  0  0  0  0  0  0
   -0.6685    0.6568    1.7143 C   0  0  0  0  0  0  0  0  0  0  0  0
    0.2191    0.0728    2.3322 O   0  0  0  0  0  0  0  0  0  0  0  0
   -1.9289    2.6752    2.5607 C   0  0  0  0  0  0  0  0  0  0  0  0
   -1.1983    0.2036    4.2058 H   0  0  0  0  0  0  0  0  0  0  0  0
   -2.7979    0.8381    1.8362 H   0  0  0  0  0  0  0  0  0  0  0  0
   -1.0758    3.0067    3.1615 H   0  0  0  0  0  0  0  0  0  0  0  0
   -1.8609    3.1405    1.5729 H   0  0  0  0  0  0  0  0  0  0  0  0
   -2.8494    3.0223    3.0410 H   0  0  0  0  0  0  0  0  0  0  0  0
   -0.5138    0.8553    0.3544 N   0  0  0  0  0  0  0  0  0  0  0  0
    0.7432    0.5805   -0.3572 C   0  0  2  0  0  0  0  0  0  0  0  0
    1.9090    1.4313    0.1927 C   0  0  0  0  0  0  0  0  0  0  0  0
    2.0496    2.6010   -0.1500 O   0  0  0  0  0  0  0  0  0  0  0  0
    0.5521    0.8407   -1.8629 C   0  0  0  0  0  0  0  0  0  0  0  0
   -0.4034   -0.1557   -2.4744 C   0  0  0  0  0  0  0  0  0  0  0  0
    0.0459   -1.4354   -2.8333 C   0  0  0  0  0  0  0  0  0  0  0  0
   -1.7458    0.1846   -2.7025 C   0  0  0  0  0  0  0  0  0  0  0  0
   -0.8340   -2.3645   -3.3982 C   0  0  0  0  0  0  0  0  0  0  0  0
   -2.6267   -0.7436   -3.2682 C   0  0  0  0  0  0  0  0  0  0  0  0
   -2.1714   -2.0195   -3.6142 C   0  0  0  0  0  0  0  0  0  0  0  0
   -1.2335    1.3881   -0.1253 H   0  0  0  0  0  0  0  0  0  0  0  0
    1.0069   -0.4735   -0.2223 H   0  0  0  0  0  0  0  0  0  0  0  0
    1.5189    0.7627   -2.3718 H   0  0  0  0  0  0  0  0  0  0  0  0
    0.1873    1.8612   -2.0223 H   0  0  0  0  0  0  0  0  0  0  0  0
    1.0834   -1.7142   -2.6739 H   0  0  0  0  0  0  0  0  0  0  0  0
   -2.1108    1.1744   -2.4476 H   0  0  0  0  0  0  0  0  0  0  0  0
   -0.4775   -3.3534   -3.6710 H   0  0  0  0  0  0  0  0  0  0  0  0
   -3.6643   -0.4730   -3.4422 H   0  0  0  0  0  0  0  0  0  0  0  0
   -2.8549   -2.7405   -4.0534 H   0  0  0  0  0  0  0  0  0  0  0  0
    2.8680    0.8457    0.9960 N   0  0  0  0  0  0  0  0  0  0  0  0
    3.9474    1.5959    1.6564 C   0  0  2  0  0  0  0  0  0  0  0  0
    5.1447    1.8844    0.7174 C   0  0  0  0  0  0  0  0  0  0  0  0
    6.2847    1.5297    0.9939 O   0  0  0  0  0  0  0  0  0  0  0  0
    4.3478    0.7962    2.9022 C   0  0  0  0  0  0  0  0  0  0  0  0
    2.5917   -0.0402    1.4162 H   0  0  0  0  0  0  0  0  0  0  0  0
    3.5640    2.5658    1.9913 H   0  0  0  0  0  0  0  0  0  0  0  0
    4.7551   -0.1797    2.6185 H   0  0  0  0  0  0  0  0  0  0  0  0
    5.1104    1.3372    3.4717 H   0  0  0  0  0  0  0  0  0  0  0  0
    3.4797    0.6400    3.5501 H   0  0  0  0  0  0  0  0  0  0  0  0
    4.9278    2.5839   -0.4529 N   0  0  0  0  0  0  0  0  0  0  0  0
    5.9743    2.9402   -1.4004 C   0  0  0  0  0  0  0  0  0  0  0  0
    3.9613    2.8660   -0.6356 H   0  0  0  0  0  0  0  0  0  0  0  0
    6.7199    3.5836   -0.9219 H   0  0  0  0  0  0  0  0  0  0  0  0
    6.4719    2.0405   -1.7773 H   0  0  0  0  0  0  0  0  0  0  0  0
    5.5452    3.4801   -2.2497 H   0  0  0  0  0  0  0  0  0  0  0  0
  1  2  2  0  0  0  0
  1  3  1  0  0  0  0
  1  7  1  0  0  0  0
  3  4  1  0  0  0  0
  3  5  1  0  0  0  0
  3  6  1  0  0  0  0
  7  8  1  0  0  0  0
  7 12  1  0  0  0  0
  8  9  1  0  0  0  0
  8 11  1  0  0  0  0
  8 13  1  0  0  0  0
  9 10  2  0  0  0  0
  9 17  1  0  0  0  0
 11 14  1  0  0  0  0
 11 15  1  0  0  0  0
 11 16  1  0  0  0  0
 17 18  1  0  0  0  0
 17 28  1  0  0  0  0
 18 19  1  0  0  0  0
 18 21  1  0  0  0  0
 18 29  1  0  0  0  0
 19 20  2  0  0  0  0
 19 37  1  0  0  0  0
 21 22  1  0  0  0  0
 21 30  1  0  0  0  0
 21 31  1  0  0  0  0
 22 23  1  0  0  0  0
 22 24  2  0  0  0  0
 23 25  2  0  0  0  0
 23 32  1  0  0  0  0
 24 26  1  0  0  0  0
 24 33  1  0  0  0  0
 25 27  1  0  0  0  0
 25 34  1  0  0  0  0
 26 27  2  0  0  0  0
 26 35  1  0  0  0  0
 27 36  1  0  0  0  0
 37 38  1  0  0  0  0
 37 42  1  0  0  0  0
 38 39  1  0  0  0  0
 38 41  1  0  0  0  0
 38 43  1  0  0  0  0
 39 40  2  0  0  0  0
 39 47  1  0  0  0  0
 41 44  1  0  0  0  0
 41 45  1  0  0  0  0
 41 46  1  0  0  0  0
 47 48  1  0  0  0  0
 47 49  1  0  0  0  0
 48 50  1  0  0  0  0
 48 51  1  0  0  0  0
 48 52  1  0  0  0  0
M  END
$$$$

  -OEChem-05262217163D

 52 52  0     1  0  0  0  0  0999 V2000
   -3.2029    0.3662    4.4498 C   0  0  0  0  0  0  0  0  0  0  0  0
   -4.2421    0.7565    3.9422 O   0  0  0  0  0  0  0  0  0  0  0  0
   -3.2313   -0.3609    5.7807 C   0  0  0  0  0  0  0  0  0  0  0  0
   -4.2614   -0.4579    6.1345 H   0  0  0  0  0  0  0  0  0  0  0  0
   -2.8011   -1.3592    5.6711 H   0  0  0  0  0  0  0  0  0  0  0  0
   -2.6554    0.1971    6.5228 H   0  0  0  0  0  0  0  0  0  0  0  0
   -2.0000    0.5833    3.8121 N   0  0  0  0  0  0  0  0  0  0  0  0
   -1.8663    1.1680    2.4716 C   0  0  2  0  0  0  0  0  0  0  0  0
   -0.6581    0.5861    1.7099 C   0  0  0  0  0  0  0  0  0  0  0  0
    0.1971   -0.0694    2.3006 O   0  0  0  0  0  0  0  0  0  0  0  0
   -1.7240    2.6859    2.6229 C   0  0  0  0  0  0  0  0  0  0  0  0
   -1.1718    0.1408    4.2080 H   0  0  0  0  0  0  0  0  0  0  0  0
   -2.7607    0.9455    1.8796 H   0  0  0  0  0  0  0  0  0  0  0  0
   -0.8364    2.9302    3.2155 H   0  0  0  0  0  0  0  0  0  0  0  0
   -1.6308    3.1651    1.6437 H   0  0  0  0  0  0  0  0  0  0  0  0
   -2.6037    3.1000    3.1259 H   0  0  0  0  0  0  0  0  0  0  0  0
   -0.5157    0.7973    0.3507 N   0  0  0  0  0  0  0  0  0  0  0  0
    0.7376    0.5085   -0.3614 C   0  0  2  0  0  0  0  0  0  0  0  0
    1.9117    1.3384    0.1976 C   0  0  0  0  0  0  0  0  0  0  0  0
    1.9137    2.5604    0.0842 O   0  0  0  0  0  0  0  0  0  0  0  0
    0.5668    0.8009   -1.8622 C   0  0  0  0  0  0  0  0  0  0  0  0
   -0.4056   -0.1602   -2.5027 C   0  0  0  0  0  0  0  0  0  0  0  0
    0.0147   -1.4436   -2.8839 C   0  0  0  0  0  0  0  0  0  0  0  0
   -1.7381    0.2170   -2.7308 C   0  0  0  0  0  0  0  0  0  0  0  0
   -0.8833   -2.3388   -3.4749 C   0  0  0  0  0  0  0  0  0  0  0  0
   -2.6372   -0.6778   -3.3209 C   0  0  0  0  0  0  0  0  0  0  0  0
   -2.2102   -1.9563   -3.6921 C   0  0  0  0  0  0  0  0  0  0  0  0
   -1.1777    1.4318   -0.0862 H   0  0  0  0  0  0  0  0  0  0  0  0
    0.9815   -0.5518   -0.2378 H   0  0  0  0  0  0  0  0  0  0  0  0
    1.5366    0.7109   -2.3636 H   0  0  0  0  0  0  0  0  0  0  0  0
    0.2273    1.8327   -2.0038 H   0  0  0  0  0  0  0  0  0  0  0  0
    1.0432   -1.7517   -2.7221 H   0  0  0  0  0  0  0  0  0  0  0  0
   -2.0815    1.2091   -2.4544 H   0  0  0  0  0  0  0  0  0  0  0  0
   -0.5499   -3.3307   -3.7659 H   0  0  0  0  0  0  0  0  0  0  0  0
   -3.6671   -0.3787   -3.4935 H   0  0  0  0  0  0  0  0  0  0  0  0
   -2.9080   -2.6505   -4.1516 H   0  0  0  0  0  0  0  0  0  0  0  0
    3.0208    0.7106    0.7313 N   0  0  0  0  0  0  0  0  0  0  0  0
    4.1460    1.4258    1.3529 C   0  0  2  0  0  0  0  0  0  0  0  0
    5.1499    1.9794    0.3120 C   0  0  0  0  0  0  0  0  0  0  0  0
    6.3368    1.6759    0.3324 O   0  0  0  0  0  0  0  0  0  0  0  0
    4.7943    0.4631    2.3552 C   0  0  0  0  0  0  0  0  0  0  0  0
    2.9201   -0.2806    0.9341 H   0  0  0  0  0  0  0  0  0  0  0  0
    3.7648    2.2845    1.9159 H   0  0  0  0  0  0  0  0  0  0  0  0
    5.2082   -0.4093    1.8393 H   0  0  0  0  0  0  0  0  0  0  0  0
    5.6058    0.9647    2.8920 H   0  0  0  0  0  0  0  0  0  0  0  0
    4.0567    0.1214    3.0879 H   0  0  0  0  0  0  0  0  0  0  0  0
    4.6979    2.8497   -0.6601 N   0  0  0  0  0  0  0  0  0  0  0  0
    5.5463    3.4527   -1.6777 C   0  0  0  0  0  0  0  0  0  0  0  0
    3.7012    3.0789   -0.6316 H   0  0  0  0  0  0  0  0  0  0  0  0
    6.3168    4.0748   -1.2107 H   0  0  0  0  0  0  0  0  0  0  0  0
    6.0326    2.6780   -2.2795 H   0  0  0  0  0  0  0  0  0  0  0  0
    4.9477    4.0823   -2.3432 H   0  0  0  0  0  0  0  0  0  0  0  0
  1  2  2  0  0  0  0
  1  3  1  0  0  0  0
  1  7  1  0  0  0  0
  3  4  1  0  0  0  0
  3  5  1  0  0  0  0
  3  6  1  0  0  0  0
  7  8  1  0  0  0  0
  7 12  1  0  0  0  0
  8  9  1  0  0  0  0
  8 11  1  0  0  0  0
  8 13  1  0  0  0  0
  9 10  2  0  0  0  0
  9 17  1  0  0  0  0
 11 14  1  0  0  0  0
 11 15  1  0  0  0  0
 11 16  1  0  0  0  0
 17 18  1  0  0  0  0
 17 28  1  0  0  0  0
 18 19  1  0  0  0  0
 18 21  1  0  0  0  0
 18 29  1  0  0  0  0
 19 20  2  0  0  0  0
 19 37  1  0  0  0  0
 21 22  1  0  0  0  0
 21 30  1  0  0  0  0
 21 31  1  0  0  0  0
 22 23  1  0  0  0  0
 22 24  2  0  0  0  0
 23 25  2  0  0  0  0
 23 32  1  0  0  0  0
 24 26  1  0  0  0  0
 24 33  1  0  0  0  0
 25 27  1  0  0  0  0
 25 34  1  0  0  0  0
 26 27  2  0  0  0  0
 26 35  1  0  0  0  0
 27 36  1  0  0  0  0
 37 38  1  0  0  0  0
 37 42  1  0  0  0  0
 38 39  1  0  0  0  0
 38 41  1  0  0  0  0
 38 43  1  0  0  0  0
 39 40  2  0  0  0  0
 39 47  1  0  0  0  0
 41 44  1  0  0  0  0
 41 45  1  0  0  0  0
 41 46  1  0  0  0  0
 47 48  1  0  0  0  0
 47 49  1  0  0  0  0
 48 50  1  0  0  0  0
 48 51  1  0  0  0  0
 48 52  1  0  0  0  0
M  END
$$$$

  -OEChem-05262217163D

 52 52  0     1  0  0  0  0  0999 V2000
   -3.1775    0.4431    4.4829 C   0  0  0  0  0  0  0  0  0  0  0  0
   -4.1921    0.9167    3.9962 O   0  0  0  0  0  0  0  0  0  0  0  0
   -3.2424   -0.3052    5.8011 C   0  0  0  0  0  0  0  0  0  0  0  0
   -4.2606   -0.2784    6.1995 H   0  0  0  0  0  0  0  0  0  0  0  0
   -2.9481   -1.3468    5.6532 H   0  0  0  0  0  0  0  0  0  0  0  0
   -2.5687    0.1572    6.5263 H   0  0  0  0  0  0  0  0  0  0  0  0
   -1.9701    0.5830    3.8323 N   0  0  0  0  0  0  0  0  0  0  0  0
   -1.8092    1.1816    2.5009 C   0  0  2  0  0  0  0  0  0  0  0  0
   -0.6490    0.5345    1.7170 C   0  0  0  0  0  0  0  0  0  0  0  0
    0.1689   -0.1811    2.2896 O   0  0  0  0  0  0  0  0  0  0  0  0
   -1.5611    2.6832    2.6751 C   0  0  0  0  0  0  0  0  0  0  0  0
   -1.1703    0.0780    4.2115 H   0  0  0  0  0  0  0  0  0  0  0  0
   -2.7224    1.0317    1.9148 H   0  0  0  0  0  0  0  0  0  0  0  0
   -0.6479    2.8554    3.2540 H   0  0  0  0  0  0  0  0  0  0  0  0
   -1.4525    3.1725    1.7023 H   0  0  0  0  0  0  0  0  0  0  0  0
   -2.4010    3.1472    3.2020 H   0  0  0  0  0  0  0  0  0  0  0  0
   -0.5089    0.7573    0.3594 N   0  0  0  0  0  0  0  0  0  0  0  0
    0.7417    0.4531   -0.3525 C   0  0  2  0  0  0  0  0  0  0  0  0
    1.9322    1.2564    0.2111 C   0  0  0  0  0  0  0  0  0  0  0  0
    1.8467    2.4753    0.3285 O   0  0  0  0  0  0  0  0  0  0  0  0
    0.5846    0.7731   -1.8488 C   0  0  0  0  0  0  0  0  0  0  0  0
   -0.4044   -0.1553   -2.5104 C   0  0  0  0  0  0  0  0  0  0  0  0
   -0.0110   -1.4412   -2.9115 C   0  0  0  0  0  0  0  0  0  0  0  0
   -1.7258    0.2565   -2.7401 C   0  0  0  0  0  0  0  0  0  0  0  0
   -0.9256   -2.3039   -3.5253 C   0  0  0  0  0  0  0  0  0  0  0  0
   -2.6412   -0.6051   -3.3537 C   0  0  0  0  0  0  0  0  0  0  0  0
   -2.2414   -1.8861   -3.7459 C   0  0  0  0  0  0  0  0  0  0  0  0
   -1.1214    1.4592   -0.0447 H   0  0  0  0  0  0  0  0  0  0  0  0
    0.9641   -0.6129   -0.2394 H   0  0  0  0  0  0  0  0  0  0  0  0
    1.5538    0.6710   -2.3487 H   0  0  0  0  0  0  0  0  0  0  0  0
    0.2678    1.8140   -1.9741 H   0  0  0  0  0  0  0  0  0  0  0  0
    1.0090   -1.7765   -2.7490 H   0  0  0  0  0  0  0  0  0  0  0  0
   -2.0483    1.2503   -2.4458 H   0  0  0  0  0  0  0  0  0  0  0  0
   -0.6135   -3.2981   -3.8319 H   0  0  0  0  0  0  0  0  0  0  0  0
   -3.6626   -0.2783   -3.5270 H   0  0  0  0  0  0  0  0  0  0  0  0
   -2.9520   -2.5549   -4.2229 H   0  0  0  0  0  0  0  0  0  0  0  0
    3.1472    0.6431    0.4539 N   0  0  0  0  0  0  0  0  0  0  0  0
    4.3301    1.3385    0.9852 C   0  0  2  0  0  0  0  0  0  0  0  0
    5.0916    2.1341   -0.1039 C   0  0  0  0  0  0  0  0  0  0  0  0
    6.2676    1.9109   -0.3654 O   0  0  0  0  0  0  0  0  0  0  0  0
    5.2057    0.2856    1.6759 C   0  0  0  0  0  0  0  0  0  0  0  0
    3.1700   -0.3715    0.4049 H   0  0  0  0  0  0  0  0  0  0  0  0
    4.0160    2.0600    1.7472 H   0  0  0  0  0  0  0  0  0  0  0  0
    5.5554   -0.4597    0.9541 H   0  0  0  0  0  0  0  0  0  0  0  0
    6.0800    0.7603    2.1330 H   0  0  0  0  0  0  0  0  0  0  0  0
    4.6404   -0.2242    2.4621 H   0  0  0  0  0  0  0  0  0  0  0  0
    4.4284    3.1276   -0.7964 N   0  0  0  0  0  0  0  0  0  0  0  0
    5.0389    3.9602   -1.8229 C   0  0  0  0  0  0  0  0  0  0  0  0
    3.4476    3.2741   -0.5439 H   0  0  0  0  0  0  0  0  0  0  0  0
    5.8469    4.5622   -1.3948 H   0  0  0  0  0  0  0  0  0  0  0  0
    5.4476    3.3403   -2.6278 H   0  0  0  0  0  0  0  0  0  0  0  0
    4.2929    4.6361   -2.2518 H   0  0  0  0  0  0  0  0  0  0  0  0
  1  2  2  0  0  0  0
  1  3  1  0  0  0  0
  1  7  1  0  0  0  0
  3  4  1  0  0  0  0
  3  5  1  0  0  0  0
  3  6  1  0  0  0  0
  7  8  1  0  0  0  0
  7 12  1  0  0  0  0
  8  9  1  0  0  0  0
  8 11  1  0  0  0  0
  8 13  1  0  0  0  0
  9 10  2  0  0  0  0
  9 17  1  0  0  0  0
 11 14  1  0  0  0  0
 11 15  1  0  0  0  0
 11 16  1  0  0  0  0
 17 18  1  0  0  0  0
 17 28  1  0  0  0  0
 18 19  1  0  0  0  0
 18 21  1  0  0  0  0
 18 29  1  0  0  0  0
 19 20  2  0  0  0  0
 19 37  1  0  0  0  0
 21 22  1  0  0  0  0
 21 30  1  0  0  0  0
 21 31  1  0  0  0  0
 22 23  1  0  0  0  0
 22 24  2  0  0  0  0
 23 25  2  0  0  0  0
 23 32  1  0  0  0  0
 24 26  1  0  0  0  0
 24 33  1  0  0  0  0
 25 27  1  0  0  0  0
 25 34  1  0  0  0  0
 26 27  2  0  0  0  0
 26 35  1  0  0  0  0
 27 36  1  0  0  0  0
 37 38  1  0  0  0  0
 37 42  1  0  0  0  0
 38 39  1  0  0  0  0
 38 41  1  0  0  0  0
 38 43  1  0  0  0  0
 39 40  2  0  0  0  0
 39 47  1  0  0  0  0
 41 44  1  0  0  0  0
 41 45  1  0  0  0  0
 41 46  1  0  0  0  0
 47 48  1  0  0  0  0
 47 49  1  0  0  0  0
 48 50  1  0  0  0  0
 48 51  1  0  0  0  0
 48 52  1  0  0  0  0
M  END
$$$$

  -OEChem-05262217163D

 52 52  0     1  0  0  0  0  0999 V2000
   -3.0893    0.5134    4.5162 C   0  0  0  0  0  0  0  0  0  0  0  0
   -4.0984    1.0182    4.0499 O   0  0  0  0  0  0  0  0  0  0  0  0
   -3.1559   -0.2571    5.8213 C   0  0  0  0  0  0  0  0  0  0  0  0
   -4.1882   -0.3031    6.1794 H   0  0  0  0  0  0  0  0  0  0  0  0
   -2.7892   -1.2756    5.6726 H   0  0  0  0  0  0  0  0  0  0  0  0
   -2.5415    0.2370    6.5779 H   0  0  0  0  0  0  0  0  0  0  0  0
   -1.8871    0.6330    3.8525 N   0  0  0  0  0  0  0  0  0  0  0  0
   -1.7350    1.2147    2.5125 C   0  0  2  0  0  0  0  0  0  0  0  0
   -0.6429    0.4924    1.6978 C   0  0  0  0  0  0  0  0  0  0  0  0
    0.1356   -0.2833    2.2470 O   0  0  0  0  0  0  0  0  0  0  0  0
   -1.3886    2.6987    2.6695 C   0  0  0  0  0  0  0  0  0  0  0  0
   -1.1013    0.0907    4.2090 H   0  0  0  0  0  0  0  0  0  0  0  0
   -2.6729    1.1184    1.9549 H   0  0  0  0  0  0  0  0  0  0  0  0
   -0.4406    2.8161    3.2045 H   0  0  0  0  0  0  0  0  0  0  0  0
   -1.2952    3.1793    1.6909 H   0  0  0  0  0  0  0  0  0  0  0  0
   -2.1734    3.2136    3.2327 H   0  0  0  0  0  0  0  0  0  0  0  0
   -0.5127    0.7254    0.3408 N   0  0  0  0  0  0  0  0  0  0  0  0
    0.7328    0.4053   -0.3743 C   0  0  2  0  0  0  0  0  0  0  0  0
    1.9418    1.1835    0.1878 C   0  0  0  0  0  0  0  0  0  0  0  0
    1.8128    2.3534    0.5386 O   0  0  0  0  0  0  0  0  0  0  0  0
    0.5745    0.7468   -1.8656 C   0  0  0  0  0  0  0  0  0  0  0  0
   -0.4340   -0.1550   -2.5350 C   0  0  0  0  0  0  0  0  0  0  0  0
   -0.0659   -1.4424   -2.9547 C   0  0  0  0  0  0  0  0  0  0  0  0
   -1.7495    0.2825   -2.7516 C   0  0  0  0  0  0  0  0  0  0  0  0
   -0.9989   -2.2812   -3.5738 C   0  0  0  0  0  0  0  0  0  0  0  0
   -2.6840   -0.5561   -3.3685 C   0  0  0  0  0  0  0  0  0  0  0  0
   -2.3090   -1.8386   -3.7796 C   0  0  0  0  0  0  0  0  0  0  0  0
   -1.0864    1.4744   -0.0341 H   0  0  0  0  0  0  0  0  0  0  0  0
    0.9376   -0.6648   -0.2688 H   0  0  0  0  0  0  0  0  0  0  0  0
    1.5392    0.6350   -2.3723 H   0  0  0  0  0  0  0  0  0  0  0  0
    0.2758    1.7949   -1.9749 H   0  0  0  0  0  0  0  0  0  0  0  0
    0.9481   -1.7989   -2.8018 H   0  0  0  0  0  0  0  0  0  0  0  0
   -2.0532    1.2779   -2.4433 H   0  0  0  0  0  0  0  0  0  0  0  0
   -0.7062   -3.2767   -3.8952 H   0  0  0  0  0  0  0  0  0  0  0  0
   -3.7013   -0.2110   -3.5295 H   0  0  0  0  0  0  0  0  0  0  0  0
   -3.0339   -2.4898   -4.2597 H   0  0  0  0  0  0  0  0  0  0  0  0
    3.2129    0.6415    0.1349 N   0  0  0  0  0  0  0  0  0  0  0  0
    4.4235    1.3333    0.6035 C   0  0  2  0  0  0  0  0  0  0  0  0
    4.9545    2.3620   -0.4251 C   0  0  0  0  0  0  0  0  0  0  0  0
    6.0672    2.2585   -0.9270 O   0  0  0  0  0  0  0  0  0  0  0  0
    5.4564    0.2569    0.9601 C   0  0  0  0  0  0  0  0  0  0  0  0
    3.2963   -0.3262   -0.1628 H   0  0  0  0  0  0  0  0  0  0  0  0
    4.1929    1.8875    1.5199 H   0  0  0  0  0  0  0  0  0  0  0  0
    5.7299   -0.3252    0.0741 H   0  0  0  0  0  0  0  0  0  0  0  0
    6.3634    0.7204    1.3618 H   0  0  0  0  0  0  0  0  0  0  0  0
    5.0533   -0.4231    1.7170 H   0  0  0  0  0  0  0  0  0  0  0  0
    4.1511    3.4250   -0.7879 N   0  0  0  0  0  0  0  0  0  0  0  0
    4.5377    4.4582   -1.7386 C   0  0  0  0  0  0  0  0  0  0  0  0
    3.2216    3.4533   -0.3605 H   0  0  0  0  0  0  0  0  0  0  0  0
    5.4086    5.0102   -1.3700 H   0  0  0  0  0  0  0  0  0  0  0  0
    4.7852    4.0144   -2.7085 H   0  0  0  0  0  0  0  0  0  0  0  0
    3.7152    5.1656   -1.8821 H   0  0  0  0  0  0  0  0  0  0  0  0
  1  2  2  0  0  0  0
  1  3  1  0  0  0  0
  1  7  1  0  0  0  0
  3  4  1  0  0  0  0
  3  5  1  0  0  0  0
  3  6  1  0  0  0  0
  7  8  1  0  0  0  0
  7 12  1  0  0  0  0
  8  9  1  0  0  0  0
  8 11  1  0  0  0  0
  8 13  1  0  0  0  0
  9 10  2  0  0  0  0
  9 17  1  0  0  0  0
 11 14  1  0  0  0  0
 11 15  1  0  0  0  0
 11 16  1  0  0  0  0
 17 18  1  0  0  0  0
 17 28  1  0  0  0  0
 18 19  1  0  0  0  0
 18 21  1  0  0  0  0
 18 29  1  0  0  0  0
 19 20  2  0  0  0  0
 19 37  1  0  0  0  0
 21 22  1  0  0  0  0
 21 30  1  0  0  0  0
 21 31  1  0  0  0  0
 22 23  1  0  0  0  0
 22 24  2  0  0  0  0
 23 25  2  0  0  0  0
 23 32  1  0  0  0  0
 24 26  1  0  0  0  0
 24 33  1  0  0  0  0
 25 27  1  0  0  0  0
 25 34  1  0  0  0  0
 26 27  2  0  0  0  0
 26 35  1  0  0  0  0
 27 36  1  0  0  0  0
 37 38  1  0  0  0  0
 37 42  1  0  0  0  0
 38 39  1  0  0  0  0
 38 41  1  0  0  0  0
 38 43  1  0  0  0  0
 39 40  2  0  0  0  0
 39 47  1  0  0  0  0
 41 44  1  0  0  0  0
 41 45  1  0  0  0  0
 41 46  1  0  0  0  0
 47 48  1  0  0  0  0
 47 49  1  0  0  0  0
 48 50  1  0  0  0  0
 48 51  1  0  0  0  0
 48 52  1  0  0  0  0
M  END
$$$$

  -OEChem-05262217163D

 52 52  0     1  0  0  0  0  0999 V2000
   -3.0474    0.5646    4.5362 C   0  0  0  0  0  0  0  0  0  0  0  0
   -4.0171    1.1671    4.1035 O   0  0  0  0  0  0  0  0  0  0  0  0
   -3.1572   -0.2323    5.8224 C   0  0  0  0  0  0  0  0  0  0  0  0
   -4.1615   -0.1330    6.2431 H   0  0  0  0  0  0  0  0  0  0  0  0
   -2.9607   -1.2888    5.6245 H   0  0  0  0  0  0  0  0  0  0  0  0
   -2.4326    0.1356    6.5527 H   0  0  0  0  0  0  0  0  0  0  0  0
   -1.8523    0.5968    3.8501 N   0  0  0  0  0  0  0  0  0  0  0  0
   -1.6678    1.2157    2.5311 C   0  0  2  0  0  0  0  0  0  0  0  0
   -0.6018    0.4754    1.6980 C   0  0  0  0  0  0  0  0  0  0  0  0
    0.1436   -0.3456    2.2266 O   0  0  0  0  0  0  0  0  0  0  0  0
   -1.2600    2.6783    2.7353 C   0  0  0  0  0  0  0  0  0  0  0  0
   -1.1028   -0.0092    4.1818 H   0  0  0  0  0  0  0  0  0  0  0  0
   -2.6070    1.1759    1.9689 H   0  0  0  0  0  0  0  0  0  0  0  0
   -0.3159    2.7381    3.2864 H   0  0  0  0  0  0  0  0  0  0  0  0
   -1.1296    3.1812    1.7725 H   0  0  0  0  0  0  0  0  0  0  0  0
   -2.0304    3.2118    3.3012 H   0  0  0  0  0  0  0  0  0  0  0  0
   -0.4768    0.7211    0.3422 N   0  0  0  0  0  0  0  0  0  0  0  0
    0.7591    0.3838   -0.3833 C   0  0  2  0  0  0  0  0  0  0  0  0
    1.9943    1.1293    0.1728 C   0  0  0  0  0  0  0  0  0  0  0  0
    1.8645    2.2147    0.7332 O   0  0  0  0  0  0  0  0  0  0  0  0
    0.5848    0.7422   -1.8700 C   0  0  0  0  0  0  0  0  0  0  0  0
   -0.4488   -0.1381   -2.5310 C   0  0  0  0  0  0  0  0  0  0  0  0
   -0.1098   -1.4280   -2.9670 C   0  0  0  0  0  0  0  0  0  0  0  0
   -1.7599    0.3240   -2.7252 C   0  0  0  0  0  0  0  0  0  0  0  0
   -1.0672   -2.2458   -3.5768 C   0  0  0  0  0  0  0  0  0  0  0  0
   -2.7181   -0.4928   -3.3349 C   0  0  0  0  0  0  0  0  0  0  0  0
   -2.3721   -1.7788   -3.7599 C   0  0  0  0  0  0  0  0  0  0  0  0
   -1.0253    1.4985   -0.0116 H   0  0  0  0  0  0  0  0  0  0  0  0
    0.9455   -0.6913   -0.2888 H   0  0  0  0  0  0  0  0  0  0  0  0
    1.5375    0.6170   -2.3955 H   0  0  0  0  0  0  0  0  0  0  0  0
    0.3036    1.7963   -1.9664 H   0  0  0  0  0  0  0  0  0  0  0  0
    0.8995   -1.8037   -2.8315 H   0  0  0  0  0  0  0  0  0  0  0  0
   -2.0426    1.3218   -2.4045 H   0  0  0  0  0  0  0  0  0  0  0  0
   -0.7977   -3.2446   -3.9081 H   0  0  0  0  0  0  0  0  0  0  0  0
   -3.7311   -0.1287   -3.4798 H   0  0  0  0  0  0  0  0  0  0  0  0
   -3.1159   -2.4137   -4.2331 H   0  0  0  0  0  0  0  0  0  0  0  0
    3.2709    0.7157   -0.1646 N   0  0  0  0  0  0  0  0  0  0  0  0
    4.4988    1.4391    0.2012 C   0  0  2  0  0  0  0  0  0  0  0  0
    4.7676    2.6506   -0.7250 C   0  0  0  0  0  0  0  0  0  0  0  0
    5.7679    2.7173   -1.4290 O   0  0  0  0  0  0  0  0  0  0  0  0
    5.6475    0.4227    0.2031 C   0  0  0  0  0  0  0  0  0  0  0  0
    3.3603   -0.1503   -0.6876 H   0  0  0  0  0  0  0  0  0  0  0  0
    4.4012    1.8301    1.2199 H   0  0  0  0  0  0  0  0  0  0  0  0
    5.7944    0.0039   -0.7976 H   0  0  0  0  0  0  0  0  0  0  0  0
    6.5791    0.9052    0.5161 H   0  0  0  0  0  0  0  0  0  0  0  0
    5.4330   -0.3947    0.8982 H   0  0  0  0  0  0  0  0  0  0  0  0
    3.8483    3.6796   -0.7673 N   0  0  0  0  0  0  0  0  0  0  0  0
    3.9864    4.8691   -1.5955 C   0  0  0  0  0  0  0  0  0  0  0  0
    3.0147    3.5619   -0.1853 H   0  0  0  0  0  0  0  0  0  0  0  0
    4.8744    5.4384   -1.3015 H   0  0  0  0  0  0  0  0  0  0  0  0
    4.0767    4.5935   -2.6512 H   0  0  0  0  0  0  0  0  0  0  0  0
    3.1084    5.5119   -1.4807 H   0  0  0  0  0  0  0  0  0  0  0  0
  1  2  2  0  0  0  0
  1  3  1  0  0  0  0
  1  7  1  0  0  0  0
  3  4  1  0  0  0  0
  3  5  1  0  0  0  0
  3  6  1  0  0  0  0
  7  8  1  0  0  0  0
  7 12  1  0  0  0  0
  8  9  1  0  0  0  0
  8 11  1  0  0  0  0
  8 13  1  0  0  0  0
  9 10  2  0  0  0  0
  9 17  1  0  0  0  0
 11 14  1  0  0  0  0
 11 15  1  0  0  0  0
 11 16  1  0  0  0  0
 17 18  1  0  0  0  0
 17 28  1  0  0  0  0
 18 19  1  0  0  0  0
 18 21  1  0  0  0  0
 18 29  1  0  0  0  0
 19 20  2  0  0  0  0
 19 37  1  0  0  0  0
 21 22  1  0  0  0  0
 21 30  1  0  0  0  0
 21 31  1  0  0  0  0
 22 23  1  0  0  0  0
 22 24  2  0  0  0  0
 23 25  2  0  0  0  0
 23 32  1  0  0  0  0
 24 26  1  0  0  0  0
 24 33  1  0  0  0  0
 25 27  1  0  0  0  0
 25 34  1  0  0  0  0
 26 27  2  0  0  0  0
 26 35  1  0  0  0  0
 27 36  1  0  0  0  0
 37 38  1  0  0  0  0
 37 42  1  0  0  0  0
 38 39  1  0  0  0  0
 38 41  1  0  0  0  0
 38 43  1  0  0  0  0
 39 40  2  0  0  0  0
 39 47  1  0  0  0  0
 41 44  1  0  0  0  0
 41 45  1  0  0  0  0
 41 46  1  0  0  0  0
 47 48  1  0  0  0  0
 47 49  1  0  0  0  0
 48 50  1  0  0  0  0
 48 51  1  0  0  0  0
 48 52  1  0  0  0  0
M  END
$$$$

  -OEChem-05262217163D

 52 52  0     1  0  0  0  0  0999 V2000
   -3.0531    0.5414    4.5377 C   0  0  0  0  0  0  0  0  0  0  0  0
   -3.9929    1.2019    4.1231 O   0  0  0  0  0  0  0  0  0  0  0  0
   -3.1874   -0.2556    5.8213 C   0  0  0  0  0  0  0  0  0  0  0  0
   -4.1654   -0.0764    6.2763 H   0  0  0  0  0  0  0  0  0  0  0  0
   -3.0867   -1.3226    5.6091 H   0  0  0  0  0  0  0  0  0  0  0  0
   -2.4098    0.0431    6.5284 H   0  0  0  0  0  0  0  0  0  0  0  0
   -1.8684    0.5098    3.8347 N   0  0  0  0  0  0  0  0  0  0  0  0
   -1.6688    1.1244    2.5164 C   0  0  2  0  0  0  0  0  0  0  0  0
   -0.6403    0.3434    1.6729 C   0  0  0  0  0  0  0  0  0  0  0  0
    0.0007   -0.5805    2.1670 O   0  0  0  0  0  0  0  0  0  0  0  0
   -1.2018    2.5690    2.7227 C   0  0  0  0  0  0  0  0  0  0  0  0
   -1.1540   -0.1473    4.1468 H   0  0  0  0  0  0  0  0  0  0  0  0
   -2.6133    1.1240    1.9616 H   0  0  0  0  0  0  0  0  0  0  0  0
   -0.2463    2.5887    3.2570 H   0  0  0  0  0  0  0  0  0  0  0  0
   -1.0717    3.0743    1.7611 H   0  0  0  0  0  0  0  0  0  0  0  0
   -1.9401    3.1264    3.3076 H   0  0  0  0  0  0  0  0  0  0  0  0
   -0.4797    0.6207    0.3261 N   0  0  0  0  0  0  0  0  0  0  0  0
    0.7750    0.3283   -0.3929 C   0  0  2  0  0  0  0  0  0  0  0  0
    2.0719    0.7528    0.3498 C   0  0  0  0  0  0  0  0  0  0  0  0
    2.0379    1.5741    1.2625 O   0  0  0  0  0  0  0  0  0  0  0  0
    0.7104    1.0495   -1.7550 C   0  0  0  0  0  0  0  0  0  0  0  0
   -0.3594    0.4546   -2.6402 C   0  0  0  0  0  0  0  0  0  0  0  0
   -0.1092   -0.7203   -3.3658 C   0  0  0  0  0  0  0  0  0  0  0  0
   -1.6148    1.0720   -2.7570 C   0  0  0  0  0  0  0  0  0  0  0  0
   -1.1009   -1.2764   -4.1812 C   0  0  0  0  0  0  0  0  0  0  0  0
   -2.6070    0.5164   -3.5719 C   0  0  0  0  0  0  0  0  0  0  0  0
   -2.3512   -0.6596   -4.2826 C   0  0  0  0  0  0  0  0  0  0  0  0
   -1.0319    1.3981   -0.0205 H   0  0  0  0  0  0  0  0  0  0  0  0
    0.8379   -0.7529   -0.5525 H   0  0  0  0  0  0  0  0  0  0  0  0
    1.6700    0.9669   -2.2745 H   0  0  0  0  0  0  0  0  0  0  0  0
    0.5257    2.1176   -1.5984 H   0  0  0  0  0  0  0  0  0  0  0  0
    0.8563   -1.2118   -3.2970 H   0  0  0  0  0  0  0  0  0  0  0  0
   -1.8283    1.9891   -2.2171 H   0  0  0  0  0  0  0  0  0  0  0  0
   -0.9008   -2.1886   -4.7358 H   0  0  0  0  0  0  0  0  0  0  0  0
   -3.5767    0.9988   -3.6546 H   0  0  0  0  0  0  0  0  0  0  0  0
   -3.1220   -1.0922   -4.9141 H   0  0  0  0  0  0  0  0  0  0  0  0
    3.3069    0.5200   -0.2328 N   0  0  0  0  0  0  0  0  0  0  0  0
    4.5847    1.0306    0.2900 C   0  0  2  0  0  0  0  0  0  0  0  0
    4.8444    2.5020   -0.1162 C   0  0  0  0  0  0  0  0  0  0  0  0
    5.7922    2.8187   -0.8247 O   0  0  0  0  0  0  0  0  0  0  0  0
    5.6887    0.0775   -0.1854 C   0  0  0  0  0  0  0  0  0  0  0  0
    3.3287   -0.0622   -1.0646 H   0  0  0  0  0  0  0  0  0  0  0  0
    4.5693    0.9982    1.3848 H   0  0  0  0  0  0  0  0  0  0  0  0
    5.7567    0.0789   -1.2782 H   0  0  0  0  0  0  0  0  0  0  0  0
    6.6567    0.3880    0.2210 H   0  0  0  0  0  0  0  0  0  0  0  0
    5.4852   -0.9432    0.1530 H   0  0  0  0  0  0  0  0  0  0  0  0
    3.9754    3.4826    0.3182 N   0  0  0  0  0  0  0  0  0  0  0  0
    4.1036    4.8954   -0.0105 C   0  0  0  0  0  0  0  0  0  0  0  0
    3.1735    3.1606    0.8671 H   0  0  0  0  0  0  0  0  0  0  0  0
    5.0517    5.2913    0.3680 H   0  0  0  0  0  0  0  0  0  0  0  0
    4.0675    5.0416   -1.0950 H   0  0  0  0  0  0  0  0  0  0  0  0
    3.2859    5.4632    0.4436 H   0  0  0  0  0  0  0  0  0  0  0  0
  1  2  2  0  0  0  0
  1  3  1  0  0  0  0
  1  7  1  0  0  0  0
  3  4  1  0  0  0  0
  3  5  1  0  0  0  0
  3  6  1  0  0  0  0
  7  8  1  0  0  0  0
  7 12  1  0  0  0  0
  8  9  1  0  0  0  0
  8 11  1  0  0  0  0
  8 13  1  0  0  0  0
  9 10  2  0  0  0  0
  9 17  1  0  0  0  0
 11 14  1  0  0  0  0
 11 15  1  0  0  0  0
 11 16  1  0  0  0  0
 17 18  1  0  0  0  0
 17 28  1  0  0  0  0
 18 19  1  0  0  0  0
 18 21  1  0  0  0  0
 18 29  1  0  0  0  0
 19 20  2  0  0  0  0
 19 37  1  0  0  0  0
 21 22  1  0  0  0  0
 21 30  1  0  0  0  0
 21 31  1  0  0  0  0
 22 23  1  0  0  0  0
 22 24  2  0  0  0  0
 23 25  2  0  0  0  0
 23 32  1  0  0  0  0
 24 26  1  0  0  0  0
 24 33  1  0  0  0  0
 25 27  1  0  0  0  0
 25 34  1  0  0  0  0
 26 27  2  0  0  0  0
 26 35  1  0  0  0  0
 27 36  1  0  0  0  0
 37 38  1  0  0  0  0
 37 42  1  0  0  0  0
 38 39  1  0  0  0  0
 38 41  1  0  0  0  0
 38 43  1  0  0  0  0
 39 40  2  0  0  0  0
 39 47  1  0  0  0  0
 41 44  1  0  0  0  0
 41 45  1  0  0  0  0
 41 46  1  0  0  0  0
 47 48  1  0  0  0  0
 47 49  1  0  0  0  0
 48 50  1  0  0  0  0
 48 51  1  0  0  0  0
 48 52  1  0  0  0  0
M  END
$$$$

  -OEChem-05262217163D

 52 52  0     1  0  0  0  0  0999 V2000
   -2.9545    0.5926    4.5401 C   0  0  0  0  0  0  0  0  0  0  0  0
   -3.8714    1.3017    4.1554 O   0  0  0  0  0  0  0  0  0  0  0  0
   -3.1097   -0.2384    5.7997 C   0  0  0  0  0  0  0  0  0  0  0  0
   -4.0833   -0.0478    6.2597 H   0  0  0  0  0  0  0  0  0  0  0  0
   -3.0364   -1.3013    5.5565 H   0  0  0  0  0  0  0  0  0  0  0  0
   -2.3251    0.0197    6.5149 H   0  0  0  0  0  0  0  0  0  0  0  0
   -1.7789    0.5348    3.8235 N   0  0  0  0  0  0  0  0  0  0  0  0
   -1.5740    1.1637    2.5131 C   0  0  2  0  0  0  0  0  0  0  0  0
   -0.5951    0.3519    1.6401 C   0  0  0  0  0  0  0  0  0  0  0  0
    0.0024   -0.6149    2.1048 O   0  0  0  0  0  0  0  0  0  0  0  0
   -1.0381    2.5817    2.7334 C   0  0  0  0  0  0  0  0  0  0  0  0
   -1.0922   -0.1644    4.1053 H   0  0  0  0  0  0  0  0  0  0  0  0
   -2.5268    1.2157    1.9753 H   0  0  0  0  0  0  0  0  0  0  0  0
   -0.0736    2.5485    3.2508 H   0  0  0  0  0  0  0  0  0  0  0  0
   -0.9011    3.0950    1.7771 H   0  0  0  0  0  0  0  0  0  0  0  0
   -1.7403    3.1629    3.3395 H   0  0  0  0  0  0  0  0  0  0  0  0
   -0.4546    0.6341    0.2923 N   0  0  0  0  0  0  0  0  0  0  0  0
    0.7863    0.3470   -0.4562 C   0  0  2  0  0  0  0  0  0  0  0  0
    2.1174    0.7623    0.2419 C   0  0  0  0  0  0  0  0  0  0  0  0
    2.1245    1.3666    1.3100 O   0  0  0  0  0  0  0  0  0  0  0  0
    0.6526    1.0476   -1.8274 C   0  0  0  0  0  0  0  0  0  0  0  0
   -0.4372    0.4167   -2.6617 C   0  0  0  0  0  0  0  0  0  0  0  0
   -0.1860   -0.7631   -3.3789 C   0  0  0  0  0  0  0  0  0  0  0  0
   -1.7088    1.0054   -2.7447 C   0  0  0  0  0  0  0  0  0  0  0  0
   -1.1908   -1.3510   -4.1547 C   0  0  0  0  0  0  0  0  0  0  0  0
   -2.7141    0.4181   -3.5207 C   0  0  0  0  0  0  0  0  0  0  0  0
   -2.4559   -0.7610   -4.2251 C   0  0  0  0  0  0  0  0  0  0  0  0
   -1.0028    1.4238   -0.0320 H   0  0  0  0  0  0  0  0  0  0  0  0
    0.8480   -0.7352   -0.6099 H   0  0  0  0  0  0  0  0  0  0  0  0
    1.5863    0.9757   -2.3921 H   0  0  0  0  0  0  0  0  0  0  0  0
    0.4519    2.1143   -1.6792 H   0  0  0  0  0  0  0  0  0  0  0  0
    0.7914   -1.2336   -3.3351 H   0  0  0  0  0  0  0  0  0  0  0  0
   -1.9249    1.9247   -2.2097 H   0  0  0  0  0  0  0  0  0  0  0  0
   -0.9887   -2.2664   -4.7033 H   0  0  0  0  0  0  0  0  0  0  0  0
   -3.6961    0.8787   -3.5784 H   0  0  0  0  0  0  0  0  0  0  0  0
   -3.2363   -1.2166   -4.8279 H   0  0  0  0  0  0  0  0  0  0  0  0
    3.2954    0.8188   -0.4873 N   0  0  0  0  0  0  0  0  0  0  0  0
    4.5650    1.3759    0.0083 C   0  0  2  0  0  0  0  0  0  0  0  0
    4.6109    2.9196   -0.0957 C   0  0  0  0  0  0  0  0  0  0  0  0
    5.3999    3.4943   -0.8361 O   0  0  0  0  0  0  0  0  0  0  0  0
    5.6998    0.6919   -0.7647 C   0  0  0  0  0  0  0  0  0  0  0  0
    3.2770    0.4471   -1.4318 H   0  0  0  0  0  0  0  0  0  0  0  0
    4.6876    1.1223    1.0671 H   0  0  0  0  0  0  0  0  0  0  0  0
    5.6275    0.9135   -1.8343 H   0  0  0  0  0  0  0  0  0  0  0  0
    6.6707    1.0464   -0.4039 H   0  0  0  0  0  0  0  0  0  0  0  0
    5.6564   -0.3927   -0.6262 H   0  0  0  0  0  0  0  0  0  0  0  0
    3.7254    3.6666    0.6544 N   0  0  0  0  0  0  0  0  0  0  0  0
    3.6493    5.1203    0.6248 C   0  0  0  0  0  0  0  0  0  0  0  0
    3.0425    3.1342    1.2008 H   0  0  0  0  0  0  0  0  0  0  0  0
    4.6074    5.5595    0.9216 H   0  0  0  0  0  0  0  0  0  0  0  0
    3.3968    5.4703   -0.3813 H   0  0  0  0  0  0  0  0  0  0  0  0
    2.8790    5.4712    1.3181 H   0  0  0  0  0  0  0  0  0  0  0  0
  1  2  2  0  0  0  0
  1  3  1  0  0  0  0
  1  7  1  0  0  0  0
  3  4  1  0  0  0  0
  3  5  1  0  0  0  0
  3  6  1  0  0  0  0
  7  8  1  0  0  0  0
  7 12  1  0  0  0  0
  8  9  1  0  0  0  0
  8 11  1  0  0  0  0
  8 13  1  0  0  0  0
  9 10  2  0  0  0  0
  9 17  1  0  0  0  0
 11 14  1  0  0  0  0
 11 15  1  0  0  0  0
 11 16  1  0  0  0  0
 17 18  1  0  0  0  0
 17 28  1  0  0  0  0
 18 19  1  0  0  0  0
 18 21  1  0  0  0  0
 18 29  1  0  0  0  0
 19 20  2  0  0  0  0
 19 37  1  0  0  0  0
 21 22  1  0  0  0  0
 21 30  1  0  0  0  0
 21 31  1  0  0  0  0
 22 23  1  0  0  0  0
 22 24  2  0  0  0  0
 23 25  2  0  0  0  0
 23 32  1  0  0  0  0
 24 26  1  0  0  0  0
 24 33  1  0  0  0  0
 25 27  1  0  0  0  0
 25 34  1  0  0  0  0
 26 27  2  0  0  0  0
 26 35  1  0  0  0  0
 27 36  1  0  0  0  0
 37 38  1  0  0  0  0
 37 42  1  0  0  0  0
 38 39  1  0  0  0  0
 38 41  1  0  0  0  0
 38 43  1  0  0  0  0
 39 40  2  0  0  0  0
 39 47  1  0  0  0  0
 41 44  1  0  0  0  0
 41 45  1  0  0  0  0
 41 46  1  0  0  0  0
 47 48  1  0  0  0  0
 47 49  1  0  0  0  0
 48 50  1  0  0  0  0
 48 51  1  0  0  0  0
 48 52  1  0  0  0  0
M  END
$$$$

  -OEChem-05262217163D

 52 52  0     1  0  0  0  0  0999 V2000
   -2.8489    0.6948    4.5158 C   0  0  0  0  0  0  0  0  0  0  0  0
   -3.6990    1.4994    4.1672 O   0  0  0  0  0  0  0  0  0  0  0  0
   -3.0741   -0.1708    5.7410 C   0  0  0  0  0  0  0  0  0  0  0  0
   -4.0461    0.0542    6.1887 H   0  0  0  0  0  0  0  0  0  0  0  0
   -3.0508   -1.2266    5.4604 H   0  0  0  0  0  0  0  0  0  0  0  0
   -2.2925    0.0199    6.4804 H   0  0  0  0  0  0  0  0  0  0  0  0
   -1.6852    0.5626    3.7893 N   0  0  0  0  0  0  0  0  0  0  0  0
   -1.4279    1.2283    2.5066 C   0  0  2  0  0  0  0  0  0  0  0  0
   -0.5342    0.3676    1.5903 C   0  0  0  0  0  0  0  0  0  0  0  0
    0.0035   -0.6486    2.0201 O   0  0  0  0  0  0  0  0  0  0  0  0
   -0.7572    2.5768    2.7862 C   0  0  0  0  0  0  0  0  0  0  0  0
   -1.0628   -0.2070    4.0354 H   0  0  0  0  0  0  0  0  0  0  0  0
   -2.3737    1.3947    1.9802 H   0  0  0  0  0  0  0  0  0  0  0  0
    0.1997    2.4272    3.2967 H   0  0  0  0  0  0  0  0  0  0  0  0
   -0.5725    3.1168    1.8530 H   0  0  0  0  0  0  0  0  0  0  0  0
   -1.3989    3.1954    3.4213 H   0  0  0  0  0  0  0  0  0  0  0  0
   -0.4303    0.6482    0.2389 N   0  0  0  0  0  0  0  0  0  0  0  0
    0.7937    0.3791   -0.5456 C   0  0  2  0  0  0  0  0  0  0  0  0
    2.1468    0.8146    0.1056 C   0  0  0  0  0  0  0  0  0  0  0  0
    2.2344    1.1387    1.2844 O   0  0  0  0  0  0  0  0  0  0  0  0
    0.5867    1.0330   -1.9323 C   0  0  0  0  0  0  0  0  0  0  0  0
   -0.5104    0.3407   -2.7068 C   0  0  0  0  0  0  0  0  0  0  0  0
   -0.2438   -0.8520   -3.3970 C   0  0  0  0  0  0  0  0  0  0  0  0
   -1.8038    0.8842   -2.7620 C   0  0  0  0  0  0  0  0  0  0  0  0
   -1.2541   -1.4973   -4.1181 C   0  0  0  0  0  0  0  0  0  0  0  0
   -2.8146    0.2391   -3.4830 C   0  0  0  0  0  0  0  0  0  0  0  0
   -2.5405   -0.9524   -4.1602 C   0  0  0  0  0  0  0  0  0  0  0  0
   -0.9745    1.4514   -0.0572 H   0  0  0  0  0  0  0  0  0  0  0  0
    0.8718   -0.7051   -0.6797 H   0  0  0  0  0  0  0  0  0  0  0  0
    1.4973    0.9661   -2.5334 H   0  0  0  0  0  0  0  0  0  0  0  0
    0.3594    2.0975   -1.8105 H   0  0  0  0  0  0  0  0  0  0  0  0
    0.7494   -1.2897   -3.3718 H   0  0  0  0  0  0  0  0  0  0  0  0
   -2.0330    1.8119   -2.2470 H   0  0  0  0  0  0  0  0  0  0  0  0
   -1.0400   -2.4229   -4.6447 H   0  0  0  0  0  0  0  0  0  0  0  0
   -3.8136    0.6638   -3.5178 H   0  0  0  0  0  0  0  0  0  0  0  0
   -3.3254   -1.4533   -4.7197 H   0  0  0  0  0  0  0  0  0  0  0  0
    3.2226    1.1886   -0.6863 N   0  0  0  0  0  0  0  0  0  0  0  0
    4.4620    1.8070   -0.1861 C   0  0  2  0  0  0  0  0  0  0  0  0
    4.2974    3.3249    0.0699 C   0  0  0  0  0  0  0  0  0  0  0  0
    4.8936    4.1605   -0.5987 O   0  0  0  0  0  0  0  0  0  0  0  0
    5.5722    1.4890   -1.1953 C   0  0  0  0  0  0  0  0  0  0  0  0
    3.1301    1.0609   -1.6889 H   0  0  0  0  0  0  0  0  0  0  0  0
    4.7431    1.3486    0.7683 H   0  0  0  0  0  0  0  0  0  0  0  0
    5.3448    1.9287   -2.1717 H   0  0  0  0  0  0  0  0  0  0  0  0
    6.5272    1.8959   -0.8476 H   0  0  0  0  0  0  0  0  0  0  0  0
    5.6815    0.4066   -1.3138 H   0  0  0  0  0  0  0  0  0  0  0  0
    3.4326    3.7477    1.0594 N   0  0  0  0  0  0  0  0  0  0  0  0
    3.1620    5.1449    1.3675 C   0  0  0  0  0  0  0  0  0  0  0  0
    2.9043    3.0116    1.5361 H   0  0  0  0  0  0  0  0  0  0  0  0
    4.0803    5.6508    1.6833 H   0  0  0  0  0  0  0  0  0  0  0  0
    2.7590    5.6603    0.4896 H   0  0  0  0  0  0  0  0  0  0  0  0
    2.4307    5.2175    2.1782 H   0  0  0  0  0  0  0  0  0  0  0  0
  1  2  2  0  0  0  0
  1  3  1  0  0  0  0
  1  7  1  0  0  0  0
  3  4  1  0  0  0  0
  3  5  1  0  0  0  0
  3  6  1  0  0  0  0
  7  8  1  0  0  0  0
  7 12  1  0  0  0  0
  8  9  1  0  0  0  0
  8 11  1  0  0  0  0
  8 13  1  0  0  0  0
  9 10  2  0  0  0  0
  9 17  1  0  0  0  0
 11 14  1  0  0  0  0
 11 15  1  0  0  0  0
 11 16  1  0  0  0  0
 17 18  1  0  0  0  0
 17 28  1  0  0  0  0
 18 19  1  0  0  0  0
 18 21  1  0  0  0  0
 18 29  1  0  0  0  0
 19 20  2  0  0  0  0
 19 37  1  0  0  0  0
 21 22  1  0  0  0  0
 21 30  1  0  0  0  0
 21 31  1  0  0  0  0
 22 23  1  0  0  0  0
 22 24  2  0  0  0  0
 23 25  2  0  0  0  0
 23 32  1  0  0  0  0
 24 26  1  0  0  0  0
 24 33  1  0  0  0  0
 25 27  1  0  0  0  0
 25 34  1  0  0  0  0
 26 27  2  0  0  0  0
 26 35  1  0  0  0  0
 27 36  1  0  0  0  0
 37 38  1  0  0  0  0
 37 42  1  0  0  0  0
 38 39  1  0  0  0  0
 38 41  1  0  0  0  0
 38 43  1  0  0  0  0
 39 40  2  0  0  0  0
 39 47  1  0  0  0  0
 41 44  1  0  0  0  0
 41 45  1  0  0  0  0
 41 46  1  0  0  0  0
 47 48  1  0  0  0  0
 47 49  1  0  0  0  0
 48 50  1  0  0  0  0
 48 51  1  0  0  0  0
 48 52  1  0  0  0  0
M  END
$$$$

  -OEChem-05262217163D

 52 52  0     1  0  0  0  0  0999 V2000
   -2.7070    0.8726    4.4811 C   0  0  0  0  0  0  0  0  0  0  0  0
   -3.5120    1.7196    4.1260 O   0  0  0  0  0  0  0  0  0  0  0  0
   -2.9826    0.0278    5.7103 C   0  0  0  0  0  0  0  0  0  0  0  0
   -3.9588    0.2835    6.1314 H   0  0  0  0  0  0  0  0  0  0  0  0
   -2.9815   -1.0317    5.4431 H   0  0  0  0  0  0  0  0  0  0  0  0
   -2.2138    0.2064    6.4661 H   0  0  0  0  0  0  0  0  0  0  0  0
   -1.5508    0.6733    3.7577 N   0  0  0  0  0  0  0  0  0  0  0  0
   -1.2612    1.3109    2.4677 C   0  0  2  0  0  0  0  0  0  0  0  0
   -0.4599    0.3806    1.5353 C   0  0  0  0  0  0  0  0  0  0  0  0
    0.0476   -0.6477    1.9688 O   0  0  0  0  0  0  0  0  0  0  0  0
   -0.4692    2.5946    2.7326 C   0  0  0  0  0  0  0  0  0  0  0  0
   -0.9694   -0.1251    4.0120 H   0  0  0  0  0  0  0  0  0  0  0  0
   -2.1977    1.5593    1.9575 H   0  0  0  0  0  0  0  0  0  0  0  0
    0.4768    2.3613    3.2324 H   0  0  0  0  0  0  0  0  0  0  0  0
   -0.2476    3.1119    1.7944 H   0  0  0  0  0  0  0  0  0  0  0  0
   -1.0456    3.2704    3.3723 H   0  0  0  0  0  0  0  0  0  0  0  0
   -0.4022    0.6330    0.1762 N   0  0  0  0  0  0  0  0  0  0  0  0
    0.8046    0.3979   -0.6449 C   0  0  2  0  0  0  0  0  0  0  0  0
    2.1543    0.9047   -0.0415 C   0  0  0  0  0  0  0  0  0  0  0  0
    2.3935    0.8895    1.1586 O   0  0  0  0  0  0  0  0  0  0  0  0
    0.5282    0.9919   -2.0452 C   0  0  0  0  0  0  0  0  0  0  0  0
   -0.5571    0.2260   -2.7649 C   0  0  0  0  0  0  0  0  0  0  0  0
   -0.2590   -0.9765   -3.4249 C   0  0  0  0  0  0  0  0  0  0  0  0
   -1.8745    0.7104   -2.7948 C   0  0  0  0  0  0  0  0  0  0  0  0
   -1.2610   -1.6857   -4.0961 C   0  0  0  0  0  0  0  0  0  0  0  0
   -2.8771    0.0006   -3.4643 C   0  0  0  0  0  0  0  0  0  0  0  0
   -2.5709   -1.1981   -4.1148 C   0  0  0  0  0  0  0  0  0  0  0  0
   -0.9702    1.4229   -0.1112 H   0  0  0  0  0  0  0  0  0  0  0  0
    0.9274   -0.6854   -0.7501 H   0  0  0  0  0  0  0  0  0  0  0  0
    1.4265    0.9351   -2.6670 H   0  0  0  0  0  0  0  0  0  0  0  0
    0.2579    2.0496   -1.9565 H   0  0  0  0  0  0  0  0  0  0  0  0
    0.7527   -1.3708   -3.4166 H   0  0  0  0  0  0  0  0  0  0  0  0
   -2.1294    1.6416   -2.2988 H   0  0  0  0  0  0  0  0  0  0  0  0
   -1.0225   -2.6170   -4.6017 H   0  0  0  0  0  0  0  0  0  0  0  0
   -3.8947    0.3803   -3.4796 H   0  0  0  0  0  0  0  0  0  0  0  0
   -3.3498   -1.7499   -4.6335 H   0  0  0  0  0  0  0  0  0  0  0  0
    3.0686    1.5966   -0.8223 N   0  0  0  0  0  0  0  0  0  0  0  0
    4.2501    2.3003   -0.2968 C   0  0  2  0  0  0  0  0  0  0  0  0
    3.8762    3.6438    0.3769 C   0  0  0  0  0  0  0  0  0  0  0  0
    4.1673    4.7211   -0.1284 O   0  0  0  0  0  0  0  0  0  0  0  0
    5.2348    2.4717   -1.4601 C   0  0  0  0  0  0  0  0  0  0  0  0
    2.8220    1.7557   -1.7937 H   0  0  0  0  0  0  0  0  0  0  0  0
    4.7401    1.6823    0.4638 H   0  0  0  0  0  0  0  0  0  0  0  0
    4.7916    3.0782   -2.2564 H   0  0  0  0  0  0  0  0  0  0  0  0
    6.1460    2.9699   -1.1139 H   0  0  0  0  0  0  0  0  0  0  0  0
    5.5104    1.4969   -1.8737 H   0  0  0  0  0  0  0  0  0  0  0  0
    3.1571    3.6258    1.5555 N   0  0  0  0  0  0  0  0  0  0  0  0
    2.6896    4.8186    2.2477 C   0  0  0  0  0  0  0  0  0  0  0  0
    2.8506    2.7030    1.8766 H   0  0  0  0  0  0  0  0  0  0  0  0
    3.5344    5.4628    2.5129 H   0  0  0  0  0  0  0  0  0  0  0  0
    1.9988    5.3840    1.6138 H   0  0  0  0  0  0  0  0  0  0  0  0
    2.1670    4.5392    3.1675 H   0  0  0  0  0  0  0  0  0  0  0  0
  1  2  2  0  0  0  0
  1  3  1  0  0  0  0
  1  7  1  0  0  0  0
  3  4  1  0  0  0  0
  3  5  1  0  0  0  0
  3  6  1  0  0  0  0
  7  8  1  0  0  0  0
  7 12  1  0  0  0  0
  8  9  1  0  0  0  0
  8 11  1  0  0  0  0
  8 13  1  0  0  0  0
  9 10  2  0  0  0  0
  9 17  1  0  0  0  0
 11 14  1  0  0  0  0
 11 15  1  0  0  0  0
 11 16  1  0  0  0  0
 17 18  1  0  0  0  0
 17 28  1  0  0  0  0
 18 19  1  0  0  0  0
 18 21  1  0  0  0  0
 18 29  1  0  0  0  0
 19 20  2  0  0  0  0
 19 37  1  0  0  0  0
 21 22  1  0  0  0  0
 21 30  1  0  0  0  0
 21 31  1  0  0  0  0
 22 23  1  0  0  0  0
 22 24  2  0  0  0  0
 23 25  2  0  0  0  0
 23 32  1  0  0  0  0
 24 26  1  0  0  0  0
 24 33  1  0  0  0  0
 25 27  1  0  0  0  0
 25 34  1  0  0  0  0
 26 27  2  0  0  0  0
 26 35  1  0  0  0  0
 27 36  1  0  0  0  0
 37 38  1  0  0  0  0
 37 42  1  0  0  0  0
 38 39  1  0  0  0  0
 38 41  1  0  0  0  0
 38 43  1  0  0  0  0
 39 40  2  0  0  0  0
 39 47  1  0  0  0  0
 41 44  1  0  0  0  0
 41 45  1  0  0  0  0
 41 46  1  0  0  0  0
 47 48  1  0  0  0  0
 47 49  1  0  0  0  0
 48 50  1  0  0  0  0
 48 51  1  0  0  0  0
 48 52  1  0  0  0  0
M  END
$$$$

  -OEChem-05262217163D

 52 52  0     1  0  0  0  0  0999 V2000
   -2.9889    0.2119    4.2635 C   0  0  0  0  0  0  0  0  0  0  0  0
   -4.0510    0.1568    3.6633 O   0  0  0  0  0  0  0  0  0  0  0  0
   -2.8672   -0.3803    5.6551 C   0  0  0  0  0  0  0  0  0  0  0  0
   -3.8081   -0.8557    5.9468 H   0  0  0  0  0  0  0  0  0  0  0  0
   -2.0731   -1.1309    5.6735 H   0  0  0  0  0  0  0  0  0  0  0  0
   -2.6320    0.4065    6.3758 H   0  0  0  0  0  0  0  0  0  0  0  0
   -1.8942    0.8052    3.6721 N   0  0  0  0  0  0  0  0  0  0  0  0
   -1.8474    1.2423    2.2710 C   0  0  2  0  0  0  0  0  0  0  0  0
   -0.4440    1.0416    1.6593 C   0  0  0  0  0  0  0  0  0  0  0  0
    0.5022    0.8387    2.4037 O   0  0  0  0  0  0  0  0  0  0  0  0
   -2.2579    2.7168    2.2106 C   0  0  0  0  0  0  0  0  0  0  0  0
   -0.9967    0.7055    4.1467 H   0  0  0  0  0  0  0  0  0  0  0  0
   -2.5494    0.6485    1.6755 H   0  0  0  0  0  0  0  0  0  0  0  0
   -1.5616    3.3313    2.7902 H   0  0  0  0  0  0  0  0  0  0  0  0
   -2.2608    3.0741    1.1765 H   0  0  0  0  0  0  0  0  0  0  0  0
   -3.2636    2.8470    2.6233 H   0  0  0  0  0  0  0  0  0  0  0  0
   -0.3041    1.0699    0.2811 N   0  0  0  0  0  0  0  0  0  0  0  0
    0.8857    0.7558   -0.5410 C   0  0  2  0  0  0  0  0  0  0  0  0
    2.2481    1.3474   -0.0788 C   0  0  0  0  0  0  0  0  0  0  0  0
    2.8707    0.8373    0.8419 O   0  0  0  0  0  0  0  0  0  0  0  0
    0.5459    1.1763   -1.9870 C   0  0  0  0  0  0  0  0  0  0  0  0
   -0.5485    0.3063   -2.5573 C   0  0  0  0  0  0  0  0  0  0  0  0
   -0.2502   -0.9621   -3.0769 C   0  0  0  0  0  0  0  0  0  0  0  0
   -1.8773    0.7596   -2.5833 C   0  0  0  0  0  0  0  0  0  0  0  0
   -1.2657   -1.7721   -3.5961 C   0  0  0  0  0  0  0  0  0  0  0  0
   -2.8930   -0.0504   -3.1019 C   0  0  0  0  0  0  0  0  0  0  0  0
   -2.5877   -1.3176   -3.6065 C   0  0  0  0  0  0  0  0  0  0  0  0
   -1.1839    1.1175   -0.2254 H   0  0  0  0  0  0  0  0  0  0  0  0
    1.0309   -0.3298   -0.5202 H   0  0  0  0  0  0  0  0  0  0  0  0
    1.4276    1.0644   -2.6272 H   0  0  0  0  0  0  0  0  0  0  0  0
    0.2505    2.2308   -2.0132 H   0  0  0  0  0  0  0  0  0  0  0  0
    0.7722   -1.3293   -3.0736 H   0  0  0  0  0  0  0  0  0  0  0  0
   -2.1305    1.7460   -2.2063 H   0  0  0  0  0  0  0  0  0  0  0  0
   -1.0274   -2.7555   -3.9914 H   0  0  0  0  0  0  0  0  0  0  0  0
   -3.9198    0.3044   -3.1163 H   0  0  0  0  0  0  0  0  0  0  0  0
   -3.3762   -1.9477   -4.0085 H   0  0  0  0  0  0  0  0  0  0  0  0
    2.9788    2.2074   -0.8856 N   0  0  0  0  0  0  0  0  0  0  0  0
    4.3156    2.7188   -0.5389 C   0  0  2  0  0  0  0  0  0  0  0  0
    4.2650    3.7666    0.6009 C   0  0  0  0  0  0  0  0  0  0  0  0
    4.5702    4.9382    0.4100 O   0  0  0  0  0  0  0  0  0  0  0  0
    4.9450    3.2652   -1.8260 C   0  0  0  0  0  0  0  0  0  0  0  0
    2.4721    2.6786   -1.6281 H   0  0  0  0  0  0  0  0  0  0  0  0
    4.9451    1.8940   -0.1881 H   0  0  0  0  0  0  0  0  0  0  0  0
    4.3544    4.0973   -2.2230 H   0  0  0  0  0  0  0  0  0  0  0  0
    5.9593    3.6258   -1.6271 H   0  0  0  0  0  0  0  0  0  0  0  0
    5.0014    2.4797   -2.5858 H   0  0  0  0  0  0  0  0  0  0  0  0
    3.8368    3.3780    1.8550 N   0  0  0  0  0  0  0  0  0  0  0  0
    3.6769    4.2865    2.9809 C   0  0  0  0  0  0  0  0  0  0  0  0
    3.5014    2.4127    1.9388 H   0  0  0  0  0  0  0  0  0  0  0  0
    4.6288    4.7724    3.2185 H   0  0  0  0  0  0  0  0  0  0  0  0
    2.9345    5.0570    2.7489 H   0  0  0  0  0  0  0  0  0  0  0  0
    3.3411    3.7343    3.8639 H   0  0  0  0  0  0  0  0  0  0  0  0
  1  2  2  0  0  0  0
  1  3  1  0  0  0  0
  1  7  1  0  0  0  0
  3  4  1  0  0  0  0
  3  5  1  0  0  0  0
  3  6  1  0  0  0  0
  7  8  1  0  0  0  0
  7 12  1  0  0  0  0
  8  9  1  0  0  0  0
  8 11  1  0  0  0  0
  8 13  1  0  0  0  0
  9 10  2  0  0  0  0
  9 17  1  0  0  0  0
 11 14  1  0  0  0  0
 11 15  1  0  0  0  0
 11 16  1  0  0  0  0
 17 18  1  0  0  0  0
 17 28  1  0  0  0  0
 18 19  1  0  0  0  0
 18 21  1  0  0  0  0
 18 29  1  0  0  0  0
 19 20  2  0  0  0  0
 19 37  1  0  0  0  0
 21 22  1  0  0  0  0
 21 30  1  0  0  0  0
 21 31  1  0  0  0  0
 22 23  1  0  0  0  0
 22 24  2  0  0  0  0
 23 25  2  0  0  0  0
 23 32  1  0  0  0  0
 24 26  1  0  0  0  0
 24 33  1  0  0  0  0
 25 27  1  0  0  0  0
 25 34  1  0  0  0  0
 26 27  2  0  0  0  0
 26 35  1  0  0  0  0
 27 36  1  0  0  0  0
 37 38  1  0  0  0  0
 37 42  1  0  0  0  0
 38 39  1  0  0  0  0
 38 41  1  0  0  0  0
 38 43  1  0  0  0  0
 39 40  2  0  0  0  0
 39 47  1  0  0  0  0
 41 44  1  0  0  0  0
 41 45  1  0  0  0  0
 41 46  1  0  0  0  0
 47 48  1  0  0  0  0
 47 49  1  0  0  0  0
 48 50  1  0  0  0  0
 48 51  1  0  0  0  0
 48 52  1  0  0  0  0
M  END
$$$$

  -OEChem-05262217163D

 52 52  0     1  0  0  0  0  0999 V2000
   -2.7844    0.2018    4.3449 C   0  0  0  0  0  0  0  0  0  0  0  0
   -3.8667    0.1013    3.7887 O   0  0  0  0  0  0  0  0  0  0  0  0
   -2.5949   -0.3397    5.7495 C   0  0  0  0  0  0  0  0  0  0  0  0
   -3.5351   -0.7549    6.1233 H   0  0  0  0  0  0  0  0  0  0  0  0
   -1.8377   -1.1276    5.7471 H   0  0  0  0  0  0  0  0  0  0  0  0
   -2.2739    0.4624    6.4184 H   0  0  0  0  0  0  0  0  0  0  0  0
   -1.7289    0.8004    3.6908 N   0  0  0  0  0  0  0  0  0  0  0  0
   -1.7581    1.2226    2.2848 C   0  0  2  0  0  0  0  0  0  0  0  0
   -0.3728    1.0876    1.6186 C   0  0  0  0  0  0  0  0  0  0  0  0
    0.6206    0.9874    2.3238 O   0  0  0  0  0  0  0  0  0  0  0  0
   -2.2415    2.6748    2.2271 C   0  0  0  0  0  0  0  0  0  0  0  0
   -0.8130    0.7556    4.1372 H   0  0  0  0  0  0  0  0  0  0  0  0
   -2.4533    0.5877    1.7248 H   0  0  0  0  0  0  0  0  0  0  0  0
   -1.5545    3.3289    2.7742 H   0  0  0  0  0  0  0  0  0  0  0  0
   -2.3010    3.0204    1.1908 H   0  0  0  0  0  0  0  0  0  0  0  0
   -3.2362    2.7610    2.6761 H   0  0  0  0  0  0  0  0  0  0  0  0
   -0.2845    1.1004    0.2355 N   0  0  0  0  0  0  0  0  0  0  0  0
    0.8883    0.7626   -0.5995 C   0  0  2  0  0  0  0  0  0  0  0  0
    2.2436    1.3611   -0.1448 C   0  0  0  0  0  0  0  0  0  0  0  0
    2.9593    0.7346    0.6253 O   0  0  0  0  0  0  0  0  0  0  0  0
    0.5609    1.1710   -2.0494 C   0  0  0  0  0  0  0  0  0  0  0  0
   -0.5479    0.3128   -2.6087 C   0  0  0  0  0  0  0  0  0  0  0  0
   -0.2691   -0.9675   -3.1093 C   0  0  0  0  0  0  0  0  0  0  0  0
   -1.8688    0.7875   -2.6437 C   0  0  0  0  0  0  0  0  0  0  0  0
   -1.2970   -1.7703   -3.6149 C   0  0  0  0  0  0  0  0  0  0  0  0
   -2.8967   -0.0140   -3.1517 C   0  0  0  0  0  0  0  0  0  0  0  0
   -2.6114   -1.2946   -3.6342 C   0  0  0  0  0  0  0  0  0  0  0  0
   -1.1822    1.0781   -0.2416 H   0  0  0  0  0  0  0  0  0  0  0  0
    1.0265   -0.3234   -0.5663 H   0  0  0  0  0  0  0  0  0  0  0  0
    1.4480    1.0419   -2.6791 H   0  0  0  0  0  0  0  0  0  0  0  0
    0.2803    2.2289   -2.0894 H   0  0  0  0  0  0  0  0  0  0  0  0
    0.7480   -1.3492   -3.0997 H   0  0  0  0  0  0  0  0  0  0  0  0
   -2.1055    1.7846   -2.2840 H   0  0  0  0  0  0  0  0  0  0  0  0
   -1.0742   -2.7645   -3.9921 H   0  0  0  0  0  0  0  0  0  0  0  0
   -3.9173    0.3580   -3.1763 H   0  0  0  0  0  0  0  0  0  0  0  0
   -3.4089   -1.9186   -4.0276 H   0  0  0  0  0  0  0  0  0  0  0  0
    2.8290    2.4327   -0.8007 N   0  0  0  0  0  0  0  0  0  0  0  0
    4.0890    3.0504   -0.3540 C   0  0  2  0  0  0  0  0  0  0  0  0
    3.9054    3.8568    0.9573 C   0  0  0  0  0  0  0  0  0  0  0  0
    4.1036    5.0656    0.9978 O   0  0  0  0  0  0  0  0  0  0  0  0
    4.6163    3.9030   -1.5150 C   0  0  0  0  0  0  0  0  0  0  0  0
    2.2139    2.9936   -1.3816 H   0  0  0  0  0  0  0  0  0  0  0  0
    4.8318    2.2710   -0.1517 H   0  0  0  0  0  0  0  0  0  0  0  0
    3.9133    4.7068   -1.7557 H   0  0  0  0  0  0  0  0  0  0  0  0
    5.5777    4.3534   -1.2480 H   0  0  0  0  0  0  0  0  0  0  0  0
    4.7613    3.2846   -2.4059 H   0  0  0  0  0  0  0  0  0  0  0  0
    3.4552    3.2127    2.0938 N   0  0  0  0  0  0  0  0  0  0  0  0
    3.1388    3.8861    3.3443 C   0  0  0  0  0  0  0  0  0  0  0  0
    3.2198    2.2199    1.9922 H   0  0  0  0  0  0  0  0  0  0  0  0
    4.0341    4.3579    3.7619 H   0  0  0  0  0  0  0  0  0  0  0  0
    2.3749    4.6541    3.1842 H   0  0  0  0  0  0  0  0  0  0  0  0
    2.7557    3.1635    4.0714 H   0  0  0  0  0  0  0  0  0  0  0  0
  1  2  2  0  0  0  0
  1  3  1  0  0  0  0
  1  7  1  0  0  0  0
  3  4  1  0  0  0  0
  3  5  1  0  0  0  0
  3  6  1  0  0  0  0
  7  8  1  0  0  0  0
  7 12  1  0  0  0  0
  8  9  1  0  0  0  0
  8 11  1  0  0  0  0
  8 13  1  0  0  0  0
  9 10  2  0  0  0  0
  9 17  1  0  0  0  0
 11 14  1  0  0  0  0
 11 15  1  0  0  0  0
 11 16  1  0  0  0  0
 17 18  1  0  0  0  0
 17 28  1  0  0  0  0
 18 19  1  0  0  0  0
 18 21  1  0  0  0  0
 18 29  1  0  0  0  0
 19 20  2  0  0  0  0
 19 37  1  0  0  0  0
 21 22  1  0  0  0  0
 21 30  1  0  0  0  0
 21 31  1  0  0  0  0
 22 23  1  0  0  0  0
 22 24  2  0  0  0  0
 23 25  2  0  0  0  0
 23 32  1  0  0  0  0
 24 26  1  0  0  0  0
 24 33  1  0  0  0  0
 25 27  1  0  0  0  0
 25 34  1  0  0  0  0
 26 27  2  0  0  0  0
 26 35  1  0  0  0  0
 27 36  1  0  0  0  0
 37 38  1  0  0  0  0
 37 42  1  0  0  0  0
 38 39  1  0  0  0  0
 38 41  1  0  0  0  0
 38 43  1  0  0  0  0
 39 40  2  0  0  0  0
 39 47  1  0  0  0  0
 41 44  1  0  0  0  0
 41 45  1  0  0  0  0
 41 46  1  0  0  0  0
 47 48  1  0  0  0  0
 47 49  1  0  0  0  0
 48 50  1  0  0  0  0
 48 51  1  0  0  0  0
 48 52  1  0  0  0  0
M  END
$$$$

  -OEChem-05262217163D

 52 52  0     1  0  0  0  0  0999 V2000
   -2.6705    0.1761    4.3879 C   0  0  0  0  0  0  0  0  0  0  0  0
   -3.7698    0.1010    3.8616 O   0  0  0  0  0  0  0  0  0  0  0  0
   -2.4512   -0.3827    5.7810 C   0  0  0  0  0  0  0  0  0  0  0  0
   -3.3815   -0.8088    6.1671 H   0  0  0  0  0  0  0  0  0  0  0  0
   -1.6896   -1.1657    5.7535 H   0  0  0  0  0  0  0  0  0  0  0  0
   -2.1226    0.4126    6.4543 H   0  0  0  0  0  0  0  0  0  0  0  0
   -1.6232    0.7637    3.7109 N   0  0  0  0  0  0  0  0  0  0  0  0
   -1.6878    1.2137    2.3148 C   0  0  2  0  0  0  0  0  0  0  0  0
   -0.3267    1.0652    1.6032 C   0  0  0  0  0  0  0  0  0  0  0  0
    0.6903    0.9413    2.2719 O   0  0  0  0  0  0  0  0  0  0  0  0
   -2.1451    2.6755    2.3007 C   0  0  0  0  0  0  0  0  0  0  0  0
   -0.6968    0.7011    4.1323 H   0  0  0  0  0  0  0  0  0  0  0  0
   -2.4122    0.6032    1.7651 H   0  0  0  0  0  0  0  0  0  0  0  0
   -1.4334    3.3032    2.8467 H   0  0  0  0  0  0  0  0  0  0  0  0
   -2.2215    3.0460    1.2741 H   0  0  0  0  0  0  0  0  0  0  0  0
   -3.1275    2.7697    2.7746 H   0  0  0  0  0  0  0  0  0  0  0  0
   -0.2772    1.0831    0.2183 N   0  0  0  0  0  0  0  0  0  0  0  0
    0.8895    0.7687   -0.6324 C   0  0  2  0  0  0  0  0  0  0  0  0
    2.2259    1.4042   -0.1829 C   0  0  0  0  0  0  0  0  0  0  0  0
    3.0419    0.7383    0.4403 O   0  0  0  0  0  0  0  0  0  0  0  0
    0.5531    1.1809   -2.0777 C   0  0  0  0  0  0  0  0  0  0  0  0
   -0.5469    0.3124   -2.6387 C   0  0  0  0  0  0  0  0  0  0  0  0
   -0.2547   -0.9615   -3.1481 C   0  0  0  0  0  0  0  0  0  0  0  0
   -1.8749    0.7676   -2.6589 C   0  0  0  0  0  0  0  0  0  0  0  0
   -1.2748   -1.7733   -3.6563 C   0  0  0  0  0  0  0  0  0  0  0  0
   -2.8953   -0.0439   -3.1659 C   0  0  0  0  0  0  0  0  0  0  0  0
   -2.5958   -1.3156   -3.6632 C   0  0  0  0  0  0  0  0  0  0  0  0
   -1.1837    1.0598   -0.2418 H   0  0  0  0  0  0  0  0  0  0  0  0
    1.0521   -0.3145   -0.6052 H   0  0  0  0  0  0  0  0  0  0  0  0
    1.4433    1.0717   -2.7076 H   0  0  0  0  0  0  0  0  0  0  0  0
    0.2563    2.2341   -2.1120 H   0  0  0  0  0  0  0  0  0  0  0  0
    0.7675   -1.3296   -3.1466 H   0  0  0  0  0  0  0  0  0  0  0  0
   -2.1234    1.7571   -2.2872 H   0  0  0  0  0  0  0  0  0  0  0  0
   -1.0404   -2.7599   -4.0462 H   0  0  0  0  0  0  0  0  0  0  0  0
   -3.9209    0.3145   -3.1779 H   0  0  0  0  0  0  0  0  0  0  0  0
   -3.3874   -1.9456   -4.0595 H   0  0  0  0  0  0  0  0  0  0  0  0
    2.6212    2.6532   -0.6312 N   0  0  0  0  0  0  0  0  0  0  0  0
    3.8167    3.3393   -0.1151 C   0  0  2  0  0  0  0  0  0  0  0  0
    3.5879    3.9014    1.3110 C   0  0  0  0  0  0  0  0  0  0  0  0
    3.6998    5.0980    1.5515 O   0  0  0  0  0  0  0  0  0  0  0  0
    4.1989    4.4200   -1.1343 C   0  0  0  0  0  0  0  0  0  0  0  0
    1.8949    3.2282   -1.0459 H   0  0  0  0  0  0  0  0  0  0  0  0
    4.6520    2.6331   -0.0518 H   0  0  0  0  0  0  0  0  0  0  0  0
    3.3996    5.1618   -1.2293 H   0  0  0  0  0  0  0  0  0  0  0  0
    5.1117    4.9341   -0.8165 H   0  0  0  0  0  0  0  0  0  0  0  0
    4.3804    3.9711   -2.1157 H   0  0  0  0  0  0  0  0  0  0  0  0
    3.1931    3.0488    2.3238 N   0  0  0  0  0  0  0  0  0  0  0  0
    2.8375    3.4856    3.6652 C   0  0  0  0  0  0  0  0  0  0  0  0
    3.0256    2.0718    2.0627 H   0  0  0  0  0  0  0  0  0  0  0  0
    3.6930    3.9655    4.1508 H   0  0  0  0  0  0  0  0  0  0  0  0
    2.0051    4.1957    3.6288 H   0  0  0  0  0  0  0  0  0  0  0  0
    2.5332    2.6256    4.2696 H   0  0  0  0  0  0  0  0  0  0  0  0
  1  2  2  0  0  0  0
  1  3  1  0  0  0  0
  1  7  1  0  0  0  0
  3  4  1  0  0  0  0
  3  5  1  0  0  0  0
  3  6  1  0  0  0  0
  7  8  1  0  0  0  0
  7 12  1  0  0  0  0
  8  9  1  0  0  0  0
  8 11  1  0  0  0  0
  8 13  1  0  0  0  0
  9 10  2  0  0  0  0
  9 17  1  0  0  0  0
 11 14  1  0  0  0  0
 11 15  1  0  0  0  0
 11 16  1  0  0  0  0
 17 18  1  0  0  0  0
 17 28  1  0  0  0  0
 18 19  1  0  0  0  0
 18 21  1  0  0  0  0
 18 29  1  0  0  0  0
 19 20  2  0  0  0  0
 19 37  1  0  0  0  0
 21 22  1  0  0  0  0
 21 30  1  0  0  0  0
 21 31  1  0  0  0  0
 22 23  1  0  0  0  0
 22 24  2  0  0  0  0
 23 25  2  0  0  0  0
 23 32  1  0  0  0  0
 24 26  1  0  0  0  0
 24 33  1  0  0  0  0
 25 27  1  0  0  0  0
 25 34  1  0  0  0  0
 26 27  2  0  0  0  0
 26 35  1  0  0  0  0
 27 36  1  0  0  0  0
 37 38  1  0  0  0  0
 37 42  1  0  0  0  0
 38 39  1  0  0  0  0
 38 41  1  0  0  0  0
 38 43  1  0  0  0  0
 39 40  2  0  0  0  0
 39 47  1  0  0  0  0
 41 44  1  0  0  0  0
 41 45  1  0  0  0  0
 41 46  1  0  0  0  0
 47 48  1  0  0  0  0
 47 49  1  0  0  0  0
 48 50  1  0  0  0  0
 48 51  1  0  0  0  0
 48 52  1  0  0  0  0
M  END
$$$$

  -OEChem-05262217163D

 52 52  0     1  0  0  0  0  0999 V2000
   -2.6482    0.1622    4.4299 C   0  0  0  0  0  0  0  0  0  0  0  0
   -3.7561    0.0811    3.9233 O   0  0  0  0  0  0  0  0  0  0  0  0
   -2.4018   -0.3946    5.8197 C   0  0  0  0  0  0  0  0  0  0  0  0
   -3.3253   -0.8165    6.2263 H   0  0  0  0  0  0  0  0  0  0  0  0
   -1.6439   -1.1809    5.7784 H   0  0  0  0  0  0  0  0  0  0  0  0
   -2.0560    0.4007    6.4845 H   0  0  0  0  0  0  0  0  0  0  0  0
   -1.6153    0.7519    3.7325 N   0  0  0  0  0  0  0  0  0  0  0  0
   -1.7039    1.1894    2.3334 C   0  0  2  0  0  0  0  0  0  0  0  0
   -0.3558    1.0326    1.5995 C   0  0  0  0  0  0  0  0  0  0  0  0
    0.6714    0.8817    2.2478 O   0  0  0  0  0  0  0  0  0  0  0  0
   -2.1561    2.6526    2.3128 C   0  0  0  0  0  0  0  0  0  0  0  0
   -0.6815    0.6925    4.1376 H   0  0  0  0  0  0  0  0  0  0  0  0
   -2.4394    0.5759    1.8015 H   0  0  0  0  0  0  0  0  0  0  0  0
   -1.4302    3.2843    2.8350 H   0  0  0  0  0  0  0  0  0  0  0  0
   -2.2548    3.0119    1.2842 H   0  0  0  0  0  0  0  0  0  0  0  0
   -3.1271    2.7555    2.8074 H   0  0  0  0  0  0  0  0  0  0  0  0
   -0.3194    1.0610    0.2145 N   0  0  0  0  0  0  0  0  0  0  0  0
    0.8617    0.7979   -0.6322 C   0  0  2  0  0  0  0  0  0  0  0  0
    2.1618    1.4911   -0.1690 C   0  0  0  0  0  0  0  0  0  0  0  0
    3.0942    0.8269    0.2636 O   0  0  0  0  0  0  0  0  0  0  0  0
    0.5333    1.2128   -2.0774 C   0  0  0  0  0  0  0  0  0  0  0  0
   -0.5291    0.3140   -2.6620 C   0  0  0  0  0  0  0  0  0  0  0  0
   -0.1854   -0.9444   -3.1777 C   0  0  0  0  0  0  0  0  0  0  0  0
   -1.8709    0.7255   -2.7014 C   0  0  0  0  0  0  0  0  0  0  0  0
   -1.1687   -1.7848   -3.7102 C   0  0  0  0  0  0  0  0  0  0  0  0
   -2.8547   -0.1148   -3.2335 C   0  0  0  0  0  0  0  0  0  0  0  0
   -2.5038   -1.3711   -3.7361 C   0  0  0  0  0  0  0  0  0  0  0  0
   -1.2251    1.0306   -0.2474 H   0  0  0  0  0  0  0  0  0  0  0  0
    1.0678   -0.2781   -0.6111 H   0  0  0  0  0  0  0  0  0  0  0  0
    1.4364    1.1399   -2.6938 H   0  0  0  0  0  0  0  0  0  0  0  0
    0.2034    2.2564   -2.1066 H   0  0  0  0  0  0  0  0  0  0  0  0
    0.8485   -1.2785   -3.1622 H   0  0  0  0  0  0  0  0  0  0  0  0
   -2.1583    1.7029   -2.3258 H   0  0  0  0  0  0  0  0  0  0  0  0
   -0.8951   -2.7598   -4.1035 H   0  0  0  0  0  0  0  0  0  0  0  0
   -3.8918    0.2078   -3.2609 H   0  0  0  0  0  0  0  0  0  0  0  0
   -3.2668   -2.0243   -4.1497 H   0  0  0  0  0  0  0  0  0  0  0  0
    2.3488    2.8490   -0.3588 N   0  0  0  0  0  0  0  0  0  0  0  0
    3.5128    3.5795    0.1663 C   0  0  2  0  0  0  0  0  0  0  0  0
    3.3866    3.8503    1.6859 C   0  0  0  0  0  0  0  0  0  0  0  0
    3.3806    4.9915    2.1333 O   0  0  0  0  0  0  0  0  0  0  0  0
    3.6590    4.8618   -0.6627 C   0  0  0  0  0  0  0  0  0  0  0  0
    1.5176    3.3867   -0.5835 H   0  0  0  0  0  0  0  0  0  0  0  0
    4.4213    2.9847    0.0210 H   0  0  0  0  0  0  0  0  0  0  0  0
    2.7770    5.4994   -0.5457 H   0  0  0  0  0  0  0  0  0  0  0  0
    4.5388    5.4257   -0.3364 H   0  0  0  0  0  0  0  0  0  0  0  0
    3.7794    4.6192   -1.7228 H   0  0  0  0  0  0  0  0  0  0  0  0
    3.2232    2.7879    2.5528 N   0  0  0  0  0  0  0  0  0  0  0  0
    2.9394    2.9378    3.9720 C   0  0  0  0  0  0  0  0  0  0  0  0
    3.1015    1.8663    2.1231 H   0  0  0  0  0  0  0  0  0  0  0  0
    3.7453    3.4884    4.4682 H   0  0  0  0  0  0  0  0  0  0  0  0
    1.9981    3.4770    4.1188 H   0  0  0  0  0  0  0  0  0  0  0  0
    2.8523    1.9536    4.4420 H   0  0  0  0  0  0  0  0  0  0  0  0
  1  2  2  0  0  0  0
  1  3  1  0  0  0  0
  1  7  1  0  0  0  0
  3  4  1  0  0  0  0
  3  5  1  0  0  0  0
  3  6  1  0  0  0  0
  7  8  1  0  0  0  0
  7 12  1  0  0  0  0
  8  9  1  0  0  0  0
  8 11  1  0  0  0  0
  8 13  1  0  0  0  0
  9 10  2  0  0  0  0
  9 17  1  0  0  0  0
 11 14  1  0  0  0  0
 11 15  1  0  0  0  0
 11 16  1  0  0  0  0
 17 18  1  0  0  0  0
 17 28  1  0  0  0  0
 18 19  1  0  0  0  0
 18 21  1  0  0  0  0
 18 29  1  0  0  0  0
 19 20  2  0  0  0  0
 19 37  1  0  0  0  0
 21 22  1  0  0  0  0
 21 30  1  0  0  0  0
 21 31  1  0  0  0  0
 22 23  1  0  0  0  0
 22 24  2  0  0  0  0
 23 25  2  0  0  0  0
 23 32  1  0  0  0  0
 24 26  1  0  0  0  0
 24 33  1  0  0  0  0
 25 27  1  0  0  0  0
 25 34  1  0  0  0  0
 26 27  2  0  0  0  0
 26 35  1  0  0  0  0
 27 36  1  0  0  0  0
 37 38  1  0  0  0  0
 37 42  1  0  0  0  0
 38 39  1  0  0  0  0
 38 41  1  0  0  0  0
 38 43  1  0  0  0  0
 39 40  2  0  0  0  0
 39 47  1  0  0  0  0
 41 44  1  0  0  0  0
 41 45  1  0  0  0  0
 41 46  1  0  0  0  0
 47 48  1  0  0  0  0
 47 49  1  0  0  0  0
 48 50  1  0  0  0  0
 48 51  1  0  0  0  0
 48 52  1  0  0  0  0
M  END
$$$$

  -OEChem-05262217163D

 52 52  0     1  0  0  0  0  0999 V2000
   -2.6978    0.1425    4.4442 C   0  0  0  0  0  0  0  0  0  0  0  0
   -3.7986    0.0217    3.9298 O   0  0  0  0  0  0  0  0  0  0  0  0
   -2.4471   -0.3857    5.8440 C   0  0  0  0  0  0  0  0  0  0  0  0
   -3.3570   -0.8433    6.2425 H   0  0  0  0  0  0  0  0  0  0  0  0
   -1.6549   -1.1382    5.8233 H   0  0  0  0  0  0  0  0  0  0  0  0
   -2.1466    0.4322    6.5034 H   0  0  0  0  0  0  0  0  0  0  0  0
   -1.6758    0.7483    3.7446 N   0  0  0  0  0  0  0  0  0  0  0  0
   -1.7672    1.1608    2.3384 C   0  0  2  0  0  0  0  0  0  0  0  0
   -0.4104    1.0379    1.6141 C   0  0  0  0  0  0  0  0  0  0  0  0
    0.6180    0.9026    2.2641 O   0  0  0  0  0  0  0  0  0  0  0  0
   -2.2709    2.6067    2.2928 C   0  0  0  0  0  0  0  0  0  0  0  0
   -0.7447    0.7261    4.1595 H   0  0  0  0  0  0  0  0  0  0  0  0
   -2.4773    0.5143    1.8110 H   0  0  0  0  0  0  0  0  0  0  0  0
   -1.5700    3.2726    2.8069 H   0  0  0  0  0  0  0  0  0  0  0  0
   -2.3787    2.9453    1.2582 H   0  0  0  0  0  0  0  0  0  0  0  0
   -3.2470    2.6831    2.7829 H   0  0  0  0  0  0  0  0  0  0  0  0
   -0.3641    1.0600    0.2295 N   0  0  0  0  0  0  0  0  0  0  0  0
    0.8383    0.8381   -0.5988 C   0  0  2  0  0  0  0  0  0  0  0  0
    2.1033    1.5843   -0.1260 C   0  0  0  0  0  0  0  0  0  0  0  0
    3.1415    0.9708    0.0839 O   0  0  0  0  0  0  0  0  0  0  0  0
    0.5256    1.2519   -2.0467 C   0  0  0  0  0  0  0  0  0  0  0  0
   -0.4987    0.3249   -2.6543 C   0  0  0  0  0  0  0  0  0  0  0  0
   -0.1079   -0.9199   -3.1689 C   0  0  0  0  0  0  0  0  0  0  0  0
   -1.8507    0.6976   -2.7201 C   0  0  0  0  0  0  0  0  0  0  0  0
   -1.0554   -1.7878   -3.7218 C   0  0  0  0  0  0  0  0  0  0  0  0
   -2.7985   -0.1695   -3.2742 C   0  0  0  0  0  0  0  0  0  0  0  0
   -2.4013   -1.4138   -3.7728 C   0  0  0  0  0  0  0  0  0  0  0  0
   -1.2625    0.9965   -0.2431 H   0  0  0  0  0  0  0  0  0  0  0  0
    1.0832   -0.2296   -0.5761 H   0  0  0  0  0  0  0  0  0  0  0  0
    1.4419    1.2098   -2.6464 H   0  0  0  0  0  0  0  0  0  0  0  0
    0.1668    2.2862   -2.0759 H   0  0  0  0  0  0  0  0  0  0  0  0
    0.9351   -1.2218   -3.1350 H   0  0  0  0  0  0  0  0  0  0  0  0
   -2.1727    1.6662   -2.3496 H   0  0  0  0  0  0  0  0  0  0  0  0
   -0.7452   -2.7527   -4.1123 H   0  0  0  0  0  0  0  0  0  0  0  0
   -3.8434    0.1234   -3.3236 H   0  0  0  0  0  0  0  0  0  0  0  0
   -3.1360   -2.0879   -4.2043 H   0  0  0  0  0  0  0  0  0  0  0  0
    2.1104    2.9651   -0.0440 N   0  0  0  0  0  0  0  0  0  0  0  0
    3.2438    3.7366    0.4874 C   0  0  2  0  0  0  0  0  0  0  0  0
    3.2962    3.6911    2.0338 C   0  0  0  0  0  0  0  0  0  0  0  0
    3.1583    4.7046    2.7096 O   0  0  0  0  0  0  0  0  0  0  0  0
    3.1288    5.1613   -0.0684 C   0  0  0  0  0  0  0  0  0  0  0  0
    1.2005    3.4145   -0.0631 H   0  0  0  0  0  0  0  0  0  0  0  0
    4.1848    3.3120    0.1214 H   0  0  0  0  0  0  0  0  0  0  0  0
    2.2027    5.6349    0.2720 H   0  0  0  0  0  0  0  0  0  0  0  0
    3.9727    5.7693    0.2724 H   0  0  0  0  0  0  0  0  0  0  0  0
    3.1344    5.1457   -1.1624 H   0  0  0  0  0  0  0  0  0  0  0  0
    3.4509    2.4726    2.6636 N   0  0  0  0  0  0  0  0  0  0  0  0
    3.2837    2.2853    4.0972 C   0  0  0  0  0  0  0  0  0  0  0  0
    3.3905    1.6523    2.0550 H   0  0  0  0  0  0  0  0  0  0  0  0
    3.9687    2.9342    4.6528 H   0  0  0  0  0  0  0  0  0  0  0  0
    2.2555    2.5167    4.3942 H   0  0  0  0  0  0  0  0  0  0  0  0
    3.4978    1.2466    4.3666 H   0  0  0  0  0  0  0  0  0  0  0  0
  1  2  2  0  0  0  0
  1  3  1  0  0  0  0
  1  7  1  0  0  0  0
  3  4  1  0  0  0  0
  3  5  1  0  0  0  0
  3  6  1  0  0  0  0
  7  8  1  0  0  0  0
  7 12  1  0  0  0  0
  8  9  1  0  0  0  0
  8 11  1  0  0  0  0
  8 13  1  0  0  0  0
  9 10  2  0  0  0  0
  9 17  1  0  0  0  0
 11 14  1  0  0  0  0
 11 15  1  0  0  0  0
 11 16  1  0  0  0  0
 17 18  1  0  0  0  0
 17 28  1  0  0  0  0
 18 19  1  0  0  0  0
 18 21  1  0  0  0  0
 18 29  1  0  0  0  0
 19 20  2  0  0  0  0
 19 37  1  0  0  0  0
 21 22  1  0  0  0  0
 21 30  1  0  0  0  0
 21 31  1  0  0  0  0
 22 23  1  0  0  0  0
 22 24  2  0  0  0  0
 23 25  2  0  0  0  0
 23 32  1  0  0  0  0
 24 26  1  0  0  0  0
 24 33  1  0  0  0  0
 25 27  1  0  0  0  0
 25 34  1  0  0  0  0
 26 27  2  0  0  0  0
 26 35  1  0  0  0  0
 27 36  1  0  0  0  0
 37 38  1  0  0  0  0
 37 42  1  0  0  0  0
 38 39  1  0  0  0  0
 38 41  1  0  0  0  0
 38 43  1  0  0  0  0
 39 40  2  0  0  0  0
 39 47  1  0  0  0  0
 41 44  1  0  0  0  0
 41 45  1  0  0  0  0
 41 46  1  0  0  0  0
 47 48  1  0  0  0  0
 47 49  1  0  0  0  0
 48 50  1  0  0  0  0
 48 51  1  0  0  0  0
 48 52  1  0  0  0  0
M  END
$$$$

  -OEChem-05262217163D

 52 52  0     1  0  0  0  0  0999 V2000
   -2.7750    0.1380    4.4584 C   0  0  0  0  0  0  0  0  0  0  0  0
   -3.8626   -0.0509    3.9367 O   0  0  0  0  0  0  0  0  0  0  0  0
   -2.5232   -0.3172    5.8835 C   0  0  0  0  0  0  0  0  0  0  0  0
   -3.4338   -0.7505    6.3073 H   0  0  0  0  0  0  0  0  0  0  0  0
   -1.7333   -1.0719    5.9000 H   0  0  0  0  0  0  0  0  0  0  0  0
   -2.2188    0.5323    6.4998 H   0  0  0  0  0  0  0  0  0  0  0  0
   -1.7705    0.7550    3.7433 N   0  0  0  0  0  0  0  0  0  0  0  0
   -1.8630    1.1066    2.3205 C   0  0  2  0  0  0  0  0  0  0  0  0
   -0.4907    1.0273    1.6200 C   0  0  0  0  0  0  0  0  0  0  0  0
    0.5311    0.9278    2.2861 O   0  0  0  0  0  0  0  0  0  0  0  0
   -2.4416    2.5212    2.2131 C   0  0  0  0  0  0  0  0  0  0  0  0
   -0.8452    0.7959    4.1702 H   0  0  0  0  0  0  0  0  0  0  0  0
   -2.5302    0.4036    1.8098 H   0  0  0  0  0  0  0  0  0  0  0  0
   -1.7897    3.2400    2.7202 H   0  0  0  0  0  0  0  0  0  0  0  0
   -2.5440    2.8192    1.1655 H   0  0  0  0  0  0  0  0  0  0  0  0
   -3.4315    2.5605    2.6792 H   0  0  0  0  0  0  0  0  0  0  0  0
   -0.4146    1.0541    0.2370 N   0  0  0  0  0  0  0  0  0  0  0  0
    0.8163    0.8849   -0.5631 C   0  0  2  0  0  0  0  0  0  0  0  0
    2.0429    1.6801   -0.0682 C   0  0  0  0  0  0  0  0  0  0  0  0
    3.1558    1.1693   -0.0893 O   0  0  0  0  0  0  0  0  0  0  0  0
    0.5204    1.3035   -2.0124 C   0  0  0  0  0  0  0  0  0  0  0  0
   -0.4551    0.3478   -2.6552 C   0  0  0  0  0  0  0  0  0  0  0  0
   -0.0077   -0.8752   -3.1759 C   0  0  0  0  0  0  0  0  0  0  0  0
   -1.8186    0.6706   -2.7434 C   0  0  0  0  0  0  0  0  0  0  0  0
   -0.9108   -1.7694   -3.7599 C   0  0  0  0  0  0  0  0  0  0  0  0
   -2.7223   -0.2238   -3.3268 C   0  0  0  0  0  0  0  0  0  0  0  0
   -2.2687   -1.4454   -3.8331 C   0  0  0  0  0  0  0  0  0  0  0  0
   -1.2988    0.9661   -0.2585 H   0  0  0  0  0  0  0  0  0  0  0  0
    1.1031   -0.1723   -0.5429 H   0  0  0  0  0  0  0  0  0  0  0  0
    1.4506    1.3005   -2.5917 H   0  0  0  0  0  0  0  0  0  0  0  0
    0.1278    2.3254   -2.0371 H   0  0  0  0  0  0  0  0  0  0  0  0
    1.0453   -1.1386   -3.1234 H   0  0  0  0  0  0  0  0  0  0  0  0
   -2.1836    1.6213   -2.3668 H   0  0  0  0  0  0  0  0  0  0  0  0
   -0.5565   -2.7159   -4.1578 H   0  0  0  0  0  0  0  0  0  0  0  0
   -3.7765    0.0308   -3.3916 H   0  0  0  0  0  0  0  0  0  0  0  0
   -2.9692   -2.1405   -4.2872 H   0  0  0  0  0  0  0  0  0  0  0  0
    1.9140    3.0055    0.3065 N   0  0  0  0  0  0  0  0  0  0  0  0
    3.0121    3.7858    0.8950 C   0  0  2  0  0  0  0  0  0  0  0  0
    3.2521    3.4137    2.3781 C   0  0  0  0  0  0  0  0  0  0  0  0
    3.0408    4.2133    3.2835 O   0  0  0  0  0  0  0  0  0  0  0  0
    2.6826    5.2702    0.6951 C   0  0  0  0  0  0  0  0  0  0  0  0
    0.9653    3.3117    0.4982 H   0  0  0  0  0  0  0  0  0  0  0  0
    3.9425    3.5772    0.3560 H   0  0  0  0  0  0  0  0  0  0  0  0
    1.7608    5.5358    1.2223 H   0  0  0  0  0  0  0  0  0  0  0  0
    3.4949    5.8930    1.0836 H   0  0  0  0  0  0  0  0  0  0  0  0
    2.5555    5.4927   -0.3687 H   0  0  0  0  0  0  0  0  0  0  0  0
    3.6894    2.1401    2.6823 N   0  0  0  0  0  0  0  0  0  0  0  0
    3.7393    1.6155    4.0390 C   0  0  0  0  0  0  0  0  0  0  0  0
    3.6861    1.4792    1.9017 H   0  0  0  0  0  0  0  0  0  0  0  0
    4.3698    2.2476    4.6730 H   0  0  0  0  0  0  0  0  0  0  0  0
    2.7330    1.5742    4.4684 H   0  0  0  0  0  0  0  0  0  0  0  0
    4.1579    0.6047    4.0354 H   0  0  0  0  0  0  0  0  0  0  0  0
  1  2  2  0  0  0  0
  1  3  1  0  0  0  0
  1  7  1  0  0  0  0
  3  4  1  0  0  0  0
  3  5  1  0  0  0  0
  3  6  1  0  0  0  0
  7  8  1  0  0  0  0
  7 12  1  0  0  0  0
  8  9  1  0  0  0  0
  8 11  1  0  0  0  0
  8 13  1  0  0  0  0
  9 10  2  0  0  0  0
  9 17  1  0  0  0  0
 11 14  1  0  0  0  0
 11 15  1  0  0  0  0
 11 16  1  0  0  0  0
 17 18  1  0  0  0  0
 17 28  1  0  0  0  0
 18 19  1  0  0  0  0
 18 21  1  0  0  0  0
 18 29  1  0  0  0  0
 19 20  2  0  0  0  0
 19 37  1  0  0  0  0
 21 22  1  0  0  0  0
 21 30  1  0  0  0  0
 21 31  1  0  0  0  0
 22 23  1  0  0  0  0
 22 24  2  0  0  0  0
 23 25  2  0  0  0  0
 23 32  1  0  0  0  0
 24 26  1  0  0  0  0
 24 33  1  0  0  0  0
 25 27  1  0  0  0  0
 25 34  1  0  0  0  0
 26 27  2  0  0  0  0
 26 35  1  0  0  0  0
 27 36  1  0  0  0  0
 37 38  1  0  0  0  0
 37 42  1  0  0  0  0
 38 39  1  0  0  0  0
 38 41  1  0  0  0  0
 38 43  1  0  0  0  0
 39 40  2  0  0  0  0
 39 47  1  0  0  0  0
 41 44  1  0  0  0  0
 41 45  1  0  0  0  0
 41 46  1  0  0  0  0
 47 48  1  0  0  0  0
 47 49  1  0  0  0  0
 48 50  1  0  0  0  0
 48 51  1  0  0  0  0
 48 52  1  0  0  0  0
M  END
$$$$

  -OEChem-05262217163D

 52 52  0     1  0  0  0  0  0999 V2000
   -3.0868    0.0357    4.3665 C   0  0  0  0  0  0  0  0  0  0  0  0
   -4.1267   -0.2058    3.7742 O   0  0  0  0  0  0  0  0  0  0  0  0
   -2.9142   -0.3926    5.8117 C   0  0  0  0  0  0  0  0  0  0  0  0
   -3.8123   -0.9099    6.1613 H   0  0  0  0  0  0  0  0  0  0  0  0
   -2.0609   -1.0693    5.9020 H   0  0  0  0  0  0  0  0  0  0  0  0
   -2.7441    0.4836    6.4423 H   0  0  0  0  0  0  0  0  0  0  0  0
   -2.0651    0.6955    3.7169 N   0  0  0  0  0  0  0  0  0  0  0  0
   -2.0809    1.0438    2.2902 C   0  0  2  0  0  0  0  0  0  0  0  0
   -0.6642    1.0319    1.6797 C   0  0  0  0  0  0  0  0  0  0  0  0
    0.3176    0.9958    2.4089 O   0  0  0  0  0  0  0  0  0  0  0  0
   -2.7198    2.4281    2.1390 C   0  0  0  0  0  0  0  0  0  0  0  0
   -1.1725    0.7737    4.2042 H   0  0  0  0  0  0  0  0  0  0  0  0
   -2.6777    0.3090    1.7388 H   0  0  0  0  0  0  0  0  0  0  0  0
   -2.1379    3.1803    2.6816 H   0  0  0  0  0  0  0  0  0  0  0  0
   -2.7699    2.7180    1.0852 H   0  0  0  0  0  0  0  0  0  0  0  0
   -3.7381    2.4200    2.5410 H   0  0  0  0  0  0  0  0  0  0  0  0
   -0.5001    1.0636    0.3057 N   0  0  0  0  0  0  0  0  0  0  0  0
    0.7746    0.9159   -0.4294 C   0  0  2  0  0  0  0  0  0  0  0  0
    1.9891    1.7128    0.1015 C   0  0  0  0  0  0  0  0  0  0  0  0
    3.1226    1.3343   -0.1692 O   0  0  0  0  0  0  0  0  0  0  0  0
    0.5284    1.3413   -1.8872 C   0  0  0  0  0  0  0  0  0  0  0  0
   -0.4044    0.3752   -2.5774 C   0  0  0  0  0  0  0  0  0  0  0  0
    0.0829   -0.8356   -3.0905 C   0  0  0  0  0  0  0  0  0  0  0  0
   -1.7669    0.6802   -2.7239 C   0  0  0  0  0  0  0  0  0  0  0  0
   -0.7809   -1.7374   -3.7212 C   0  0  0  0  0  0  0  0  0  0  0  0
   -2.6308   -0.2196   -3.3571 C   0  0  0  0  0  0  0  0  0  0  0  0
   -2.1386   -1.4305   -3.8525 C   0  0  0  0  0  0  0  0  0  0  0  0
   -1.3509    0.9518   -0.2411 H   0  0  0  0  0  0  0  0  0  0  0  0
    1.0683   -0.1388   -0.4033 H   0  0  0  0  0  0  0  0  0  0  0  0
    1.4795    1.3594   -2.4315 H   0  0  0  0  0  0  0  0  0  0  0  0
    0.1213    2.3573   -1.9177 H   0  0  0  0  0  0  0  0  0  0  0  0
    1.1366   -1.0831   -2.9959 H   0  0  0  0  0  0  0  0  0  0  0  0
   -2.1609    1.6229   -2.3564 H   0  0  0  0  0  0  0  0  0  0  0  0
   -0.3961   -2.6756   -4.1113 H   0  0  0  0  0  0  0  0  0  0  0  0
   -3.6836    0.0229   -3.4706 H   0  0  0  0  0  0  0  0  0  0  0  0
   -2.8086   -2.1299   -4.3444 H   0  0  0  0  0  0  0  0  0  0  0  0
    1.8263    2.9221    0.7529 N   0  0  0  0  0  0  0  0  0  0  0  0
    2.9443    3.7193    1.2791 C   0  0  2  0  0  0  0  0  0  0  0  0
    3.5240    3.1306    2.5884 C   0  0  0  0  0  0  0  0  0  0  0  0
    3.4880    3.7504    3.6456 O   0  0  0  0  0  0  0  0  0  0  0  0
    2.4398    5.1582    1.4439 C   0  0  0  0  0  0  0  0  0  0  0  0
    0.9202    3.0398    1.1982 H   0  0  0  0  0  0  0  0  0  0  0  0
    3.7581    3.7349    0.5464 H   0  0  0  0  0  0  0  0  0  0  0  0
    1.6299    5.2012    2.1792 H   0  0  0  0  0  0  0  0  0  0  0  0
    3.2521    5.8074    1.7860 H   0  0  0  0  0  0  0  0  0  0  0  0
    2.0683    5.5439    0.4897 H   0  0  0  0  0  0  0  0  0  0  0  0
    4.1028    1.8776    2.5586 N   0  0  0  0  0  0  0  0  0  0  0  0
    4.5571    1.1686    3.7459 C   0  0  0  0  0  0  0  0  0  0  0  0
    4.0165    1.3690    1.6755 H   0  0  0  0  0  0  0  0  0  0  0  0
    5.3036    1.7612    4.2849 H   0  0  0  0  0  0  0  0  0  0  0  0
    3.7142    0.9667    4.4148 H   0  0  0  0  0  0  0  0  0  0  0  0
    5.0132    0.2150    3.4636 H   0  0  0  0  0  0  0  0  0  0  0  0
  1  2  2  0  0  0  0
  1  3  1  0  0  0  0
  1  7  1  0  0  0  0
  3  4  1  0  0  0  0
  3  5  1  0  0  0  0
  3  6  1  0  0  0  0
  7  8  1  0  0  0  0
  7 12  1  0  0  0  0
  8  9  1  0  0  0  0
  8 11  1  0  0  0  0
  8 13  1  0  0  0  0
  9 10  2  0  0  0  0
  9 17  1  0  0  0  0
 11 14  1  0  0  0  0
 11 15  1  0  0  0  0
 11 16  1  0  0  0  0
 17 18  1  0  0  0  0
 17 28  1  0  0  0  0
 18 19  1  0  0  0  0
 18 21  1  0  0  0  0
 18 29  1  0  0  0  0
 19 20  2  0  0  0  0
 19 37  1  0  0  0  0
 21 22  1  0  0  0  0
 21 30  1  0  0  0  0
 21 31  1  0  0  0  0
 22 23  1  0  0  0  0
 22 24  2  0  0  0  0
 23 25  2  0  0  0  0
 23 32  1  0  0  0  0
 24 26  1  0  0  0  0
 24 33  1  0  0  0  0
 25 27  1  0  0  0  0
 25 34  1  0  0  0  0
 26 27  2  0  0  0  0
 26 35  1  0  0  0  0
 27 36  1  0  0  0  0
 37 38  1  0  0  0  0
 37 42  1  0  0  0  0
 38 39  1  0  0  0  0
 38 41  1  0  0  0  0
 38 43  1  0  0  0  0
 39 40  2  0  0  0  0
 39 47  1  0  0  0  0
 41 44  1  0  0  0  0
 41 45  1  0  0  0  0
 41 46  1  0  0  0  0
 47 48  1  0  0  0  0
 47 49  1  0  0  0  0
 48 50  1  0  0  0  0
 48 51  1  0  0  0  0
 48 52  1  0  0  0  0
M  END
$$$$

  -OEChem-05262217163D

 52 52  0     1  0  0  0  0  0999 V2000
   -3.3537   -0.0132    4.2607 C   0  0  0  0  0  0  0  0  0  0  0  0
   -4.3682   -0.2159    3.6124 O   0  0  0  0  0  0  0  0  0  0  0  0
   -3.2572   -0.4877    5.6984 C   0  0  0  0  0  0  0  0  0  0  0  0
   -4.1758   -1.0066    5.9866 H   0  0  0  0  0  0  0  0  0  0  0  0
   -2.4148   -1.1749    5.8096 H   0  0  0  0  0  0  0  0  0  0  0  0
   -3.1117    0.3663    6.3643 H   0  0  0  0  0  0  0  0  0  0  0  0
   -2.2896    0.6447    3.6808 N   0  0  0  0  0  0  0  0  0  0  0  0
   -2.2277    1.0329    2.2655 C   0  0  2  0  0  0  0  0  0  0  0  0
   -0.7810    1.0187    1.7294 C   0  0  0  0  0  0  0  0  0  0  0  0
    0.1606    0.9766    2.5097 O   0  0  0  0  0  0  0  0  0  0  0  0
   -2.8395    2.4301    2.1214 C   0  0  0  0  0  0  0  0  0  0  0  0
   -1.4223    0.6948    4.2149 H   0  0  0  0  0  0  0  0  0  0  0  0
   -2.8054    0.3225    1.6638 H   0  0  0  0  0  0  0  0  0  0  0  0
   -2.2745    3.1589    2.7113 H   0  0  0  0  0  0  0  0  0  0  0  0
   -2.8343    2.7480    1.0745 H   0  0  0  0  0  0  0  0  0  0  0  0
   -3.8761    2.4270    2.4733 H   0  0  0  0  0  0  0  0  0  0  0  0
   -0.5454    1.0657    0.3670 N   0  0  0  0  0  0  0  0  0  0  0  0
    0.7562    0.9453   -0.3282 C   0  0  2  0  0  0  0  0  0  0  0  0
    1.9669    1.7413    0.2245 C   0  0  0  0  0  0  0  0  0  0  0  0
    3.0805    1.5272   -0.2415 O   0  0  0  0  0  0  0  0  0  0  0  0
    0.5217    1.3711   -1.7907 C   0  0  0  0  0  0  0  0  0  0  0  0
   -0.3756    0.3831   -2.4975 C   0  0  0  0  0  0  0  0  0  0  0  0
    0.1533   -0.8124   -3.0055 C   0  0  0  0  0  0  0  0  0  0  0  0
   -1.7443    0.6494   -2.6627 C   0  0  0  0  0  0  0  0  0  0  0  0
   -0.6758   -1.7387   -3.6468 C   0  0  0  0  0  0  0  0  0  0  0  0
   -2.5741   -0.2768   -3.3035 C   0  0  0  0  0  0  0  0  0  0  0  0
   -2.0405   -1.4729   -3.7928 C   0  0  0  0  0  0  0  0  0  0  0  0
   -1.3719    0.9768   -0.2195 H   0  0  0  0  0  0  0  0  0  0  0  0
    1.0604   -0.1062   -0.3028 H   0  0  0  0  0  0  0  0  0  0  0  0
    1.4767    1.4160   -2.3259 H   0  0  0  0  0  0  0  0  0  0  0  0
    0.0895    2.3768   -1.8229 H   0  0  0  0  0  0  0  0  0  0  0  0
    1.2127   -1.0286   -2.8973 H   0  0  0  0  0  0  0  0  0  0  0  0
   -2.1707    1.5806   -2.3019 H   0  0  0  0  0  0  0  0  0  0  0  0
   -0.2586   -2.6649   -4.0318 H   0  0  0  0  0  0  0  0  0  0  0  0
   -3.6329   -0.0672   -3.4269 H   0  0  0  0  0  0  0  0  0  0  0  0
   -2.6837   -2.1924   -4.2916 H   0  0  0  0  0  0  0  0  0  0  0  0
    1.8236    2.7735    1.1330 N   0  0  0  0  0  0  0  0  0  0  0  0
    2.9470    3.5674    1.6554 C   0  0  2  0  0  0  0  0  0  0  0  0
    3.7812    2.8024    2.7129 C   0  0  0  0  0  0  0  0  0  0  0  0
    3.9041    3.2145    3.8609 O   0  0  0  0  0  0  0  0  0  0  0  0
    2.3584    4.8758    2.1971 C   0  0  0  0  0  0  0  0  0  0  0  0
    1.0137    2.6635    1.7432 H   0  0  0  0  0  0  0  0  0  0  0  0
    3.6266    3.8220    0.8353 H   0  0  0  0  0  0  0  0  0  0  0  0
    1.6761    4.6747    3.0294 H   0  0  0  0  0  0  0  0  0  0  0  0
    3.1581    5.5314    2.5561 H   0  0  0  0  0  0  0  0  0  0  0  0
    1.8079    5.4013    1.4110 H   0  0  0  0  0  0  0  0  0  0  0  0
    4.4209    1.6350    2.3463 N   0  0  0  0  0  0  0  0  0  0  0  0
    5.1647    0.7891    3.2687 C   0  0  0  0  0  0  0  0  0  0  0  0
    4.2404    1.3056    1.3948 H   0  0  0  0  0  0  0  0  0  0  0  0
    5.9567    1.3623    3.7617 H   0  0  0  0  0  0  0  0  0  0  0  0
    4.4969    0.3791    4.0332 H   0  0  0  0  0  0  0  0  0  0  0  0
    5.6269   -0.0424    2.7283 H   0  0  0  0  0  0  0  0  0  0  0  0
  1  2  2  0  0  0  0
  1  3  1  0  0  0  0
  1  7  1  0  0  0  0
  3  4  1  0  0  0  0
  3  5  1  0  0  0  0
  3  6  1  0  0  0  0
  7  8  1  0  0  0  0
  7 12  1  0  0  0  0
  8  9  1  0  0  0  0
  8 11  1  0  0  0  0
  8 13  1  0  0  0  0
  9 10  2  0  0  0  0
  9 17  1  0  0  0  0
 11 14  1  0  0  0  0
 11 15  1  0  0  0  0
 11 16  1  0  0  0  0
 17 18  1  0  0  0  0
 17 28  1  0  0  0  0
 18 19  1  0  0  0  0
 18 21  1  0  0  0  0
 18 29  1  0  0  0  0
 19 20  2  0  0  0  0
 19 37  1  0  0  0  0
 21 22  1  0  0  0  0
 21 30  1  0  0  0  0
 21 31  1  0  0  0  0
 22 23  1  0  0  0  0
 22 24  2  0  0  0  0
 23 25  2  0  0  0  0
 23 32  1  0  0  0  0
 24 26  1  0  0  0  0
 24 33  1  0  0  0  0
 25 27  1  0  0  0  0
 25 34  1  0  0  0  0
 26 27  2  0  0  0  0
 26 35  1  0  0  0  0
 27 36  1  0  0  0  0
 37 38  1  0  0  0  0
 37 42  1  0  0  0  0
 38 39  1  0  0  0  0
 38 41  1  0  0  0  0
 38 43  1  0  0  0  0
 39 40  2  0  0  0  0
 39 47  1  0  0  0  0
 41 44  1  0  0  0  0
 41 45  1  0  0  0  0
 41 46  1  0  0  0  0
 47 48  1  0  0  0  0
 47 49  1  0  0  0  0
 48 50  1  0  0  0  0
 48 51  1  0  0  0  0
 48 52  1  0  0  0  0
M  END
$$$$

  -OEChem-05262217163D

 52 52  0     1  0  0  0  0  0999 V2000
   -3.5441   -0.0384    4.1679 C   0  0  0  0  0  0  0  0  0  0  0  0
   -4.5471   -0.1487    3.4807 O   0  0  0  0  0  0  0  0  0  0  0  0
   -3.5138   -0.6081    5.5733 C   0  0  0  0  0  0  0  0  0  0  0  0
   -4.4964   -1.0075    5.8398 H   0  0  0  0  0  0  0  0  0  0  0  0
   -2.7778   -1.4137    5.6330 H   0  0  0  0  0  0  0  0  0  0  0  0
   -3.2464    0.1743    6.2879 H   0  0  0  0  0  0  0  0  0  0  0  0
   -2.4287    0.5921    3.6587 N   0  0  0  0  0  0  0  0  0  0  0  0
   -2.2971    1.0399    2.2661 C   0  0  2  0  0  0  0  0  0  0  0  0
   -0.8350    0.9696    1.7789 C   0  0  0  0  0  0  0  0  0  0  0  0
    0.0719    0.8318    2.5895 O   0  0  0  0  0  0  0  0  0  0  0  0
   -2.8287    2.4731    2.1643 C   0  0  0  0  0  0  0  0  0  0  0  0
   -1.5756    0.5542    4.2162 H   0  0  0  0  0  0  0  0  0  0  0  0
   -2.8899    0.3888    1.6139 H   0  0  0  0  0  0  0  0  0  0  0  0
   -2.2473    3.1440    2.8047 H   0  0  0  0  0  0  0  0  0  0  0  0
   -2.7684    2.8346    1.1333 H   0  0  0  0  0  0  0  0  0  0  0  0
   -3.8763    2.5115    2.4806 H   0  0  0  0  0  0  0  0  0  0  0  0
   -0.5551    1.0271    0.4253 N   0  0  0  0  0  0  0  0  0  0  0  0
    0.7596    0.9266   -0.2507 C   0  0  2  0  0  0  0  0  0  0  0  0
    1.9684    1.7275    0.3119 C   0  0  0  0  0  0  0  0  0  0  0  0
    3.0444    1.6707   -0.2734 O   0  0  0  0  0  0  0  0  0  0  0  0
    0.5142    1.3644   -1.7111 C   0  0  0  0  0  0  0  0  0  0  0  0
   -0.3683    0.3743   -2.4344 C   0  0  0  0  0  0  0  0  0  0  0  0
    0.1772   -0.8057   -2.9605 C   0  0  0  0  0  0  0  0  0  0  0  0
   -1.7384    0.6296   -2.6065 C   0  0  0  0  0  0  0  0  0  0  0  0
   -0.6364   -1.7266   -3.6292 C   0  0  0  0  0  0  0  0  0  0  0  0
   -2.5524   -0.2906   -3.2756 C   0  0  0  0  0  0  0  0  0  0  0  0
   -2.0019   -1.4703   -3.7852 C   0  0  0  0  0  0  0  0  0  0  0  0
   -1.3686    1.0106   -0.1855 H   0  0  0  0  0  0  0  0  0  0  0  0
    1.0718   -0.1225   -0.2342 H   0  0  0  0  0  0  0  0  0  0  0  0
    1.4644    1.4304   -2.2524 H   0  0  0  0  0  0  0  0  0  0  0  0
    0.0677    2.3642   -1.7300 H   0  0  0  0  0  0  0  0  0  0  0  0
    1.2381   -1.0125   -2.8488 H   0  0  0  0  0  0  0  0  0  0  0  0
   -2.1779    1.5490   -2.2320 H   0  0  0  0  0  0  0  0  0  0  0  0
   -0.2060   -2.6400   -4.0301 H   0  0  0  0  0  0  0  0  0  0  0  0
   -3.6115   -0.0873   -3.4069 H   0  0  0  0  0  0  0  0  0  0  0  0
   -2.6326   -2.1842   -4.3075 H   0  0  0  0  0  0  0  0  0  0  0  0
    1.8906    2.5436    1.4244 N   0  0  0  0  0  0  0  0  0  0  0  0
    3.0145    3.3241    1.9662 C   0  0  2  0  0  0  0  0  0  0  0  0
    4.0083    2.4623    2.7826 C   0  0  0  0  0  0  0  0  0  0  0  0
    4.2856    2.7236    3.9475 O   0  0  0  0  0  0  0  0  0  0  0  0
    2.4085    4.4697    2.7862 C   0  0  0  0  0  0  0  0  0  0  0  0
    1.1388    2.2959    2.0701 H   0  0  0  0  0  0  0  0  0  0  0  0
    3.5814    3.7682    1.1410 H   0  0  0  0  0  0  0  0  0  0  0  0
    1.8383    4.0758    3.6340 H   0  0  0  0  0  0  0  0  0  0  0  0
    3.2000    5.1196    3.1732 H   0  0  0  0  0  0  0  0  0  0  0  0
    1.7408    5.0728    2.1636 H   0  0  0  0  0  0  0  0  0  0  0  0
    4.6264    1.3892    2.1724 N   0  0  0  0  0  0  0  0  0  0  0  0
    5.5915    0.5207    2.8313 C   0  0  0  0  0  0  0  0  0  0  0  0
    4.3711    1.2165    1.1971 H   0  0  0  0  0  0  0  0  0  0  0  0
    6.4787    1.0906    3.1265 H   0  0  0  0  0  0  0  0  0  0  0  0
    5.1499    0.0662    3.7244 H   0  0  0  0  0  0  0  0  0  0  0  0
    5.9023   -0.2798    2.1532 H   0  0  0  0  0  0  0  0  0  0  0  0
  1  2  2  0  0  0  0
  1  3  1  0  0  0  0
  1  7  1  0  0  0  0
  3  4  1  0  0  0  0
  3  5  1  0  0  0  0
  3  6  1  0  0  0  0
  7  8  1  0  0  0  0
  7 12  1  0  0  0  0
  8  9  1  0  0  0  0
  8 11  1  0  0  0  0
  8 13  1  0  0  0  0
  9 10  2  0  0  0  0
  9 17  1  0  0  0  0
 11 14  1  0  0  0  0
 11 15  1  0  0  0  0
 11 16  1  0  0  0  0
 17 18  1  0  0  0  0
 17 28  1  0  0  0  0
 18 19  1  0  0  0  0
 18 21  1  0  0  0  0
 18 29  1  0  0  0  0
 19 20  2  0  0  0  0
 19 37  1  0  0  0  0
 21 22  1  0  0  0  0
 21 30  1  0  0  0  0
 21 31  1  0  0  0  0
 22 23  1  0  0  0  0
 22 24  2  0  0  0  0
 23 25  2  0  0  0  0
 23 32  1  0  0  0  0
 24 26  1  0  0  0  0
 24 33  1  0  0  0  0
 25 27  1  0  0  0  0
 25 34  1  0  0  0  0
 26 27  2  0  0  0  0
 26 35  1  0  0  0  0
 27 36  1  0  0  0  0
 37 38  1  0  0  0  0
 37 42  1  0  0  0  0
 38 39  1  0  0  0  0
 38 41  1  0  0  0  0
 38 43  1  0  0  0  0
 39 40  2  0  0  0  0
 39 47  1  0  0  0  0
 41 44  1  0  0  0  0
 41 45  1  0  0  0  0
 41 46  1  0  0  0  0
 47 48  1  0  0  0  0
 47 49  1  0  0  0  0
 48 50  1  0  0  0  0
 48 51  1  0  0  0  0
 48 52  1  0  0  0  0
M  END
$$$$

  -OEChem-05262217163D

 52 52  0     1  0  0  0  0  0999 V2000
   -3.6999    0.0196    4.1177 C   0  0  0  0  0  0  0  0  0  0  0  0
   -4.7025    0.0455    3.4217 O   0  0  0  0  0  0  0  0  0  0  0  0
   -3.7429   -0.6067    5.4986 C   0  0  0  0  0  0  0  0  0  0  0  0
   -4.7704   -0.8761    5.7587 H   0  0  0  0  0  0  0  0  0  0  0  0
   -3.1259   -1.5084    5.5184 H   0  0  0  0  0  0  0  0  0  0  0  0
   -3.3660    0.1004    6.2416 H   0  0  0  0  0  0  0  0  0  0  0  0
   -2.5195    0.5489    3.6408 N   0  0  0  0  0  0  0  0  0  0  0  0
   -2.3287    1.0429    2.2707 C   0  0  2  0  0  0  0  0  0  0  0  0
   -0.8659    0.8894    1.8054 C   0  0  0  0  0  0  0  0  0  0  0  0
    0.0055    0.6143    2.6206 O   0  0  0  0  0  0  0  0  0  0  0  0
   -2.7537    2.5140    2.2173 C   0  0  0  0  0  0  0  0  0  0  0  0
   -1.6802    0.3964    4.1996 H   0  0  0  0  0  0  0  0  0  0  0  0
   -2.9528    0.4617    1.5829 H   0  0  0  0  0  0  0  0  0  0  0  0
   -2.1390    3.1155    2.8947 H   0  0  0  0  0  0  0  0  0  0  0  0
   -2.6455    2.9100    1.2032 H   0  0  0  0  0  0  0  0  0  0  0  0
   -3.8021    2.6167    2.5152 H   0  0  0  0  0  0  0  0  0  0  0  0
   -0.5567    0.9894    0.4609 N   0  0  0  0  0  0  0  0  0  0  0  0
    0.7663    0.9211   -0.2040 C   0  0  2  0  0  0  0  0  0  0  0  0
    1.9668    1.7166    0.3946 C   0  0  0  0  0  0  0  0  0  0  0  0
    2.9804    1.8744   -0.2776 O   0  0  0  0  0  0  0  0  0  0  0  0
    0.5168    1.3763   -1.6608 C   0  0  0  0  0  0  0  0  0  0  0  0
   -0.3448    0.3808   -2.4020 C   0  0  0  0  0  0  0  0  0  0  0  0
    0.2240   -0.7811   -2.9439 C   0  0  0  0  0  0  0  0  0  0  0  0
   -1.7184    0.6144   -2.5776 C   0  0  0  0  0  0  0  0  0  0  0  0
   -0.5705   -1.7074   -3.6279 C   0  0  0  0  0  0  0  0  0  0  0  0
   -2.5133   -0.3111   -3.2620 C   0  0  0  0  0  0  0  0  0  0  0  0
   -1.9401   -1.4742   -3.7843 C   0  0  0  0  0  0  0  0  0  0  0  0
   -1.3573    1.0783   -0.1596 H   0  0  0  0  0  0  0  0  0  0  0  0
    1.0886   -0.1254   -0.2055 H   0  0  0  0  0  0  0  0  0  0  0  0
    1.4639    1.4646   -2.2033 H   0  0  0  0  0  0  0  0  0  0  0  0
    0.0539    2.3686   -1.6674 H   0  0  0  0  0  0  0  0  0  0  0  0
    1.2880   -0.9698   -2.8314 H   0  0  0  0  0  0  0  0  0  0  0  0
   -2.1757    1.5212   -2.1939 H   0  0  0  0  0  0  0  0  0  0  0  0
   -0.1225   -2.6070   -4.0398 H   0  0  0  0  0  0  0  0  0  0  0  0
   -3.5755   -0.1250   -3.3940 H   0  0  0  0  0  0  0  0  0  0  0  0
   -2.5563   -2.1922   -4.3178 H   0  0  0  0  0  0  0  0  0  0  0  0
    1.9792    2.2542    1.6670 N   0  0  0  0  0  0  0  0  0  0  0  0
    3.1035    2.9946    2.2606 C   0  0  2  0  0  0  0  0  0  0  0  0
    4.2348    2.0648    2.7628 C   0  0  0  0  0  0  0  0  0  0  0  0
    4.6176    2.0807    3.9270 O   0  0  0  0  0  0  0  0  0  0  0  0
    2.5200    3.8779    3.3700 C   0  0  0  0  0  0  0  0  0  0  0  0
    1.2760    1.8729    2.3029 H   0  0  0  0  0  0  0  0  0  0  0  0
    3.5449    3.6556    1.5072 H   0  0  0  0  0  0  0  0  0  0  0  0
    2.0714    3.2617    4.1561 H   0  0  0  0  0  0  0  0  0  0  0  0
    3.3064    4.4933    3.8185 H   0  0  0  0  0  0  0  0  0  0  0  0
    1.7516    4.5425    2.9637 H   0  0  0  0  0  0  0  0  0  0  0  0
    4.8523    1.2149    1.8669 N   0  0  0  0  0  0  0  0  0  0  0  0
    5.9398    0.3111    2.2149 C   0  0  0  0  0  0  0  0  0  0  0  0
    4.5051    1.2453    0.9054 H   0  0  0  0  0  0  0  0  0  0  0  0
    6.8101    0.8768    2.5635 H   0  0  0  0  0  0  0  0  0  0  0  0
    5.6266   -0.3777    3.0063 H   0  0  0  0  0  0  0  0  0  0  0  0
    6.2357   -0.2783    1.3418 H   0  0  0  0  0  0  0  0  0  0  0  0
  1  2  2  0  0  0  0
  1  3  1  0  0  0  0
  1  7  1  0  0  0  0
  3  4  1  0  0  0  0
  3  5  1  0  0  0  0
  3  6  1  0  0  0  0
  7  8  1  0  0  0  0
  7 12  1  0  0  0  0
  8  9  1  0  0  0  0
  8 11  1  0  0  0  0
  8 13  1  0  0  0  0
  9 10  2  0  0  0  0
  9 17  1  0  0  0  0
 11 14  1  0  0  0  0
 11 15  1  0  0  0  0
 11 16  1  0  0  0  0
 17 18  1  0  0  0  0
 17 28  1  0  0  0  0
 18 19  1  0  0  0  0
 18 21  1  0  0  0  0
 18 29  1  0  0  0  0
 19 20  2  0  0  0  0
 19 37  1  0  0  0  0
 21 22  1  0  0  0  0
 21 30  1  0  0  0  0
 21 31  1  0  0  0  0
 22 23  1  0  0  0  0
 22 24  2  0  0  0  0
 23 25  2  0  0  0  0
 23 32  1  0  0  0  0
 24 26  1  0  0  0  0
 24 33  1  0  0  0  0
 25 27  1  0  0  0  0
 25 34  1  0  0  0  0
 26 27  2  0  0  0  0
 26 35  1  0  0  0  0
 27 36  1  0  0  0  0
 37 38  1  0  0  0  0
 37 42  1  0  0  0  0
 38 39  1  0  0  0  0
 38 41  1  0  0  0  0
 38 43  1  0  0  0  0
 39 40  2  0  0  0  0
 39 47  1  0  0  0  0
 41 44  1  0  0  0  0
 41 45  1  0  0  0  0
 41 46  1  0  0  0  0
 47 48  1  0  0  0  0
 47 49  1  0  0  0  0
 48 50  1  0  0  0  0
 48 51  1  0  0  0  0
 48 52  1  0  0  0  0
M  END
$$$$

  -OEChem-05262217163D

 52 52  0     1  0  0  0  0  0999 V2000
   -0.7330    2.9619    2.3957 C   0  0  0  0  0  0  0  0  0  0  0  0
   -1.0792    3.0179    1.2249 O   0  0  0  0  0  0  0  0  0  0  0  0
    0.1152    4.0782    2.9749 C   0  0  0  0  0  0  0  0  0  0  0  0
    0.8299    3.6793    3.6978 H   0  0  0  0  0  0  0  0  0  0  0  0
    0.6658    4.5853    2.1780 H   0  0  0  0  0  0  0  0  0  0  0  0
   -0.5269    4.8036    3.4803 H   0  0  0  0  0  0  0  0  0  0  0  0
   -1.1216    1.9048    3.1959 N   0  0  0  0  0  0  0  0  0  0  0  0
   -2.0427    0.8047    2.8339 C   0  0  2  0  0  0  0  0  0  0  0  0
   -1.4456   -0.2064    1.8328 C   0  0  0  0  0  0  0  0  0  0  0  0
   -1.4366   -1.3989    2.1124 O   0  0  0  0  0  0  0  0  0  0  0  0
   -3.3977    1.3329    2.3410 C   0  0  0  0  0  0  0  0  0  0  0  0
   -0.5671    1.7946    4.0480 H   0  0  0  0  0  0  0  0  0  0  0  0
   -2.2406    0.2455    3.7543 H   0  0  0  0  0  0  0  0  0  0  0  0
   -3.3127    1.7885    1.3499 H   0  0  0  0  0  0  0  0  0  0  0  0
   -4.1177    0.5111    2.2751 H   0  0  0  0  0  0  0  0  0  0  0  0
   -3.7895    2.0812    3.0368 H   0  0  0  0  0  0  0  0  0  0  0  0
   -0.8026    0.2246    0.6900 N   0  0  0  0  0  0  0  0  0  0  0  0
    0.3615   -0.4013    0.0207 C   0  0  2  0  0  0  0  0  0  0  0  0
    1.5367   -0.8495    0.9471 C   0  0  0  0  0  0  0  0  0  0  0  0
    2.6947   -0.5894    0.6367 O   0  0  0  0  0  0  0  0  0  0  0  0
    0.8304    0.5953   -1.0645 C   0  0  0  0  0  0  0  0  0  0  0  0
   -0.1990    0.7391   -2.1619 C   0  0  0  0  0  0  0  0  0  0  0  0
   -0.2785   -0.2143   -3.1883 C   0  0  0  0  0  0  0  0  0  0  0  0
   -1.0888    1.8245   -2.1705 C   0  0  0  0  0  0  0  0  0  0  0  0
   -1.2348   -0.0892   -4.2021 C   0  0  0  0  0  0  0  0  0  0  0  0
   -2.0468    1.9495   -3.1819 C   0  0  0  0  0  0  0  0  0  0  0  0
   -2.1208    0.9924   -4.1982 C   0  0  0  0  0  0  0  0  0  0  0  0
   -0.8904    1.2357    0.5521 H   0  0  0  0  0  0  0  0  0  0  0  0
    0.0154   -1.3141   -0.4743 H   0  0  0  0  0  0  0  0  0  0  0  0
    1.7605    0.2439   -1.5233 H   0  0  0  0  0  0  0  0  0  0  0  0
    1.0432    1.5678   -0.6077 H   0  0  0  0  0  0  0  0  0  0  0  0
    0.4048   -1.0581   -3.2004 H   0  0  0  0  0  0  0  0  0  0  0  0
   -1.0421    2.5771   -1.3885 H   0  0  0  0  0  0  0  0  0  0  0  0
   -1.2890   -0.8329   -4.9917 H   0  0  0  0  0  0  0  0  0  0  0  0
   -2.7324    2.7917   -3.1756 H   0  0  0  0  0  0  0  0  0  0  0  0
   -2.8643    1.0902   -4.9837 H   0  0  0  0  0  0  0  0  0  0  0  0
    1.3116   -1.2548    2.2520 N   0  0  0  0  0  0  0  0  0  0  0  0
    2.1609   -0.9575    3.4159 C   0  0  2  0  0  0  0  0  0  0  0  0
    2.3866    0.5620    3.5777 C   0  0  0  0  0  0  0  0  0  0  0  0
    1.6261    1.2165    4.2866 O   0  0  0  0  0  0  0  0  0  0  0  0
    3.4709   -1.7603    3.3865 C   0  0  0  0  0  0  0  0  0  0  0  0
    0.3333   -1.4780    2.4478 H   0  0  0  0  0  0  0  0  0  0  0  0
    1.6160   -1.2819    4.3083 H   0  0  0  0  0  0  0  0  0  0  0  0
    4.1135   -1.4584    2.5551 H   0  0  0  0  0  0  0  0  0  0  0  0
    4.0243   -1.6082    4.3182 H   0  0  0  0  0  0  0  0  0  0  0  0
    3.2543   -2.8278    3.2830 H   0  0  0  0  0  0  0  0  0  0  0  0
    3.3363    1.2051    2.8079 N   0  0  0  0  0  0  0  0  0  0  0  0
    3.4717    2.6517    2.7215 C   0  0  0  0  0  0  0  0  0  0  0  0
    3.6791    0.6464    2.0217 H   0  0  0  0  0  0  0  0  0  0  0  0
    2.7056    3.0646    2.0587 H   0  0  0  0  0  0  0  0  0  0  0  0
    3.3755    3.1141    3.7094 H   0  0  0  0  0  0  0  0  0  0  0  0
    4.4560    2.9112    2.3202 H   0  0  0  0  0  0  0  0  0  0  0  0
  1  2  2  0  0  0  0
  1  3  1  0  0  0  0
  1  7  1  0  0  0  0
  3  4  1  0  0  0  0
  3  5  1  0  0  0  0
  3  6  1  0  0  0  0
  7  8  1  0  0  0  0
  7 12  1  0  0  0  0
  8  9  1  0  0  0  0
  8 11  1  0  0  0  0
  8 13  1  0  0  0  0
  9 10  2  0  0  0  0
  9 17  1  0  0  0  0
 11 14  1  0  0  0  0
 11 15  1  0  0  0  0
 11 16  1  0  0  0  0
 17 18  1  0  0  0  0
 17 28  1  0  0  0  0
 18 19  1  0  0  0  0
 18 21  1  0  0  0  0
 18 29  1  0  0  0  0
 19 20  2  0  0  0  0
 19 37  1  0  0  0  0
 21 22  1  0  0  0  0
 21 30  1  0  0  0  0
 21 31  1  0  0  0  0
 22 23  1  0  0  0  0
 22 24  2  0  0  0  0
 23 25  2  0  0  0  0
 23 32  1  0  0  0  0
 24 26  1  0  0  0  0
 24 33  1  0  0  0  0
 25 27  1  0  0  0  0
 25 34  1  0  0  0  0
 26 27  2  0  0  0  0
 26 35  1  0  0  0  0
 27 36  1  0  0  0  0
 37 38  1  0  0  0  0
 37 42  1  0  0  0  0
 38 39  1  0  0  0  0
 38 41  1  0  0  0  0
 38 43  1  0  0  0  0
 39 40  2  0  0  0  0
 39 47  1  0  0  0  0
 41 44  1  0  0  0  0
 41 45  1  0  0  0  0
 41 46  1  0  0  0  0
 47 48  1  0  0  0  0
 47 49  1  0  0  0  0
 48 50  1  0  0  0  0
 48 51  1  0  0  0  0
 48 52  1  0  0  0  0
M  END
$$$$

  -OEChem-05262217163D

 52 52  0     1  0  0  0  0  0999 V2000
   -2.5520    2.4511    2.6314 C   0  0  0  0  0  0  0  0  0  0  0  0
   -2.5366    2.4620    1.4110 O   0  0  0  0  0  0  0  0  0  0  0  0
   -2.7057    3.7549    3.3917 C   0  0  0  0  0  0  0  0  0  0  0  0
   -3.6000    3.7196    4.0187 H   0  0  0  0  0  0  0  0  0  0  0  0
   -1.8309    3.9248    4.0245 H   0  0  0  0  0  0  0  0  0  0  0  0
   -2.8001    4.5912    2.6929 H   0  0  0  0  0  0  0  0  0  0  0  0
   -2.3954    1.2682    3.3305 N   0  0  0  0  0  0  0  0  0  0  0  0
   -2.2465   -0.0877    2.7601 C   0  0  2  0  0  0  0  0  0  0  0  0
   -0.9307   -0.3107    1.9788 C   0  0  0  0  0  0  0  0  0  0  0  0
   -0.1763   -1.2082    2.3288 O   0  0  0  0  0  0  0  0  0  0  0  0
   -3.4668   -0.4696    1.9089 C   0  0  0  0  0  0  0  0  0  0  0  0
   -2.3937    1.3518    4.3436 H   0  0  0  0  0  0  0  0  0  0  0  0
   -2.2194   -0.7861    3.6034 H   0  0  0  0  0  0  0  0  0  0  0  0
   -3.5115    0.1180    0.9869 H   0  0  0  0  0  0  0  0  0  0  0  0
   -3.4157   -1.5280    1.6343 H   0  0  0  0  0  0  0  0  0  0  0  0
   -4.3900   -0.3035    2.4721 H   0  0  0  0  0  0  0  0  0  0  0  0
   -0.6310    0.4490    0.8645 N   0  0  0  0  0  0  0  0  0  0  0  0
    0.6699    0.6271    0.1820 C   0  0  2  0  0  0  0  0  0  0  0  0
    1.9207    0.8906    1.0750 C   0  0  0  0  0  0  0  0  0  0  0  0
    2.7153    1.7836    0.7983 O   0  0  0  0  0  0  0  0  0  0  0  0
    0.4695    1.7421   -0.8701 C   0  0  0  0  0  0  0  0  0  0  0  0
   -0.4692    1.2970   -1.9683 C   0  0  0  0  0  0  0  0  0  0  0  0
    0.0013    0.4984   -3.0216 C   0  0  0  0  0  0  0  0  0  0  0  0
   -1.8192    1.6801   -1.9562 C   0  0  0  0  0  0  0  0  0  0  0  0
   -0.8645    0.0800   -4.0381 C   0  0  0  0  0  0  0  0  0  0  0  0
   -2.6866    1.2604   -2.9698 C   0  0  0  0  0  0  0  0  0  0  0  0
   -2.2101    0.4589   -4.0111 C   0  0  0  0  0  0  0  0  0  0  0  0
   -1.3293    1.1746    0.6770 H   0  0  0  0  0  0  0  0  0  0  0  0
    0.8932   -0.3038   -0.3486 H   0  0  0  0  0  0  0  0  0  0  0  0
    1.4269    2.0018   -1.3337 H   0  0  0  0  0  0  0  0  0  0  0  0
    0.0912    2.6474   -0.3833 H   0  0  0  0  0  0  0  0  0  0  0  0
    1.0445    0.1983   -3.0524 H   0  0  0  0  0  0  0  0  0  0  0  0
   -2.2031    2.3088   -1.1587 H   0  0  0  0  0  0  0  0  0  0  0  0
   -0.4900   -0.5384   -4.8485 H   0  0  0  0  0  0  0  0  0  0  0  0
   -3.7300    1.5605   -2.9468 H   0  0  0  0  0  0  0  0  0  0  0  0
   -2.8830    0.1341   -4.7993 H   0  0  0  0  0  0  0  0  0  0  0  0
    2.1866    0.1683    2.2214 N   0  0  0  0  0  0  0  0  0  0  0  0
    3.2367    0.4716    3.2059 C   0  0  2  0  0  0  0  0  0  0  0  0
    4.6496    0.0149    2.7633 C   0  0  0  0  0  0  0  0  0  0  0  0
    5.3486   -0.7026    3.4698 O   0  0  0  0  0  0  0  0  0  0  0  0
    2.7942   -0.1678    4.5281 C   0  0  0  0  0  0  0  0  0  0  0  0
    1.5279   -0.5858    2.4338 H   0  0  0  0  0  0  0  0  0  0  0  0
    3.2868    1.5548    3.3567 H   0  0  0  0  0  0  0  0  0  0  0  0
    2.7450   -1.2573    4.4289 H   0  0  0  0  0  0  0  0  0  0  0  0
    3.5034    0.0760    5.3254 H   0  0  0  0  0  0  0  0  0  0  0  0
    1.8064    0.2015    4.8192 H   0  0  0  0  0  0  0  0  0  0  0  0
    5.1647    0.4775    1.5689 N   0  0  0  0  0  0  0  0  0  0  0  0
    6.5032    0.1769    1.0809 C   0  0  0  0  0  0  0  0  0  0  0  0
    4.5526    1.0913    1.0250 H   0  0  0  0  0  0  0  0  0  0  0  0
    7.2580    0.5315    1.7905 H   0  0  0  0  0  0  0  0  0  0  0  0
    6.6270   -0.9022    0.9433 H   0  0  0  0  0  0  0  0  0  0  0  0
    6.6734    0.6710    0.1197 H   0  0  0  0  0  0  0  0  0  0  0  0
  1  2  2  0  0  0  0
  1  3  1  0  0  0  0
  1  7  1  0  0  0  0
  3  4  1  0  0  0  0
  3  5  1  0  0  0  0
  3  6  1  0  0  0  0
  7  8  1  0  0  0  0
  7 12  1  0  0  0  0
  8  9  1  0  0  0  0
  8 11  1  0  0  0  0
  8 13  1  0  0  0  0
  9 10  2  0  0  0  0
  9 17  1  0  0  0  0
 11 14  1  0  0  0  0
 11 15  1  0  0  0  0
 11 16  1  0  0  0  0
 17 18  1  0  0  0  0
 17 28  1  0  0  0  0
 18 19  1  0  0  0  0
 18 21  1  0  0  0  0
 18 29  1  0  0  0  0
 19 20  2  0  0  0  0
 19 37  1  0  0  0  0
 21 22  1  0  0  0  0
 21 30  1  0  0  0  0
 21 31  1  0  0  0  0
 22 23  1  0  0  0  0
 22 24  2  0  0  0  0
 23 25  2  0  0  0  0
 23 32  1  0  0  0  0
 24 26  1  0  0  0  0
 24 33  1  0  0  0  0
 25 27  1  0  0  0  0
 25 34  1  0  0  0  0
 26 27  2  0  0  0  0
 26 35  1  0  0  0  0
 27 36  1  0  0  0  0
 37 38  1  0  0  0  0
 37 42  1  0  0  0  0
 38 39  1  0  0  0  0
 38 41  1  0  0  0  0
 38 43  1  0  0  0  0
 39 40  2  0  0  0  0
 39 47  1  0  0  0  0
 41 44  1  0  0  0  0
 41 45  1  0  0  0  0
 41 46  1  0  0  0  0
 47 48  1  0  0  0  0
 47 49  1  0  0  0  0
 48 50  1  0  0  0  0
 48 51  1  0  0  0  0
 48 52  1  0  0  0  0
M  END
$$$$

  -OEChem-05262217163D

 52 52  0     1  0  0  0  0  0999 V2000
   -3.8529    0.2462    4.0265 C   0  0  0  0  0  0  0  0  0  0  0  0
   -4.8115    0.5496    3.3343 O   0  0  0  0  0  0  0  0  0  0  0  0
   -4.0561   -0.5167    5.3222 C   0  0  0  0  0  0  0  0  0  0  0  0
   -5.1208   -0.7050    5.4871 H   0  0  0  0  0  0  0  0  0  0  0  0
   -3.5324   -1.4747    5.2775 H   0  0  0  0  0  0  0  0  0  0  0  0
   -3.6670    0.0645    6.1618 H   0  0  0  0  0  0  0  0  0  0  0  0
   -2.5784    0.5837    3.6223 N   0  0  0  0  0  0  0  0  0  0  0  0
   -2.2540    1.1704    2.3148 C   0  0  2  0  0  0  0  0  0  0  0  0
   -0.8588    0.7368    1.8171 C   0  0  0  0  0  0  0  0  0  0  0  0
   -0.0884    0.1664    2.5814 O   0  0  0  0  0  0  0  0  0  0  0  0
   -2.3282    2.6957    2.4349 C   0  0  0  0  0  0  0  0  0  0  0  0
   -1.8029    0.2065    4.1655 H   0  0  0  0  0  0  0  0  0  0  0  0
   -2.9837    0.8322    1.5709 H   0  0  0  0  0  0  0  0  0  0  0  0
   -1.6047    3.0581    3.1722 H   0  0  0  0  0  0  0  0  0  0  0  0
   -2.1124    3.1693    1.4724 H   0  0  0  0  0  0  0  0  0  0  0  0
   -3.3305    3.0023    2.7508 H   0  0  0  0  0  0  0  0  0  0  0  0
   -0.5199    0.9054    0.4859 N   0  0  0  0  0  0  0  0  0  0  0  0
    0.8060    0.7502   -0.1536 C   0  0  2  0  0  0  0  0  0  0  0  0
    2.0247    1.3940    0.5730 C   0  0  0  0  0  0  0  0  0  0  0  0
    2.7356    2.2161    0.0038 O   0  0  0  0  0  0  0  0  0  0  0  0
    0.6745    1.2735   -1.6022 C   0  0  0  0  0  0  0  0  0  0  0  0
   -0.2363    0.3882   -2.4199 C   0  0  0  0  0  0  0  0  0  0  0  0
    0.2507   -0.8040   -2.9764 C   0  0  0  0  0  0  0  0  0  0  0  0
   -1.5735    0.7505   -2.6465 C   0  0  0  0  0  0  0  0  0  0  0  0
   -0.5892   -1.6314   -3.7291 C   0  0  0  0  0  0  0  0  0  0  0  0
   -2.4146   -0.0771   -3.3982 C   0  0  0  0  0  0  0  0  0  0  0  0
   -1.9233   -1.2698   -3.9375 C   0  0  0  0  0  0  0  0  0  0  0  0
   -1.2553    1.2865   -0.1031 H   0  0  0  0  0  0  0  0  0  0  0  0
    1.0321   -0.3200   -0.1980 H   0  0  0  0  0  0  0  0  0  0  0  0
    1.6568    1.2845   -2.0872 H   0  0  0  0  0  0  0  0  0  0  0  0
    0.3093    2.3058   -1.5963 H   0  0  0  0  0  0  0  0  0  0  0  0
    1.2860   -1.0948   -2.8226 H   0  0  0  0  0  0  0  0  0  0  0  0
   -1.9662    1.6804   -2.2474 H   0  0  0  0  0  0  0  0  0  0  0  0
   -0.2040   -2.5545   -4.1526 H   0  0  0  0  0  0  0  0  0  0  0  0
   -3.4491    0.2075   -3.5674 H   0  0  0  0  0  0  0  0  0  0  0  0
   -2.5755   -1.9122   -4.5223 H   0  0  0  0  0  0  0  0  0  0  0  0
    2.3929    1.0294    1.8523 N   0  0  0  0  0  0  0  0  0  0  0  0
    3.4724    1.6506    2.6349 C   0  0  2  0  0  0  0  0  0  0  0  0
    4.8739    1.1175    2.2479 C   0  0  0  0  0  0  0  0  0  0  0  0
    5.6258    0.6113    3.0730 O   0  0  0  0  0  0  0  0  0  0  0  0
    3.1377    1.4246    4.1148 C   0  0  0  0  0  0  0  0  0  0  0  0
    1.7281    0.4272    2.3457 H   0  0  0  0  0  0  0  0  0  0  0  0
    3.4789    2.7307    2.4552 H   0  0  0  0  0  0  0  0  0  0  0  0
    3.1336    0.3550    4.3484 H   0  0  0  0  0  0  0  0  0  0  0  0
    3.8807    1.9151    4.7517 H   0  0  0  0  0  0  0  0  0  0  0  0
    2.1527    1.8386    4.3514 H   0  0  0  0  0  0  0  0  0  0  0  0
    5.2990    1.2309    0.9390 N   0  0  0  0  0  0  0  0  0  0  0  0
    6.5880    0.7582    0.4537 C   0  0  0  0  0  0  0  0  0  0  0  0
    4.6344    1.6540    0.2860 H   0  0  0  0  0  0  0  0  0  0  0  0
    7.4044    1.2467    0.9957 H   0  0  0  0  0  0  0  0  0  0  0  0
    6.6733   -0.3250    0.5889 H   0  0  0  0  0  0  0  0  0  0  0  0
    6.6963    0.9842   -0.6113 H   0  0  0  0  0  0  0  0  0  0  0  0
  1  2  2  0  0  0  0
  1  3  1  0  0  0  0
  1  7  1  0  0  0  0
  3  4  1  0  0  0  0
  3  5  1  0  0  0  0
  3  6  1  0  0  0  0
  7  8  1  0  0  0  0
  7 12  1  0  0  0  0
  8  9  1  0  0  0  0
  8 11  1  0  0  0  0
  8 13  1  0  0  0  0
  9 10  2  0  0  0  0
  9 17  1  0  0  0  0
 11 14  1  0  0  0  0
 11 15  1  0  0  0  0
 11 16  1  0  0  0  0
 17 18  1  0  0  0  0
 17 28  1  0  0  0  0
 18 19  1  0  0  0  0
 18 21  1  0  0  0  0
 18 29  1  0  0  0  0
 19 20  2  0  0  0  0
 19 37  1  0  0  0  0
 21 22  1  0  0  0  0
 21 30  1  0  0  0  0
 21 31  1  0  0  0  0
 22 23  1  0  0  0  0
 22 24  2  0  0  0  0
 23 25  2  0  0  0  0
 23 32  1  0  0  0  0
 24 26  1  0  0  0  0
 24 33  1  0  0  0  0
 25 27  1  0  0  0  0
 25 34  1  0  0  0  0
 26 27  2  0  0  0  0
 26 35  1  0  0  0  0
 27 36  1  0  0  0  0
 37 38  1  0  0  0  0
 37 42  1  0  0  0  0
 38 39  1  0  0  0  0
 38 41  1  0  0  0  0
 38 43  1  0  0  0  0
 39 40  2  0  0  0  0
 39 47  1  0  0  0  0
 41 44  1  0  0  0  0
 41 45  1  0  0  0  0
 41 46  1  0  0  0  0
 47 48  1  0  0  0  0
 47 49  1  0  0  0  0
 48 50  1  0  0  0  0
 48 51  1  0  0  0  0
 48 52  1  0  0  0  0
M  END
$$$$

  -OEChem-05262217163D

 52 52  0     1  0  0  0  0  0999 V2000
   -3.7311    0.2549    4.1115 C   0  0  0  0  0  0  0  0  0  0  0  0
   -4.7070    0.5489    3.4399 O   0  0  0  0  0  0  0  0  0  0  0  0
   -3.9036   -0.4838    5.4253 C   0  0  0  0  0  0  0  0  0  0  0  0
   -4.9625   -0.6901    5.6056 H   0  0  0  0  0  0  0  0  0  0  0  0
   -3.3610   -1.4317    5.3953 H   0  0  0  0  0  0  0  0  0  0  0  0
   -3.5180    0.1236    6.2478 H   0  0  0  0  0  0  0  0  0  0  0  0
   -2.4674    0.5869    3.6707 N   0  0  0  0  0  0  0  0  0  0  0  0
   -2.1790    1.1635    2.3507 C   0  0  2  0  0  0  0  0  0  0  0  0
   -0.8118    0.7013    1.8050 C   0  0  0  0  0  0  0  0  0  0  0  0
   -0.0241    0.1114    2.5376 O   0  0  0  0  0  0  0  0  0  0  0  0
   -2.2206    2.6903    2.4697 C   0  0  0  0  0  0  0  0  0  0  0  0
   -1.6779    0.2127    4.1950 H   0  0  0  0  0  0  0  0  0  0  0  0
   -2.9403    0.8385    1.6332 H   0  0  0  0  0  0  0  0  0  0  0  0
   -1.4624    3.0409    3.1774 H   0  0  0  0  0  0  0  0  0  0  0  0
   -2.0339    3.1583    1.4985 H   0  0  0  0  0  0  0  0  0  0  0  0
   -3.2043    3.0155    2.8237 H   0  0  0  0  0  0  0  0  0  0  0  0
   -0.5089    0.8740    0.4660 N   0  0  0  0  0  0  0  0  0  0  0  0
    0.8038    0.6820   -0.1842 C   0  0  2  0  0  0  0  0  0  0  0  0
    2.0232    1.2946    0.5591 C   0  0  0  0  0  0  0  0  0  0  0  0
    2.6157    2.2697    0.1078 O   0  0  0  0  0  0  0  0  0  0  0  0
    0.6998    1.2309   -1.6233 C   0  0  0  0  0  0  0  0  0  0  0  0
   -0.2418    0.3964   -2.4592 C   0  0  0  0  0  0  0  0  0  0  0  0
    0.2001   -0.8054   -3.0325 C   0  0  0  0  0  0  0  0  0  0  0  0
   -1.5627    0.8149   -2.6855 C   0  0  0  0  0  0  0  0  0  0  0  0
   -0.6680   -1.5862   -3.8029 C   0  0  0  0  0  0  0  0  0  0  0  0
   -2.4314    0.0350   -3.4566 C   0  0  0  0  0  0  0  0  0  0  0  0
   -1.9849   -1.1672   -4.0131 C   0  0  0  0  0  0  0  0  0  0  0  0
   -1.2395    1.2940   -0.1020 H   0  0  0  0  0  0  0  0  0  0  0  0
    1.0007   -0.3933   -0.2426 H   0  0  0  0  0  0  0  0  0  0  0  0
    1.6876    1.2144   -2.0971 H   0  0  0  0  0  0  0  0  0  0  0  0
    0.3724    2.2759   -1.6025 H   0  0  0  0  0  0  0  0  0  0  0  0
    1.2224   -1.1390   -2.8800 H   0  0  0  0  0  0  0  0  0  0  0  0
   -1.9205    1.7526   -2.2719 H   0  0  0  0  0  0  0  0  0  0  0  0
   -0.3182   -2.5171   -4.2399 H   0  0  0  0  0  0  0  0  0  0  0  0
   -3.4525    0.3639   -3.6278 H   0  0  0  0  0  0  0  0  0  0  0  0
   -2.6583   -1.7729   -4.6127 H   0  0  0  0  0  0  0  0  0  0  0  0
    2.5346    0.6969    1.6938 N   0  0  0  0  0  0  0  0  0  0  0  0
    3.6211    1.2595    2.5109 C   0  0  2  0  0  0  0  0  0  0  0  0
    5.0267    0.9734    1.9259 C   0  0  0  0  0  0  0  0  0  0  0  0
    5.8975    0.4092    2.5782 O   0  0  0  0  0  0  0  0  0  0  0  0
    3.4434    0.7022    3.9289 C   0  0  0  0  0  0  0  0  0  0  0  0
    1.8897    0.0482    2.1528 H   0  0  0  0  0  0  0  0  0  0  0  0
    3.5117    2.3476    2.5633 H   0  0  0  0  0  0  0  0  0  0  0  0
    3.5735   -0.3850    3.9340 H   0  0  0  0  0  0  0  0  0  0  0  0
    4.1830    1.1424    4.6052 H   0  0  0  0  0  0  0  0  0  0  0  0
    2.4444    0.9364    4.3097 H   0  0  0  0  0  0  0  0  0  0  0  0
    5.3201    1.3881    0.6419 N   0  0  0  0  0  0  0  0  0  0  0  0
    6.6068    1.1875   -0.0091 C   0  0  0  0  0  0  0  0  0  0  0  0
    4.5651    1.8610    0.1389 H   0  0  0  0  0  0  0  0  0  0  0  0
    7.4010    1.6935    0.5496 H   0  0  0  0  0  0  0  0  0  0  0  0
    6.8421    0.1199   -0.0697 H   0  0  0  0  0  0  0  0  0  0  0  0
    6.5833    1.5955   -1.0241 H   0  0  0  0  0  0  0  0  0  0  0  0
  1  2  2  0  0  0  0
  1  3  1  0  0  0  0
  1  7  1  0  0  0  0
  3  4  1  0  0  0  0
  3  5  1  0  0  0  0
  3  6  1  0  0  0  0
  7  8  1  0  0  0  0
  7 12  1  0  0  0  0
  8  9  1  0  0  0  0
  8 11  1  0  0  0  0
  8 13  1  0  0  0  0
  9 10  2  0  0  0  0
  9 17  1  0  0  0  0
 11 14  1  0  0  0  0
 11 15  1  0  0  0  0
 11 16  1  0  0  0  0
 17 18  1  0  0  0  0
 17 28  1  0  0  0  0
 18 19  1  0  0  0  0
 18 21  1  0  0  0  0
 18 29  1  0  0  0  0
 19 20  2  0  0  0  0
 19 37  1  0  0  0  0
 21 22  1  0  0  0  0
 21 30  1  0  0  0  0
 21 31  1  0  0  0  0
 22 23  1  0  0  0  0
 22 24  2  0  0  0  0
 23 25  2  0  0  0  0
 23 32  1  0  0  0  0
 24 26  1  0  0  0  0
 24 33  1  0  0  0  0
 25 27  1  0  0  0  0
 25 34  1  0  0  0  0
 26 27  2  0  0  0  0
 26 35  1  0  0  0  0
 27 36  1  0  0  0  0
 37 38  1  0  0  0  0
 37 42  1  0  0  0  0
 38 39  1  0  0  0  0
 38 41  1  0  0  0  0
 38 43  1  0  0  0  0
 39 40  2  0  0  0  0
 39 47  1  0  0  0  0
 41 44  1  0  0  0  0
 41 45  1  0  0  0  0
 41 46  1  0  0  0  0
 47 48  1  0  0  0  0
 47 49  1  0  0  0  0
 48 50  1  0  0  0  0
 48 51  1  0  0  0  0
 48 52  1  0  0  0  0
M  END
$$$$

  -OEChem-05262217163D

 52 52  0     1  0  0  0  0  0999 V2000
   -3.5795    0.3008    4.2243 C   0  0  0  0  0  0  0  0  0  0  0  0
   -4.5767    0.6370    3.6059 O   0  0  0  0  0  0  0  0  0  0  0  0
   -3.7121   -0.4375    5.5431 C   0  0  0  0  0  0  0  0  0  0  0  0
   -4.7676   -0.6014    5.7788 H   0  0  0  0  0  0  0  0  0  0  0  0
   -3.2110   -1.4066    5.4805 H   0  0  0  0  0  0  0  0  0  0  0  0
   -3.2588    0.1486    6.3462 H   0  0  0  0  0  0  0  0  0  0  0  0
   -2.3284    0.5809    3.7168 N   0  0  0  0  0  0  0  0  0  0  0  0
   -2.0855    1.1546    2.3865 C   0  0  2  0  0  0  0  0  0  0  0  0
   -0.7677    0.6417    1.7694 C   0  0  0  0  0  0  0  0  0  0  0  0
    0.0319    0.0084    2.4530 O   0  0  0  0  0  0  0  0  0  0  0  0
   -2.0592    2.6809    2.5158 C   0  0  0  0  0  0  0  0  0  0  0  0
   -1.5279    0.1737    4.1982 H   0  0  0  0  0  0  0  0  0  0  0  0
   -2.8950    0.8651    1.7073 H   0  0  0  0  0  0  0  0  0  0  0  0
   -1.2514    2.9953    3.1845 H   0  0  0  0  0  0  0  0  0  0  0  0
   -1.9051    3.1488    1.5388 H   0  0  0  0  0  0  0  0  0  0  0  0
   -3.0091    3.0422    2.9229 H   0  0  0  0  0  0  0  0  0  0  0  0
   -0.5110    0.8268    0.4225 N   0  0  0  0  0  0  0  0  0  0  0  0
    0.7875    0.6017   -0.2392 C   0  0  2  0  0  0  0  0  0  0  0  0
    2.0027    1.1855    0.5254 C   0  0  0  0  0  0  0  0  0  0  0  0
    2.4603    2.2873    0.2389 O   0  0  0  0  0  0  0  0  0  0  0  0
    0.7159    1.1823   -1.6658 C   0  0  0  0  0  0  0  0  0  0  0  0
   -0.2542    0.4037   -2.5219 C   0  0  0  0  0  0  0  0  0  0  0  0
    0.1411   -0.8042   -3.1159 C   0  0  0  0  0  0  0  0  0  0  0  0
   -1.5558    0.8798   -2.7452 C   0  0  0  0  0  0  0  0  0  0  0  0
   -0.7542   -1.5337   -3.9054 C   0  0  0  0  0  0  0  0  0  0  0  0
   -2.4521    0.1504   -3.5339 C   0  0  0  0  0  0  0  0  0  0  0  0
   -2.0524   -1.0580   -4.1121 C   0  0  0  0  0  0  0  0  0  0  0  0
   -1.2239    1.3174   -0.1101 H   0  0  0  0  0  0  0  0  0  0  0  0
    0.9558   -0.4773   -0.3157 H   0  0  0  0  0  0  0  0  0  0  0  0
    1.7073    1.1396   -2.1300 H   0  0  0  0  0  0  0  0  0  0  0  0
    0.4271    2.2381   -1.6256 H   0  0  0  0  0  0  0  0  0  0  0  0
    1.1478   -1.1831   -2.9646 H   0  0  0  0  0  0  0  0  0  0  0  0
   -1.8770    1.8231   -2.3145 H   0  0  0  0  0  0  0  0  0  0  0  0
   -0.4400   -2.4693   -4.3592 H   0  0  0  0  0  0  0  0  0  0  0  0
   -3.4582    0.5243   -3.7015 H   0  0  0  0  0  0  0  0  0  0  0  0
   -2.7474   -1.6243   -4.7253 H   0  0  0  0  0  0  0  0  0  0  0  0
    2.6663    0.4141    1.4594 N   0  0  0  0  0  0  0  0  0  0  0  0
    3.7601    0.9175    2.3047 C   0  0  2  0  0  0  0  0  0  0  0  0
    5.1304    0.9256    1.5822 C   0  0  0  0  0  0  0  0  0  0  0  0
    6.1084    0.3473    2.0418 O   0  0  0  0  0  0  0  0  0  0  0  0
    3.7664    0.0633    3.5787 C   0  0  0  0  0  0  0  0  0  0  0  0
    2.0993   -0.3433    1.8433 H   0  0  0  0  0  0  0  0  0  0  0  0
    3.5469    1.9509    2.5974 H   0  0  0  0  0  0  0  0  0  0  0  0
    3.9984   -0.9799    3.3407 H   0  0  0  0  0  0  0  0  0  0  0  0
    4.5202    0.4337    4.2808 H   0  0  0  0  0  0  0  0  0  0  0  0
    2.7889    0.1022    4.0694 H   0  0  0  0  0  0  0  0  0  0  0  0
    5.2667    1.6318    0.4037 N   0  0  0  0  0  0  0  0  0  0  0  0
    6.5131    1.7545   -0.3389 C   0  0  0  0  0  0  0  0  0  0  0  0
    4.4280    2.1136    0.0697 H   0  0  0  0  0  0  0  0  0  0  0  0
    7.2701    2.2632    0.2669 H   0  0  0  0  0  0  0  0  0  0  0  0
    6.8911    0.7659   -0.6198 H   0  0  0  0  0  0  0  0  0  0  0  0
    6.3519    2.3354   -1.2520 H   0  0  0  0  0  0  0  0  0  0  0  0
  1  2  2  0  0  0  0
  1  3  1  0  0  0  0
  1  7  1  0  0  0  0
  3  4  1  0  0  0  0
  3  5  1  0  0  0  0
  3  6  1  0  0  0  0
  7  8  1  0  0  0  0
  7 12  1  0  0  0  0
  8  9  1  0  0  0  0
  8 11  1  0  0  0  0
  8 13  1  0  0  0  0
  9 10  2  0  0  0  0
  9 17  1  0  0  0  0
 11 14  1  0  0  0  0
 11 15  1  0  0  0  0
 11 16  1  0  0  0  0
 17 18  1  0  0  0  0
 17 28  1  0  0  0  0
 18 19  1  0  0  0  0
 18 21  1  0  0  0  0
 18 29  1  0  0  0  0
 19 20  2  0  0  0  0
 19 37  1  0  0  0  0
 21 22  1  0  0  0  0
 21 30  1  0  0  0  0
 21 31  1  0  0  0  0
 22 23  1  0  0  0  0
 22 24  2  0  0  0  0
 23 25  2  0  0  0  0
 23 32  1  0  0  0  0
 24 26  1  0  0  0  0
 24 33  1  0  0  0  0
 25 27  1  0  0  0  0
 25 34  1  0  0  0  0
 26 27  2  0  0  0  0
 26 35  1  0  0  0  0
 27 36  1  0  0  0  0
 37 38  1  0  0  0  0
 37 42  1  0  0  0  0
 38 39  1  0  0  0  0
 38 41  1  0  0  0  0
 38 43  1  0  0  0  0
 39 40  2  0  0  0  0
 39 47  1  0  0  0  0
 41 44  1  0  0  0  0
 41 45  1  0  0  0  0
 41 46  1  0  0  0  0
 47 48  1  0  0  0  0
 47 49  1  0  0  0  0
 48 50  1  0  0  0  0
 48 51  1  0  0  0  0
 48 52  1  0  0  0  0
M  END
$$$$

  -OEChem-05262217163D

 52 52  0     1  0  0  0  0  0999 V2000
   -3.4483    0.3658    4.3199 C   0  0  0  0  0  0  0  0  0  0  0  0
   -4.4491    0.7727    3.7514 O   0  0  0  0  0  0  0  0  0  0  0  0
   -3.5667   -0.3636    5.6449 C   0  0  0  0  0  0  0  0  0  0  0  0
   -4.6172   -0.4435    5.9389 H   0  0  0  0  0  0  0  0  0  0  0  0
   -3.1486   -1.3694    5.5568 H   0  0  0  0  0  0  0  0  0  0  0  0
   -3.0245    0.1826    6.4207 H   0  0  0  0  0  0  0  0  0  0  0  0
   -2.2068    0.5625    3.7531 N   0  0  0  0  0  0  0  0  0  0  0  0
   -1.9884    1.1372    2.4192 C   0  0  2  0  0  0  0  0  0  0  0  0
   -0.7337    0.5546    1.7370 C   0  0  0  0  0  0  0  0  0  0  0  0
    0.0601   -0.1325    2.3746 O   0  0  0  0  0  0  0  0  0  0  0  0
   -1.8613    2.6569    2.5649 C   0  0  0  0  0  0  0  0  0  0  0  0
   -1.4102    0.1095    4.1988 H   0  0  0  0  0  0  0  0  0  0  0  0
   -2.8434    0.9069    1.7742 H   0  0  0  0  0  0  0  0  0  0  0  0
   -1.0070    2.9107    3.2009 H   0  0  0  0  0  0  0  0  0  0  0  0
   -1.7199    3.1284    1.5877 H   0  0  0  0  0  0  0  0  0  0  0  0
   -2.7682    3.0704    3.0180 H   0  0  0  0  0  0  0  0  0  0  0  0
   -0.5171    0.7556    0.3852 N   0  0  0  0  0  0  0  0  0  0  0  0
    0.7680    0.5087   -0.2909 C   0  0  2  0  0  0  0  0  0  0  0  0
    1.9845    1.0675    0.4848 C   0  0  0  0  0  0  0  0  0  0  0  0
    2.2751    2.2576    0.4145 O   0  0  0  0  0  0  0  0  0  0  0  0
    0.7222    1.1220   -1.7034 C   0  0  0  0  0  0  0  0  0  0  0  0
   -0.2697    0.3987   -2.5819 C   0  0  0  0  0  0  0  0  0  0  0  0
    0.0852   -0.8081   -3.2032 C   0  0  0  0  0  0  0  0  0  0  0  0
   -1.5522    0.9262   -2.7990 C   0  0  0  0  0  0  0  0  0  0  0  0
   -0.8308   -1.4843   -4.0162 C   0  0  0  0  0  0  0  0  0  0  0  0
   -2.4688    0.2510   -3.6122 C   0  0  0  0  0  0  0  0  0  0  0  0
   -2.1088   -0.9555   -4.2198 C   0  0  0  0  0  0  0  0  0  0  0  0
   -1.1987    1.3302   -0.1019 H   0  0  0  0  0  0  0  0  0  0  0  0
    0.9108   -0.5723   -0.3857 H   0  0  0  0  0  0  0  0  0  0  0  0
    1.7149    1.0562   -2.1621 H   0  0  0  0  0  0  0  0  0  0  0  0
    0.4684    2.1859   -1.6408 H   0  0  0  0  0  0  0  0  0  0  0  0
    1.0764   -1.2271   -3.0563 H   0  0  0  0  0  0  0  0  0  0  0  0
   -1.8424    1.8677   -2.3433 H   0  0  0  0  0  0  0  0  0  0  0  0
   -0.5486   -2.4196   -4.4912 H   0  0  0  0  0  0  0  0  0  0  0  0
   -3.4593    0.6657   -3.7761 H   0  0  0  0  0  0  0  0  0  0  0  0
   -2.8193   -1.4794   -4.8529 H   0  0  0  0  0  0  0  0  0  0  0  0
    2.8224    0.2122    1.1747 N   0  0  0  0  0  0  0  0  0  0  0  0
    3.9206    0.6737    2.0382 C   0  0  2  0  0  0  0  0  0  0  0  0
    5.2053    1.0236    1.2469 C   0  0  0  0  0  0  0  0  0  0  0  0
    6.2849    0.5023    1.5011 O   0  0  0  0  0  0  0  0  0  0  0  0
    4.1486   -0.4186    3.0902 C   0  0  0  0  0  0  0  0  0  0  0  0
    2.4231   -0.7006    1.3823 H   0  0  0  0  0  0  0  0  0  0  0  0
    3.6112    1.5830    2.5641 H   0  0  0  0  0  0  0  0  0  0  0  0
    4.4803   -1.3474    2.6147 H   0  0  0  0  0  0  0  0  0  0  0  0
    4.9151   -0.1032    3.8051 H   0  0  0  0  0  0  0  0  0  0  0  0
    3.2240   -0.6166    3.6414 H   0  0  0  0  0  0  0  0  0  0  0  0
    5.1396    1.9649    0.2389 N   0  0  0  0  0  0  0  0  0  0  0  0
    6.2801    2.3970   -0.5562 C   0  0  0  0  0  0  0  0  0  0  0  0
    4.2207    2.3849    0.0768 H   0  0  0  0  0  0  0  0  0  0  0  0
    7.0313    2.8744    0.0814 H   0  0  0  0  0  0  0  0  0  0  0  0
    6.7391    1.5424   -1.0642 H   0  0  0  0  0  0  0  0  0  0  0  0
    5.9592    3.1179   -1.3142 H   0  0  0  0  0  0  0  0  0  0  0  0
  1  2  2  0  0  0  0
  1  3  1  0  0  0  0
  1  7  1  0  0  0  0
  3  4  1  0  0  0  0
  3  5  1  0  0  0  0
  3  6  1  0  0  0  0
  7  8  1  0  0  0  0
  7 12  1  0  0  0  0
  8  9  1  0  0  0  0
  8 11  1  0  0  0  0
  8 13  1  0  0  0  0
  9 10  2  0  0  0  0
  9 17  1  0  0  0  0
 11 14  1  0  0  0  0
 11 15  1  0  0  0  0
 11 16  1  0  0  0  0
 17 18  1  0  0  0  0
 17 28  1  0  0  0  0
 18 19  1  0  0  0  0
 18 21  1  0  0  0  0
 18 29  1  0  0  0  0
 19 20  2  0  0  0  0
 19 37  1  0  0  0  0
 21 22  1  0  0  0  0
 21 30  1  0  0  0  0
 21 31  1  0  0  0  0
 22 23  1  0  0  0  0
 22 24  2  0  0  0  0
 23 25  2  0  0  0  0
 23 32  1  0  0  0  0
 24 26  1  0  0  0  0
 24 33  1  0  0  0  0
 25 27  1  0  0  0  0
 25 34  1  0  0  0  0
 26 27  2  0  0  0  0
 26 35  1  0  0  0  0
 27 36  1  0  0  0  0
 37 38  1  0  0  0  0
 37 42  1  0  0  0  0
 38 39  1  0  0  0  0
 38 41  1  0  0  0  0
 38 43  1  0  0  0  0
 39 40  2  0  0  0  0
 39 47  1  0  0  0  0
 41 44  1  0  0  0  0
 41 45  1  0  0  0  0
 41 46  1  0  0  0  0
 47 48  1  0  0  0  0
 47 49  1  0  0  0  0
 48 50  1  0  0  0  0
 48 51  1  0  0  0  0
 48 52  1  0  0  0  0
M  END
$$$$

  -OEChem-05262217163D

 52 52  0     1  0  0  0  0  0999 V2000
   -3.3683    0.4157    4.3637 C   0  0  0  0  0  0  0  0  0  0  0  0
   -4.3625    0.8794    3.8279 O   0  0  0  0  0  0  0  0  0  0  0  0
   -3.4898   -0.3334    5.6773 C   0  0  0  0  0  0  0  0  0  0  0  0
   -4.5343   -0.3605    6.0005 H   0  0  0  0  0  0  0  0  0  0  0  0
   -3.1318   -1.3586    5.5571 H   0  0  0  0  0  0  0  0  0  0  0  0
   -2.8959    0.1650    6.4472 H   0  0  0  0  0  0  0  0  0  0  0  0
   -2.1326    0.5659    3.7710 N   0  0  0  0  0  0  0  0  0  0  0  0
   -1.9169    1.1568    2.4439 C   0  0  2  0  0  0  0  0  0  0  0  0
   -0.7076    0.5260    1.7234 C   0  0  0  0  0  0  0  0  0  0  0  0
    0.0736   -0.1971    2.3360 O   0  0  0  0  0  0  0  0  0  0  0  0
   -1.7104    2.6652    2.6160 C   0  0  0  0  0  0  0  0  0  0  0  0
   -1.3482    0.0654    4.1870 H   0  0  0  0  0  0  0  0  0  0  0  0
   -2.7966    0.9818    1.8154 H   0  0  0  0  0  0  0  0  0  0  0  0
   -0.8280    2.8632    3.2333 H   0  0  0  0  0  0  0  0  0  0  0  0
   -1.5704    3.1492    1.6447 H   0  0  0  0  0  0  0  0  0  0  0  0
   -2.5831    3.1140    3.1015 H   0  0  0  0  0  0  0  0  0  0  0  0
   -0.5168    0.7266    0.3675 N   0  0  0  0  0  0  0  0  0  0  0  0
    0.7557    0.4519   -0.3213 C   0  0  2  0  0  0  0  0  0  0  0  0
    1.9883    0.9860    0.4436 C   0  0  0  0  0  0  0  0  0  0  0  0
    2.1463    2.1943    0.5901 O   0  0  0  0  0  0  0  0  0  0  0  0
    0.7234    1.0769   -1.7273 C   0  0  0  0  0  0  0  0  0  0  0  0
   -0.2921    0.3894   -2.6078 C   0  0  0  0  0  0  0  0  0  0  0  0
    0.0246   -0.8226   -3.2401 C   0  0  0  0  0  0  0  0  0  0  0  0
   -1.5590    0.9573   -2.8163 C   0  0  0  0  0  0  0  0  0  0  0  0
   -0.9144   -1.4649   -4.0541 C   0  0  0  0  0  0  0  0  0  0  0  0
   -2.4980    0.3159   -3.6315 C   0  0  0  0  0  0  0  0  0  0  0  0
   -2.1766   -0.8965   -4.2488 C   0  0  0  0  0  0  0  0  0  0  0  0
   -1.1691    1.3564   -0.0904 H   0  0  0  0  0  0  0  0  0  0  0  0
    0.8705   -0.6320   -0.4200 H   0  0  0  0  0  0  0  0  0  0  0  0
    1.7122    0.9875   -2.1902 H   0  0  0  0  0  0  0  0  0  0  0  0
    0.4993    2.1467   -1.6548 H   0  0  0  0  0  0  0  0  0  0  0  0
    1.0028   -1.2732   -3.1003 H   0  0  0  0  0  0  0  0  0  0  0  0
   -1.8195    1.9032   -2.3513 H   0  0  0  0  0  0  0  0  0  0  0  0
   -0.6627   -2.4051   -4.5363 H   0  0  0  0  0  0  0  0  0  0  0  0
   -3.4768    0.7600   -3.7881 H   0  0  0  0  0  0  0  0  0  0  0  0
   -2.9053   -1.3946   -4.8818 H   0  0  0  0  0  0  0  0  0  0  0  0
    2.9823    0.1226    0.8649 N   0  0  0  0  0  0  0  0  0  0  0  0
    4.1233    0.5365    1.6964 C   0  0  2  0  0  0  0  0  0  0  0  0
    5.2662    1.1831    0.8749 C   0  0  0  0  0  0  0  0  0  0  0  0
    6.4100    0.7441    0.9000 O   0  0  0  0  0  0  0  0  0  0  0  0
    4.5810   -0.7007    2.4795 C   0  0  0  0  0  0  0  0  0  0  0  0
    2.7513   -0.8667    0.8454 H   0  0  0  0  0  0  0  0  0  0  0  0
    3.7892    1.2848    2.4232 H   0  0  0  0  0  0  0  0  0  0  0  0
    4.9424   -1.4764    1.7968 H   0  0  0  0  0  0  0  0  0  0  0  0
    5.3937   -0.4372    3.1641 H   0  0  0  0  0  0  0  0  0  0  0  0
    3.7534   -1.1082    3.0685 H   0  0  0  0  0  0  0  0  0  0  0  0
    4.9961    2.2989    0.1082 N   0  0  0  0  0  0  0  0  0  0  0  0
    5.9948    3.0223   -0.6662 C   0  0  0  0  0  0  0  0  0  0  0  0
    4.0296    2.6346    0.1284 H   0  0  0  0  0  0  0  0  0  0  0  0
    6.7720    3.4234   -0.0075 H   0  0  0  0  0  0  0  0  0  0  0  0
    6.4629    2.3608   -1.4026 H   0  0  0  0  0  0  0  0  0  0  0  0
    5.5268    3.8564   -1.1978 H   0  0  0  0  0  0  0  0  0  0  0  0
  1  2  2  0  0  0  0
  1  3  1  0  0  0  0
  1  7  1  0  0  0  0
  3  4  1  0  0  0  0
  3  5  1  0  0  0  0
  3  6  1  0  0  0  0
  7  8  1  0  0  0  0
  7 12  1  0  0  0  0
  8  9  1  0  0  0  0
  8 11  1  0  0  0  0
  8 13  1  0  0  0  0
  9 10  2  0  0  0  0
  9 17  1  0  0  0  0
 11 14  1  0  0  0  0
 11 15  1  0  0  0  0
 11 16  1  0  0  0  0
 17 18  1  0  0  0  0
 17 28  1  0  0  0  0
 18 19  1  0  0  0  0
 18 21  1  0  0  0  0
 18 29  1  0  0  0  0
 19 20  2  0  0  0  0
 19 37  1  0  0  0  0
 21 22  1  0  0  0  0
 21 30  1  0  0  0  0
 21 31  1  0  0  0  0
 22 23  1  0  0  0  0
 22 24  2  0  0  0  0
 23 25  2  0  0  0  0
 23 32  1  0  0  0  0
 24 26  1  0  0  0  0
 24 33  1  0  0  0  0
 25 27  1  0  0  0  0
 25 34  1  0  0  0  0
 26 27  2  0  0  0  0
 26 35  1  0  0  0  0
 27 36  1  0  0  0  0
 37 38  1  0  0  0  0
 37 42  1  0  0  0  0
 38 39  1  0  0  0  0
 38 41  1  0  0  0  0
 38 43  1  0  0  0  0
 39 40  2  0  0  0  0
 39 47  1  0  0  0  0
 41 44  1  0  0  0  0
 41 45  1  0  0  0  0
 41 46  1  0  0  0  0
 47 48  1  0  0  0  0
 47 49  1  0  0  0  0
 48 50  1  0  0  0  0
 48 51  1  0  0  0  0
 48 52  1  0  0  0  0
M  END
$$$$

  -OEChem-05262217163D

 52 52  0     1  0  0  0  0  0999 V2000
   -3.2718    0.4786    4.4462 C   0  0  0  0  0  0  0  0  0  0  0  0
   -4.2567    1.0059    3.9538 O   0  0  0  0  0  0  0  0  0  0  0  0
   -3.3826   -0.2612    5.7663 C   0  0  0  0  0  0  0  0  0  0  0  0
   -4.4138   -0.2334    6.1296 H   0  0  0  0  0  0  0  0  0  0  0  0
   -3.0832   -1.3041    5.6372 H   0  0  0  0  0  0  0  0  0  0  0  0
   -2.7348    0.2073    6.5112 H   0  0  0  0  0  0  0  0  0  0  0  0
   -2.0560    0.5493    3.8005 N   0  0  0  0  0  0  0  0  0  0  0  0
   -1.8563    1.1298    2.4664 C   0  0  2  0  0  0  0  0  0  0  0  0
   -0.7152    0.4289    1.7015 C   0  0  0  0  0  0  0  0  0  0  0  0
    0.0307   -0.3584    2.2781 O   0  0  0  0  0  0  0  0  0  0  0  0
   -1.5465    2.6212    2.6313 C   0  0  0  0  0  0  0  0  0  0  0  0
   -1.2871    0.0011    4.1841 H   0  0  0  0  0  0  0  0  0  0  0  0
   -2.7685    1.0119    1.8712 H   0  0  0  0  0  0  0  0  0  0  0  0
   -0.6286    2.7598    3.2122 H   0  0  0  0  0  0  0  0  0  0  0  0
   -1.4144    3.0983    1.6556 H   0  0  0  0  0  0  0  0  0  0  0  0
   -2.3681    3.1238    3.1514 H   0  0  0  0  0  0  0  0  0  0  0  0
   -0.5351    0.6579    0.3487 N   0  0  0  0  0  0  0  0  0  0  0  0
    0.7388    0.3858   -0.3383 C   0  0  2  0  0  0  0  0  0  0  0  0
    1.9704    0.8982    0.4422 C   0  0  0  0  0  0  0  0  0  0  0  0
    2.0159    2.0672    0.8147 O   0  0  0  0  0  0  0  0  0  0  0  0
    0.7237    1.0526   -1.7245 C   0  0  0  0  0  0  0  0  0  0  0  0
   -0.2934    0.4091   -2.6361 C   0  0  0  0  0  0  0  0  0  0  0  0
    0.0116   -0.7858   -3.3056 C   0  0  0  0  0  0  0  0  0  0  0  0
   -1.5499    1.0016   -2.8373 C   0  0  0  0  0  0  0  0  0  0  0  0
   -0.9267   -1.3837   -4.1538 C   0  0  0  0  0  0  0  0  0  0  0  0
   -2.4889    0.4038   -3.6846 C   0  0  0  0  0  0  0  0  0  0  0  0
   -2.1779   -0.7896   -4.3428 C   0  0  0  0  0  0  0  0  0  0  0  0
   -1.1421    1.3589   -0.0649 H   0  0  0  0  0  0  0  0  0  0  0  0
    0.8442   -0.6966   -0.4594 H   0  0  0  0  0  0  0  0  0  0  0  0
    1.7146    0.9650   -2.1833 H   0  0  0  0  0  0  0  0  0  0  0  0
    0.5139    2.1225   -1.6183 H   0  0  0  0  0  0  0  0  0  0  0  0
    0.9810   -1.2561   -3.1709 H   0  0  0  0  0  0  0  0  0  0  0  0
   -1.8029    1.9336   -2.3414 H   0  0  0  0  0  0  0  0  0  0  0  0
   -0.6825   -2.3086   -4.6683 H   0  0  0  0  0  0  0  0  0  0  0  0
   -3.4592    0.8682   -3.8349 H   0  0  0  0  0  0  0  0  0  0  0  0
   -2.9061   -1.2519   -5.0032 H   0  0  0  0  0  0  0  0  0  0  0  0
    3.0937    0.1054    0.5889 N   0  0  0  0  0  0  0  0  0  0  0  0
    4.2863    0.5055    1.3516 C   0  0  2  0  0  0  0  0  0  0  0  0
    5.2312    1.4274    0.5422 C   0  0  0  0  0  0  0  0  0  0  0  0
    6.3938    1.1181    0.3097 O   0  0  0  0  0  0  0  0  0  0  0  0
    4.9716   -0.7811    1.8287 C   0  0  0  0  0  0  0  0  0  0  0  0
    3.0060   -0.8703    0.3207 H   0  0  0  0  0  0  0  0  0  0  0  0
    3.9774    1.0658    2.2407 H   0  0  0  0  0  0  0  0  0  0  0  0
    5.3110   -1.3770    0.9753 H   0  0  0  0  0  0  0  0  0  0  0  0
    5.8409   -0.5400    2.4490 H   0  0  0  0  0  0  0  0  0  0  0  0
    4.2795   -1.3831    2.4255 H   0  0  0  0  0  0  0  0  0  0  0  0
    4.7527    2.6347    0.0733 N   0  0  0  0  0  0  0  0  0  0  0  0
    5.5443    3.5887   -0.6905 C   0  0  0  0  0  0  0  0  0  0  0  0
    3.7717    2.8406    0.2801 H   0  0  0  0  0  0  0  0  0  0  0  0
    6.3964    3.9386   -0.0987 H   0  0  0  0  0  0  0  0  0  0  0  0
    5.9187    3.1269   -1.6098 H   0  0  0  0  0  0  0  0  0  0  0  0
    4.9326    4.4543   -0.9620 H   0  0  0  0  0  0  0  0  0  0  0  0
  1  2  2  0  0  0  0
  1  3  1  0  0  0  0
  1  7  1  0  0  0  0
  3  4  1  0  0  0  0
  3  5  1  0  0  0  0
  3  6  1  0  0  0  0
  7  8  1  0  0  0  0
  7 12  1  0  0  0  0
  8  9  1  0  0  0  0
  8 11  1  0  0  0  0
  8 13  1  0  0  0  0
  9 10  2  0  0  0  0
  9 17  1  0  0  0  0
 11 14  1  0  0  0  0
 11 15  1  0  0  0  0
 11 16  1  0  0  0  0
 17 18  1  0  0  0  0
 17 28  1  0  0  0  0
 18 19  1  0  0  0  0
 18 21  1  0  0  0  0
 18 29  1  0  0  0  0
 19 20  2  0  0  0  0
 19 37  1  0  0  0  0
 21 22  1  0  0  0  0
 21 30  1  0  0  0  0
 21 31  1  0  0  0  0
 22 23  1  0  0  0  0
 22 24  2  0  0  0  0
 23 25  2  0  0  0  0
 23 32  1  0  0  0  0
 24 26  1  0  0  0  0
 24 33  1  0  0  0  0
 25 27  1  0  0  0  0
 25 34  1  0  0  0  0
 26 27  2  0  0  0  0
 26 35  1  0  0  0  0
 27 36  1  0  0  0  0
 37 38  1  0  0  0  0
 37 42  1  0  0  0  0
 38 39  1  0  0  0  0
 38 41  1  0  0  0  0
 38 43  1  0  0  0  0
 39 40  2  0  0  0  0
 39 47  1  0  0  0  0
 41 44  1  0  0  0  0
 41 45  1  0  0  0  0
 41 46  1  0  0  0  0
 47 48  1  0  0  0  0
 47 49  1  0  0  0  0
 48 50  1  0  0  0  0
 48 51  1  0  0  0  0
 48 52  1  0  0  0  0
M  END
$$$$

  -OEChem-05262217163D

 52 52  0     1  0  0  0  0  0999 V2000
   -3.2222    0.5042    4.4917 C   0  0  0  0  0  0  0  0  0  0  0  0
   -4.1812    1.0998    4.0270 O   0  0  0  0  0  0  0  0  0  0  0  0
   -3.3555   -0.2511    5.8004 C   0  0  0  0  0  0  0  0  0  0  0  0
   -4.3502   -0.0936    6.2266 H   0  0  0  0  0  0  0  0  0  0  0  0
   -3.2095   -1.3205    5.6304 H   0  0  0  0  0  0  0  0  0  0  0  0
   -2.6076    0.1031    6.5138 H   0  0  0  0  0  0  0  0  0  0  0  0
   -2.0165    0.5122    3.8239 N   0  0  0  0  0  0  0  0  0  0  0  0
   -1.8029    1.1130    2.5014 C   0  0  2  0  0  0  0  0  0  0  0  0
   -0.7040    0.3772    1.7080 C   0  0  0  0  0  0  0  0  0  0  0  0
    0.0070   -0.4608    2.2567 O   0  0  0  0  0  0  0  0  0  0  0  0
   -1.4191    2.5833    2.6954 C   0  0  0  0  0  0  0  0  0  0  0  0
   -1.2730   -0.0845    4.1844 H   0  0  0  0  0  0  0  0  0  0  0  0
   -2.7262    1.0530    1.9151 H   0  0  0  0  0  0  0  0  0  0  0  0
   -0.4902    2.6624    3.2696 H   0  0  0  0  0  0  0  0  0  0  0  0
   -1.2715    3.0754    1.7296 H   0  0  0  0  0  0  0  0  0  0  0  0
   -2.2095    3.1145    3.2348 H   0  0  0  0  0  0  0  0  0  0  0  0
   -0.5271    0.6282    0.3585 N   0  0  0  0  0  0  0  0  0  0  0  0
    0.7449    0.3519   -0.3315 C   0  0  2  0  0  0  0  0  0  0  0  0
    1.9891    0.8342    0.4497 C   0  0  0  0  0  0  0  0  0  0  0  0
    1.9766    1.9260    1.0122 O   0  0  0  0  0  0  0  0  0  0  0  0
    0.7375    1.0495   -1.7030 C   0  0  0  0  0  0  0  0  0  0  0  0
   -0.2882    0.4398   -2.6276 C   0  0  0  0  0  0  0  0  0  0  0  0
    0.0001   -0.7438   -3.3240 C   0  0  0  0  0  0  0  0  0  0  0  0
   -1.5376    1.0523   -2.8119 C   0  0  0  0  0  0  0  0  0  0  0  0
   -0.9482   -1.3115   -4.1817 C   0  0  0  0  0  0  0  0  0  0  0  0
   -2.4865    0.4849   -3.6691 C   0  0  0  0  0  0  0  0  0  0  0  0
   -2.1925   -0.6981   -4.3531 C   0  0  0  0  0  0  0  0  0  0  0  0
   -1.1083    1.3653   -0.0279 H   0  0  0  0  0  0  0  0  0  0  0  0
    0.8360   -0.7298   -0.4710 H   0  0  0  0  0  0  0  0  0  0  0  0
    1.7256    0.9599   -2.1669 H   0  0  0  0  0  0  0  0  0  0  0  0
    0.5421    2.1194   -1.5725 H   0  0  0  0  0  0  0  0  0  0  0  0
    0.9635   -1.2297   -3.2027 H   0  0  0  0  0  0  0  0  0  0  0  0
   -1.7781    1.9755   -2.2941 H   0  0  0  0  0  0  0  0  0  0  0  0
   -0.7180   -2.2284   -4.7166 H   0  0  0  0  0  0  0  0  0  0  0  0
   -3.4516    0.9642   -3.8065 H   0  0  0  0  0  0  0  0  0  0  0  0
   -2.9285   -1.1384   -5.0198 H   0  0  0  0  0  0  0  0  0  0  0  0
    3.1955    0.1697    0.3219 N   0  0  0  0  0  0  0  0  0  0  0  0
    4.4449    0.5948    0.9720 C   0  0  2  0  0  0  0  0  0  0  0  0
    5.1555    1.7365    0.2043 C   0  0  0  0  0  0  0  0  0  0  0  0
    6.2889    1.6078   -0.2428 O   0  0  0  0  0  0  0  0  0  0  0  0
    5.3232   -0.6524    1.1328 C   0  0  0  0  0  0  0  0  0  0  0  0
    3.1869   -0.7224   -0.1632 H   0  0  0  0  0  0  0  0  0  0  0  0
    4.2211    0.9753    1.9745 H   0  0  0  0  0  0  0  0  0  0  0  0
    5.5880   -1.0664    0.1543 H   0  0  0  0  0  0  0  0  0  0  0  0
    6.2474   -0.3987    1.6623 H   0  0  0  0  0  0  0  0  0  0  0  0
    4.7959   -1.4193    1.7088 H   0  0  0  0  0  0  0  0  0  0  0  0
    4.4931    2.9330    0.0164 N   0  0  0  0  0  0  0  0  0  0  0  0
    5.0580    4.0837   -0.6736 C   0  0  0  0  0  0  0  0  0  0  0  0
    3.5441    2.9857    0.3960 H   0  0  0  0  0  0  0  0  0  0  0  0
    5.9460    4.4467   -0.1463 H   0  0  0  0  0  0  0  0  0  0  0  0
    5.3394    3.8170   -1.6975 H   0  0  0  0  0  0  0  0  0  0  0  0
    4.3247    4.8945   -0.7165 H   0  0  0  0  0  0  0  0  0  0  0  0
  1  2  2  0  0  0  0
  1  3  1  0  0  0  0
  1  7  1  0  0  0  0
  3  4  1  0  0  0  0
  3  5  1  0  0  0  0
  3  6  1  0  0  0  0
  7  8  1  0  0  0  0
  7 12  1  0  0  0  0
  8  9  1  0  0  0  0
  8 11  1  0  0  0  0
  8 13  1  0  0  0  0
  9 10  2  0  0  0  0
  9 17  1  0  0  0  0
 11 14  1  0  0  0  0
 11 15  1  0  0  0  0
 11 16  1  0  0  0  0
 17 18  1  0  0  0  0
 17 28  1  0  0  0  0
 18 19  1  0  0  0  0
 18 21  1  0  0  0  0
 18 29  1  0  0  0  0
 19 20  2  0  0  0  0
 19 37  1  0  0  0  0
 21 22  1  0  0  0  0
 21 30  1  0  0  0  0
 21 31  1  0  0  0  0
 22 23  1  0  0  0  0
 22 24  2  0  0  0  0
 23 25  2  0  0  0  0
 23 32  1  0  0  0  0
 24 26  1  0  0  0  0
 24 33  1  0  0  0  0
 25 27  1  0  0  0  0
 25 34  1  0  0  0  0
 26 27  2  0  0  0  0
 26 35  1  0  0  0  0
 27 36  1  0  0  0  0
 37 38  1  0  0  0  0
 37 42  1  0  0  0  0
 38 39  1  0  0  0  0
 38 41  1  0  0  0  0
 38 43  1  0  0  0  0
 39 40  2  0  0  0  0
 39 47  1  0  0  0  0
 41 44  1  0  0  0  0
 41 45  1  0  0  0  0
 41 46  1  0  0  0  0
 47 48  1  0  0  0  0
 47 49  1  0  0  0  0
 48 50  1  0  0  0  0
 48 51  1  0  0  0  0
 48 52  1  0  0  0  0
M  END
$$$$

  -OEChem-05262217163D

 52 52  0     1  0  0  0  0  0999 V2000
   -3.1322    0.5253    4.5351 C   0  0  0  0  0  0  0  0  0  0  0  0
   -4.0866    1.1522    4.1022 O   0  0  0  0  0  0  0  0  0  0  0  0
   -3.2533   -0.2462    5.8359 C   0  0  0  0  0  0  0  0  0  0  0  0
   -4.2366   -0.0771    6.2837 H   0  0  0  0  0  0  0  0  0  0  0  0
   -3.1296   -1.3156    5.6484 H   0  0  0  0  0  0  0  0  0  0  0  0
   -2.4851    0.0844    6.5393 H   0  0  0  0  0  0  0  0  0  0  0  0
   -1.9440    0.5081    3.8369 N   0  0  0  0  0  0  0  0  0  0  0  0
   -1.7516    1.1068    2.5103 C   0  0  2  0  0  0  0  0  0  0  0  0
   -0.6811    0.3541    1.6936 C   0  0  0  0  0  0  0  0  0  0  0  0
   -0.0047   -0.5288    2.2148 O   0  0  0  0  0  0  0  0  0  0  0  0
   -1.3470    2.5734    2.6949 C   0  0  0  0  0  0  0  0  0  0  0  0
   -1.2132   -0.1216    4.1666 H   0  0  0  0  0  0  0  0  0  0  0  0
   -2.6883    1.0567    1.9449 H   0  0  0  0  0  0  0  0  0  0  0  0
   -0.4014    2.6432    3.2424 H   0  0  0  0  0  0  0  0  0  0  0  0
   -1.2229    3.0649    1.7255 H   0  0  0  0  0  0  0  0  0  0  0  0
   -2.1161    3.1118    3.2578 H   0  0  0  0  0  0  0  0  0  0  0  0
   -0.5086    0.6209    0.3463 N   0  0  0  0  0  0  0  0  0  0  0  0
    0.7569    0.3345   -0.3543 C   0  0  2  0  0  0  0  0  0  0  0  0
    2.0246    0.7837    0.4141 C   0  0  0  0  0  0  0  0  0  0  0  0
    1.9861    1.7570    1.1625 O   0  0  0  0  0  0  0  0  0  0  0  0
    0.7344    1.0487   -1.7182 C   0  0  0  0  0  0  0  0  0  0  0  0
   -0.3109    0.4554   -2.6327 C   0  0  0  0  0  0  0  0  0  0  0  0
   -0.0445   -0.7228   -3.3469 C   0  0  0  0  0  0  0  0  0  0  0  0
   -1.5588    1.0791   -2.7886 C   0  0  0  0  0  0  0  0  0  0  0  0
   -1.0121   -1.2741   -4.1938 C   0  0  0  0  0  0  0  0  0  0  0  0
   -2.5271    0.5284   -3.6349 C   0  0  0  0  0  0  0  0  0  0  0  0
   -2.2546   -0.6495   -4.3368 C   0  0  0  0  0  0  0  0  0  0  0  0
   -1.0711    1.3826   -0.0189 H   0  0  0  0  0  0  0  0  0  0  0  0
    0.8312   -0.7468   -0.5067 H   0  0  0  0  0  0  0  0  0  0  0  0
    1.7125    0.9570   -2.2022 H   0  0  0  0  0  0  0  0  0  0  0  0
    0.5498    2.1185   -1.5718 H   0  0  0  0  0  0  0  0  0  0  0  0
    0.9167   -1.2173   -3.2475 H   0  0  0  0  0  0  0  0  0  0  0  0
   -1.7827    1.9985   -2.2564 H   0  0  0  0  0  0  0  0  0  0  0  0
   -0.7987   -2.1873   -4.7418 H   0  0  0  0  0  0  0  0  0  0  0  0
   -3.4908    1.0166   -3.7491 H   0  0  0  0  0  0  0  0  0  0  0  0
   -3.0063   -1.0766   -4.9946 H   0  0  0  0  0  0  0  0  0  0  0  0
    3.2686    0.3077    0.0374 N   0  0  0  0  0  0  0  0  0  0  0  0
    4.5418    0.7662    0.6154 C   0  0  2  0  0  0  0  0  0  0  0  0
    5.0295    2.0990   -0.0040 C   0  0  0  0  0  0  0  0  0  0  0  0
    6.0933    2.1805   -0.6062 O   0  0  0  0  0  0  0  0  0  0  0  0
    5.5548   -0.3736    0.4495 C   0  0  0  0  0  0  0  0  0  0  0  0
    3.2955   -0.4408   -0.6484 H   0  0  0  0  0  0  0  0  0  0  0  0
    4.4119    0.9406    1.6891 H   0  0  0  0  0  0  0  0  0  0  0  0
    5.7319   -0.5811   -0.6108 H   0  0  0  0  0  0  0  0  0  0  0  0
    6.5092   -0.1023    0.9122 H   0  0  0  0  0  0  0  0  0  0  0  0
    5.1868   -1.2855    0.9298 H   0  0  0  0  0  0  0  0  0  0  0  0
    4.2395    3.2247    0.1161 N   0  0  0  0  0  0  0  0  0  0  0  0
    4.5879    4.5314   -0.4237 C   0  0  0  0  0  0  0  0  0  0  0  0
    3.3482    3.0987    0.6036 H   0  0  0  0  0  0  0  0  0  0  0  0
    5.5044    4.9055    0.0443 H   0  0  0  0  0  0  0  0  0  0  0  0
    4.7436    4.4706   -1.5059 H   0  0  0  0  0  0  0  0  0  0  0  0
    3.7825    5.2463   -0.2297 H   0  0  0  0  0  0  0  0  0  0  0  0
  1  2  2  0  0  0  0
  1  3  1  0  0  0  0
  1  7  1  0  0  0  0
  3  4  1  0  0  0  0
  3  5  1  0  0  0  0
  3  6  1  0  0  0  0
  7  8  1  0  0  0  0
  7 12  1  0  0  0  0
  8  9  1  0  0  0  0
  8 11  1  0  0  0  0
  8 13  1  0  0  0  0
  9 10  2  0  0  0  0
  9 17  1  0  0  0  0
 11 14  1  0  0  0  0
 11 15  1  0  0  0  0
 11 16  1  0  0  0  0
 17 18  1  0  0  0  0
 17 28  1  0  0  0  0
 18 19  1  0  0  0  0
 18 21  1  0  0  0  0
 18 29  1  0  0  0  0
 19 20  2  0  0  0  0
 19 37  1  0  0  0  0
 21 22  1  0  0  0  0
 21 30  1  0  0  0  0
 21 31  1  0  0  0  0
 22 23  1  0  0  0  0
 22 24  2  0  0  0  0
 23 25  2  0  0  0  0
 23 32  1  0  0  0  0
 24 26  1  0  0  0  0
 24 33  1  0  0  0  0
 25 27  1  0  0  0  0
 25 34  1  0  0  0  0
 26 27  2  0  0  0  0
 26 35  1  0  0  0  0
 27 36  1  0  0  0  0
 37 38  1  0  0  0  0
 37 42  1  0  0  0  0
 38 39  1  0  0  0  0
 38 41  1  0  0  0  0
 38 43  1  0  0  0  0
 39 40  2  0  0  0  0
 39 47  1  0  0  0  0
 41 44  1  0  0  0  0
 41 45  1  0  0  0  0
 41 46  1  0  0  0  0
 47 48  1  0  0  0  0
 47 49  1  0  0  0  0
 48 50  1  0  0  0  0
 48 51  1  0  0  0  0
 48 52  1  0  0  0  0
M  END
$$$$

  -OEChem-05262217163D

 52 52  0     1  0  0  0  0  0999 V2000
   -3.2838    0.4908    4.4358 C   0  0  0  0  0  0  0  0  0  0  0  0
   -4.1707    1.1943    3.9775 O   0  0  0  0  0  0  0  0  0  0  0  0
   -3.5350   -0.3371    5.6821 C   0  0  0  0  0  0  0  0  0  0  0  0
   -4.5573   -0.1823    6.0383 H   0  0  0  0  0  0  0  0  0  0  0  0
   -3.3956   -1.3979    5.4597 H   0  0  0  0  0  0  0  0  0  0  0  0
   -2.8390   -0.0430    6.4713 H   0  0  0  0  0  0  0  0  0  0  0  0
   -2.0549    0.4363    3.8145 N   0  0  0  0  0  0  0  0  0  0  0  0
   -1.7608    1.0440    2.5108 C   0  0  2  0  0  0  0  0  0  0  0  0
   -0.7306    0.2152    1.7168 C   0  0  0  0  0  0  0  0  0  0  0  0
   -0.2166   -0.7820    2.2153 O   0  0  0  0  0  0  0  0  0  0  0  0
   -1.2381    2.4649    2.7435 C   0  0  0  0  0  0  0  0  0  0  0  0
   -1.3961   -0.2680    4.1461 H   0  0  0  0  0  0  0  0  0  0  0  0
   -2.6753    1.0891    1.9101 H   0  0  0  0  0  0  0  0  0  0  0  0
   -0.3037    2.4393    3.3139 H   0  0  0  0  0  0  0  0  0  0  0  0
   -1.0497    2.9678    1.7905 H   0  0  0  0  0  0  0  0  0  0  0  0
   -1.9732    3.0523    3.3026 H   0  0  0  0  0  0  0  0  0  0  0  0
   -0.4774    0.4998    0.3860 N   0  0  0  0  0  0  0  0  0  0  0  0
    0.8103    0.2243   -0.2846 C   0  0  2  0  0  0  0  0  0  0  0  0
    2.0925    0.2851    0.5942 C   0  0  0  0  0  0  0  0  0  0  0  0
    2.1213    0.9587    1.6208 O   0  0  0  0  0  0  0  0  0  0  0  0
    0.9481    1.2655   -1.4171 C   0  0  0  0  0  0  0  0  0  0  0  0
   -0.0862    1.0488   -2.4957 C   0  0  0  0  0  0  0  0  0  0  0  0
    0.1128    0.0713   -3.4823 C   0  0  0  0  0  0  0  0  0  0  0  0
   -1.2493    1.8340   -2.5392 C   0  0  0  0  0  0  0  0  0  0  0  0
   -0.8415   -0.1295   -4.4855 C   0  0  0  0  0  0  0  0  0  0  0  0
   -2.2039    1.6339   -3.5420 C   0  0  0  0  0  0  0  0  0  0  0  0
   -2.0010    0.6507   -4.5148 C   0  0  0  0  0  0  0  0  0  0  0  0
   -1.0139    1.2747    0.0097 H   0  0  0  0  0  0  0  0  0  0  0  0
    0.7663   -0.7841   -0.7077 H   0  0  0  0  0  0  0  0  0  0  0  0
    1.9380    1.1993   -1.8791 H   0  0  0  0  0  0  0  0  0  0  0  0
    0.8614    2.2755   -1.0017 H   0  0  0  0  0  0  0  0  0  0  0  0
    1.0101   -0.5400   -3.4746 H   0  0  0  0  0  0  0  0  0  0  0  0
   -1.4169    2.6108   -1.7998 H   0  0  0  0  0  0  0  0  0  0  0  0
   -0.6811   -0.8909   -5.2434 H   0  0  0  0  0  0  0  0  0  0  0  0
   -3.1016    2.2451   -3.5688 H   0  0  0  0  0  0  0  0  0  0  0  0
   -2.7410    0.4960   -5.2950 H   0  0  0  0  0  0  0  0  0  0  0  0
    3.3218    0.0259    0.0087 N   0  0  0  0  0  0  0  0  0  0  0  0
    4.6235    0.3436    0.6170 C   0  0  2  0  0  0  0  0  0  0  0  0
    5.0155    1.8254    0.4051 C   0  0  0  0  0  0  0  0  0  0  0  0
    5.9582    2.1492   -0.3073 O   0  0  0  0  0  0  0  0  0  0  0  0
    5.6535   -0.6350    0.0400 C   0  0  0  0  0  0  0  0  0  0  0  0
    3.3180   -0.3754   -0.9240 H   0  0  0  0  0  0  0  0  0  0  0  0
    4.5759    0.1737    1.6983 H   0  0  0  0  0  0  0  0  0  0  0  0
    5.7452   -0.5065   -1.0433 H   0  0  0  0  0  0  0  0  0  0  0  0
    6.6351   -0.4608    0.4926 H   0  0  0  0  0  0  0  0  0  0  0  0
    5.3564   -1.6676    0.2474 H   0  0  0  0  0  0  0  0  0  0  0  0
    4.2569    2.8084    1.0077 N   0  0  0  0  0  0  0  0  0  0  0  0
    4.4799    4.2365    0.8305 C   0  0  0  0  0  0  0  0  0  0  0  0
    3.4262    2.4845    1.5110 H   0  0  0  0  0  0  0  0  0  0  0  0
    5.5078    4.5006    1.1007 H   0  0  0  0  0  0  0  0  0  0  0  0
    4.3035    4.5251   -0.2107 H   0  0  0  0  0  0  0  0  0  0  0  0
    3.7992    4.8061    1.4705 H   0  0  0  0  0  0  0  0  0  0  0  0
  1  2  2  0  0  0  0
  1  3  1  0  0  0  0
  1  7  1  0  0  0  0
  3  4  1  0  0  0  0
  3  5  1  0  0  0  0
  3  6  1  0  0  0  0
  7  8  1  0  0  0  0
  7 12  1  0  0  0  0
  8  9  1  0  0  0  0
  8 11  1  0  0  0  0
  8 13  1  0  0  0  0
  9 10  2  0  0  0  0
  9 17  1  0  0  0  0
 11 14  1  0  0  0  0
 11 15  1  0  0  0  0
 11 16  1  0  0  0  0
 17 18  1  0  0  0  0
 17 28  1  0  0  0  0
 18 19  1  0  0  0  0
 18 21  1  0  0  0  0
 18 29  1  0  0  0  0
 19 20  2  0  0  0  0
 19 37  1  0  0  0  0
 21 22  1  0  0  0  0
 21 30  1  0  0  0  0
 21 31  1  0  0  0  0
 22 23  1  0  0  0  0
 22 24  2  0  0  0  0
 23 25  2  0  0  0  0
 23 32  1  0  0  0  0
 24 26  1  0  0  0  0
 24 33  1  0  0  0  0
 25 27  1  0  0  0  0
 25 34  1  0  0  0  0
 26 27  2  0  0  0  0
 26 35  1  0  0  0  0
 27 36  1  0  0  0  0
 37 38  1  0  0  0  0
 37 42  1  0  0  0  0
 38 39  1  0  0  0  0
 38 41  1  0  0  0  0
 38 43  1  0  0  0  0
 39 40  2  0  0  0  0
 39 47  1  0  0  0  0
 41 44  1  0  0  0  0
 41 45  1  0  0  0  0
 41 46  1  0  0  0  0
 47 48  1  0  0  0  0
 47 49  1  0  0  0  0
 48 50  1  0  0  0  0
 48 51  1  0  0  0  0
 48 52  1  0  0  0  0
M  END
$$$$

  -OEChem-05262217163D

 52 52  0     1  0  0  0  0  0999 V2000
   -3.2314    0.6038    4.3637 C   0  0  0  0  0  0  0  0  0  0  0  0
   -4.0229    1.4366    3.9493 O   0  0  0  0  0  0  0  0  0  0  0  0
   -3.5944   -0.2713    5.5485 C   0  0  0  0  0  0  0  0  0  0  0  0
   -4.6023   -0.0322    5.8987 H   0  0  0  0  0  0  0  0  0  0  0  0
   -3.5629   -1.3243    5.2582 H   0  0  0  0  0  0  0  0  0  0  0  0
   -2.8883   -0.1041    6.3654 H   0  0  0  0  0  0  0  0  0  0  0  0
   -2.0088    0.4482    3.7471 N   0  0  0  0  0  0  0  0  0  0  0  0
   -1.6199    1.1141    2.4980 C   0  0  2  0  0  0  0  0  0  0  0  0
   -0.6780    0.2325    1.6531 C   0  0  0  0  0  0  0  0  0  0  0  0
   -0.2318   -0.8159    2.1088 O   0  0  0  0  0  0  0  0  0  0  0  0
   -0.9322    2.4368    2.8489 C   0  0  0  0  0  0  0  0  0  0  0  0
   -1.4330   -0.3411    4.0399 H   0  0  0  0  0  0  0  0  0  0  0  0
   -2.5105    1.3168    1.8936 H   0  0  0  0  0  0  0  0  0  0  0  0
   -0.0280    2.2515    3.4382 H   0  0  0  0  0  0  0  0  0  0  0  0
   -0.6502    2.9767    1.9405 H   0  0  0  0  0  0  0  0  0  0  0  0
   -1.6057    3.0721    3.4330 H   0  0  0  0  0  0  0  0  0  0  0  0
   -0.4497    0.5200    0.3188 N   0  0  0  0  0  0  0  0  0  0  0  0
    0.8323    0.2675   -0.3763 C   0  0  2  0  0  0  0  0  0  0  0  0
    2.1483    0.3485    0.4611 C   0  0  0  0  0  0  0  0  0  0  0  0
    2.1585    0.7654    1.6146 O   0  0  0  0  0  0  0  0  0  0  0  0
    0.8863    1.2810   -1.5446 C   0  0  0  0  0  0  0  0  0  0  0  0
   -0.1734    0.9840   -2.5797 C   0  0  0  0  0  0  0  0  0  0  0  0
    0.0373   -0.0149   -3.5428 C   0  0  0  0  0  0  0  0  0  0  0  0
   -1.3731    1.7133   -2.6056 C   0  0  0  0  0  0  0  0  0  0  0  0
   -0.9405   -0.2921   -4.5038 C   0  0  0  0  0  0  0  0  0  0  0  0
   -2.3520    1.4349   -3.5652 C   0  0  0  0  0  0  0  0  0  0  0  0
   -2.1366    0.4310   -4.5137 C   0  0  0  0  0  0  0  0  0  0  0  0
   -0.9783    1.3142   -0.0268 H   0  0  0  0  0  0  0  0  0  0  0  0
    0.7985   -0.7498   -0.7788 H   0  0  0  0  0  0  0  0  0  0  0  0
    1.8560    1.2447   -2.0490 H   0  0  0  0  0  0  0  0  0  0  0  0
    0.7700    2.2986   -1.1561 H   0  0  0  0  0  0  0  0  0  0  0  0
    0.9608   -0.5857   -3.5484 H   0  0  0  0  0  0  0  0  0  0  0  0
   -1.5534    2.5045   -1.8846 H   0  0  0  0  0  0  0  0  0  0  0  0
   -0.7716   -1.0700   -5.2430 H   0  0  0  0  0  0  0  0  0  0  0  0
   -3.2796    2.0000   -3.5760 H   0  0  0  0  0  0  0  0  0  0  0  0
   -2.8965    0.2145   -5.2592 H   0  0  0  0  0  0  0  0  0  0  0  0
    3.3708    0.4223   -0.1900 N   0  0  0  0  0  0  0  0  0  0  0  0
    4.6515    0.7526    0.4568 C   0  0  2  0  0  0  0  0  0  0  0  0
    4.8521    2.2794    0.6101 C   0  0  0  0  0  0  0  0  0  0  0  0
    5.7446    2.8760    0.0198 O   0  0  0  0  0  0  0  0  0  0  0  0
    5.7649    0.0818   -0.3570 C   0  0  0  0  0  0  0  0  0  0  0  0
    3.3765    0.2476   -1.1900 H   0  0  0  0  0  0  0  0  0  0  0  0
    4.6756    0.3225    1.4641 H   0  0  0  0  0  0  0  0  0  0  0  0
    5.7932    0.4801   -1.3763 H   0  0  0  0  0  0  0  0  0  0  0  0
    6.7374    0.2635    0.1119 H   0  0  0  0  0  0  0  0  0  0  0  0
    5.6034   -0.9994   -0.4064 H   0  0  0  0  0  0  0  0  0  0  0  0
    3.9868    2.9903    1.4167 N   0  0  0  0  0  0  0  0  0  0  0  0
    4.0611    4.4291    1.6277 C   0  0  0  0  0  0  0  0  0  0  0  0
    3.2237    2.4532    1.8380 H   0  0  0  0  0  0  0  0  0  0  0  0
    5.0323    4.7035    2.0528 H   0  0  0  0  0  0  0  0  0  0  0  0
    3.9263    4.9619    0.6809 H   0  0  0  0  0  0  0  0  0  0  0  0
    3.2783    4.7499    2.3215 H   0  0  0  0  0  0  0  0  0  0  0  0
  1  2  2  0  0  0  0
  1  3  1  0  0  0  0
  1  7  1  0  0  0  0
  3  4  1  0  0  0  0
  3  5  1  0  0  0  0
  3  6  1  0  0  0  0
  7  8  1  0  0  0  0
  7 12  1  0  0  0  0
  8  9  1  0  0  0  0
  8 11  1  0  0  0  0
  8 13  1  0  0  0  0
  9 10  2  0  0  0  0
  9 17  1  0  0  0  0
 11 14  1  0  0  0  0
 11 15  1  0  0  0  0
 11 16  1  0  0  0  0
 17 18  1  0  0  0  0
 17 28  1  0  0  0  0
 18 19  1  0  0  0  0
 18 21  1  0  0  0  0
 18 29  1  0  0  0  0
 19 20  2  0  0  0  0
 19 37  1  0  0  0  0
 21 22  1  0  0  0  0
 21 30  1  0  0  0  0
 21 31  1  0  0  0  0
 22 23  1  0  0  0  0
 22 24  2  0  0  0  0
 23 25  2  0  0  0  0
 23 32  1  0  0  0  0
 24 26  1  0  0  0  0
 24 33  1  0  0  0  0
 25 27  1  0  0  0  0
 25 34  1  0  0  0  0
 26 27  2  0  0  0  0
 26 35  1  0  0  0  0
 27 36  1  0  0  0  0
 37 38  1  0  0  0  0
 37 42  1  0  0  0  0
 38 39  1  0  0  0  0
 38 41  1  0  0  0  0
 38 43  1  0  0  0  0
 39 40  2  0  0  0  0
 39 47  1  0  0  0  0
 41 44  1  0  0  0  0
 41 45  1  0  0  0  0
 41 46  1  0  0  0  0
 47 48  1  0  0  0  0
 47 49  1  0  0  0  0
 48 50  1  0  0  0  0
 48 51  1  0  0  0  0
 48 52  1  0  0  0  0
M  END
$$$$

  -OEChem-05262217163D

 52 52  0     1  0  0  0  0  0999 V2000
   -3.0153    0.0394    4.1745 C   0  0  0  0  0  0  0  0  0  0  0  0
   -3.9234   -0.4165    3.4973 O   0  0  0  0  0  0  0  0  0  0  0  0
   -2.8623   -0.3777    5.6251 C   0  0  0  0  0  0  0  0  0  0  0  0
   -3.6238   -1.1173    5.8875 H   0  0  0  0  0  0  0  0  0  0  0  0
   -1.8750   -0.8181    5.7841 H   0  0  0  0  0  0  0  0  0  0  0  0
   -2.9755    0.4916    6.2774 H   0  0  0  0  0  0  0  0  0  0  0  0
   -2.1155    0.9225    3.6174 N   0  0  0  0  0  0  0  0  0  0  0  0
   -2.0350    1.2238    2.1824 C   0  0  2  0  0  0  0  0  0  0  0  0
   -0.5691    1.3283    1.7112 C   0  0  0  0  0  0  0  0  0  0  0  0
    0.2888    1.6125    2.5332 O   0  0  0  0  0  0  0  0  0  0  0  0
   -2.7833    2.5349    1.9269 C   0  0  0  0  0  0  0  0  0  0  0  0
   -1.2971    1.1638    4.1762 H   0  0  0  0  0  0  0  0  0  0  0  0
   -2.5062    0.4215    1.6041 H   0  0  0  0  0  0  0  0  0  0  0  0
   -2.3180    3.3547    2.4836 H   0  0  0  0  0  0  0  0  0  0  0  0
   -2.7703    2.7840    0.8618 H   0  0  0  0  0  0  0  0  0  0  0  0
   -3.8261    2.4437    2.2474 H   0  0  0  0  0  0  0  0  0  0  0  0
   -0.2977    1.2605    0.3534 N   0  0  0  0  0  0  0  0  0  0  0  0
    0.9266    0.8038   -0.3515 C   0  0  2  0  0  0  0  0  0  0  0  0
    2.3226    0.9601    0.3229 C   0  0  0  0  0  0  0  0  0  0  0  0
    2.5324    0.4665    1.4218 O   0  0  0  0  0  0  0  0  0  0  0  0
    0.8760    1.5198   -1.7212 C   0  0  0  0  0  0  0  0  0  0  0  0
   -0.2813    1.0091   -2.5484 C   0  0  0  0  0  0  0  0  0  0  0  0
   -0.1702   -0.1925   -3.2646 C   0  0  0  0  0  0  0  0  0  0  0  0
   -1.4819    1.7339   -2.6133 C   0  0  0  0  0  0  0  0  0  0  0  0
   -1.2470   -0.6698   -4.0194 C   0  0  0  0  0  0  0  0  0  0  0  0
   -2.5582    1.2577   -3.3691 C   0  0  0  0  0  0  0  0  0  0  0  0
   -2.4418    0.0542   -4.0704 C   0  0  0  0  0  0  0  0  0  0  0  0
   -1.1422    1.1450   -0.2018 H   0  0  0  0  0  0  0  0  0  0  0  0
    0.8321   -0.2744   -0.5156 H   0  0  0  0  0  0  0  0  0  0  0  0
    1.7874    1.3334   -2.2953 H   0  0  0  0  0  0  0  0  0  0  0  0
    0.8001    2.6028   -1.5728 H   0  0  0  0  0  0  0  0  0  0  0  0
    0.7523   -0.7652   -3.2363 H   0  0  0  0  0  0  0  0  0  0  0  0
   -1.5829    2.6751   -2.0800 H   0  0  0  0  0  0  0  0  0  0  0  0
   -1.1559   -1.6028   -4.5684 H   0  0  0  0  0  0  0  0  0  0  0  0
   -3.4847    1.8233   -3.4160 H   0  0  0  0  0  0  0  0  0  0  0  0
   -3.2776   -0.3156   -4.6580 H   0  0  0  0  0  0  0  0  0  0  0  0
    3.4730    1.1515   -0.4304 N   0  0  0  0  0  0  0  0  0  0  0  0
    4.8389    1.1145    0.1231 C   0  0  2  0  0  0  0  0  0  0  0  0
    5.1458    2.3385    1.0223 C   0  0  0  0  0  0  0  0  0  0  0  0
    6.0054    3.1577    0.7185 O   0  0  0  0  0  0  0  0  0  0  0  0
    5.8073    0.9867   -1.0595 C   0  0  0  0  0  0  0  0  0  0  0  0
    3.3533    1.5704   -1.3467 H   0  0  0  0  0  0  0  0  0  0  0  0
    4.9595    0.2213    0.7457 H   0  0  0  0  0  0  0  0  0  0  0  0
    5.7371    1.8619   -1.7133 H   0  0  0  0  0  0  0  0  0  0  0  0
    6.8374    0.9079   -0.6973 H   0  0  0  0  0  0  0  0  0  0  0  0
    5.5791    0.0910   -1.6448 H   0  0  0  0  0  0  0  0  0  0  0  0
    4.4131    2.5292    2.1772 N   0  0  0  0  0  0  0  0  0  0  0  0
    4.5450    3.6902    3.0457 C   0  0  0  0  0  0  0  0  0  0  0  0
    3.6448    1.8694    2.3377 H   0  0  0  0  0  0  0  0  0  0  0  0
    5.5679    3.7683    3.4280 H   0  0  0  0  0  0  0  0  0  0  0  0
    4.3004    4.6064    2.4988 H   0  0  0  0  0  0  0  0  0  0  0  0
    3.8637    3.6018    3.8974 H   0  0  0  0  0  0  0  0  0  0  0  0
  1  2  2  0  0  0  0
  1  3  1  0  0  0  0
  1  7  1  0  0  0  0
  3  4  1  0  0  0  0
  3  5  1  0  0  0  0
  3  6  1  0  0  0  0
  7  8  1  0  0  0  0
  7 12  1  0  0  0  0
  8  9  1  0  0  0  0
  8 11  1  0  0  0  0
  8 13  1  0  0  0  0
  9 10  2  0  0  0  0
  9 17  1  0  0  0  0
 11 14  1  0  0  0  0
 11 15  1  0  0  0  0
 11 16  1  0  0  0  0
 17 18  1  0  0  0  0
 17 28  1  0  0  0  0
 18 19  1  0  0  0  0
 18 21  1  0  0  0  0
 18 29  1  0  0  0  0
 19 20  2  0  0  0  0
 19 37  1  0  0  0  0
 21 22  1  0  0  0  0
 21 30  1  0  0  0  0
 21 31  1  0  0  0  0
 22 23  1  0  0  0  0
 22 24  2  0  0  0  0
 23 25  2  0  0  0  0
 23 32  1  0  0  0  0
 24 26  1  0  0  0  0
 24 33  1  0  0  0  0
 25 27  1  0  0  0  0
 25 34  1  0  0  0  0
 26 27  2  0  0  0  0
 26 35  1  0  0  0  0
 27 36  1  0  0  0  0
 37 38  1  0  0  0  0
 37 42  1  0  0  0  0
 38 39  1  0  0  0  0
 38 41  1  0  0  0  0
 38 43  1  0  0  0  0
 39 40  2  0  0  0  0
 39 47  1  0  0  0  0
 41 44  1  0  0  0  0
 41 45  1  0  0  0  0
 41 46  1  0  0  0  0
 47 48  1  0  0  0  0
 47 49  1  0  0  0  0
 48 50  1  0  0  0  0
 48 51  1  0  0  0  0
 48 52  1  0  0  0  0
M  END
$$$$

  -OEChem-05262217163D

 52 52  0     1  0  0  0  0  0999 V2000
   -2.9585    0.0654    4.2208 C   0  0  0  0  0  0  0  0  0  0  0  0
   -3.9278   -0.2934    3.5706 O   0  0  0  0  0  0  0  0  0  0  0  0
   -2.8077   -0.3669    5.6671 C   0  0  0  0  0  0  0  0  0  0  0  0
   -3.6460   -1.0058    5.9588 H   0  0  0  0  0  0  0  0  0  0  0  0
   -1.8775   -0.9262    5.7947 H   0  0  0  0  0  0  0  0  0  0  0  0
   -2.7898    0.5103    6.3182 H   0  0  0  0  0  0  0  0  0  0  0  0
   -1.9949    0.8605    3.6380 N   0  0  0  0  0  0  0  0  0  0  0  0
   -1.9516    1.1970    2.2093 C   0  0  2  0  0  0  0  0  0  0  0  0
   -0.5015    1.2638    1.6852 C   0  0  0  0  0  0  0  0  0  0  0  0
    0.4031    1.4730    2.4807 O   0  0  0  0  0  0  0  0  0  0  0  0
   -2.6624    2.5391    2.0115 C   0  0  0  0  0  0  0  0  0  0  0  0
   -1.1447    1.0336    4.1739 H   0  0  0  0  0  0  0  0  0  0  0  0
   -2.4714    0.4252    1.6311 H   0  0  0  0  0  0  0  0  0  0  0  0
   -2.1514    3.3289    2.5717 H   0  0  0  0  0  0  0  0  0  0  0  0
   -2.6774    2.8157    0.9532 H   0  0  0  0  0  0  0  0  0  0  0  0
   -3.6964    2.4738    2.3650 H   0  0  0  0  0  0  0  0  0  0  0  0
   -0.2810    1.2227    0.3167 N   0  0  0  0  0  0  0  0  0  0  0  0
    0.9307    0.7950   -0.4237 C   0  0  2  0  0  0  0  0  0  0  0  0
    2.3182    0.9844    0.2521 C   0  0  0  0  0  0  0  0  0  0  0  0
    2.6061    0.2944    1.2215 O   0  0  0  0  0  0  0  0  0  0  0  0
    0.8557    1.5073   -1.7920 C   0  0  0  0  0  0  0  0  0  0  0  0
   -0.3061    0.9808   -2.6019 C   0  0  0  0  0  0  0  0  0  0  0  0
   -0.1904   -0.2215   -3.3162 C   0  0  0  0  0  0  0  0  0  0  0  0
   -1.5165    1.6904   -2.6520 C   0  0  0  0  0  0  0  0  0  0  0  0
   -1.2716   -0.7147   -4.0543 C   0  0  0  0  0  0  0  0  0  0  0  0
   -2.5976    1.1978   -3.3902 C   0  0  0  0  0  0  0  0  0  0  0  0
   -2.4763   -0.0064   -4.0895 C   0  0  0  0  0  0  0  0  0  0  0  0
   -1.1405    1.1219   -0.2180 H   0  0  0  0  0  0  0  0  0  0  0  0
    0.8574   -0.2848   -0.5898 H   0  0  0  0  0  0  0  0  0  0  0  0
    1.7667    1.3249   -2.3704 H   0  0  0  0  0  0  0  0  0  0  0  0
    0.7680    2.5894   -1.6462 H   0  0  0  0  0  0  0  0  0  0  0  0
    0.7393   -0.7829   -3.2973 H   0  0  0  0  0  0  0  0  0  0  0  0
   -1.6221    2.6318   -2.1203 H   0  0  0  0  0  0  0  0  0  0  0  0
   -1.1761   -1.6487   -4.6010 H   0  0  0  0  0  0  0  0  0  0  0  0
   -3.5316    1.7516   -3.4245 H   0  0  0  0  0  0  0  0  0  0  0  0
   -3.3158   -0.3898   -4.6630 H   0  0  0  0  0  0  0  0  0  0  0  0
    3.4073    1.5106   -0.4269 N   0  0  0  0  0  0  0  0  0  0  0  0
    4.7620    1.5944    0.1477 C   0  0  2  0  0  0  0  0  0  0  0  0
    4.8588    2.6505    1.2790 C   0  0  0  0  0  0  0  0  0  0  0  0
    5.6076    3.6167    1.1897 O   0  0  0  0  0  0  0  0  0  0  0  0
    5.7292    1.8699   -1.0108 C   0  0  0  0  0  0  0  0  0  0  0  0
    3.1979    2.1143   -1.2153 H   0  0  0  0  0  0  0  0  0  0  0  0
    5.0369    0.6287    0.5862 H   0  0  0  0  0  0  0  0  0  0  0  0
    5.5104    2.8369   -1.4749 H   0  0  0  0  0  0  0  0  0  0  0  0
    6.7613    1.8877   -0.6461 H   0  0  0  0  0  0  0  0  0  0  0  0
    5.6466    1.0878   -1.7718 H   0  0  0  0  0  0  0  0  0  0  0  0
    4.0600    2.5226    2.3989 N   0  0  0  0  0  0  0  0  0  0  0  0
    3.9971    3.5002    3.4752 C   0  0  0  0  0  0  0  0  0  0  0  0
    3.3936    1.7436    2.3955 H   0  0  0  0  0  0  0  0  0  0  0  0
    4.9835    3.6315    3.9316 H   0  0  0  0  0  0  0  0  0  0  0  0
    3.6510    4.4668    3.0955 H   0  0  0  0  0  0  0  0  0  0  0  0
    3.3004    3.1620    4.2484 H   0  0  0  0  0  0  0  0  0  0  0  0
  1  2  2  0  0  0  0
  1  3  1  0  0  0  0
  1  7  1  0  0  0  0
  3  4  1  0  0  0  0
  3  5  1  0  0  0  0
  3  6  1  0  0  0  0
  7  8  1  0  0  0  0
  7 12  1  0  0  0  0
  8  9  1  0  0  0  0
  8 11  1  0  0  0  0
  8 13  1  0  0  0  0
  9 10  2  0  0  0  0
  9 17  1  0  0  0  0
 11 14  1  0  0  0  0
 11 15  1  0  0  0  0
 11 16  1  0  0  0  0
 17 18  1  0  0  0  0
 17 28  1  0  0  0  0
 18 19  1  0  0  0  0
 18 21  1  0  0  0  0
 18 29  1  0  0  0  0
 19 20  2  0  0  0  0
 19 37  1  0  0  0  0
 21 22  1  0  0  0  0
 21 30  1  0  0  0  0
 21 31  1  0  0  0  0
 22 23  1  0  0  0  0
 22 24  2  0  0  0  0
 23 25  2  0  0  0  0
 23 32  1  0  0  0  0
 24 26  1  0  0  0  0
 24 33  1  0  0  0  0
 25 27  1  0  0  0  0
 25 34  1  0  0  0  0
 26 27  2  0  0  0  0
 26 35  1  0  0  0  0
 27 36  1  0  0  0  0
 37 38  1  0  0  0  0
 37 42  1  0  0  0  0
 38 39  1  0  0  0  0
 38 41  1  0  0  0  0
 38 43  1  0  0  0  0
 39 40  2  0  0  0  0
 39 47  1  0  0  0  0
 41 44  1  0  0  0  0
 41 45  1  0  0  0  0
 41 46  1  0  0  0  0
 47 48  1  0  0  0  0
 47 49  1  0  0  0  0
 48 50  1  0  0  0  0
 48 51  1  0  0  0  0
 48 52  1  0  0  0  0
M  END
$$$$

  -OEChem-05262217163D

 52 52  0     1  0  0  0  0  0999 V2000
   -2.9176    0.1044    4.2796 C   0  0  0  0  0  0  0  0  0  0  0  0
   -3.9382   -0.1496    3.6594 O   0  0  0  0  0  0  0  0  0  0  0  0
   -2.7709   -0.3423    5.7217 C   0  0  0  0  0  0  0  0  0  0  0  0
   -3.6754   -0.8628    6.0494 H   0  0  0  0  0  0  0  0  0  0  0  0
   -1.9194   -1.0207    5.8176 H   0  0  0  0  0  0  0  0  0  0  0  0
   -2.6113    0.5251    6.3667 H   0  0  0  0  0  0  0  0  0  0  0  0
   -1.8938    0.7939    3.6659 N   0  0  0  0  0  0  0  0  0  0  0  0
   -1.8706    1.1440    2.2404 C   0  0  2  0  0  0  0  0  0  0  0  0
   -0.4335    1.1512    1.6766 C   0  0  0  0  0  0  0  0  0  0  0  0
    0.5076    1.2513    2.4519 O   0  0  0  0  0  0  0  0  0  0  0  0
   -2.5278    2.5175    2.0719 C   0  0  0  0  0  0  0  0  0  0  0  0
   -1.0152    0.8851    4.1755 H   0  0  0  0  0  0  0  0  0  0  0  0
   -2.4387    0.4006    1.6710 H   0  0  0  0  0  0  0  0  0  0  0  0
   -1.9722    3.2782    2.6297 H   0  0  0  0  0  0  0  0  0  0  0  0
   -2.5534    2.8061    1.0171 H   0  0  0  0  0  0  0  0  0  0  0  0
   -3.5562    2.4933    2.4465 H   0  0  0  0  0  0  0  0  0  0  0  0
   -0.2541    1.1446    0.3013 N   0  0  0  0  0  0  0  0  0  0  0  0
    0.9494    0.7685   -0.4767 C   0  0  2  0  0  0  0  0  0  0  0  0
    2.3329    0.9978    0.1868 C   0  0  0  0  0  0  0  0  0  0  0  0
    2.7325    0.1894    1.0152 O   0  0  0  0  0  0  0  0  0  0  0  0
    0.8424    1.5028   -1.8291 C   0  0  0  0  0  0  0  0  0  0  0  0
   -0.3169    0.9657   -2.6333 C   0  0  0  0  0  0  0  0  0  0  0  0
   -0.1833   -0.2206   -3.3703 C   0  0  0  0  0  0  0  0  0  0  0  0
   -1.5449    1.6453   -2.6488 C   0  0  0  0  0  0  0  0  0  0  0  0
   -1.2649   -0.7280   -4.0980 C   0  0  0  0  0  0  0  0  0  0  0  0
   -2.6271    1.1381   -3.3756 C   0  0  0  0  0  0  0  0  0  0  0  0
   -2.4877   -0.0504   -4.0985 C   0  0  0  0  0  0  0  0  0  0  0  0
   -1.1255    1.0755   -0.2190 H   0  0  0  0  0  0  0  0  0  0  0  0
    0.9065   -0.3102   -0.6623 H   0  0  0  0  0  0  0  0  0  0  0  0
    1.7557    1.3507   -2.4141 H   0  0  0  0  0  0  0  0  0  0  0  0
    0.7306    2.5801   -1.6645 H   0  0  0  0  0  0  0  0  0  0  0  0
    0.7608   -0.7582   -3.3769 H   0  0  0  0  0  0  0  0  0  0  0  0
   -1.6644    2.5739   -2.0981 H   0  0  0  0  0  0  0  0  0  0  0  0
   -1.1552   -1.6496   -4.6628 H   0  0  0  0  0  0  0  0  0  0  0  0
   -3.5755    1.6682   -3.3823 H   0  0  0  0  0  0  0  0  0  0  0  0
   -3.3273   -0.4456   -4.6634 H   0  0  0  0  0  0  0  0  0  0  0  0
    3.2948    1.8322   -0.3612 N   0  0  0  0  0  0  0  0  0  0  0  0
    4.6154    2.0447    0.2561 C   0  0  2  0  0  0  0  0  0  0  0  0
    4.5273    2.8873    1.5552 C   0  0  0  0  0  0  0  0  0  0  0  0
    5.1238    3.9522    1.6673 O   0  0  0  0  0  0  0  0  0  0  0  0
    5.5203    2.6791   -0.8080 C   0  0  0  0  0  0  0  0  0  0  0  0
    2.9591    2.5446   -1.0017 H   0  0  0  0  0  0  0  0  0  0  0  0
    5.0536    1.0789    0.5302 H   0  0  0  0  0  0  0  0  0  0  0  0
    5.1360    3.6593   -1.1076 H   0  0  0  0  0  0  0  0  0  0  0  0
    6.5329    2.8114   -0.4133 H   0  0  0  0  0  0  0  0  0  0  0  0
    5.5772    2.0384   -1.6931 H   0  0  0  0  0  0  0  0  0  0  0  0
    3.7287    2.4555    2.5968 N   0  0  0  0  0  0  0  0  0  0  0  0
    3.4885    3.2183    3.8125 C   0  0  0  0  0  0  0  0  0  0  0  0
    3.1815    1.6044    2.4314 H   0  0  0  0  0  0  0  0  0  0  0  0
    4.4263    3.3848    4.3523 H   0  0  0  0  0  0  0  0  0  0  0  0
    3.0394    4.1878    3.5744 H   0  0  0  0  0  0  0  0  0  0  0  0
    2.8039    2.6712    4.4677 H   0  0  0  0  0  0  0  0  0  0  0  0
  1  2  2  0  0  0  0
  1  3  1  0  0  0  0
  1  7  1  0  0  0  0
  3  4  1  0  0  0  0
  3  5  1  0  0  0  0
  3  6  1  0  0  0  0
  7  8  1  0  0  0  0
  7 12  1  0  0  0  0
  8  9  1  0  0  0  0
  8 11  1  0  0  0  0
  8 13  1  0  0  0  0
  9 10  2  0  0  0  0
  9 17  1  0  0  0  0
 11 14  1  0  0  0  0
 11 15  1  0  0  0  0
 11 16  1  0  0  0  0
 17 18  1  0  0  0  0
 17 28  1  0  0  0  0
 18 19  1  0  0  0  0
 18 21  1  0  0  0  0
 18 29  1  0  0  0  0
 19 20  2  0  0  0  0
 19 37  1  0  0  0  0
 21 22  1  0  0  0  0
 21 30  1  0  0  0  0
 21 31  1  0  0  0  0
 22 23  1  0  0  0  0
 22 24  2  0  0  0  0
 23 25  2  0  0  0  0
 23 32  1  0  0  0  0
 24 26  1  0  0  0  0
 24 33  1  0  0  0  0
 25 27  1  0  0  0  0
 25 34  1  0  0  0  0
 26 27  2  0  0  0  0
 26 35  1  0  0  0  0
 27 36  1  0  0  0  0
 37 38  1  0  0  0  0
 37 42  1  0  0  0  0
 38 39  1  0  0  0  0
 38 41  1  0  0  0  0
 38 43  1  0  0  0  0
 39 40  2  0  0  0  0
 39 47  1  0  0  0  0
 41 44  1  0  0  0  0
 41 45  1  0  0  0  0
 41 46  1  0  0  0  0
 47 48  1  0  0  0  0
 47 49  1  0  0  0  0
 48 50  1  0  0  0  0
 48 51  1  0  0  0  0
 48 52  1  0  0  0  0
M  END
$$$$

  -OEChem-05262217163D

 52 52  0     1  0  0  0  0  0999 V2000
   -2.9179    0.0915    4.3036 C   0  0  0  0  0  0  0  0  0  0  0  0
   -3.9627   -0.0833    3.6964 O   0  0  0  0  0  0  0  0  0  0  0  0
   -2.7747   -0.3981    5.7323 C   0  0  0  0  0  0  0  0  0  0  0  0
   -3.6912   -0.9020    6.0520 H   0  0  0  0  0  0  0  0  0  0  0  0
   -1.9420   -1.1022    5.8046 H   0  0  0  0  0  0  0  0  0  0  0  0
   -2.5873    0.4475    6.3984 H   0  0  0  0  0  0  0  0  0  0  0  0
   -1.8639    0.7316    3.6871 N   0  0  0  0  0  0  0  0  0  0  0  0
   -1.8452    1.1198    2.2710 C   0  0  2  0  0  0  0  0  0  0  0  0
   -0.4213    1.0587    1.6781 C   0  0  0  0  0  0  0  0  0  0  0  0
    0.5394    1.0476    2.4357 O   0  0  0  0  0  0  0  0  0  0  0  0
   -2.4174    2.5360    2.1528 C   0  0  0  0  0  0  0  0  0  0  0  0
   -0.9727    0.7543    4.1823 H   0  0  0  0  0  0  0  0  0  0  0  0
   -2.4687    0.4291    1.6928 H   0  0  0  0  0  0  0  0  0  0  0  0
   -1.8075    3.2435    2.7238 H   0  0  0  0  0  0  0  0  0  0  0  0
   -2.4387    2.8581    1.1075 H   0  0  0  0  0  0  0  0  0  0  0  0
   -3.4402    2.5647    2.5420 H   0  0  0  0  0  0  0  0  0  0  0  0
   -0.2652    1.0796    0.3001 N   0  0  0  0  0  0  0  0  0  0  0  0
    0.9455    0.7718   -0.4938 C   0  0  2  0  0  0  0  0  0  0  0  0
    2.3151    1.0660    0.1683 C   0  0  0  0  0  0  0  0  0  0  0  0
    2.8518    0.1968    0.8430 O   0  0  0  0  0  0  0  0  0  0  0  0
    0.8102    1.5175   -1.8359 C   0  0  0  0  0  0  0  0  0  0  0  0
   -0.3253    0.9472   -2.6511 C   0  0  0  0  0  0  0  0  0  0  0  0
   -0.1415   -0.2224   -3.4034 C   0  0  0  0  0  0  0  0  0  0  0  0
   -1.5779    1.5808   -2.6676 C   0  0  0  0  0  0  0  0  0  0  0  0
   -1.1962   -0.7583   -4.1495 C   0  0  0  0  0  0  0  0  0  0  0  0
   -2.6330    1.0456   -3.4142 C   0  0  0  0  0  0  0  0  0  0  0  0
   -2.4427   -0.1254   -4.1538 C   0  0  0  0  0  0  0  0  0  0  0  0
   -1.1396    1.0439   -0.2189 H   0  0  0  0  0  0  0  0  0  0  0  0
    0.9530   -0.3054   -0.6927 H   0  0  0  0  0  0  0  0  0  0  0  0
    1.7350    1.4122   -2.4137 H   0  0  0  0  0  0  0  0  0  0  0  0
    0.6526    2.5869   -1.6599 H   0  0  0  0  0  0  0  0  0  0  0  0
    0.8220   -0.7241   -3.4085 H   0  0  0  0  0  0  0  0  0  0  0  0
   -1.7368    2.4965   -2.1055 H   0  0  0  0  0  0  0  0  0  0  0  0
   -1.0469   -1.6668   -4.7260 H   0  0  0  0  0  0  0  0  0  0  0  0
   -3.6002    1.5403   -3.4245 H   0  0  0  0  0  0  0  0  0  0  0  0
   -3.2612   -0.5415   -4.7344 H   0  0  0  0  0  0  0  0  0  0  0  0
    3.0909    2.1561   -0.1912 N   0  0  0  0  0  0  0  0  0  0  0  0
    4.3897    2.4602    0.4320 C   0  0  2  0  0  0  0  0  0  0  0  0
    4.2391    3.0278    1.8672 C   0  0  0  0  0  0  0  0  0  0  0  0
    4.7169    4.1133    2.1775 O   0  0  0  0  0  0  0  0  0  0  0  0
    5.1324    3.4122   -0.5140 C   0  0  0  0  0  0  0  0  0  0  0  0
    2.6122    2.9105   -0.6727 H   0  0  0  0  0  0  0  0  0  0  0  0
    4.9832    1.5432    0.5125 H   0  0  0  0  0  0  0  0  0  0  0  0
    4.5956    4.3619   -0.6054 H   0  0  0  0  0  0  0  0  0  0  0  0
    6.1370    3.6186   -0.1312 H   0  0  0  0  0  0  0  0  0  0  0  0
    5.2279    2.9653   -1.5081 H   0  0  0  0  0  0  0  0  0  0  0  0
    3.5255    2.3171    2.8130 N   0  0  0  0  0  0  0  0  0  0  0  0
    3.2371    2.8044    4.1534 C   0  0  0  0  0  0  0  0  0  0  0  0
    3.0700    1.4568    2.4923 H   0  0  0  0  0  0  0  0  0  0  0  0
    4.1660    2.9934    4.7015 H   0  0  0  0  0  0  0  0  0  0  0  0
    2.6571    3.7317    4.1069 H   0  0  0  0  0  0  0  0  0  0  0  0
    2.6556    2.0593    4.7046 H   0  0  0  0  0  0  0  0  0  0  0  0
  1  2  2  0  0  0  0
  1  3  1  0  0  0  0
  1  7  1  0  0  0  0
  3  4  1  0  0  0  0
  3  5  1  0  0  0  0
  3  6  1  0  0  0  0
  7  8  1  0  0  0  0
  7 12  1  0  0  0  0
  8  9  1  0  0  0  0
  8 11  1  0  0  0  0
  8 13  1  0  0  0  0
  9 10  2  0  0  0  0
  9 17  1  0  0  0  0
 11 14  1  0  0  0  0
 11 15  1  0  0  0  0
 11 16  1  0  0  0  0
 17 18  1  0  0  0  0
 17 28  1  0  0  0  0
 18 19  1  0  0  0  0
 18 21  1  0  0  0  0
 18 29  1  0  0  0  0
 19 20  2  0  0  0  0
 19 37  1  0  0  0  0
 21 22  1  0  0  0  0
 21 30  1  0  0  0  0
 21 31  1  0  0  0  0
 22 23  1  0  0  0  0
 22 24  2  0  0  0  0
 23 25  2  0  0  0  0
 23 32  1  0  0  0  0
 24 26  1  0  0  0  0
 24 33  1  0  0  0  0
 25 27  1  0  0  0  0
 25 34  1  0  0  0  0
 26 27  2  0  0  0  0
 26 35  1  0  0  0  0
 27 36  1  0  0  0  0
 37 38  1  0  0  0  0
 37 42  1  0  0  0  0
 38 39  1  0  0  0  0
 38 41  1  0  0  0  0
 38 43  1  0  0  0  0
 39 40  2  0  0  0  0
 39 47  1  0  0  0  0
 41 44  1  0  0  0  0
 41 45  1  0  0  0  0
 41 46  1  0  0  0  0
 47 48  1  0  0  0  0
 47 49  1  0  0  0  0
 48 50  1  0  0  0  0
 48 51  1  0  0  0  0
 48 52  1  0  0  0  0
M  END
$$$$

  -OEChem-05262217163D

 52 52  0     1  0  0  0  0  0999 V2000
   -2.9084    0.0920    4.3421 C   0  0  0  0  0  0  0  0  0  0  0  0
   -3.9758   -0.0210    3.7600 O   0  0  0  0  0  0  0  0  0  0  0  0
   -2.7523   -0.4263    5.7592 C   0  0  0  0  0  0  0  0  0  0  0  0
   -3.6832   -0.8917    6.0947 H   0  0  0  0  0  0  0  0  0  0  0  0
   -1.9529   -1.1704    5.7988 H   0  0  0  0  0  0  0  0  0  0  0  0
   -2.5083    0.3981    6.4336 H   0  0  0  0  0  0  0  0  0  0  0  0
   -1.8385    0.6830    3.7048 N   0  0  0  0  0  0  0  0  0  0  0  0
   -1.8346    1.0811    2.2915 C   0  0  2  0  0  0  0  0  0  0  0  0
   -0.4243    0.9819    1.6725 C   0  0  0  0  0  0  0  0  0  0  0  0
    0.5471    0.8804    2.4097 O   0  0  0  0  0  0  0  0  0  0  0  0
   -2.3677    2.5139    2.1918 C   0  0  0  0  0  0  0  0  0  0  0  0
   -0.9353    0.6539    4.1772 H   0  0  0  0  0  0  0  0  0  0  0  0
   -2.4883    0.4125    1.7208 H   0  0  0  0  0  0  0  0  0  0  0  0
   -1.7270    3.1998    2.7553 H   0  0  0  0  0  0  0  0  0  0  0  0
   -2.4002    2.8426    1.1488 H   0  0  0  0  0  0  0  0  0  0  0  0
   -3.3817    2.5697    2.6008 H   0  0  0  0  0  0  0  0  0  0  0  0
   -0.2846    1.0310    0.2938 N   0  0  0  0  0  0  0  0  0  0  0  0
    0.9358    0.7895   -0.5058 C   0  0  2  0  0  0  0  0  0  0  0  0
    2.2869    1.1406    0.1618 C   0  0  0  0  0  0  0  0  0  0  0  0
    2.9603    0.2511    0.6649 O   0  0  0  0  0  0  0  0  0  0  0  0
    0.7846    1.5473   -1.8380 C   0  0  0  0  0  0  0  0  0  0  0  0
   -0.3217    0.9456   -2.6708 C   0  0  0  0  0  0  0  0  0  0  0  0
   -0.0847   -0.2062   -3.4357 C   0  0  0  0  0  0  0  0  0  0  0  0
   -1.5974    1.5315   -2.6955 C   0  0  0  0  0  0  0  0  0  0  0  0
   -1.1096   -0.7733   -4.2002 C   0  0  0  0  0  0  0  0  0  0  0  0
   -2.6222    0.9659   -3.4619 C   0  0  0  0  0  0  0  0  0  0  0  0
   -2.3790   -0.1881   -4.2126 C   0  0  0  0  0  0  0  0  0  0  0  0
   -1.1597    1.0234   -0.2250 H   0  0  0  0  0  0  0  0  0  0  0  0
    0.9906   -0.2837   -0.7186 H   0  0  0  0  0  0  0  0  0  0  0  0
    1.7211    1.4892   -2.4037 H   0  0  0  0  0  0  0  0  0  0  0  0
    0.5820    2.6067   -1.6494 H   0  0  0  0  0  0  0  0  0  0  0  0
    0.8974   -0.6706   -3.4356 H   0  0  0  0  0  0  0  0  0  0  0  0
   -1.7982    2.4344   -2.1260 H   0  0  0  0  0  0  0  0  0  0  0  0
   -0.9191   -1.6684   -4.7856 H   0  0  0  0  0  0  0  0  0  0  0  0
   -3.6071    1.4241   -3.4788 H   0  0  0  0  0  0  0  0  0  0  0  0
   -3.1739   -0.6277   -4.8086 H   0  0  0  0  0  0  0  0  0  0  0  0
    2.8522    2.3992    0.0455 N   0  0  0  0  0  0  0  0  0  0  0  0
    4.1250    2.7761    0.6821 C   0  0  2  0  0  0  0  0  0  0  0  0
    3.9716    3.0483    2.2002 C   0  0  0  0  0  0  0  0  0  0  0  0
    4.3478    4.1025    2.6999 O   0  0  0  0  0  0  0  0  0  0  0  0
    4.6783    3.9811   -0.0896 C   0  0  0  0  0  0  0  0  0  0  0  0
    2.2355    3.1453   -0.2599 H   0  0  0  0  0  0  0  0  0  0  0  0
    4.8442    1.9568    0.5776 H   0  0  0  0  0  0  0  0  0  0  0  0
    4.0072    4.8411    0.0047 H   0  0  0  0  0  0  0  0  0  0  0  0
    5.6602    4.2641    0.3037 H   0  0  0  0  0  0  0  0  0  0  0  0
    4.7900    3.7367   -1.1502 H   0  0  0  0  0  0  0  0  0  0  0  0
    3.3754    2.1009    3.0091 N   0  0  0  0  0  0  0  0  0  0  0  0
    3.0817    2.3036    4.4197 C   0  0  0  0  0  0  0  0  0  0  0  0
    2.9803    1.2817    2.5380 H   0  0  0  0  0  0  0  0  0  0  0  0
    3.9967    2.5401    4.9726 H   0  0  0  0  0  0  0  0  0  0  0  0
    2.3676    3.1235    4.5476 H   0  0  0  0  0  0  0  0  0  0  0  0
    2.6466    1.3941    4.8451 H   0  0  0  0  0  0  0  0  0  0  0  0
  1  2  2  0  0  0  0
  1  3  1  0  0  0  0
  1  7  1  0  0  0  0
  3  4  1  0  0  0  0
  3  5  1  0  0  0  0
  3  6  1  0  0  0  0
  7  8  1  0  0  0  0
  7 12  1  0  0  0  0
  8  9  1  0  0  0  0
  8 11  1  0  0  0  0
  8 13  1  0  0  0  0
  9 10  2  0  0  0  0
  9 17  1  0  0  0  0
 11 14  1  0  0  0  0
 11 15  1  0  0  0  0
 11 16  1  0  0  0  0
 17 18  1  0  0  0  0
 17 28  1  0  0  0  0
 18 19  1  0  0  0  0
 18 21  1  0  0  0  0
 18 29  1  0  0  0  0
 19 20  2  0  0  0  0
 19 37  1  0  0  0  0
 21 22  1  0  0  0  0
 21 30  1  0  0  0  0
 21 31  1  0  0  0  0
 22 23  1  0  0  0  0
 22 24  2  0  0  0  0
 23 25  2  0  0  0  0
 23 32  1  0  0  0  0
 24 26  1  0  0  0  0
 24 33  1  0  0  0  0
 25 27  1  0  0  0  0
 25 34  1  0  0  0  0
 26 27  2  0  0  0  0
 26 35  1  0  0  0  0
 27 36  1  0  0  0  0
 37 38  1  0  0  0  0
 37 42  1  0  0  0  0
 38 39  1  0  0  0  0
 38 41  1  0  0  0  0
 38 43  1  0  0  0  0
 39 40  2  0  0  0  0
 39 47  1  0  0  0  0
 41 44  1  0  0  0  0
 41 45  1  0  0  0  0
 41 46  1  0  0  0  0
 47 48  1  0  0  0  0
 47 49  1  0  0  0  0
 48 50  1  0  0  0  0
 48 51  1  0  0  0  0
 48 52  1  0  0  0  0
M  END
$$$$

  -OEChem-05262217163D

 52 52  0     1  0  0  0  0  0999 V2000
   -2.9489    0.0881    4.3473 C   0  0  0  0  0  0  0  0  0  0  0  0
   -4.0102   -0.0591    3.7619 O   0  0  0  0  0  0  0  0  0  0  0  0
   -2.7833   -0.4160    5.7682 C   0  0  0  0  0  0  0  0  0  0  0  0
   -3.7076   -0.8900    6.1104 H   0  0  0  0  0  0  0  0  0  0  0  0
   -1.9743   -1.1495    5.8126 H   0  0  0  0  0  0  0  0  0  0  0  0
   -2.5471    0.4175    6.4343 H   0  0  0  0  0  0  0  0  0  0  0  0
   -1.8925    0.7033    3.7104 N   0  0  0  0  0  0  0  0  0  0  0  0
   -1.8887    1.0795    2.2909 C   0  0  2  0  0  0  0  0  0  0  0  0
   -0.4775    0.9738    1.6749 C   0  0  0  0  0  0  0  0  0  0  0  0
    0.4924    0.8502    2.4106 O   0  0  0  0  0  0  0  0  0  0  0  0
   -2.4250    2.5094    2.1719 C   0  0  0  0  0  0  0  0  0  0  0  0
   -0.9907    0.6965    4.1864 H   0  0  0  0  0  0  0  0  0  0  0  0
   -2.5407    0.4016    1.7292 H   0  0  0  0  0  0  0  0  0  0  0  0
   -1.7808    3.2063    2.7177 H   0  0  0  0  0  0  0  0  0  0  0  0
   -2.4680    2.8206    1.1240 H   0  0  0  0  0  0  0  0  0  0  0  0
   -3.4351    2.5696    2.5897 H   0  0  0  0  0  0  0  0  0  0  0  0
   -0.3275    1.0195    0.2975 N   0  0  0  0  0  0  0  0  0  0  0  0
    0.9136    0.8200   -0.4814 C   0  0  2  0  0  0  0  0  0  0  0  0
    2.2378    1.2298    0.2028 C   0  0  0  0  0  0  0  0  0  0  0  0
    3.0566    0.3719    0.5066 O   0  0  0  0  0  0  0  0  0  0  0  0
    0.7711    1.5749   -1.8152 C   0  0  0  0  0  0  0  0  0  0  0  0
   -0.2981    0.9424   -2.6732 C   0  0  0  0  0  0  0  0  0  0  0  0
   -0.0098   -0.2012   -3.4326 C   0  0  0  0  0  0  0  0  0  0  0  0
   -1.5888    1.4919   -2.7289 C   0  0  0  0  0  0  0  0  0  0  0  0
   -0.9989   -0.7960   -4.2228 C   0  0  0  0  0  0  0  0  0  0  0  0
   -2.5782    0.8982   -3.5205 C   0  0  0  0  0  0  0  0  0  0  0  0
   -2.2838   -0.2474   -4.2657 C   0  0  0  0  0  0  0  0  0  0  0  0
   -1.1950    1.0080   -0.2343 H   0  0  0  0  0  0  0  0  0  0  0  0
    1.0109   -0.2508   -0.6913 H   0  0  0  0  0  0  0  0  0  0  0  0
    1.7230    1.5453   -2.3575 H   0  0  0  0  0  0  0  0  0  0  0  0
    0.5347    2.6280   -1.6308 H   0  0  0  0  0  0  0  0  0  0  0  0
    0.9849   -0.6376   -3.4059 H   0  0  0  0  0  0  0  0  0  0  0  0
   -1.8293    2.3875   -2.1638 H   0  0  0  0  0  0  0  0  0  0  0  0
   -0.7686   -1.6850   -4.8030 H   0  0  0  0  0  0  0  0  0  0  0  0
   -3.5755    1.3273   -3.5619 H   0  0  0  0  0  0  0  0  0  0  0  0
   -3.0510   -0.7100   -4.8801 H   0  0  0  0  0  0  0  0  0  0  0  0
    2.5896    2.5617    0.3383 N   0  0  0  0  0  0  0  0  0  0  0  0
    3.8319    3.0126    0.9855 C   0  0  2  0  0  0  0  0  0  0  0  0
    3.7523    2.9450    2.5309 C   0  0  0  0  0  0  0  0  0  0  0  0
    3.9105    3.9436    3.2245 O   0  0  0  0  0  0  0  0  0  0  0  0
    4.1296    4.4238    0.4629 C   0  0  0  0  0  0  0  0  0  0  0  0
    1.8384    3.2364    0.2336 H   0  0  0  0  0  0  0  0  0  0  0  0
    4.6603    2.3641    0.6808 H   0  0  0  0  0  0  0  0  0  0  0  0
    3.3366    5.1187    0.7568 H   0  0  0  0  0  0  0  0  0  0  0  0
    5.0773    4.7878    0.8725 H   0  0  0  0  0  0  0  0  0  0  0  0
    4.2055    4.4187   -0.6286 H   0  0  0  0  0  0  0  0  0  0  0  0
    3.4786    1.7375    3.1412 N   0  0  0  0  0  0  0  0  0  0  0  0
    3.2148    1.5963    4.5655 C   0  0  0  0  0  0  0  0  0  0  0  0
    3.2083    0.9744    2.5150 H   0  0  0  0  0  0  0  0  0  0  0  0
    4.0549    1.9823    5.1521 H   0  0  0  0  0  0  0  0  0  0  0  0
    2.3082    2.1443    4.8410 H   0  0  0  0  0  0  0  0  0  0  0  0
    3.0736    0.5411    4.8181 H   0  0  0  0  0  0  0  0  0  0  0  0
  1  2  2  0  0  0  0
  1  3  1  0  0  0  0
  1  7  1  0  0  0  0
  3  4  1  0  0  0  0
  3  5  1  0  0  0  0
  3  6  1  0  0  0  0
  7  8  1  0  0  0  0
  7 12  1  0  0  0  0
  8  9  1  0  0  0  0
  8 11  1  0  0  0  0
  8 13  1  0  0  0  0
  9 10  2  0  0  0  0
  9 17  1  0  0  0  0
 11 14  1  0  0  0  0
 11 15  1  0  0  0  0
 11 16  1  0  0  0  0
 17 18  1  0  0  0  0
 17 28  1  0  0  0  0
 18 19  1  0  0  0  0
 18 21  1  0  0  0  0
 18 29  1  0  0  0  0
 19 20  2  0  0  0  0
 19 37  1  0  0  0  0
 21 22  1  0  0  0  0
 21 30  1  0  0  0  0
 21 31  1  0  0  0  0
 22 23  1  0  0  0  0
 22 24  2  0  0  0  0
 23 25  2  0  0  0  0
 23 32  1  0  0  0  0
 24 26  1  0  0  0  0
 24 33  1  0  0  0  0
 25 27  1  0  0  0  0
 25 34  1  0  0  0  0
 26 27  2  0  0  0  0
 26 35  1  0  0  0  0
 27 36  1  0  0  0  0
 37 38  1  0  0  0  0
 37 42  1  0  0  0  0
 38 39  1  0  0  0  0
 38 41  1  0  0  0  0
 38 43  1  0  0  0  0
 39 40  2  0  0  0  0
 39 47  1  0  0  0  0
 41 44  1  0  0  0  0
 41 45  1  0  0  0  0
 41 46  1  0  0  0  0
 47 48  1  0  0  0  0
 47 49  1  0  0  0  0
 48 50  1  0  0  0  0
 48 51  1  0  0  0  0
 48 52  1  0  0  0  0
M  END
$$$$

  -OEChem-05262217163D

 52 52  0     1  0  0  0  0  0999 V2000
   -3.0560    0.1235    4.3335 C   0  0  0  0  0  0  0  0  0  0  0  0
   -4.1088   -0.0258    3.7333 O   0  0  0  0  0  0  0  0  0  0  0  0
   -2.9227   -0.3462    5.7700 C   0  0  0  0  0  0  0  0  0  0  0  0
   -3.8904   -0.6919    6.1447 H   0  0  0  0  0  0  0  0  0  0  0  0
   -2.2073   -1.1703    5.8280 H   0  0  0  0  0  0  0  0  0  0  0  0
   -2.5742    0.4747    6.4017 H   0  0  0  0  0  0  0  0  0  0  0  0
   -1.9812    0.7074    3.6974 N   0  0  0  0  0  0  0  0  0  0  0  0
   -1.9536    1.0567    2.2712 C   0  0  2  0  0  0  0  0  0  0  0  0
   -0.5310    0.9508    1.6824 C   0  0  0  0  0  0  0  0  0  0  0  0
    0.4269    0.8233    2.4329 O   0  0  0  0  0  0  0  0  0  0  0  0
   -2.4974    2.4801    2.1117 C   0  0  0  0  0  0  0  0  0  0  0  0
   -1.0885    0.7097    4.1904 H   0  0  0  0  0  0  0  0  0  0  0  0
   -2.5902    0.3626    1.7115 H   0  0  0  0  0  0  0  0  0  0  0  0
   -1.8712    3.1918    2.6590 H   0  0  0  0  0  0  0  0  0  0  0  0
   -2.5178    2.7707    1.0572 H   0  0  0  0  0  0  0  0  0  0  0  0
   -3.5177    2.5415    2.5037 H   0  0  0  0  0  0  0  0  0  0  0  0
   -0.3520    0.9937    0.3087 N   0  0  0  0  0  0  0  0  0  0  0  0
    0.9138    0.8397   -0.4407 C   0  0  2  0  0  0  0  0  0  0  0  0
    2.2054    1.3070    0.2655 C   0  0  0  0  0  0  0  0  0  0  0  0
    3.1625    0.5481    0.3541 O   0  0  0  0  0  0  0  0  0  0  0  0
    0.7838    1.6013   -1.7707 C   0  0  0  0  0  0  0  0  0  0  0  0
   -0.2425    0.9466   -2.6624 C   0  0  0  0  0  0  0  0  0  0  0  0
    0.0984   -0.1804   -3.4245 C   0  0  0  0  0  0  0  0  0  0  0  0
   -1.5460    1.4607   -2.7466 C   0  0  0  0  0  0  0  0  0  0  0  0
   -0.8530   -0.7946   -4.2454 C   0  0  0  0  0  0  0  0  0  0  0  0
   -2.4973    0.8480   -3.5691 C   0  0  0  0  0  0  0  0  0  0  0  0
   -2.1515   -0.2814   -4.3169 C   0  0  0  0  0  0  0  0  0  0  0  0
   -1.2057    0.9827   -0.2453 H   0  0  0  0  0  0  0  0  0  0  0  0
    1.0563   -0.2258   -0.6502 H   0  0  0  0  0  0  0  0  0  0  0  0
    1.7499    1.6043   -2.2882 H   0  0  0  0  0  0  0  0  0  0  0  0
    0.5147    2.6459   -1.5829 H   0  0  0  0  0  0  0  0  0  0  0  0
    1.1046   -0.5881   -3.3773 H   0  0  0  0  0  0  0  0  0  0  0  0
   -1.8255    2.3444   -2.1809 H   0  0  0  0  0  0  0  0  0  0  0  0
   -0.5815   -1.6695   -4.8291 H   0  0  0  0  0  0  0  0  0  0  0  0
   -3.5040    1.2514   -3.6321 H   0  0  0  0  0  0  0  0  0  0  0  0
   -2.8893   -0.7576   -4.9565 H   0  0  0  0  0  0  0  0  0  0  0  0
    2.3511    2.6235    0.6658 N   0  0  0  0  0  0  0  0  0  0  0  0
    3.5440    3.1323    1.3596 C   0  0  2  0  0  0  0  0  0  0  0  0
    3.5796    2.7142    2.8501 C   0  0  0  0  0  0  0  0  0  0  0  0
    3.5549    3.5448    3.7519 O   0  0  0  0  0  0  0  0  0  0  0  0
    3.5707    4.6530    1.1630 C   0  0  0  0  0  0  0  0  0  0  0  0
    1.4878    3.1486    0.7662 H   0  0  0  0  0  0  0  0  0  0  0  0
    4.4443    2.7206    0.8909 H   0  0  0  0  0  0  0  0  0  0  0  0
    2.6957    5.1175    1.6289 H   0  0  0  0  0  0  0  0  0  0  0  0
    4.4712    5.0771    1.6185 H   0  0  0  0  0  0  0  0  0  0  0  0
    3.5739    4.9001    0.0971 H   0  0  0  0  0  0  0  0  0  0  0  0
    3.6269    1.3716    3.1665 N   0  0  0  0  0  0  0  0  0  0  0  0
    3.4568    0.8608    4.5182 C   0  0  0  0  0  0  0  0  0  0  0  0
    3.4929    0.7315    2.3799 H   0  0  0  0  0  0  0  0  0  0  0  0
    4.2223    1.2731    5.1836 H   0  0  0  0  0  0  0  0  0  0  0  0
    2.4685    1.1294    4.9053 H   0  0  0  0  0  0  0  0  0  0  0  0
    3.5470   -0.2297    4.5211 H   0  0  0  0  0  0  0  0  0  0  0  0
  1  2  2  0  0  0  0
  1  3  1  0  0  0  0
  1  7  1  0  0  0  0
  3  4  1  0  0  0  0
  3  5  1  0  0  0  0
  3  6  1  0  0  0  0
  7  8  1  0  0  0  0
  7 12  1  0  0  0  0
  8  9  1  0  0  0  0
  8 11  1  0  0  0  0
  8 13  1  0  0  0  0
  9 10  2  0  0  0  0
  9 17  1  0  0  0  0
 11 14  1  0  0  0  0
 11 15  1  0  0  0  0
 11 16  1  0  0  0  0
 17 18  1  0  0  0  0
 17 28  1  0  0  0  0
 18 19  1  0  0  0  0
 18 21  1  0  0  0  0
 18 29  1  0  0  0  0
 19 20  2  0  0  0  0
 19 37  1  0  0  0  0
 21 22  1  0  0  0  0
 21 30  1  0  0  0  0
 21 31  1  0  0  0  0
 22 23  1  0  0  0  0
 22 24  2  0  0  0  0
 23 25  2  0  0  0  0
 23 32  1  0  0  0  0
 24 26  1  0  0  0  0
 24 33  1  0  0  0  0
 25 27  1  0  0  0  0
 25 34  1  0  0  0  0
 26 27  2  0  0  0  0
 26 35  1  0  0  0  0
 27 36  1  0  0  0  0
 37 38  1  0  0  0  0
 37 42  1  0  0  0  0
 38 39  1  0  0  0  0
 38 41  1  0  0  0  0
 38 43  1  0  0  0  0
 39 40  2  0  0  0  0
 39 47  1  0  0  0  0
 41 44  1  0  0  0  0
 41 45  1  0  0  0  0
 41 46  1  0  0  0  0
 47 48  1  0  0  0  0
 47 49  1  0  0  0  0
 48 50  1  0  0  0  0
 48 51  1  0  0  0  0
 48 52  1  0  0  0  0
M  END
$$$$

  -OEChem-05262217163D

 52 52  0     1  0  0  0  0  0999 V2000
   -3.2340    0.1370    4.2701 C   0  0  0  0  0  0  0  0  0  0  0  0
   -4.2656   -0.0122    3.6345 O   0  0  0  0  0  0  0  0  0  0  0  0
   -3.1602   -0.2998    5.7209 C   0  0  0  0  0  0  0  0  0  0  0  0
   -4.1321   -0.6773    6.0512 H   0  0  0  0  0  0  0  0  0  0  0  0
   -2.4171   -1.0929    5.8345 H   0  0  0  0  0  0  0  0  0  0  0  0
   -2.8786    0.5468    6.3519 H   0  0  0  0  0  0  0  0  0  0  0  0
   -2.1296    0.6964    3.6634 N   0  0  0  0  0  0  0  0  0  0  0  0
   -2.0530    1.0403    2.2376 C   0  0  2  0  0  0  0  0  0  0  0  0
   -0.6119    0.9313    1.6969 C   0  0  0  0  0  0  0  0  0  0  0  0
    0.3222    0.8153    2.4780 O   0  0  0  0  0  0  0  0  0  0  0  0
   -2.5866    2.4656    2.0575 C   0  0  0  0  0  0  0  0  0  0  0  0
   -1.2563    0.7043    4.1905 H   0  0  0  0  0  0  0  0  0  0  0  0
   -2.6715    0.3461    1.6581 H   0  0  0  0  0  0  0  0  0  0  0  0
   -1.9833    3.1750    2.6334 H   0  0  0  0  0  0  0  0  0  0  0  0
   -2.5609    2.7586    1.0036 H   0  0  0  0  0  0  0  0  0  0  0  0
   -3.6228    2.5281    2.4057 H   0  0  0  0  0  0  0  0  0  0  0  0
   -0.3834    0.9692    0.3309 N   0  0  0  0  0  0  0  0  0  0  0  0
    0.9117    0.8546   -0.3770 C   0  0  2  0  0  0  0  0  0  0  0  0
    2.1772    1.3680    0.3474 C   0  0  0  0  0  0  0  0  0  0  0  0
    3.2309    0.7536    0.2352 O   0  0  0  0  0  0  0  0  0  0  0  0
    0.7908    1.6216   -1.7048 C   0  0  0  0  0  0  0  0  0  0  0  0
   -0.1898    0.9447   -2.6313 C   0  0  0  0  0  0  0  0  0  0  0  0
    0.2072   -0.1632   -3.3943 C   0  0  0  0  0  0  0  0  0  0  0  0
   -1.5059    1.4195   -2.7477 C   0  0  0  0  0  0  0  0  0  0  0  0
   -0.7004   -0.7959   -4.2502 C   0  0  0  0  0  0  0  0  0  0  0  0
   -2.4144    0.7857   -3.6021 C   0  0  0  0  0  0  0  0  0  0  0  0
   -2.0123   -0.3234   -4.3524 C   0  0  0  0  0  0  0  0  0  0  0  0
   -1.2162    0.9503   -0.2540 H   0  0  0  0  0  0  0  0  0  0  0  0
    1.0933   -0.2053   -0.5849 H   0  0  0  0  0  0  0  0  0  0  0  0
    1.7694    1.6590   -2.1971 H   0  0  0  0  0  0  0  0  0  0  0  0
    0.4862    2.6561   -1.5145 H   0  0  0  0  0  0  0  0  0  0  0  0
    1.2244   -0.5389   -3.3231 H   0  0  0  0  0  0  0  0  0  0  0  0
   -1.8283    2.2889   -2.1823 H   0  0  0  0  0  0  0  0  0  0  0  0
   -0.3845   -1.6534   -4.8376 H   0  0  0  0  0  0  0  0  0  0  0  0
   -3.4316    1.1571   -3.6889 H   0  0  0  0  0  0  0  0  0  0  0  0
   -2.7160   -0.8144   -5.0187 H   0  0  0  0  0  0  0  0  0  0  0  0
    2.1747    2.5844    1.0066 N   0  0  0  0  0  0  0  0  0  0  0  0
    3.3342    3.1074    1.7442 C   0  0  2  0  0  0  0  0  0  0  0  0
    3.5209    2.4078    3.1125 C   0  0  0  0  0  0  0  0  0  0  0  0
    3.4400    3.0258    4.1685 O   0  0  0  0  0  0  0  0  0  0  0  0
    3.1458    4.6244    1.8678 C   0  0  0  0  0  0  0  0  0  0  0  0
    1.2564    2.9009    1.3042 H   0  0  0  0  0  0  0  0  0  0  0  0
    4.2481    2.9314    1.1670 H   0  0  0  0  0  0  0  0  0  0  0  0
    2.2427    4.8550    2.4417 H   0  0  0  0  0  0  0  0  0  0  0  0
    4.0039    5.0729    2.3781 H   0  0  0  0  0  0  0  0  0  0  0  0
    3.0573    5.0791    0.8766 H   0  0  0  0  0  0  0  0  0  0  0  0
    3.7837    1.0529    3.1390 N   0  0  0  0  0  0  0  0  0  0  0  0
    3.7986    0.2615    4.3602 C   0  0  0  0  0  0  0  0  0  0  0  0
    3.7231    0.5739    2.2378 H   0  0  0  0  0  0  0  0  0  0  0  0
    4.5542    0.6429    5.0550 H   0  0  0  0  0  0  0  0  0  0  0  0
    2.8188    0.2954    4.8483 H   0  0  0  0  0  0  0  0  0  0  0  0
    4.0364   -0.7814    4.1297 H   0  0  0  0  0  0  0  0  0  0  0  0
  1  2  2  0  0  0  0
  1  3  1  0  0  0  0
  1  7  1  0  0  0  0
  3  4  1  0  0  0  0
  3  5  1  0  0  0  0
  3  6  1  0  0  0  0
  7  8  1  0  0  0  0
  7 12  1  0  0  0  0
  8  9  1  0  0  0  0
  8 11  1  0  0  0  0
  8 13  1  0  0  0  0
  9 10  2  0  0  0  0
  9 17  1  0  0  0  0
 11 14  1  0  0  0  0
 11 15  1  0  0  0  0
 11 16  1  0  0  0  0
 17 18  1  0  0  0  0
 17 28  1  0  0  0  0
 18 19  1  0  0  0  0
 18 21  1  0  0  0  0
 18 29  1  0  0  0  0
 19 20  2  0  0  0  0
 19 37  1  0  0  0  0
 21 22  1  0  0  0  0
 21 30  1  0  0  0  0
 21 31  1  0  0  0  0
 22 23  1  0  0  0  0
 22 24  2  0  0  0  0
 23 25  2  0  0  0  0
 23 32  1  0  0  0  0
 24 26  1  0  0  0  0
 24 33  1  0  0  0  0
 25 27  1  0  0  0  0
 25 34  1  0  0  0  0
 26 27  2  0  0  0  0
 26 35  1  0  0  0  0
 27 36  1  0  0  0  0
 37 38  1  0  0  0  0
 37 42  1  0  0  0  0
 38 39  1  0  0  0  0
 38 41  1  0  0  0  0
 38 43  1  0  0  0  0
 39 40  2  0  0  0  0
 39 47  1  0  0  0  0
 41 44  1  0  0  0  0
 41 45  1  0  0  0  0
 41 46  1  0  0  0  0
 47 48  1  0  0  0  0
 47 49  1  0  0  0  0
 48 50  1  0  0  0  0
 48 51  1  0  0  0  0
 48 52  1  0  0  0  0
M  END
$$$$

  -OEChem-05262217163D

 52 52  0     1  0  0  0  0  0999 V2000
   -3.6056    0.1069    4.1022 C   0  0  0  0  0  0  0  0  0  0  0  0
   -4.5724   -0.0615    3.3760 O   0  0  0  0  0  0  0  0  0  0  0  0
   -3.6281   -0.3987    5.5325 C   0  0  0  0  0  0  0  0  0  0  0  0
   -4.5804   -0.8943    5.7420 H   0  0  0  0  0  0  0  0  0  0  0  0
   -2.8172   -1.1145    5.6899 H   0  0  0  0  0  0  0  0  0  0  0  0
   -3.5060    0.4372    6.2254 H   0  0  0  0  0  0  0  0  0  0  0  0
   -2.4849    0.7462    3.6156 N   0  0  0  0  0  0  0  0  0  0  0  0
   -2.3002    1.1349    2.2112 C   0  0  2  0  0  0  0  0  0  0  0  0
   -0.8222    1.0417    1.7790 C   0  0  0  0  0  0  0  0  0  0  0  0
    0.0548    0.9793    2.6291 O   0  0  0  0  0  0  0  0  0  0  0  0
   -2.8233    2.5635    2.0339 C   0  0  0  0  0  0  0  0  0  0  0  0
   -1.6592    0.7614    4.2136 H   0  0  0  0  0  0  0  0  0  0  0  0
   -2.8712    0.4595    1.5643 H   0  0  0  0  0  0  0  0  0  0  0  0
   -2.2634    3.2583    2.6683 H   0  0  0  0  0  0  0  0  0  0  0  0
   -2.7257    2.8841    0.9923 H   0  0  0  0  0  0  0  0  0  0  0  0
   -3.8812    2.6146    2.3111 H   0  0  0  0  0  0  0  0  0  0  0  0
   -0.5004    1.0293    0.4328 N   0  0  0  0  0  0  0  0  0  0  0  0
    0.8244    0.8548   -0.2081 C   0  0  2  0  0  0  0  0  0  0  0  0
    2.1067    1.3324    0.5188 C   0  0  0  0  0  0  0  0  0  0  0  0
    3.1838    0.8512    0.1856 O   0  0  0  0  0  0  0  0  0  0  0  0
    0.7637    1.5901   -1.5597 C   0  0  0  0  0  0  0  0  0  0  0  0
   -0.2011    0.9087   -2.5003 C   0  0  0  0  0  0  0  0  0  0  0  0
    0.1978   -0.2270   -3.2200 C   0  0  0  0  0  0  0  0  0  0  0  0
   -1.5030    1.4049   -2.6722 C   0  0  0  0  0  0  0  0  0  0  0  0
   -0.6952   -0.8678   -4.0852 C   0  0  0  0  0  0  0  0  0  0  0  0
   -2.3971    0.7639   -3.5366 C   0  0  0  0  0  0  0  0  0  0  0  0
   -1.9939   -0.3742   -4.2417 C   0  0  0  0  0  0  0  0  0  0  0  0
   -1.2979    0.9982   -0.1992 H   0  0  0  0  0  0  0  0  0  0  0  0
    0.9719   -0.2161   -0.3840 H   0  0  0  0  0  0  0  0  0  0  0  0
    1.7560    1.5956   -2.0248 H   0  0  0  0  0  0  0  0  0  0  0  0
    0.4775    2.6358   -1.4041 H   0  0  0  0  0  0  0  0  0  0  0  0
    1.2051   -0.6182   -3.1064 H   0  0  0  0  0  0  0  0  0  0  0  0
   -1.8247    2.2965   -2.1421 H   0  0  0  0  0  0  0  0  0  0  0  0
   -0.3780   -1.7480   -4.6371 H   0  0  0  0  0  0  0  0  0  0  0  0
   -3.4031    1.1527   -3.6666 H   0  0  0  0  0  0  0  0  0  0  0  0
   -2.6864   -0.8711   -4.9152 H   0  0  0  0  0  0  0  0  0  0  0  0
    2.1063    2.4021    1.3944 N   0  0  0  0  0  0  0  0  0  0  0  0
    3.3208    2.9417    2.0266 C   0  0  2  0  0  0  0  0  0  0  0  0
    3.8392    2.0579    3.1885 C   0  0  0  0  0  0  0  0  0  0  0  0
    3.9905    2.5023    4.3208 O   0  0  0  0  0  0  0  0  0  0  0  0
    2.9995    4.3751    2.4669 C   0  0  0  0  0  0  0  0  0  0  0  0
    1.2336    2.4974    1.9138 H   0  0  0  0  0  0  0  0  0  0  0  0
    4.1243    2.9949    1.2843 H   0  0  0  0  0  0  0  0  0  0  0  0
    2.2106    4.3764    3.2257 H   0  0  0  0  0  0  0  0  0  0  0  0
    3.8898    4.8496    2.8918 H   0  0  0  0  0  0  0  0  0  0  0  0
    2.6656    4.9710    1.6120 H   0  0  0  0  0  0  0  0  0  0  0  0
    4.1739    0.7426    2.9349 N   0  0  0  0  0  0  0  0  0  0  0  0
    4.6638   -0.1861    3.9434 C   0  0  0  0  0  0  0  0  0  0  0  0
    4.0278    0.4177    1.9760 H   0  0  0  0  0  0  0  0  0  0  0  0
    3.9603   -0.2497    4.7801 H   0  0  0  0  0  0  0  0  0  0  0  0
    4.7790   -1.1853    3.5121 H   0  0  0  0  0  0  0  0  0  0  0  0
    5.6365    0.1427    4.3235 H   0  0  0  0  0  0  0  0  0  0  0  0
  1  2  2  0  0  0  0
  1  3  1  0  0  0  0
  1  7  1  0  0  0  0
  3  4  1  0  0  0  0
  3  5  1  0  0  0  0
  3  6  1  0  0  0  0
  7  8  1  0  0  0  0
  7 12  1  0  0  0  0
  8  9  1  0  0  0  0
  8 11  1  0  0  0  0
  8 13  1  0  0  0  0
  9 10  2  0  0  0  0
  9 17  1  0  0  0  0
 11 14  1  0  0  0  0
 11 15  1  0  0  0  0
 11 16  1  0  0  0  0
 17 18  1  0  0  0  0
 17 28  1  0  0  0  0
 18 19  1  0  0  0  0
 18 21  1  0  0  0  0
 18 29  1  0  0  0  0
 19 20  2  0  0  0  0
 19 37  1  0  0  0  0
 21 22  1  0  0  0  0
 21 30  1  0  0  0  0
 21 31  1  0  0  0  0
 22 23  1  0  0  0  0
 22 24  2  0  0  0  0
 23 25  2  0  0  0  0
 23 32  1  0  0  0  0
 24 26  1  0  0  0  0
 24 33  1  0  0  0  0
 25 27  1  0  0  0  0
 25 34  1  0  0  0  0
 26 27  2  0  0  0  0
 26 35  1  0  0  0  0
 27 36  1  0  0  0  0
 37 38  1  0  0  0  0
 37 42  1  0  0  0  0
 38 39  1  0  0  0  0
 38 41  1  0  0  0  0
 38 43  1  0  0  0  0
 39 40  2  0  0  0  0
 39 47  1  0  0  0  0
 41 44  1  0  0  0  0
 41 45  1  0  0  0  0
 41 46  1  0  0  0  0
 47 48  1  0  0  0  0
 47 49  1  0  0  0  0
 48 50  1  0  0  0  0
 48 51  1  0  0  0  0
 48 52  1  0  0  0  0
M  END
$$$$

  -OEChem-05262217163D

 52 52  0     1  0  0  0  0  0999 V2000
   -3.7769    0.1089    4.0393 C   0  0  0  0  0  0  0  0  0  0  0  0
   -4.7347    0.0037    3.2897 O   0  0  0  0  0  0  0  0  0  0  0  0
   -3.8573   -0.4151    5.4607 C   0  0  0  0  0  0  0  0  0  0  0  0
   -4.8622   -0.7945    5.6665 H   0  0  0  0  0  0  0  0  0  0  0  0
   -3.1387   -1.2265    5.5999 H   0  0  0  0  0  0  0  0  0  0  0  0
   -3.6324    0.3865    6.1686 H   0  0  0  0  0  0  0  0  0  0  0  0
   -2.6121    0.6909    3.5864 N   0  0  0  0  0  0  0  0  0  0  0  0
   -2.3723    1.0820    2.1909 C   0  0  2  0  0  0  0  0  0  0  0  0
   -0.8829    0.9525    1.8081 C   0  0  0  0  0  0  0  0  0  0  0  0
   -0.0446    0.8002    2.6857 O   0  0  0  0  0  0  0  0  0  0  0  0
   -2.8523    2.5250    2.0016 C   0  0  0  0  0  0  0  0  0  0  0  0
   -1.7991    0.6452    4.2002 H   0  0  0  0  0  0  0  0  0  0  0  0
   -2.9387    0.4236    1.5228 H   0  0  0  0  0  0  0  0  0  0  0  0
   -2.2937    3.2039    2.6541 H   0  0  0  0  0  0  0  0  0  0  0  0
   -2.7138    2.8450    0.9644 H   0  0  0  0  0  0  0  0  0  0  0  0
   -3.9167    2.6057    2.2459 H   0  0  0  0  0  0  0  0  0  0  0  0
   -0.5143    0.9742    0.4742 N   0  0  0  0  0  0  0  0  0  0  0  0
    0.8285    0.8687   -0.1468 C   0  0  2  0  0  0  0  0  0  0  0  0
    2.0975    1.3838    0.5871 C   0  0  0  0  0  0  0  0  0  0  0  0
    3.1955    1.0995    0.1210 O   0  0  0  0  0  0  0  0  0  0  0  0
    0.7291    1.6267   -1.4869 C   0  0  0  0  0  0  0  0  0  0  0  0
   -0.1972    0.9152   -2.4448 C   0  0  0  0  0  0  0  0  0  0  0  0
    0.2620   -0.1827   -3.1870 C   0  0  0  0  0  0  0  0  0  0  0  0
   -1.5216    1.3492   -2.6155 C   0  0  0  0  0  0  0  0  0  0  0  0
   -0.5932   -0.8488   -4.0713 C   0  0  0  0  0  0  0  0  0  0  0  0
   -2.3777    0.6829   -3.4990 C   0  0  0  0  0  0  0  0  0  0  0  0
   -1.9144   -0.4181   -4.2253 C   0  0  0  0  0  0  0  0  0  0  0  0
   -1.2924    0.9939   -0.1815 H   0  0  0  0  0  0  0  0  0  0  0  0
    1.0225   -0.1913   -0.3420 H   0  0  0  0  0  0  0  0  0  0  0  0
    1.7174    1.6961   -1.9549 H   0  0  0  0  0  0  0  0  0  0  0  0
    0.3875    2.6525   -1.3107 H   0  0  0  0  0  0  0  0  0  0  0  0
    1.2874   -0.5249   -3.0760 H   0  0  0  0  0  0  0  0  0  0  0  0
   -1.8907    2.2128   -2.0705 H   0  0  0  0  0  0  0  0  0  0  0  0
   -0.2296   -1.6995   -4.6407 H   0  0  0  0  0  0  0  0  0  0  0  0
   -3.4015    1.0231   -3.6269 H   0  0  0  0  0  0  0  0  0  0  0  0
   -2.5777   -0.9345   -4.9135 H   0  0  0  0  0  0  0  0  0  0  0  0
    2.0624    2.2219    1.6852 N   0  0  0  0  0  0  0  0  0  0  0  0
    3.2579    2.7394    2.3693 C   0  0  2  0  0  0  0  0  0  0  0  0
    3.9271    1.6856    3.2850 C   0  0  0  0  0  0  0  0  0  0  0  0
    4.0644    1.8675    4.4893 O   0  0  0  0  0  0  0  0  0  0  0  0
    2.8314    4.0024    3.1275 C   0  0  0  0  0  0  0  0  0  0  0  0
    1.2109    2.1338    2.2424 H   0  0  0  0  0  0  0  0  0  0  0  0
    4.0050    3.0351    1.6253 H   0  0  0  0  0  0  0  0  0  0  0  0
    2.0862    3.7593    3.8921 H   0  0  0  0  0  0  0  0  0  0  0  0
    3.6958    4.4598    3.6193 H   0  0  0  0  0  0  0  0  0  0  0  0
    2.4009    4.7339    2.4371 H   0  0  0  0  0  0  0  0  0  0  0  0
    4.4121    0.5217    2.7227 N   0  0  0  0  0  0  0  0  0  0  0  0
    5.0392   -0.5511    3.4814 C   0  0  0  0  0  0  0  0  0  0  0  0
    4.2476    0.4040    1.7203 H   0  0  0  0  0  0  0  0  0  0  0  0
    5.9184   -0.1776    4.0167 H   0  0  0  0  0  0  0  0  0  0  0  0
    4.3342   -0.9682    4.2077 H   0  0  0  0  0  0  0  0  0  0  0  0
    5.3590   -1.3524    2.8086 H   0  0  0  0  0  0  0  0  0  0  0  0
  1  2  2  0  0  0  0
  1  3  1  0  0  0  0
  1  7  1  0  0  0  0
  3  4  1  0  0  0  0
  3  5  1  0  0  0  0
  3  6  1  0  0  0  0
  7  8  1  0  0  0  0
  7 12  1  0  0  0  0
  8  9  1  0  0  0  0
  8 11  1  0  0  0  0
  8 13  1  0  0  0  0
  9 10  2  0  0  0  0
  9 17  1  0  0  0  0
 11 14  1  0  0  0  0
 11 15  1  0  0  0  0
 11 16  1  0  0  0  0
 17 18  1  0  0  0  0
 17 28  1  0  0  0  0
 18 19  1  0  0  0  0
 18 21  1  0  0  0  0
 18 29  1  0  0  0  0
 19 20  2  0  0  0  0
 19 37  1  0  0  0  0
 21 22  1  0  0  0  0
 21 30  1  0  0  0  0
 21 31  1  0  0  0  0
 22 23  1  0  0  0  0
 22 24  2  0  0  0  0
 23 25  2  0  0  0  0
 23 32  1  0  0  0  0
 24 26  1  0  0  0  0
 24 33  1  0  0  0  0
 25 27  1  0  0  0  0
 25 34  1  0  0  0  0
 26 27  2  0  0  0  0
 26 35  1  0  0  0  0
 27 36  1  0  0  0  0
 37 38  1  0  0  0  0
 37 42  1  0  0  0  0
 38 39  1  0  0  0  0
 38 41  1  0  0  0  0
 38 43  1  0  0  0  0
 39 40  2  0  0  0  0
 39 47  1  0  0  0  0
 41 44  1  0  0  0  0
 41 45  1  0  0  0  0
 41 46  1  0  0  0  0
 47 48  1  0  0  0  0
 47 49  1  0  0  0  0
 48 50  1  0  0  0  0
 48 51  1  0  0  0  0
 48 52  1  0  0  0  0
M  END
$$$$

  -OEChem-05262217163D

 52 52  0     1  0  0  0  0  0999 V2000
   -3.9772    0.1800    3.9531 C   0  0  0  0  0  0  0  0  0  0  0  0
   -4.9167    0.1898    3.1735 O   0  0  0  0  0  0  0  0  0  0  0  0
   -4.1531   -0.3720    5.3555 C   0  0  0  0  0  0  0  0  0  0  0  0
   -5.1935   -0.6680    5.5163 H   0  0  0  0  0  0  0  0  0  0  0  0
   -3.5126   -1.2464    5.4959 H   0  0  0  0  0  0  0  0  0  0  0  0
   -3.8860    0.3891    6.0928 H   0  0  0  0  0  0  0  0  0  0  0  0
   -2.7488    0.6622    3.5529 N   0  0  0  0  0  0  0  0  0  0  0  0
   -2.4335    1.0871    2.1823 C   0  0  2  0  0  0  0  0  0  0  0  0
   -0.9419    0.8809    1.8437 C   0  0  0  0  0  0  0  0  0  0  0  0
   -0.1521    0.6160    2.7395 O   0  0  0  0  0  0  0  0  0  0  0  0
   -2.8167    2.5631    2.0313 C   0  0  0  0  0  0  0  0  0  0  0  0
   -1.9630    0.5247    4.1880 H   0  0  0  0  0  0  0  0  0  0  0  0
   -3.0146    0.4888    1.4718 H   0  0  0  0  0  0  0  0  0  0  0  0
   -2.2473    3.1804    2.7337 H   0  0  0  0  0  0  0  0  0  0  0  0
   -2.6141    2.9135    1.0148 H   0  0  0  0  0  0  0  0  0  0  0  0
   -3.8838    2.6999    2.2350 H   0  0  0  0  0  0  0  0  0  0  0  0
   -0.5305    0.9306    0.5231 N   0  0  0  0  0  0  0  0  0  0  0  0
    0.8249    0.8534   -0.0765 C   0  0  2  0  0  0  0  0  0  0  0  0
    2.0887    1.3672    0.6756 C   0  0  0  0  0  0  0  0  0  0  0  0
    3.1763    1.2735    0.1165 O   0  0  0  0  0  0  0  0  0  0  0  0
    0.7162    1.6258   -1.4114 C   0  0  0  0  0  0  0  0  0  0  0  0
   -0.1867    0.9076   -2.3868 C   0  0  0  0  0  0  0  0  0  0  0  0
    0.3031   -0.1696   -3.1398 C   0  0  0  0  0  0  0  0  0  0  0  0
   -1.5179    1.3173   -2.5655 C   0  0  0  0  0  0  0  0  0  0  0  0
   -0.5297   -0.8412   -4.0412 C   0  0  0  0  0  0  0  0  0  0  0  0
   -2.3511    0.6454   -3.4658 C   0  0  0  0  0  0  0  0  0  0  0  0
   -1.8580   -0.4359   -4.2018 C   0  0  0  0  0  0  0  0  0  0  0  0
   -1.2888    1.0229   -0.1487 H   0  0  0  0  0  0  0  0  0  0  0  0
    1.0335   -0.2012   -0.2838 H   0  0  0  0  0  0  0  0  0  0  0  0
    1.7025    1.7244   -1.8777 H   0  0  0  0  0  0  0  0  0  0  0  0
    0.3516    2.6415   -1.2248 H   0  0  0  0  0  0  0  0  0  0  0  0
    1.3352   -0.4901   -3.0249 H   0  0  0  0  0  0  0  0  0  0  0  0
   -1.9104    2.1667   -2.0148 H   0  0  0  0  0  0  0  0  0  0  0  0
   -0.1432   -1.6763   -4.6186 H   0  0  0  0  0  0  0  0  0  0  0  0
   -3.3802    0.9661   -3.5993 H   0  0  0  0  0  0  0  0  0  0  0  0
   -2.5035   -0.9563   -4.9037 H   0  0  0  0  0  0  0  0  0  0  0  0
    2.0839    1.9318    1.9363 N   0  0  0  0  0  0  0  0  0  0  0  0
    3.2805    2.4105    2.6473 C   0  0  2  0  0  0  0  0  0  0  0  0
    4.1103    1.2615    3.2716 C   0  0  0  0  0  0  0  0  0  0  0  0
    4.3754    1.2295    4.4679 O   0  0  0  0  0  0  0  0  0  0  0  0
    2.8067    3.4350    3.6858 C   0  0  0  0  0  0  0  0  0  0  0  0
    1.2570    1.7203    2.4978 H   0  0  0  0  0  0  0  0  0  0  0  0
    3.9378    2.9312    1.9431 H   0  0  0  0  0  0  0  0  0  0  0  0
    2.1620    2.9575    4.4307 H   0  0  0  0  0  0  0  0  0  0  0  0
    3.6651    3.8765    4.2022 H   0  0  0  0  0  0  0  0  0  0  0  0
    2.2459    4.2393    3.2003 H   0  0  0  0  0  0  0  0  0  0  0  0
    4.6004    0.2650    2.4509 N   0  0  0  0  0  0  0  0  0  0  0  0
    5.4264   -0.8420    2.9115 C   0  0  0  0  0  0  0  0  0  0  0  0
    4.3693    0.3463    1.4578 H   0  0  0  0  0  0  0  0  0  0  0  0
    6.3732   -0.4697    3.3163 H   0  0  0  0  0  0  0  0  0  0  0  0
    4.9076   -1.4088    3.6915 H   0  0  0  0  0  0  0  0  0  0  0  0
    5.6468   -1.5191    2.0809 H   0  0  0  0  0  0  0  0  0  0  0  0
  1  2  2  0  0  0  0
  1  3  1  0  0  0  0
  1  7  1  0  0  0  0
  3  4  1  0  0  0  0
  3  5  1  0  0  0  0
  3  6  1  0  0  0  0
  7  8  1  0  0  0  0
  7 12  1  0  0  0  0
  8  9  1  0  0  0  0
  8 11  1  0  0  0  0
  8 13  1  0  0  0  0
  9 10  2  0  0  0  0
  9 17  1  0  0  0  0
 11 14  1  0  0  0  0
 11 15  1  0  0  0  0
 11 16  1  0  0  0  0
 17 18  1  0  0  0  0
 17 28  1  0  0  0  0
 18 19  1  0  0  0  0
 18 21  1  0  0  0  0
 18 29  1  0  0  0  0
 19 20  2  0  0  0  0
 19 37  1  0  0  0  0
 21 22  1  0  0  0  0
 21 30  1  0  0  0  0
 21 31  1  0  0  0  0
 22 23  1  0  0  0  0
 22 24  2  0  0  0  0
 23 25  2  0  0  0  0
 23 32  1  0  0  0  0
 24 26  1  0  0  0  0
 24 33  1  0  0  0  0
 25 27  1  0  0  0  0
 25 34  1  0  0  0  0
 26 27  2  0  0  0  0
 26 35  1  0  0  0  0
 27 36  1  0  0  0  0
 37 38  1  0  0  0  0
 37 42  1  0  0  0  0
 38 39  1  0  0  0  0
 38 41  1  0  0  0  0
 38 43  1  0  0  0  0
 39 40  2  0  0  0  0
 39 47  1  0  0  0  0
 41 44  1  0  0  0  0
 41 45  1  0  0  0  0
 41 46  1  0  0  0  0
 47 48  1  0  0  0  0
 47 49  1  0  0  0  0
 48 50  1  0  0  0  0
 48 51  1  0  0  0  0
 48 52  1  0  0  0  0
M  END
$$$$

  -OEChem-05262217163D

 52 52  0     1  0  0  0  0  0999 V2000
   -2.7636    2.5490    2.5298 C   0  0  0  0  0  0  0  0  0  0  0  0
   -2.5092    2.6336    1.3391 O   0  0  0  0  0  0  0  0  0  0  0  0
   -3.0284    3.8061    3.3367 C   0  0  0  0  0  0  0  0  0  0  0  0
   -2.2557    3.9303    4.0996 H   0  0  0  0  0  0  0  0  0  0  0  0
   -3.0209    4.6830    2.6828 H   0  0  0  0  0  0  0  0  0  0  0  0
   -4.0047    3.7407    3.8235 H   0  0  0  0  0  0  0  0  0  0  0  0
   -2.7817    1.3186    3.1582 N   0  0  0  0  0  0  0  0  0  0  0  0
   -2.5387    0.0073    2.5256 C   0  0  2  0  0  0  0  0  0  0  0  0
   -1.1016   -0.1692    1.9824 C   0  0  0  0  0  0  0  0  0  0  0  0
   -0.3651   -0.9715    2.5370 O   0  0  0  0  0  0  0  0  0  0  0  0
   -3.5929   -0.2956    1.4491 C   0  0  0  0  0  0  0  0  0  0  0  0
   -2.9609    1.3320    4.1586 H   0  0  0  0  0  0  0  0  0  0  0  0
   -2.6614   -0.7517    3.3058 H   0  0  0  0  0  0  0  0  0  0  0  0
   -3.5022    0.3803    0.5939 H   0  0  0  0  0  0  0  0  0  0  0  0
   -3.4722   -1.3212    1.0860 H   0  0  0  0  0  0  0  0  0  0  0  0
   -4.5995   -0.1933    1.8653 H   0  0  0  0  0  0  0  0  0  0  0  0
   -0.6831    0.4929    0.8428 N   0  0  0  0  0  0  0  0  0  0  0  0
    0.6900    0.7487    0.3408 C   0  0  2  0  0  0  0  0  0  0  0  0
    1.8931    0.9164    1.3204 C   0  0  0  0  0  0  0  0  0  0  0  0
    2.9516    1.3689    0.8958 O   0  0  0  0  0  0  0  0  0  0  0  0
    0.5835    1.9735   -0.5999 C   0  0  0  0  0  0  0  0  0  0  0  0
   -0.2166    1.6414   -1.8393 C   0  0  0  0  0  0  0  0  0  0  0  0
    0.3958    0.9677   -2.9067 C   0  0  0  0  0  0  0  0  0  0  0  0
   -1.5631    2.0182   -1.9568 C   0  0  0  0  0  0  0  0  0  0  0  0
   -0.3298    0.6541   -4.0610 C   0  0  0  0  0  0  0  0  0  0  0  0
   -2.2908    1.7051   -3.1098 C   0  0  0  0  0  0  0  0  0  0  0  0
   -1.6754    1.0200   -4.1618 C   0  0  0  0  0  0  0  0  0  0  0  0
   -1.3813    1.1665    0.5165 H   0  0  0  0  0  0  0  0  0  0  0  0
    0.9658   -0.1212   -0.2629 H   0  0  0  0  0  0  0  0  0  0  0  0
    1.5759    2.3032   -0.9230 H   0  0  0  0  0  0  0  0  0  0  0  0
    0.1289    2.8129   -0.0629 H   0  0  0  0  0  0  0  0  0  0  0  0
    1.4416    0.6820   -2.8392 H   0  0  0  0  0  0  0  0  0  0  0  0
   -2.0517    2.5645   -1.1565 H   0  0  0  0  0  0  0  0  0  0  0  0
    0.1536    0.1277   -4.8787 H   0  0  0  0  0  0  0  0  0  0  0  0
   -3.3332    1.9998   -3.1879 H   0  0  0  0  0  0  0  0  0  0  0  0
   -2.2396    0.7780   -5.0578 H   0  0  0  0  0  0  0  0  0  0  0  0
    1.8790    0.5636    2.6561 N   0  0  0  0  0  0  0  0  0  0  0  0
    3.0106    0.7074    3.5857 C   0  0  2  0  0  0  0  0  0  0  0  0
    4.0803   -0.3994    3.4132 C   0  0  0  0  0  0  0  0  0  0  0  0
    4.4394   -1.1043    4.3493 O   0  0  0  0  0  0  0  0  0  0  0  0
    2.4183    0.7503    4.9993 C   0  0  0  0  0  0  0  0  0  0  0  0
    1.1074   -0.0446    2.9371 H   0  0  0  0  0  0  0  0  0  0  0  0
    3.5109    1.6643    3.4040 H   0  0  0  0  0  0  0  0  0  0  0  0
    1.9154   -0.1936    5.2331 H   0  0  0  0  0  0  0  0  0  0  0  0
    3.2087    0.9146    5.7384 H   0  0  0  0  0  0  0  0  0  0  0  0
    1.6927    1.5648    5.0830 H   0  0  0  0  0  0  0  0  0  0  0  0
    4.6768   -0.5717    2.1800 N   0  0  0  0  0  0  0  0  0  0  0  0
    5.6990   -1.5686    1.8951 C   0  0  0  0  0  0  0  0  0  0  0  0
    4.3542    0.0514    1.4352 H   0  0  0  0  0  0  0  0  0  0  0  0
    6.5859   -1.3962    2.5137 H   0  0  0  0  0  0  0  0  0  0  0  0
    5.3180   -2.5751    2.0965 H   0  0  0  0  0  0  0  0  0  0  0  0
    5.9944   -1.5144    0.8430 H   0  0  0  0  0  0  0  0  0  0  0  0
  1  2  2  0  0  0  0
  1  3  1  0  0  0  0
  1  7  1  0  0  0  0
  3  4  1  0  0  0  0
  3  5  1  0  0  0  0
  3  6  1  0  0  0  0
  7  8  1  0  0  0  0
  7 12  1  0  0  0  0
  8  9  1  0  0  0  0
  8 11  1  0  0  0  0
  8 13  1  0  0  0  0
  9 10  2  0  0  0  0
  9 17  1  0  0  0  0
 11 14  1  0  0  0  0
 11 15  1  0  0  0  0
 11 16  1  0  0  0  0
 17 18  1  0  0  0  0
 17 28  1  0  0  0  0
 18 19  1  0  0  0  0
 18 21  1  0  0  0  0
 18 29  1  0  0  0  0
 19 20  2  0  0  0  0
 19 37  1  0  0  0  0
 21 22  1  0  0  0  0
 21 30  1  0  0  0  0
 21 31  1  0  0  0  0
 22 23  1  0  0  0  0
 22 24  2  0  0  0  0
 23 25  2  0  0  0  0
 23 32  1  0  0  0  0
 24 26  1  0  0  0  0
 24 33  1  0  0  0  0
 25 27  1  0  0  0  0
 25 34  1  0  0  0  0
 26 27  2  0  0  0  0
 26 35  1  0  0  0  0
 27 36  1  0  0  0  0
 37 38  1  0  0  0  0
 37 42  1  0  0  0  0
 38 39  1  0  0  0  0
 38 41  1  0  0  0  0
 38 43  1  0  0  0  0
 39 40  2  0  0  0  0
 39 47  1  0  0  0  0
 41 44  1  0  0  0  0
 41 45  1  0  0  0  0
 41 46  1  0  0  0  0
 47 48  1  0  0  0  0
 47 49  1  0  0  0  0
 48 50  1  0  0  0  0
 48 51  1  0  0  0  0
 48 52  1  0  0  0  0
M  END
$$$$

  -OEChem-05262217163D

 52 52  0     1  0  0  0  0  0999 V2000
   -4.2455    0.1308    3.6437 C   0  0  0  0  0  0  0  0  0  0  0  0
   -5.0990    0.3984    2.8127 O   0  0  0  0  0  0  0  0  0  0  0  0
   -4.6152   -0.6404    4.8965 C   0  0  0  0  0  0  0  0  0  0  0  0
   -5.6868   -0.8586    4.9031 H   0  0  0  0  0  0  0  0  0  0  0  0
   -4.0638   -1.5832    4.9305 H   0  0  0  0  0  0  0  0  0  0  0  0
   -4.3712   -0.0507    5.7834 H   0  0  0  0  0  0  0  0  0  0  0  0
   -2.9389    0.5201    3.4356 N   0  0  0  0  0  0  0  0  0  0  0  0
   -2.4510    1.1438    2.1984 C   0  0  2  0  0  0  0  0  0  0  0  0
   -0.9859    0.7663    1.8935 C   0  0  0  0  0  0  0  0  0  0  0  0
   -0.2931    0.2806    2.7774 O   0  0  0  0  0  0  0  0  0  0  0  0
   -2.5920    2.6629    2.3347 C   0  0  0  0  0  0  0  0  0  0  0  0
   -2.2377    0.1763    4.0906 H   0  0  0  0  0  0  0  0  0  0  0  0
   -3.0580    0.8009    1.3531 H   0  0  0  0  0  0  0  0  0  0  0  0
   -1.9875    3.0306    3.1701 H   0  0  0  0  0  0  0  0  0  0  0  0
   -2.2635    3.1640    1.4193 H   0  0  0  0  0  0  0  0  0  0  0  0
   -3.6376    2.9314    2.5176 H   0  0  0  0  0  0  0  0  0  0  0  0
   -0.5184    0.8832    0.5959 N   0  0  0  0  0  0  0  0  0  0  0  0
    0.8509    0.8105    0.0256 C   0  0  2  0  0  0  0  0  0  0  0  0
    2.1009    1.2539    0.8549 C   0  0  0  0  0  0  0  0  0  0  0  0
    3.1040    1.6532    0.2725 O   0  0  0  0  0  0  0  0  0  0  0  0
    0.7624    1.6191   -1.2939 C   0  0  0  0  0  0  0  0  0  0  0  0
   -0.1290    0.9268   -2.2995 C   0  0  0  0  0  0  0  0  0  0  0  0
    0.3685   -0.1326   -3.0727 C   0  0  0  0  0  0  0  0  0  0  0  0
   -1.4572    1.3433   -2.4871 C   0  0  0  0  0  0  0  0  0  0  0  0
   -0.4527   -0.7808   -4.0013 C   0  0  0  0  0  0  0  0  0  0  0  0
   -2.2793    0.6945   -3.4148 C   0  0  0  0  0  0  0  0  0  0  0  0
   -1.7778   -0.3691   -4.1705 C   0  0  0  0  0  0  0  0  0  0  0  0
   -1.2369    1.1415   -0.0761 H   0  0  0  0  0  0  0  0  0  0  0  0
    1.0472   -0.2388   -0.2166 H   0  0  0  0  0  0  0  0  0  0  0  0
    1.7507    1.7218   -1.7539 H   0  0  0  0  0  0  0  0  0  0  0  0
    0.4022    2.6323   -1.0870 H   0  0  0  0  0  0  0  0  0  0  0  0
    1.3980   -0.4583   -2.9526 H   0  0  0  0  0  0  0  0  0  0  0  0
   -1.8573    2.1797   -1.9221 H   0  0  0  0  0  0  0  0  0  0  0  0
   -0.0598   -1.6031   -4.5926 H   0  0  0  0  0  0  0  0  0  0  0  0
   -3.3066    1.0192   -3.5543 H   0  0  0  0  0  0  0  0  0  0  0  0
   -2.4145   -0.8718   -4.8930 H   0  0  0  0  0  0  0  0  0  0  0  0
    2.2032    1.1748    2.2293 N   0  0  0  0  0  0  0  0  0  0  0  0
    3.3563    1.6134    3.0324 C   0  0  2  0  0  0  0  0  0  0  0  0
    4.5147    0.5854    3.0350 C   0  0  0  0  0  0  0  0  0  0  0  0
    4.9582    0.1098    4.0739 O   0  0  0  0  0  0  0  0  0  0  0  0
    2.8291    1.9203    4.4396 C   0  0  0  0  0  0  0  0  0  0  0  0
    1.4145    0.7440    2.7163 H   0  0  0  0  0  0  0  0  0  0  0  0
    3.7562    2.5439    2.6164 H   0  0  0  0  0  0  0  0  0  0  0  0
    2.4297    1.0138    4.9061 H   0  0  0  0  0  0  0  0  0  0  0  0
    3.6348    2.3089    5.0705 H   0  0  0  0  0  0  0  0  0  0  0  0
    2.0336    2.6703    4.3944 H   0  0  0  0  0  0  0  0  0  0  0  0
    5.0834    0.2126    1.8334 N   0  0  0  0  0  0  0  0  0  0  0  0
    6.1711   -0.7468    1.7032 C   0  0  0  0  0  0  0  0  0  0  0  0
    4.6756    0.6339    0.9952 H   0  0  0  0  0  0  0  0  0  0  0  0
    7.0527   -0.4046    2.2553 H   0  0  0  0  0  0  0  0  0  0  0  0
    5.8676   -1.7242    2.0925 H   0  0  0  0  0  0  0  0  0  0  0  0
    6.4462   -0.8636    0.6507 H   0  0  0  0  0  0  0  0  0  0  0  0
  1  2  2  0  0  0  0
  1  3  1  0  0  0  0
  1  7  1  0  0  0  0
  3  4  1  0  0  0  0
  3  5  1  0  0  0  0
  3  6  1  0  0  0  0
  7  8  1  0  0  0  0
  7 12  1  0  0  0  0
  8  9  1  0  0  0  0
  8 11  1  0  0  0  0
  8 13  1  0  0  0  0
  9 10  2  0  0  0  0
  9 17  1  0  0  0  0
 11 14  1  0  0  0  0
 11 15  1  0  0  0  0
 11 16  1  0  0  0  0
 17 18  1  0  0  0  0
 17 28  1  0  0  0  0
 18 19  1  0  0  0  0
 18 21  1  0  0  0  0
 18 29  1  0  0  0  0
 19 20  2  0  0  0  0
 19 37  1  0  0  0  0
 21 22  1  0  0  0  0
 21 30  1  0  0  0  0
 21 31  1  0  0  0  0
 22 23  1  0  0  0  0
 22 24  2  0  0  0  0
 23 25  2  0  0  0  0
 23 32  1  0  0  0  0
 24 26  1  0  0  0  0
 24 33  1  0  0  0  0
 25 27  1  0  0  0  0
 25 34  1  0  0  0  0
 26 27  2  0  0  0  0
 26 35  1  0  0  0  0
 27 36  1  0  0  0  0
 37 38  1  0  0  0  0
 37 42  1  0  0  0  0
 38 39  1  0  0  0  0
 38 41  1  0  0  0  0
 38 43  1  0  0  0  0
 39 40  2  0  0  0  0
 39 47  1  0  0  0  0
 41 44  1  0  0  0  0
 41 45  1  0  0  0  0
 41 46  1  0  0  0  0
 47 48  1  0  0  0  0
 47 49  1  0  0  0  0
 48 50  1  0  0  0  0
 48 51  1  0  0  0  0
 48 52  1  0  0  0  0
M  END
$$$$

  -OEChem-05262217163D

 52 52  0     1  0  0  0  0  0999 V2000
   -4.2794    0.3433    3.5675 C   0  0  0  0  0  0  0  0  0  0  0  0
   -5.0988    0.6352    2.7109 O   0  0  0  0  0  0  0  0  0  0  0  0
   -4.7093   -0.4223    4.8050 C   0  0  0  0  0  0  0  0  0  0  0  0
   -5.7745   -0.6637    4.7481 H   0  0  0  0  0  0  0  0  0  0  0  0
   -4.1422   -1.3531    4.8844 H   0  0  0  0  0  0  0  0  0  0  0  0
   -4.5328    0.1819    5.6982 H   0  0  0  0  0  0  0  0  0  0  0  0
   -2.9566    0.6973    3.4021 N   0  0  0  0  0  0  0  0  0  0  0  0
   -2.4092    1.2932    2.1759 C   0  0  2  0  0  0  0  0  0  0  0  0
   -0.9725    0.8112    1.8853 C   0  0  0  0  0  0  0  0  0  0  0  0
   -0.3192    0.2911    2.7799 O   0  0  0  0  0  0  0  0  0  0  0  0
   -2.4397    2.8170    2.3241 C   0  0  0  0  0  0  0  0  0  0  0  0
   -2.2873    0.3303    4.0773 H   0  0  0  0  0  0  0  0  0  0  0  0
   -3.0274    1.0047    1.3188 H   0  0  0  0  0  0  0  0  0  0  0  0
   -1.8294    3.1322    3.1767 H   0  0  0  0  0  0  0  0  0  0  0  0
   -2.0529    3.2993    1.4212 H   0  0  0  0  0  0  0  0  0  0  0  0
   -3.4668    3.1602    2.4848 H   0  0  0  0  0  0  0  0  0  0  0  0
   -0.4921    0.8812    0.5889 N   0  0  0  0  0  0  0  0  0  0  0  0
    0.8724    0.7066    0.0327 C   0  0  2  0  0  0  0  0  0  0  0  0
    2.1287    1.0769    0.8862 C   0  0  0  0  0  0  0  0  0  0  0  0
    3.0790    1.6567    0.3706 O   0  0  0  0  0  0  0  0  0  0  0  0
    0.8591    1.4828   -1.3078 C   0  0  0  0  0  0  0  0  0  0  0  0
   -0.0639    0.8244   -2.3074 C   0  0  0  0  0  0  0  0  0  0  0  0
    0.3700   -0.2881   -3.0437 C   0  0  0  0  0  0  0  0  0  0  0  0
   -1.3586    1.3236   -2.5248 C   0  0  0  0  0  0  0  0  0  0  0  0
   -0.4817   -0.9049   -3.9662 C   0  0  0  0  0  0  0  0  0  0  0  0
   -2.2115    0.7058   -3.4460 C   0  0  0  0  0  0  0  0  0  0  0  0
   -1.7739   -0.4102   -4.1652 C   0  0  0  0  0  0  0  0  0  0  0  0
   -1.1863    1.1813   -0.0912 H   0  0  0  0  0  0  0  0  0  0  0  0
    1.0006   -0.3580   -0.1856 H   0  0  0  0  0  0  0  0  0  0  0  0
    1.8601    1.5010   -1.7515 H   0  0  0  0  0  0  0  0  0  0  0  0
    0.5675    2.5242   -1.1345 H   0  0  0  0  0  0  0  0  0  0  0  0
    1.3732   -0.6795   -2.9001 H   0  0  0  0  0  0  0  0  0  0  0  0
   -1.7080    2.2004   -1.9881 H   0  0  0  0  0  0  0  0  0  0  0  0
   -0.1373   -1.7672   -4.5300 H   0  0  0  0  0  0  0  0  0  0  0  0
   -3.2125    1.0955   -3.6083 H   0  0  0  0  0  0  0  0  0  0  0  0
   -2.4343   -0.8887   -4.8827 H   0  0  0  0  0  0  0  0  0  0  0  0
    2.2855    0.7242    2.2115 N   0  0  0  0  0  0  0  0  0  0  0  0
    3.4106    1.1193    3.0741 C   0  0  2  0  0  0  0  0  0  0  0  0
    4.6694    0.2419    2.8641 C   0  0  0  0  0  0  0  0  0  0  0  0
    5.2097   -0.3502    3.7914 O   0  0  0  0  0  0  0  0  0  0  0  0
    2.8969    1.0861    4.5189 C   0  0  0  0  0  0  0  0  0  0  0  0
    1.4726    0.2903    2.6555 H   0  0  0  0  0  0  0  0  0  0  0  0
    3.6988    2.1507    2.8461 H   0  0  0  0  0  0  0  0  0  0  0  0
    2.6103    0.0678    4.8013 H   0  0  0  0  0  0  0  0  0  0  0  0
    3.6750    1.4309    5.2073 H   0  0  0  0  0  0  0  0  0  0  0  0
    2.0249    1.7380    4.6291 H   0  0  0  0  0  0  0  0  0  0  0  0
    5.2211    0.1488    1.6018 N   0  0  0  0  0  0  0  0  0  0  0  0
    6.4227   -0.6106    1.2865 C   0  0  0  0  0  0  0  0  0  0  0  0
    4.7455    0.6761    0.8652 H   0  0  0  0  0  0  0  0  0  0  0  0
    7.2805   -0.2157    1.8406 H   0  0  0  0  0  0  0  0  0  0  0  0
    6.2887   -1.6656    1.5475 H   0  0  0  0  0  0  0  0  0  0  0  0
    6.6407   -0.5438    0.2164 H   0  0  0  0  0  0  0  0  0  0  0  0
  1  2  2  0  0  0  0
  1  3  1  0  0  0  0
  1  7  1  0  0  0  0
  3  4  1  0  0  0  0
  3  5  1  0  0  0  0
  3  6  1  0  0  0  0
  7  8  1  0  0  0  0
  7 12  1  0  0  0  0
  8  9  1  0  0  0  0
  8 11  1  0  0  0  0
  8 13  1  0  0  0  0
  9 10  2  0  0  0  0
  9 17  1  0  0  0  0
 11 14  1  0  0  0  0
 11 15  1  0  0  0  0
 11 16  1  0  0  0  0
 17 18  1  0  0  0  0
 17 28  1  0  0  0  0
 18 19  1  0  0  0  0
 18 21  1  0  0  0  0
 18 29  1  0  0  0  0
 19 20  2  0  0  0  0
 19 37  1  0  0  0  0
 21 22  1  0  0  0  0
 21 30  1  0  0  0  0
 21 31  1  0  0  0  0
 22 23  1  0  0  0  0
 22 24  2  0  0  0  0
 23 25  2  0  0  0  0
 23 32  1  0  0  0  0
 24 26  1  0  0  0  0
 24 33  1  0  0  0  0
 25 27  1  0  0  0  0
 25 34  1  0  0  0  0
 26 27  2  0  0  0  0
 26 35  1  0  0  0  0
 27 36  1  0  0  0  0
 37 38  1  0  0  0  0
 37 42  1  0  0  0  0
 38 39  1  0  0  0  0
 38 41  1  0  0  0  0
 38 43  1  0  0  0  0
 39 40  2  0  0  0  0
 39 47  1  0  0  0  0
 41 44  1  0  0  0  0
 41 45  1  0  0  0  0
 41 46  1  0  0  0  0
 47 48  1  0  0  0  0
 47 49  1  0  0  0  0
 48 50  1  0  0  0  0
 48 51  1  0  0  0  0
 48 52  1  0  0  0  0
M  END
$$$$

  -OEChem-05262217163D

 52 52  0     1  0  0  0  0  0999 V2000
   -4.1780    0.4108    3.6590 C   0  0  0  0  0  0  0  0  0  0  0  0
   -5.0101    0.7588    2.8362 O   0  0  0  0  0  0  0  0  0  0  0  0
   -4.6029   -0.3591    4.8954 C   0  0  0  0  0  0  0  0  0  0  0  0
   -5.6843   -0.5219    4.8853 H   0  0  0  0  0  0  0  0  0  0  0  0
   -4.1011   -1.3295    4.9224 H   0  0  0  0  0  0  0  0  0  0  0  0
   -4.3410    0.2045    5.7939 H   0  0  0  0  0  0  0  0  0  0  0  0
   -2.8465    0.7091    3.4585 N   0  0  0  0  0  0  0  0  0  0  0  0
   -2.3114    1.3181    2.2331 C   0  0  2  0  0  0  0  0  0  0  0  0
   -0.9155    0.7693    1.8722 C   0  0  0  0  0  0  0  0  0  0  0  0
   -0.2522    0.1936    2.7253 O   0  0  0  0  0  0  0  0  0  0  0  0
   -2.2513    2.8348    2.4360 C   0  0  0  0  0  0  0  0  0  0  0  0
   -2.1741    0.3031    4.1075 H   0  0  0  0  0  0  0  0  0  0  0  0
   -2.9745    1.0952    1.3900 H   0  0  0  0  0  0  0  0  0  0  0  0
   -1.5907    3.0842    3.2727 H   0  0  0  0  0  0  0  0  0  0  0  0
   -1.8745    3.3293    1.5356 H   0  0  0  0  0  0  0  0  0  0  0  0
   -3.2503    3.2270    2.6521 H   0  0  0  0  0  0  0  0  0  0  0  0
   -0.4792    0.8441    0.5608 N   0  0  0  0  0  0  0  0  0  0  0  0
    0.8684    0.6270   -0.0164 C   0  0  2  0  0  0  0  0  0  0  0  0
    2.1222    0.9527    0.8527 C   0  0  0  0  0  0  0  0  0  0  0  0
    2.9831    1.7267    0.4463 O   0  0  0  0  0  0  0  0  0  0  0  0
    0.8912    1.4193   -1.3448 C   0  0  0  0  0  0  0  0  0  0  0  0
   -0.0610    0.8185   -2.3522 C   0  0  0  0  0  0  0  0  0  0  0  0
    0.3187   -0.3032   -3.1041 C   0  0  0  0  0  0  0  0  0  0  0  0
   -1.3304    1.3817   -2.5597 C   0  0  0  0  0  0  0  0  0  0  0  0
   -0.5634   -0.8672   -4.0320 C   0  0  0  0  0  0  0  0  0  0  0  0
   -2.2132    0.8178   -3.4869 C   0  0  0  0  0  0  0  0  0  0  0  0
   -1.8310   -0.3087   -4.2211 C   0  0  0  0  0  0  0  0  0  0  0  0
   -1.1684    1.2119   -0.0903 H   0  0  0  0  0  0  0  0  0  0  0  0
    0.9609   -0.4383   -0.2499 H   0  0  0  0  0  0  0  0  0  0  0  0
    1.8956    1.3958   -1.7815 H   0  0  0  0  0  0  0  0  0  0  0  0
    0.6475    2.4706   -1.1580 H   0  0  0  0  0  0  0  0  0  0  0  0
    1.3019   -0.7441   -2.9671 H   0  0  0  0  0  0  0  0  0  0  0  0
   -1.6361    2.2667   -2.0099 H   0  0  0  0  0  0  0  0  0  0  0  0
   -0.2629   -1.7385   -4.6069 H   0  0  0  0  0  0  0  0  0  0  0  0
   -3.1944    1.2574   -3.6425 H   0  0  0  0  0  0  0  0  0  0  0  0
   -2.5158   -0.7460   -4.9422 H   0  0  0  0  0  0  0  0  0  0  0  0
    2.3701    0.3253    2.0574 N   0  0  0  0  0  0  0  0  0  0  0  0
    3.4697    0.6749    2.9716 C   0  0  2  0  0  0  0  0  0  0  0  0
    4.8181    0.0285    2.5688 C   0  0  0  0  0  0  0  0  0  0  0  0
    5.4634   -0.6651    3.3467 O   0  0  0  0  0  0  0  0  0  0  0  0
    3.0190    0.2778    4.3827 C   0  0  0  0  0  0  0  0  0  0  0  0
    1.5611   -0.1541    2.4610 H   0  0  0  0  0  0  0  0  0  0  0  0
    3.6205    1.7596    2.9629 H   0  0  0  0  0  0  0  0  0  0  0  0
    2.8705   -0.8049    4.4482 H   0  0  0  0  0  0  0  0  0  0  0  0
    3.7747    0.5692    5.1189 H   0  0  0  0  0  0  0  0  0  0  0  0
    2.0786    0.7762    4.6375 H   0  0  0  0  0  0  0  0  0  0  0  0
    5.3265    0.2650    1.3072 N   0  0  0  0  0  0  0  0  0  0  0  0
    6.5913   -0.2665    0.8200 C   0  0  0  0  0  0  0  0  0  0  0  0
    4.7603    0.8644    0.7015 H   0  0  0  0  0  0  0  0  0  0  0  0
    7.4211    0.0947    1.4363 H   0  0  0  0  0  0  0  0  0  0  0  0
    6.5816   -1.3610    0.8467 H   0  0  0  0  0  0  0  0  0  0  0  0
    6.7615    0.0533   -0.2124 H   0  0  0  0  0  0  0  0  0  0  0  0
  1  2  2  0  0  0  0
  1  3  1  0  0  0  0
  1  7  1  0  0  0  0
  3  4  1  0  0  0  0
  3  5  1  0  0  0  0
  3  6  1  0  0  0  0
  7  8  1  0  0  0  0
  7 12  1  0  0  0  0
  8  9  1  0  0  0  0
  8 11  1  0  0  0  0
  8 13  1  0  0  0  0
  9 10  2  0  0  0  0
  9 17  1  0  0  0  0
 11 14  1  0  0  0  0
 11 15  1  0  0  0  0
 11 16  1  0  0  0  0
 17 18  1  0  0  0  0
 17 28  1  0  0  0  0
 18 19  1  0  0  0  0
 18 21  1  0  0  0  0
 18 29  1  0  0  0  0
 19 20  2  0  0  0  0
 19 37  1  0  0  0  0
 21 22  1  0  0  0  0
 21 30  1  0  0  0  0
 21 31  1  0  0  0  0
 22 23  1  0  0  0  0
 22 24  2  0  0  0  0
 23 25  2  0  0  0  0
 23 32  1  0  0  0  0
 24 26  1  0  0  0  0
 24 33  1  0  0  0  0
 25 27  1  0  0  0  0
 25 34  1  0  0  0  0
 26 27  2  0  0  0  0
 26 35  1  0  0  0  0
 27 36  1  0  0  0  0
 37 38  1  0  0  0  0
 37 42  1  0  0  0  0
 38 39  1  0  0  0  0
 38 41  1  0  0  0  0
 38 43  1  0  0  0  0
 39 40  2  0  0  0  0
 39 47  1  0  0  0  0
 41 44  1  0  0  0  0
 41 45  1  0  0  0  0
 41 46  1  0  0  0  0
 47 48  1  0  0  0  0
 47 49  1  0  0  0  0
 48 50  1  0  0  0  0
 48 51  1  0  0  0  0
 48 52  1  0  0  0  0
M  END
$$$$

  -OEChem-05262217163D

 52 52  0     1  0  0  0  0  0999 V2000
   -4.0388    0.3356    3.7321 C   0  0  0  0  0  0  0  0  0  0  0  0
   -4.9008    0.6707    2.9353 O   0  0  0  0  0  0  0  0  0  0  0  0
   -4.4049   -0.5001    4.9443 C   0  0  0  0  0  0  0  0  0  0  0  0
   -5.4793   -0.7041    4.9510 H   0  0  0  0  0  0  0  0  0  0  0  0
   -3.8667   -1.4508    4.9183 H   0  0  0  0  0  0  0  0  0  0  0  0
   -4.1428    0.0347    5.8605 H   0  0  0  0  0  0  0  0  0  0  0  0
   -2.7255    0.6994    3.5202 N   0  0  0  0  0  0  0  0  0  0  0  0
   -2.2347    1.3430    2.2938 C   0  0  2  0  0  0  0  0  0  0  0  0
   -0.8557    0.7965    1.8696 C   0  0  0  0  0  0  0  0  0  0  0  0
   -0.1609    0.2010    2.6848 O   0  0  0  0  0  0  0  0  0  0  0  0
   -2.1617    2.8519    2.5401 C   0  0  0  0  0  0  0  0  0  0  0  0
   -2.0256    0.2921    4.1389 H   0  0  0  0  0  0  0  0  0  0  0  0
   -2.9280    1.1487    1.4682 H   0  0  0  0  0  0  0  0  0  0  0  0
   -1.4688    3.0744    3.3581 H   0  0  0  0  0  0  0  0  0  0  0  0
   -1.8187    3.3722    1.6406 H   0  0  0  0  0  0  0  0  0  0  0  0
   -3.1505    3.2391    2.8064 H   0  0  0  0  0  0  0  0  0  0  0  0
   -0.4682    0.8724    0.5431 N   0  0  0  0  0  0  0  0  0  0  0  0
    0.8637    0.6179   -0.0483 C   0  0  2  0  0  0  0  0  0  0  0  0
    2.1067    0.9173    0.8383 C   0  0  0  0  0  0  0  0  0  0  0  0
    2.8784    1.8291    0.5570 O   0  0  0  0  0  0  0  0  0  0  0  0
    0.9258    1.4184   -1.3681 C   0  0  0  0  0  0  0  0  0  0  0  0
   -0.0466    0.8662   -2.3840 C   0  0  0  0  0  0  0  0  0  0  0  0
    0.2862   -0.2644   -3.1451 C   0  0  0  0  0  0  0  0  0  0  0  0
   -1.2898    1.4854   -2.5902 C   0  0  0  0  0  0  0  0  0  0  0  0
   -0.6173   -0.7814   -4.0799 C   0  0  0  0  0  0  0  0  0  0  0  0
   -2.1939    0.9687   -3.5245 C   0  0  0  0  0  0  0  0  0  0  0  0
   -1.8591   -0.1671   -4.2673 C   0  0  0  0  0  0  0  0  0  0  0  0
   -1.1593    1.2720   -0.0867 H   0  0  0  0  0  0  0  0  0  0  0  0
    0.9285   -0.4481   -0.2882 H   0  0  0  0  0  0  0  0  0  0  0  0
    1.9338    1.3574   -1.7930 H   0  0  0  0  0  0  0  0  0  0  0  0
    0.7233    2.4772   -1.1740 H   0  0  0  0  0  0  0  0  0  0  0  0
    1.2489   -0.7491   -3.0104 H   0  0  0  0  0  0  0  0  0  0  0  0
   -1.5577    2.3779   -2.0328 H   0  0  0  0  0  0  0  0  0  0  0  0
   -0.3533   -1.6597   -4.6619 H   0  0  0  0  0  0  0  0  0  0  0  0
   -3.1545    1.4522   -3.6786 H   0  0  0  0  0  0  0  0  0  0  0  0
   -2.5602   -0.5678   -4.9938 H   0  0  0  0  0  0  0  0  0  0  0  0
    2.4617    0.0717    1.8709 N   0  0  0  0  0  0  0  0  0  0  0  0
    3.5777    0.3305    2.7948 C   0  0  2  0  0  0  0  0  0  0  0  0
    4.9462   -0.1097    2.2194 C   0  0  0  0  0  0  0  0  0  0  0  0
    5.6690   -0.9100    2.8021 O   0  0  0  0  0  0  0  0  0  0  0  0
    3.2349   -0.3666    4.1172 C   0  0  0  0  0  0  0  0  0  0  0  0
    1.6786   -0.4733    2.2377 H   0  0  0  0  0  0  0  0  0  0  0  0
    3.6453    1.4050    2.9949 H   0  0  0  0  0  0  0  0  0  0  0  0
    3.1664   -1.4498    3.9743 H   0  0  0  0  0  0  0  0  0  0  0  0
    4.0078   -0.1640    4.8654 H   0  0  0  0  0  0  0  0  0  0  0  0
    2.2777   -0.0024    4.5031 H   0  0  0  0  0  0  0  0  0  0  0  0
    5.3772    0.4318    1.0247 N   0  0  0  0  0  0  0  0  0  0  0  0
    6.6444    0.1038    0.3867 C   0  0  0  0  0  0  0  0  0  0  0  0
    4.7417    1.0984    0.5791 H   0  0  0  0  0  0  0  0  0  0  0  0
    7.4823    0.3927    1.0295 H   0  0  0  0  0  0  0  0  0  0  0  0
    6.7062   -0.9713    0.1881 H   0  0  0  0  0  0  0  0  0  0  0  0
    6.7370    0.6366   -0.5644 H   0  0  0  0  0  0  0  0  0  0  0  0
  1  2  2  0  0  0  0
  1  3  1  0  0  0  0
  1  7  1  0  0  0  0
  3  4  1  0  0  0  0
  3  5  1  0  0  0  0
  3  6  1  0  0  0  0
  7  8  1  0  0  0  0
  7 12  1  0  0  0  0
  8  9  1  0  0  0  0
  8 11  1  0  0  0  0
  8 13  1  0  0  0  0
  9 10  2  0  0  0  0
  9 17  1  0  0  0  0
 11 14  1  0  0  0  0
 11 15  1  0  0  0  0
 11 16  1  0  0  0  0
 17 18  1  0  0  0  0
 17 28  1  0  0  0  0
 18 19  1  0  0  0  0
 18 21  1  0  0  0  0
 18 29  1  0  0  0  0
 19 20  2  0  0  0  0
 19 37  1  0  0  0  0
 21 22  1  0  0  0  0
 21 30  1  0  0  0  0
 21 31  1  0  0  0  0
 22 23  1  0  0  0  0
 22 24  2  0  0  0  0
 23 25  2  0  0  0  0
 23 32  1  0  0  0  0
 24 26  1  0  0  0  0
 24 33  1  0  0  0  0
 25 27  1  0  0  0  0
 25 34  1  0  0  0  0
 26 27  2  0  0  0  0
 26 35  1  0  0  0  0
 27 36  1  0  0  0  0
 37 38  1  0  0  0  0
 37 42  1  0  0  0  0
 38 39  1  0  0  0  0
 38 41  1  0  0  0  0
 38 43  1  0  0  0  0
 39 40  2  0  0  0  0
 39 47  1  0  0  0  0
 41 44  1  0  0  0  0
 41 45  1  0  0  0  0
 41 46  1  0  0  0  0
 47 48  1  0  0  0  0
 47 49  1  0  0  0  0
 48 50  1  0  0  0  0
 48 51  1  0  0  0  0
 48 52  1  0  0  0  0
M  END
$$$$

  -OEChem-05262217163D

 52 52  0     1  0  0  0  0  0999 V2000
   -3.8615    0.4050    4.0054 C   0  0  0  0  0  0  0  0  0  0  0  0
   -4.7811    0.7874    3.2994 O   0  0  0  0  0  0  0  0  0  0  0  0
   -4.1482   -0.3376    5.2966 C   0  0  0  0  0  0  0  0  0  0  0  0
   -5.2261   -0.4727    5.4233 H   0  0  0  0  0  0  0  0  0  0  0  0
   -3.6705   -1.3202    5.2768 H   0  0  0  0  0  0  0  0  0  0  0  0
   -3.7621    0.2304    6.1463 H   0  0  0  0  0  0  0  0  0  0  0  0
   -2.5572    0.6384    3.6238 N   0  0  0  0  0  0  0  0  0  0  0  0
   -2.1664    1.2106    2.3289 C   0  0  2  0  0  0  0  0  0  0  0  0
   -0.8307    0.6316    1.8180 C   0  0  0  0  0  0  0  0  0  0  0  0
   -0.1198   -0.0310    2.5664 O   0  0  0  0  0  0  0  0  0  0  0  0
   -2.0654    2.7306    2.4834 C   0  0  0  0  0  0  0  0  0  0  0  0
   -1.8226    0.1978    4.1760 H   0  0  0  0  0  0  0  0  0  0  0  0
   -2.9289    0.9754    1.5783 H   0  0  0  0  0  0  0  0  0  0  0  0
   -1.3017    2.9907    3.2235 H   0  0  0  0  0  0  0  0  0  0  0  0
   -1.8007    3.1977    1.5302 H   0  0  0  0  0  0  0  0  0  0  0  0
   -3.0246    3.1424    2.8134 H   0  0  0  0  0  0  0  0  0  0  0  0
   -0.4890    0.7702    0.4838 N   0  0  0  0  0  0  0  0  0  0  0  0
    0.8328    0.5237   -0.1268 C   0  0  2  0  0  0  0  0  0  0  0  0
    2.0590    0.7782    0.7903 C   0  0  0  0  0  0  0  0  0  0  0  0
    2.6814    1.8345    0.7308 O   0  0  0  0  0  0  0  0  0  0  0  0
    0.9282    1.3925   -1.3983 C   0  0  0  0  0  0  0  0  0  0  0  0
   -0.0494    0.9287   -2.4517 C   0  0  0  0  0  0  0  0  0  0  0  0
    0.2596   -0.1662   -3.2725 C   0  0  0  0  0  0  0  0  0  0  0  0
   -1.2686    1.5992   -2.6389 C   0  0  0  0  0  0  0  0  0  0  0  0
   -0.6428   -0.5968   -4.2510 C   0  0  0  0  0  0  0  0  0  0  0  0
   -2.1716    1.1693   -3.6173 C   0  0  0  0  0  0  0  0  0  0  0  0
   -1.8598    0.0696   -4.4221 C   0  0  0  0  0  0  0  0  0  0  0  0
   -1.1677    1.2566   -0.0960 H   0  0  0  0  0  0  0  0  0  0  0  0
    0.8854   -0.5288   -0.4221 H   0  0  0  0  0  0  0  0  0  0  0  0
    1.9408    1.3296   -1.8116 H   0  0  0  0  0  0  0  0  0  0  0  0
    0.7500    2.4438   -1.1470 H   0  0  0  0  0  0  0  0  0  0  0  0
    1.2038   -0.6894   -3.1524 H   0  0  0  0  0  0  0  0  0  0  0  0
   -1.5173    2.4660   -2.0341 H   0  0  0  0  0  0  0  0  0  0  0  0
   -0.3966   -1.4474   -4.8804 H   0  0  0  0  0  0  0  0  0  0  0  0
   -3.1127    1.6936   -3.7580 H   0  0  0  0  0  0  0  0  0  0  0  0
   -2.5591   -0.2630   -5.1839 H   0  0  0  0  0  0  0  0  0  0  0  0
    2.5670   -0.2421    1.5721 N   0  0  0  0  0  0  0  0  0  0  0  0
    3.6688   -0.0549    2.5297 C   0  0  2  0  0  0  0  0  0  0  0  0
    5.0641   -0.1230    1.8616 C   0  0  0  0  0  0  0  0  0  0  0  0
    5.9131   -0.9332    2.2153 O   0  0  0  0  0  0  0  0  0  0  0  0
    3.4869   -1.1028    3.6344 C   0  0  0  0  0  0  0  0  0  0  0  0
    1.8893   -0.9706    1.7921 H   0  0  0  0  0  0  0  0  0  0  0  0
    3.5842    0.9337    2.9939 H   0  0  0  0  0  0  0  0  0  0  0  0
    3.5791   -2.1142    3.2253 H   0  0  0  0  0  0  0  0  0  0  0  0
    4.2480   -0.9718    4.4100 H   0  0  0  0  0  0  0  0  0  0  0  0
    2.5015   -0.9998    4.0990 H   0  0  0  0  0  0  0  0  0  0  0  0
    5.3712    0.7675    0.8522 N   0  0  0  0  0  0  0  0  0  0  0  0
    6.6494    0.8069    0.1559 C   0  0  0  0  0  0  0  0  0  0  0  0
    4.6290    1.4209    0.5890 H   0  0  0  0  0  0  0  0  0  0  0  0
    7.4638    1.0016    0.8614 H   0  0  0  0  0  0  0  0  0  0  0  0
    6.8392   -0.1456   -0.3497 H   0  0  0  0  0  0  0  0  0  0  0  0
    6.6451    1.6022   -0.5952 H   0  0  0  0  0  0  0  0  0  0  0  0
  1  2  2  0  0  0  0
  1  3  1  0  0  0  0
  1  7  1  0  0  0  0
  3  4  1  0  0  0  0
  3  5  1  0  0  0  0
  3  6  1  0  0  0  0
  7  8  1  0  0  0  0
  7 12  1  0  0  0  0
  8  9  1  0  0  0  0
  8 11  1  0  0  0  0
  8 13  1  0  0  0  0
  9 10  2  0  0  0  0
  9 17  1  0  0  0  0
 11 14  1  0  0  0  0
 11 15  1  0  0  0  0
 11 16  1  0  0  0  0
 17 18  1  0  0  0  0
 17 28  1  0  0  0  0
 18 19  1  0  0  0  0
 18 21  1  0  0  0  0
 18 29  1  0  0  0  0
 19 20  2  0  0  0  0
 19 37  1  0  0  0  0
 21 22  1  0  0  0  0
 21 30  1  0  0  0  0
 21 31  1  0  0  0  0
 22 23  1  0  0  0  0
 22 24  2  0  0  0  0
 23 25  2  0  0  0  0
 23 32  1  0  0  0  0
 24 26  1  0  0  0  0
 24 33  1  0  0  0  0
 25 27  1  0  0  0  0
 25 34  1  0  0  0  0
 26 27  2  0  0  0  0
 26 35  1  0  0  0  0
 27 36  1  0  0  0  0
 37 38  1  0  0  0  0
 37 42  1  0  0  0  0
 38 39  1  0  0  0  0
 38 41  1  0  0  0  0
 38 43  1  0  0  0  0
 39 40  2  0  0  0  0
 39 47  1  0  0  0  0
 41 44  1  0  0  0  0
 41 45  1  0  0  0  0
 41 46  1  0  0  0  0
 47 48  1  0  0  0  0
 47 49  1  0  0  0  0
 48 50  1  0  0  0  0
 48 51  1  0  0  0  0
 48 52  1  0  0  0  0
M  END
$$$$

  -OEChem-05262217163D

 52 52  0     1  0  0  0  0  0999 V2000
   -3.6753    0.4576    4.1441 C   0  0  0  0  0  0  0  0  0  0  0  0
   -4.6200    0.8985    3.5088 O   0  0  0  0  0  0  0  0  0  0  0  0
   -3.9125   -0.2994    5.4372 C   0  0  0  0  0  0  0  0  0  0  0  0
   -4.9838   -0.3557    5.6502 H   0  0  0  0  0  0  0  0  0  0  0  0
   -3.5167   -1.3146    5.3542 H   0  0  0  0  0  0  0  0  0  0  0  0
   -3.4153    0.2122    6.2646 H   0  0  0  0  0  0  0  0  0  0  0  0
   -2.3898    0.6300    3.6768 N   0  0  0  0  0  0  0  0  0  0  0  0
   -2.0569    1.1941    2.3621 C   0  0  2  0  0  0  0  0  0  0  0  0
   -0.7908    0.5487    1.7619 C   0  0  0  0  0  0  0  0  0  0  0  0
   -0.0853   -0.1818    2.4508 O   0  0  0  0  0  0  0  0  0  0  0  0
   -1.8624    2.7047    2.5203 C   0  0  0  0  0  0  0  0  0  0  0  0
   -1.6442    0.1399    4.1695 H   0  0  0  0  0  0  0  0  0  0  0  0
   -2.8788    1.0081    1.6622 H   0  0  0  0  0  0  0  0  0  0  0  0
   -1.0393    2.9139    3.2111 H   0  0  0  0  0  0  0  0  0  0  0  0
   -1.6332    3.1680    1.5558 H   0  0  0  0  0  0  0  0  0  0  0  0
   -2.7743    3.1642    2.9150 H   0  0  0  0  0  0  0  0  0  0  0  0
   -0.5009    0.7126    0.4180 N   0  0  0  0  0  0  0  0  0  0  0  0
    0.8018    0.4451   -0.2211 C   0  0  2  0  0  0  0  0  0  0  0  0
    2.0324    0.6596    0.6946 C   0  0  0  0  0  0  0  0  0  0  0  0
    2.4853    1.7860    0.8753 O   0  0  0  0  0  0  0  0  0  0  0  0
    0.9231    1.3426   -1.4677 C   0  0  0  0  0  0  0  0  0  0  0  0
   -0.0794    0.9410   -2.5230 C   0  0  0  0  0  0  0  0  0  0  0  0
    0.1809   -0.1438   -3.3737 C   0  0  0  0  0  0  0  0  0  0  0  0
   -1.2793    1.6537   -2.6737 C   0  0  0  0  0  0  0  0  0  0  0  0
   -0.7520   -0.5237   -4.3449 C   0  0  0  0  0  0  0  0  0  0  0  0
   -2.2120    1.2751   -3.6452 C   0  0  0  0  0  0  0  0  0  0  0  0
   -1.9500    0.1841   -4.4790 C   0  0  0  0  0  0  0  0  0  0  0  0
   -1.1562    1.2822   -0.1100 H   0  0  0  0  0  0  0  0  0  0  0  0
    0.8216   -0.6010   -0.5412 H   0  0  0  0  0  0  0  0  0  0  0  0
    1.9317    1.2544   -1.8862 H   0  0  0  0  0  0  0  0  0  0  0  0
    0.7832    2.3925   -1.1879 H   0  0  0  0  0  0  0  0  0  0  0  0
    1.1091   -0.7001   -3.2819 H   0  0  0  0  0  0  0  0  0  0  0  0
   -1.4912    2.5119   -2.0430 H   0  0  0  0  0  0  0  0  0  0  0  0
   -0.5455   -1.3680   -4.9965 H   0  0  0  0  0  0  0  0  0  0  0  0
   -3.1387    1.8312   -3.7560 H   0  0  0  0  0  0  0  0  0  0  0  0
   -2.6738   -0.1097   -5.2339 H   0  0  0  0  0  0  0  0  0  0  0  0
    2.7124   -0.4261    1.2141 N   0  0  0  0  0  0  0  0  0  0  0  0
    3.7947   -0.3036    2.2034 C   0  0  2  0  0  0  0  0  0  0  0  0
    5.1677    0.0173    1.5618 C   0  0  0  0  0  0  0  0  0  0  0  0
    6.1472   -0.6985    1.7360 O   0  0  0  0  0  0  0  0  0  0  0  0
    3.8063   -1.6043    3.0162 C   0  0  0  0  0  0  0  0  0  0  0  0
    2.1986   -1.3030    1.2002 H   0  0  0  0  0  0  0  0  0  0  0  0
    3.5645    0.5154    2.8934 H   0  0  0  0  0  0  0  0  0  0  0  0
    4.0475   -2.4575    2.3743 H   0  0  0  0  0  0  0  0  0  0  0  0
    4.5555   -1.5474    3.8122 H   0  0  0  0  0  0  0  0  0  0  0  0
    2.8278   -1.7753    3.4760 H   0  0  0  0  0  0  0  0  0  0  0  0
    5.3007    1.1526    0.7874 N   0  0  0  0  0  0  0  0  0  0  0  0
    6.5455    1.5789    0.1636 C   0  0  0  0  0  0  0  0  0  0  0  0
    4.4589    1.7251    0.6824 H   0  0  0  0  0  0  0  0  0  0  0  0
    7.2925    1.8191    0.9272 H   0  0  0  0  0  0  0  0  0  0  0  0
    6.9425    0.7882   -0.4816 H   0  0  0  0  0  0  0  0  0  0  0  0
    6.3746    2.4700   -0.4478 H   0  0  0  0  0  0  0  0  0  0  0  0
  1  2  2  0  0  0  0
  1  3  1  0  0  0  0
  1  7  1  0  0  0  0
  3  4  1  0  0  0  0
  3  5  1  0  0  0  0
  3  6  1  0  0  0  0
  7  8  1  0  0  0  0
  7 12  1  0  0  0  0
  8  9  1  0  0  0  0
  8 11  1  0  0  0  0
  8 13  1  0  0  0  0
  9 10  2  0  0  0  0
  9 17  1  0  0  0  0
 11 14  1  0  0  0  0
 11 15  1  0  0  0  0
 11 16  1  0  0  0  0
 17 18  1  0  0  0  0
 17 28  1  0  0  0  0
 18 19  1  0  0  0  0
 18 21  1  0  0  0  0
 18 29  1  0  0  0  0
 19 20  2  0  0  0  0
 19 37  1  0  0  0  0
 21 22  1  0  0  0  0
 21 30  1  0  0  0  0
 21 31  1  0  0  0  0
 22 23  1  0  0  0  0
 22 24  2  0  0  0  0
 23 25  2  0  0  0  0
 23 32  1  0  0  0  0
 24 26  1  0  0  0  0
 24 33  1  0  0  0  0
 25 27  1  0  0  0  0
 25 34  1  0  0  0  0
 26 27  2  0  0  0  0
 26 35  1  0  0  0  0
 27 36  1  0  0  0  0
 37 38  1  0  0  0  0
 37 42  1  0  0  0  0
 38 39  1  0  0  0  0
 38 41  1  0  0  0  0
 38 43  1  0  0  0  0
 39 40  2  0  0  0  0
 39 47  1  0  0  0  0
 41 44  1  0  0  0  0
 41 45  1  0  0  0  0
 41 46  1  0  0  0  0
 47 48  1  0  0  0  0
 47 49  1  0  0  0  0
 48 50  1  0  0  0  0
 48 51  1  0  0  0  0
 48 52  1  0  0  0  0
M  END
$$$$

  -OEChem-05262217163D

 52 52  0     1  0  0  0  0  0999 V2000
   -3.5698    0.4940    4.2305 C   0  0  0  0  0  0  0  0  0  0  0  0
   -4.5106    1.0086    3.6470 O   0  0  0  0  0  0  0  0  0  0  0  0
   -3.7963   -0.2613    5.5264 C   0  0  0  0  0  0  0  0  0  0  0  0
   -4.8547   -0.2313    5.8002 H   0  0  0  0  0  0  0  0  0  0  0  0
   -3.4924   -1.3043    5.4087 H   0  0  0  0  0  0  0  0  0  0  0  0
   -3.2119    0.1928    6.3304 H   0  0  0  0  0  0  0  0  0  0  0  0
   -2.2993    0.5857    3.7038 N   0  0  0  0  0  0  0  0  0  0  0  0
   -1.9879    1.1571    2.3875 C   0  0  2  0  0  0  0  0  0  0  0  0
   -0.7744    0.4636    1.7347 C   0  0  0  0  0  0  0  0  0  0  0  0
   -0.0874   -0.3198    2.3837 O   0  0  0  0  0  0  0  0  0  0  0  0
   -1.7152    2.6545    2.5609 C   0  0  0  0  0  0  0  0  0  0  0  0
   -1.5649    0.0402    4.1534 H   0  0  0  0  0  0  0  0  0  0  0  0
   -2.8418    1.0206    1.7150 H   0  0  0  0  0  0  0  0  0  0  0  0
   -0.8561    2.8125    3.2212 H   0  0  0  0  0  0  0  0  0  0  0  0
   -1.5017    3.1228    1.5953 H   0  0  0  0  0  0  0  0  0  0  0  0
   -2.5877    3.1502    2.9985 H   0  0  0  0  0  0  0  0  0  0  0  0
   -0.5103    0.6502    0.3886 N   0  0  0  0  0  0  0  0  0  0  0  0
    0.7852    0.3816   -0.2631 C   0  0  2  0  0  0  0  0  0  0  0  0
    2.0177    0.5762    0.6534 C   0  0  0  0  0  0  0  0  0  0  0  0
    2.3180    1.6992    1.0486 O   0  0  0  0  0  0  0  0  0  0  0  0
    0.9185    1.3114   -1.4834 C   0  0  0  0  0  0  0  0  0  0  0  0
   -0.0926    0.9570   -2.5477 C   0  0  0  0  0  0  0  0  0  0  0  0
    0.1475   -0.1069   -3.4302 C   0  0  0  0  0  0  0  0  0  0  0  0
   -1.2821    1.6923   -2.6724 C   0  0  0  0  0  0  0  0  0  0  0  0
   -0.7938   -0.4423   -4.4095 C   0  0  0  0  0  0  0  0  0  0  0  0
   -2.2232    1.3582   -3.6519 C   0  0  0  0  0  0  0  0  0  0  0  0
   -1.9802    0.2891   -4.5193 C   0  0  0  0  0  0  0  0  0  0  0  0
   -1.1451    1.2726   -0.1032 H   0  0  0  0  0  0  0  0  0  0  0  0
    0.7920   -0.6581   -0.6039 H   0  0  0  0  0  0  0  0  0  0  0  0
    1.9249    1.2193   -1.9064 H   0  0  0  0  0  0  0  0  0  0  0  0
    0.7958    2.3550   -1.1735 H   0  0  0  0  0  0  0  0  0  0  0  0
    1.0671   -0.6800   -3.3582 H   0  0  0  0  0  0  0  0  0  0  0  0
   -1.4799    2.5323   -2.0135 H   0  0  0  0  0  0  0  0  0  0  0  0
   -0.6027   -1.2700   -5.0867 H   0  0  0  0  0  0  0  0  0  0  0  0
   -3.1421    1.9306   -3.7422 H   0  0  0  0  0  0  0  0  0  0  0  0
   -2.7103    0.0295   -5.2808 H   0  0  0  0  0  0  0  0  0  0  0  0
    2.8773   -0.4760    0.9115 N   0  0  0  0  0  0  0  0  0  0  0  0
    3.9996   -0.3938    1.8599 C   0  0  2  0  0  0  0  0  0  0  0  0
    5.2629    0.2517    1.2395 C   0  0  0  0  0  0  0  0  0  0  0  0
    6.3334   -0.3424    1.1842 O   0  0  0  0  0  0  0  0  0  0  0  0
    4.2531   -1.8117    2.3866 C   0  0  0  0  0  0  0  0  0  0  0  0
    2.5396   -1.4014    0.6645 H   0  0  0  0  0  0  0  0  0  0  0  0
    3.7090    0.2292    2.7130 H   0  0  0  0  0  0  0  0  0  0  0  0
    4.5527   -2.4784    1.5717 H   0  0  0  0  0  0  0  0  0  0  0  0
    5.0519   -1.8007    3.1351 H   0  0  0  0  0  0  0  0  0  0  0  0
    3.3486   -2.2120    2.8549 H   0  0  0  0  0  0  0  0  0  0  0  0
    5.1854    1.5380    0.7447 N   0  0  0  0  0  0  0  0  0  0  0  0
    6.3042    2.2567    0.1520 C   0  0  0  0  0  0  0  0  0  0  0  0
    4.2667    1.9860    0.8005 H   0  0  0  0  0  0  0  0  0  0  0  0
    7.1076    2.3854    0.8847 H   0  0  0  0  0  0  0  0  0  0  0  0
    6.6970    1.7089   -0.7105 H   0  0  0  0  0  0  0  0  0  0  0  0
    5.9803    3.2461   -0.1844 H   0  0  0  0  0  0  0  0  0  0  0  0
  1  2  2  0  0  0  0
  1  3  1  0  0  0  0
  1  7  1  0  0  0  0
  3  4  1  0  0  0  0
  3  5  1  0  0  0  0
  3  6  1  0  0  0  0
  7  8  1  0  0  0  0
  7 12  1  0  0  0  0
  8  9  1  0  0  0  0
  8 11  1  0  0  0  0
  8 13  1  0  0  0  0
  9 10  2  0  0  0  0
  9 17  1  0  0  0  0
 11 14  1  0  0  0  0
 11 15  1  0  0  0  0
 11 16  1  0  0  0  0
 17 18  1  0  0  0  0
 17 28  1  0  0  0  0
 18 19  1  0  0  0  0
 18 21  1  0  0  0  0
 18 29  1  0  0  0  0
 19 20  2  0  0  0  0
 19 37  1  0  0  0  0
 21 22  1  0  0  0  0
 21 30  1  0  0  0  0
 21 31  1  0  0  0  0
 22 23  1  0  0  0  0
 22 24  2  0  0  0  0
 23 25  2  0  0  0  0
 23 32  1  0  0  0  0
 24 26  1  0  0  0  0
 24 33  1  0  0  0  0
 25 27  1  0  0  0  0
 25 34  1  0  0  0  0
 26 27  2  0  0  0  0
 26 35  1  0  0  0  0
 27 36  1  0  0  0  0
 37 38  1  0  0  0  0
 37 42  1  0  0  0  0
 38 39  1  0  0  0  0
 38 41  1  0  0  0  0
 38 43  1  0  0  0  0
 39 40  2  0  0  0  0
 39 47  1  0  0  0  0
 41 44  1  0  0  0  0
 41 45  1  0  0  0  0
 41 46  1  0  0  0  0
 47 48  1  0  0  0  0
 47 49  1  0  0  0  0
 48 50  1  0  0  0  0
 48 51  1  0  0  0  0
 48 52  1  0  0  0  0
M  END
$$$$

  -OEChem-05262217163D

 52 52  0     1  0  0  0  0  0999 V2000
   -3.4670    0.5349    4.3569 C   0  0  0  0  0  0  0  0  0  0  0  0
   -4.3935    1.1400    3.8408 O   0  0  0  0  0  0  0  0  0  0  0  0
   -3.6711   -0.1985    5.6693 C   0  0  0  0  0  0  0  0  0  0  0  0
   -4.6906   -0.0440    6.0337 H   0  0  0  0  0  0  0  0  0  0  0  0
   -3.5055   -1.2693    5.5276 H   0  0  0  0  0  0  0  0  0  0  0  0
   -2.9694    0.1757    6.4189 H   0  0  0  0  0  0  0  0  0  0  0  0
   -2.2332    0.5099    3.7429 N   0  0  0  0  0  0  0  0  0  0  0  0
   -1.9498    1.0821    2.4205 C   0  0  2  0  0  0  0  0  0  0  0  0
   -0.8011    0.3382    1.7078 C   0  0  0  0  0  0  0  0  0  0  0  0
   -0.1527   -0.5174    2.3037 O   0  0  0  0  0  0  0  0  0  0  0  0
   -1.5929    2.5619    2.5980 C   0  0  0  0  0  0  0  0  0  0  0  0
   -1.5205   -0.0996    4.1429 H   0  0  0  0  0  0  0  0  0  0  0  0
   -2.8386    0.9971    1.7861 H   0  0  0  0  0  0  0  0  0  0  0  0
   -0.7002    2.6677    3.2234 H   0  0  0  0  0  0  0  0  0  0  0  0
   -1.3954    3.0308    1.6296 H   0  0  0  0  0  0  0  0  0  0  0  0
   -2.4192    3.0972    3.0764 H   0  0  0  0  0  0  0  0  0  0  0  0
   -0.5453    0.5696    0.3665 N   0  0  0  0  0  0  0  0  0  0  0  0
    0.7570    0.3202   -0.2809 C   0  0  2  0  0  0  0  0  0  0  0  0
    1.9842    0.4887    0.6466 C   0  0  0  0  0  0  0  0  0  0  0  0
    2.1569    1.5482    1.2431 O   0  0  0  0  0  0  0  0  0  0  0  0
    0.9152    1.2897   -1.4658 C   0  0  0  0  0  0  0  0  0  0  0  0
   -0.0789    0.9846   -2.5601 C   0  0  0  0  0  0  0  0  0  0  0  0
    0.1689   -0.0481   -3.4770 C   0  0  0  0  0  0  0  0  0  0  0  0
   -1.2568    1.7381   -2.6826 C   0  0  0  0  0  0  0  0  0  0  0  0
   -0.7536   -0.3343   -4.4893 C   0  0  0  0  0  0  0  0  0  0  0  0
   -2.1801    1.4521   -3.6938 C   0  0  0  0  0  0  0  0  0  0  0  0
   -1.9297    0.4141   -4.5961 C   0  0  0  0  0  0  0  0  0  0  0  0
   -1.1411    1.2632   -0.0756 H   0  0  0  0  0  0  0  0  0  0  0  0
    0.7631   -0.7089   -0.6515 H   0  0  0  0  0  0  0  0  0  0  0  0
    1.9277    1.2065   -1.8758 H   0  0  0  0  0  0  0  0  0  0  0  0
    0.7948    2.3220   -1.1190 H   0  0  0  0  0  0  0  0  0  0  0  0
    1.0798   -0.6352   -3.4073 H   0  0  0  0  0  0  0  0  0  0  0  0
   -1.4584    2.5559   -1.9976 H   0  0  0  0  0  0  0  0  0  0  0  0
   -0.5558   -1.1369   -5.1942 H   0  0  0  0  0  0  0  0  0  0  0  0
   -3.0902    2.0389   -3.7817 H   0  0  0  0  0  0  0  0  0  0  0  0
   -2.6457    0.1919   -5.3823 H   0  0  0  0  0  0  0  0  0  0  0  0
    3.0040   -0.4459    0.6455 N   0  0  0  0  0  0  0  0  0  0  0  0
    4.1918   -0.3633    1.5103 C   0  0  2  0  0  0  0  0  0  0  0  0
    5.2818    0.5782    0.9417 C   0  0  0  0  0  0  0  0  0  0  0  0
    6.4159    0.1824    0.6991 O   0  0  0  0  0  0  0  0  0  0  0  0
    4.6978   -1.7951    1.7276 C   0  0  0  0  0  0  0  0  0  0  0  0
    2.8264   -1.3220    0.1641 H   0  0  0  0  0  0  0  0  0  0  0  0
    3.9007    0.0373    2.4876 H   0  0  0  0  0  0  0  0  0  0  0  0
    5.0197   -2.2388    0.7799 H   0  0  0  0  0  0  0  0  0  0  0  0
    5.5492   -1.7953    2.4157 H   0  0  0  0  0  0  0  0  0  0  0  0
    3.9081   -2.4182    2.1582 H   0  0  0  0  0  0  0  0  0  0  0  0
    4.9700    1.9016    0.7028 N   0  0  0  0  0  0  0  0  0  0  0  0
    5.9110    2.8835    0.1827 C   0  0  0  0  0  0  0  0  0  0  0  0
    4.0099    2.1833    0.9189 H   0  0  0  0  0  0  0  0  0  0  0  0
    6.7263    3.0462    0.8952 H   0  0  0  0  0  0  0  0  0  0  0  0
    6.3356    2.5424   -0.7674 H   0  0  0  0  0  0  0  0  0  0  0  0
    5.4038    3.8378    0.0109 H   0  0  0  0  0  0  0  0  0  0  0  0
  1  2  2  0  0  0  0
  1  3  1  0  0  0  0
  1  7  1  0  0  0  0
  3  4  1  0  0  0  0
  3  5  1  0  0  0  0
  3  6  1  0  0  0  0
  7  8  1  0  0  0  0
  7 12  1  0  0  0  0
  8  9  1  0  0  0  0
  8 11  1  0  0  0  0
  8 13  1  0  0  0  0
  9 10  2  0  0  0  0
  9 17  1  0  0  0  0
 11 14  1  0  0  0  0
 11 15  1  0  0  0  0
 11 16  1  0  0  0  0
 17 18  1  0  0  0  0
 17 28  1  0  0  0  0
 18 19  1  0  0  0  0
 18 21  1  0  0  0  0
 18 29  1  0  0  0  0
 19 20  2  0  0  0  0
 19 37  1  0  0  0  0
 21 22  1  0  0  0  0
 21 30  1  0  0  0  0
 21 31  1  0  0  0  0
 22 23  1  0  0  0  0
 22 24  2  0  0  0  0
 23 25  2  0  0  0  0
 23 32  1  0  0  0  0
 24 26  1  0  0  0  0
 24 33  1  0  0  0  0
 25 27  1  0  0  0  0
 25 34  1  0  0  0  0
 26 27  2  0  0  0  0
 26 35  1  0  0  0  0
 27 36  1  0  0  0  0
 37 38  1  0  0  0  0
 37 42  1  0  0  0  0
 38 39  1  0  0  0  0
 38 41  1  0  0  0  0
 38 43  1  0  0  0  0
 39 40  2  0  0  0  0
 39 47  1  0  0  0  0
 41 44  1  0  0  0  0
 41 45  1  0  0  0  0
 41 46  1  0  0  0  0
 47 48  1  0  0  0  0
 47 49  1  0  0  0  0
 48 50  1  0  0  0  0
 48 51  1  0  0  0  0
 48 52  1  0  0  0  0
M  END
$$$$

  -OEChem-05262217163D

 52 52  0     1  0  0  0  0  0999 V2000
   -3.3920    0.5373    4.4141 C   0  0  0  0  0  0  0  0  0  0  0  0
   -4.3075    1.1823    3.9273 O   0  0  0  0  0  0  0  0  0  0  0  0
   -3.5900   -0.1914    5.7299 C   0  0  0  0  0  0  0  0  0  0  0  0
   -4.5819    0.0265    6.1359 H   0  0  0  0  0  0  0  0  0  0  0  0
   -3.5005   -1.2696    5.5764 H   0  0  0  0  0  0  0  0  0  0  0  0
   -2.8360    0.1314    6.4520 H   0  0  0  0  0  0  0  0  0  0  0  0
   -2.1783    0.4650    3.7645 N   0  0  0  0  0  0  0  0  0  0  0  0
   -1.9097    1.0350    2.4382 C   0  0  2  0  0  0  0  0  0  0  0  0
   -0.7977    0.2643    1.6962 C   0  0  0  0  0  0  0  0  0  0  0  0
   -0.1845   -0.6385    2.2590 O   0  0  0  0  0  0  0  0  0  0  0  0
   -1.5090    2.5042    2.6117 C   0  0  0  0  0  0  0  0  0  0  0  0
   -1.4792   -0.1749    4.1405 H   0  0  0  0  0  0  0  0  0  0  0  0
   -2.8148    0.9759    1.8242 H   0  0  0  0  0  0  0  0  0  0  0  0
   -0.5931    2.5816    3.2068 H   0  0  0  0  0  0  0  0  0  0  0  0
   -1.3320    2.9741    1.6398 H   0  0  0  0  0  0  0  0  0  0  0  0
   -2.3040    3.0584    3.1207 H   0  0  0  0  0  0  0  0  0  0  0  0
   -0.5406    0.5235    0.3604 N   0  0  0  0  0  0  0  0  0  0  0  0
    0.7628    0.2776   -0.2866 C   0  0  2  0  0  0  0  0  0  0  0  0
    1.9969    0.4154    0.6380 C   0  0  0  0  0  0  0  0  0  0  0  0
    2.0902    1.3772    1.3964 O   0  0  0  0  0  0  0  0  0  0  0  0
    0.9255    1.2819   -1.4419 C   0  0  0  0  0  0  0  0  0  0  0  0
   -0.0706    1.0148   -2.5447 C   0  0  0  0  0  0  0  0  0  0  0  0
    0.1717    0.0094   -3.4927 C   0  0  0  0  0  0  0  0  0  0  0  0
   -1.2471    1.7743   -2.6415 C   0  0  0  0  0  0  0  0  0  0  0  0
   -0.7527   -0.2425   -4.5122 C   0  0  0  0  0  0  0  0  0  0  0  0
   -2.1731    1.5215   -3.6591 C   0  0  0  0  0  0  0  0  0  0  0  0
   -1.9271    0.5115   -4.5940 C   0  0  0  0  0  0  0  0  0  0  0  0
   -1.1145    1.2513   -0.0542 H   0  0  0  0  0  0  0  0  0  0  0  0
    0.7621   -0.7429   -0.6812 H   0  0  0  0  0  0  0  0  0  0  0  0
    1.9368    1.2087   -1.8563 H   0  0  0  0  0  0  0  0  0  0  0  0
    0.8095    2.3033   -1.0629 H   0  0  0  0  0  0  0  0  0  0  0  0
    1.0806   -0.5821   -3.4421 H   0  0  0  0  0  0  0  0  0  0  0  0
   -1.4463    2.5703   -1.9307 H   0  0  0  0  0  0  0  0  0  0  0  0
   -0.5580   -1.0230   -5.2422 H   0  0  0  0  0  0  0  0  0  0  0  0
   -3.0821    2.1125   -3.7265 H   0  0  0  0  0  0  0  0  0  0  0  0
   -2.6456    0.3159   -5.3853 H   0  0  0  0  0  0  0  0  0  0  0  0
    3.1321   -0.3392    0.4006 N   0  0  0  0  0  0  0  0  0  0  0  0
    4.3781   -0.2171    1.1732 C   0  0  2  0  0  0  0  0  0  0  0  0
    5.2632    0.9581    0.6908 C   0  0  0  0  0  0  0  0  0  0  0  0
    6.3952    0.7790    0.2572 O   0  0  0  0  0  0  0  0  0  0  0  0
    5.0942   -1.5717    1.1021 C   0  0  0  0  0  0  0  0  0  0  0  0
    3.0559   -1.1003   -0.2672 H   0  0  0  0  0  0  0  0  0  0  0  0
    4.1359   -0.0251    2.2243 H   0  0  0  0  0  0  0  0  0  0  0  0
    5.3669   -1.8112    0.0692 H   0  0  0  0  0  0  0  0  0  0  0  0
    6.0085   -1.5487    1.7040 H   0  0  0  0  0  0  0  0  0  0  0  0
    4.4479   -2.3658    1.4885 H   0  0  0  0  0  0  0  0  0  0  0  0
    4.7604    2.2427    0.7424 N   0  0  0  0  0  0  0  0  0  0  0  0
    5.4890    3.4256    0.3074 C   0  0  0  0  0  0  0  0  0  0  0  0
    3.8003    2.3359    1.0855 H   0  0  0  0  0  0  0  0  0  0  0  0
    6.3899    3.5638    0.9141 H   0  0  0  0  0  0  0  0  0  0  0  0
    5.7812    3.3297   -0.7435 H   0  0  0  0  0  0  0  0  0  0  0  0
    4.8605    4.3151    0.4125 H   0  0  0  0  0  0  0  0  0  0  0  0
  1  2  2  0  0  0  0
  1  3  1  0  0  0  0
  1  7  1  0  0  0  0
  3  4  1  0  0  0  0
  3  5  1  0  0  0  0
  3  6  1  0  0  0  0
  7  8  1  0  0  0  0
  7 12  1  0  0  0  0
  8  9  1  0  0  0  0
  8 11  1  0  0  0  0
  8 13  1  0  0  0  0
  9 10  2  0  0  0  0
  9 17  1  0  0  0  0
 11 14  1  0  0  0  0
 11 15  1  0  0  0  0
 11 16  1  0  0  0  0
 17 18  1  0  0  0  0
 17 28  1  0  0  0  0
 18 19  1  0  0  0  0
 18 21  1  0  0  0  0
 18 29  1  0  0  0  0
 19 20  2  0  0  0  0
 19 37  1  0  0  0  0
 21 22  1  0  0  0  0
 21 30  1  0  0  0  0
 21 31  1  0  0  0  0
 22 23  1  0  0  0  0
 22 24  2  0  0  0  0
 23 25  2  0  0  0  0
 23 32  1  0  0  0  0
 24 26  1  0  0  0  0
 24 33  1  0  0  0  0
 25 27  1  0  0  0  0
 25 34  1  0  0  0  0
 26 27  2  0  0  0  0
 26 35  1  0  0  0  0
 27 36  1  0  0  0  0
 37 38  1  0  0  0  0
 37 42  1  0  0  0  0
 38 39  1  0  0  0  0
 38 41  1  0  0  0  0
 38 43  1  0  0  0  0
 39 40  2  0  0  0  0
 39 47  1  0  0  0  0
 41 44  1  0  0  0  0
 41 45  1  0  0  0  0
 41 46  1  0  0  0  0
 47 48  1  0  0  0  0
 47 49  1  0  0  0  0
 48 50  1  0  0  0  0
 48 51  1  0  0  0  0
 48 52  1  0  0  0  0
M  END
$$$$

  -OEChem-05262217163D

 52 52  0     1  0  0  0  0  0999 V2000
   -3.3083    0.5317    4.4647 C   0  0  0  0  0  0  0  0  0  0  0  0
   -4.1998    1.2407    4.0245 O   0  0  0  0  0  0  0  0  0  0  0  0
   -3.5213   -0.2532    5.7457 C   0  0  0  0  0  0  0  0  0  0  0  0
   -4.4804    0.0161    6.1971 H   0  0  0  0  0  0  0  0  0  0  0  0
   -3.5204   -1.3248    5.5313 H   0  0  0  0  0  0  0  0  0  0  0  0
   -2.7232   -0.0309    6.4583 H   0  0  0  0  0  0  0  0  0  0  0  0
   -2.1105    0.4321    3.7903 N   0  0  0  0  0  0  0  0  0  0  0  0
   -1.8422    1.0307    2.4768 C   0  0  2  0  0  0  0  0  0  0  0  0
   -0.7868    0.2245    1.6915 C   0  0  0  0  0  0  0  0  0  0  0  0
   -0.2245   -0.7356    2.2110 O   0  0  0  0  0  0  0  0  0  0  0  0
   -1.3629    2.4714    2.6856 C   0  0  0  0  0  0  0  0  0  0  0  0
   -1.4387   -0.2590    4.1231 H   0  0  0  0  0  0  0  0  0  0  0  0
   -2.7613    1.0363    1.8811 H   0  0  0  0  0  0  0  0  0  0  0  0
   -0.4314    2.4840    3.2611 H   0  0  0  0  0  0  0  0  0  0  0  0
   -1.1834    2.9624    1.7245 H   0  0  0  0  0  0  0  0  0  0  0  0
   -2.1174    3.0479    3.2302 H   0  0  0  0  0  0  0  0  0  0  0  0
   -0.5348    0.5039    0.3588 N   0  0  0  0  0  0  0  0  0  0  0  0
    0.7654    0.2481   -0.2941 C   0  0  2  0  0  0  0  0  0  0  0  0
    2.0151    0.3497    0.6184 C   0  0  0  0  0  0  0  0  0  0  0  0
    2.0567    1.1826    1.5205 O   0  0  0  0  0  0  0  0  0  0  0  0
    0.9311    1.2684   -1.4368 C   0  0  0  0  0  0  0  0  0  0  0  0
   -0.0734    1.0277   -2.5380 C   0  0  0  0  0  0  0  0  0  0  0  0
    0.1546    0.0338   -3.5016 C   0  0  0  0  0  0  0  0  0  0  0  0
   -1.2396    1.8046   -2.6231 C   0  0  0  0  0  0  0  0  0  0  0  0
   -0.7750   -0.1926   -4.5222 C   0  0  0  0  0  0  0  0  0  0  0  0
   -2.1702    1.5783   -3.6431 C   0  0  0  0  0  0  0  0  0  0  0  0
   -1.9395    0.5776   -4.5916 C   0  0  0  0  0  0  0  0  0  0  0  0
   -1.0816    1.2677   -0.0259 H   0  0  0  0  0  0  0  0  0  0  0  0
    0.7474   -0.7670   -0.7026 H   0  0  0  0  0  0  0  0  0  0  0  0
    1.9373    1.1933   -1.8626 H   0  0  0  0  0  0  0  0  0  0  0  0
    0.8287    2.2848   -1.0413 H   0  0  0  0  0  0  0  0  0  0  0  0
    1.0556   -0.5705   -3.4613 H   0  0  0  0  0  0  0  0  0  0  0  0
   -1.4281    2.5941   -1.9020 H   0  0  0  0  0  0  0  0  0  0  0  0
   -0.5916   -0.9661   -5.2624 H   0  0  0  0  0  0  0  0  0  0  0  0
   -3.0712    2.1826   -3.7018 H   0  0  0  0  0  0  0  0  0  0  0  0
   -2.6615    0.4019   -5.3840 H   0  0  0  0  0  0  0  0  0  0  0  0
    3.2220   -0.1738    0.1863 N   0  0  0  0  0  0  0  0  0  0  0  0
    4.5080    0.0338    0.8703 C   0  0  2  0  0  0  0  0  0  0  0  0
    5.1568    1.3926    0.5099 C   0  0  0  0  0  0  0  0  0  0  0  0
    6.2425    1.4616   -0.0539 O   0  0  0  0  0  0  0  0  0  0  0  0
    5.4057   -1.1629    0.5332 C   0  0  0  0  0  0  0  0  0  0  0  0
    3.2072   -0.7703   -0.6354 H   0  0  0  0  0  0  0  0  0  0  0  0
    4.3482    0.0316    1.9542 H   0  0  0  0  0  0  0  0  0  0  0  0
    5.6083   -1.2031   -0.5420 H   0  0  0  0  0  0  0  0  0  0  0  0
    6.3608   -1.0794    1.0620 H   0  0  0  0  0  0  0  0  0  0  0  0
    4.9248   -2.0980    0.8363 H   0  0  0  0  0  0  0  0  0  0  0  0
    4.4882    2.5589    0.8222 N   0  0  0  0  0  0  0  0  0  0  0  0
    4.9951    3.8940    0.5405 C   0  0  0  0  0  0  0  0  0  0  0  0
    3.5706    2.4466    1.2619 H   0  0  0  0  0  0  0  0  0  0  0  0
    5.9337    4.0670    1.0770 H   0  0  0  0  0  0  0  0  0  0  0  0
    5.1733    4.0173   -0.5327 H   0  0  0  0  0  0  0  0  0  0  0  0
    4.2696    4.6480    0.8604 H   0  0  0  0  0  0  0  0  0  0  0  0
  1  2  2  0  0  0  0
  1  3  1  0  0  0  0
  1  7  1  0  0  0  0
  3  4  1  0  0  0  0
  3  5  1  0  0  0  0
  3  6  1  0  0  0  0
  7  8  1  0  0  0  0
  7 12  1  0  0  0  0
  8  9  1  0  0  0  0
  8 11  1  0  0  0  0
  8 13  1  0  0  0  0
  9 10  2  0  0  0  0
  9 17  1  0  0  0  0
 11 14  1  0  0  0  0
 11 15  1  0  0  0  0
 11 16  1  0  0  0  0
 17 18  1  0  0  0  0
 17 28  1  0  0  0  0
 18 19  1  0  0  0  0
 18 21  1  0  0  0  0
 18 29  1  0  0  0  0
 19 20  2  0  0  0  0
 19 37  1  0  0  0  0
 21 22  1  0  0  0  0
 21 30  1  0  0  0  0
 21 31  1  0  0  0  0
 22 23  1  0  0  0  0
 22 24  2  0  0  0  0
 23 25  2  0  0  0  0
 23 32  1  0  0  0  0
 24 26  1  0  0  0  0
 24 33  1  0  0  0  0
 25 27  1  0  0  0  0
 25 34  1  0  0  0  0
 26 27  2  0  0  0  0
 26 35  1  0  0  0  0
 27 36  1  0  0  0  0
 37 38  1  0  0  0  0
 37 42  1  0  0  0  0
 38 39  1  0  0  0  0
 38 41  1  0  0  0  0
 38 43  1  0  0  0  0
 39 40  2  0  0  0  0
 39 47  1  0  0  0  0
 41 44  1  0  0  0  0
 41 45  1  0  0  0  0
 41 46  1  0  0  0  0
 47 48  1  0  0  0  0
 47 49  1  0  0  0  0
 48 50  1  0  0  0  0
 48 51  1  0  0  0  0
 48 52  1  0  0  0  0
M  END
$$$$

  -OEChem-05262217163D

 52 52  0     1  0  0  0  0  0999 V2000
   -2.8491   -0.0957    4.1539 C   0  0  0  0  0  0  0  0  0  0  0  0
   -3.5210   -0.8407    3.4573 O   0  0  0  0  0  0  0  0  0  0  0  0
   -2.6432   -0.4096    5.6240 C   0  0  0  0  0  0  0  0  0  0  0  0
   -3.1593   -1.3368    5.8881 H   0  0  0  0  0  0  0  0  0  0  0  0
   -1.5773   -0.5278    5.8344 H   0  0  0  0  0  0  0  0  0  0  0  0
   -3.0406    0.4020    6.2382 H   0  0  0  0  0  0  0  0  0  0  0  0
   -2.2667    1.0292    3.6091 N   0  0  0  0  0  0  0  0  0  0  0  0
   -2.1826    1.2958    2.1672 C   0  0  2  0  0  0  0  0  0  0  0  0
   -0.7205    1.5234    1.7338 C   0  0  0  0  0  0  0  0  0  0  0  0
    0.0440    2.0755    2.5130 O   0  0  0  0  0  0  0  0  0  0  0  0
   -3.0384    2.5281    1.8632 C   0  0  0  0  0  0  0  0  0  0  0  0
   -1.5766    1.5041    4.1902 H   0  0  0  0  0  0  0  0  0  0  0  0
   -2.5674    0.4457    1.5939 H   0  0  0  0  0  0  0  0  0  0  0  0
   -2.6643    3.3989    2.4116 H   0  0  0  0  0  0  0  0  0  0  0  0
   -3.0184    2.7557    0.7931 H   0  0  0  0  0  0  0  0  0  0  0  0
   -4.0768    2.3487    2.1595 H   0  0  0  0  0  0  0  0  0  0  0  0
   -0.3757    1.3784    0.4012 N   0  0  0  0  0  0  0  0  0  0  0  0
    0.8472    0.7630   -0.1740 C   0  0  2  0  0  0  0  0  0  0  0  0
    2.1166    0.4634    0.6775 C   0  0  0  0  0  0  0  0  0  0  0  0
    2.1054    0.3553    1.8939 O   0  0  0  0  0  0  0  0  0  0  0  0
    1.2307    1.6912   -1.3474 C   0  0  0  0  0  0  0  0  0  0  0  0
    0.1898    1.6225   -2.4418 C   0  0  0  0  0  0  0  0  0  0  0  0
    0.1960    0.5701   -3.3702 C   0  0  0  0  0  0  0  0  0  0  0  0
   -0.8066    2.6067   -2.5333 C   0  0  0  0  0  0  0  0  0  0  0  0
   -0.7851    0.4974   -4.3651 C   0  0  0  0  0  0  0  0  0  0  0  0
   -1.7875    2.5349   -3.5279 C   0  0  0  0  0  0  0  0  0  0  0  0
   -1.7782    1.4784   -4.4431 C   0  0  0  0  0  0  0  0  0  0  0  0
   -1.1931    1.2433   -0.1881 H   0  0  0  0  0  0  0  0  0  0  0  0
    0.5580   -0.2148   -0.5705 H   0  0  0  0  0  0  0  0  0  0  0  0
    2.1954    1.4075   -1.7776 H   0  0  0  0  0  0  0  0  0  0  0  0
    1.3362    2.7186   -0.9810 H   0  0  0  0  0  0  0  0  0  0  0  0
    0.9607   -0.1993   -3.3235 H   0  0  0  0  0  0  0  0  0  0  0  0
   -0.8210    3.4328   -1.8273 H   0  0  0  0  0  0  0  0  0  0  0  0
   -0.7758   -0.3213   -5.0790 H   0  0  0  0  0  0  0  0  0  0  0  0
   -2.5550    3.3012   -3.5910 H   0  0  0  0  0  0  0  0  0  0  0  0
   -2.5393    1.4223   -5.2163 H   0  0  0  0  0  0  0  0  0  0  0  0
    3.2182   -0.1092    0.0579 N   0  0  0  0  0  0  0  0  0  0  0  0
    4.4085   -0.6066    0.7699 C   0  0  2  0  0  0  0  0  0  0  0  0
    5.2916    0.5413    1.3197 C   0  0  0  0  0  0  0  0  0  0  0  0
    6.4280    0.7336    0.9030 O   0  0  0  0  0  0  0  0  0  0  0  0
    5.1652   -1.5288   -0.1943 C   0  0  0  0  0  0  0  0  0  0  0  0
    3.2661   -0.0463   -0.9540 H   0  0  0  0  0  0  0  0  0  0  0  0
    4.0962   -1.2109    1.6287 H   0  0  0  0  0  0  0  0  0  0  0  0
    5.5092   -0.9718   -1.0719 H   0  0  0  0  0  0  0  0  0  0  0  0
    6.0387   -1.9612    0.3045 H   0  0  0  0  0  0  0  0  0  0  0  0
    4.5186   -2.3464   -0.5276 H   0  0  0  0  0  0  0  0  0  0  0  0
    4.7769    1.3832    2.2853 N   0  0  0  0  0  0  0  0  0  0  0  0
    5.4818    2.5393    2.8195 C   0  0  0  0  0  0  0  0  0  0  0  0
    3.7943    1.2341    2.5361 H   0  0  0  0  0  0  0  0  0  0  0  0
    6.4167    2.2296    3.2978 H   0  0  0  0  0  0  0  0  0  0  0  0
    5.7120    3.2507    2.0197 H   0  0  0  0  0  0  0  0  0  0  0  0
    4.8626    3.0450    3.5667 H   0  0  0  0  0  0  0  0  0  0  0  0
  1  2  2  0  0  0  0
  1  3  1  0  0  0  0
  1  7  1  0  0  0  0
  3  4  1  0  0  0  0
  3  5  1  0  0  0  0
  3  6  1  0  0  0  0
  7  8  1  0  0  0  0
  7 12  1  0  0  0  0
  8  9  1  0  0  0  0
  8 11  1  0  0  0  0
  8 13  1  0  0  0  0
  9 10  2  0  0  0  0
  9 17  1  0  0  0  0
 11 14  1  0  0  0  0
 11 15  1  0  0  0  0
 11 16  1  0  0  0  0
 17 18  1  0  0  0  0
 17 28  1  0  0  0  0
 18 19  1  0  0  0  0
 18 21  1  0  0  0  0
 18 29  1  0  0  0  0
 19 20  2  0  0  0  0
 19 37  1  0  0  0  0
 21 22  1  0  0  0  0
 21 30  1  0  0  0  0
 21 31  1  0  0  0  0
 22 23  1  0  0  0  0
 22 24  2  0  0  0  0
 23 25  2  0  0  0  0
 23 32  1  0  0  0  0
 24 26  1  0  0  0  0
 24 33  1  0  0  0  0
 25 27  1  0  0  0  0
 25 34  1  0  0  0  0
 26 27  2  0  0  0  0
 26 35  1  0  0  0  0
 27 36  1  0  0  0  0
 37 38  1  0  0  0  0
 37 42  1  0  0  0  0
 38 39  1  0  0  0  0
 38 41  1  0  0  0  0
 38 43  1  0  0  0  0
 39 40  2  0  0  0  0
 39 47  1  0  0  0  0
 41 44  1  0  0  0  0
 41 45  1  0  0  0  0
 41 46  1  0  0  0  0
 47 48  1  0  0  0  0
 47 49  1  0  0  0  0
 48 50  1  0  0  0  0
 48 51  1  0  0  0  0
 48 52  1  0  0  0  0
M  END
$$$$

  -OEChem-05262217163D

 52 52  0     1  0  0  0  0  0999 V2000
   -2.8312    0.0062    4.2271 C   0  0  0  0  0  0  0  0  0  0  0  0
   -3.6692   -0.6026    3.5803 O   0  0  0  0  0  0  0  0  0  0  0  0
   -2.5956   -0.3416    5.6847 C   0  0  0  0  0  0  0  0  0  0  0  0
   -3.2440   -1.1694    5.9846 H   0  0  0  0  0  0  0  0  0  0  0  0
   -1.5546   -0.6382    5.8342 H   0  0  0  0  0  0  0  0  0  0  0  0
   -2.8144    0.5237    6.3146 H   0  0  0  0  0  0  0  0  0  0  0  0
   -2.0887    1.0042    3.6326 N   0  0  0  0  0  0  0  0  0  0  0  0
   -2.0682    1.2667    2.1882 C   0  0  2  0  0  0  0  0  0  0  0  0
   -0.6269    1.4819    1.6851 C   0  0  0  0  0  0  0  0  0  0  0  0
    0.1968    1.9865    2.4380 O   0  0  0  0  0  0  0  0  0  0  0  0
   -2.9305    2.5016    1.9144 C   0  0  0  0  0  0  0  0  0  0  0  0
   -1.3086    1.3806    4.1708 H   0  0  0  0  0  0  0  0  0  0  0  0
   -2.4804    0.4120    1.6415 H   0  0  0  0  0  0  0  0  0  0  0  0
   -2.5286    3.3732    2.4412 H   0  0  0  0  0  0  0  0  0  0  0  0
   -2.9568    2.7228    0.8431 H   0  0  0  0  0  0  0  0  0  0  0  0
   -3.9559    2.3292    2.2567 H   0  0  0  0  0  0  0  0  0  0  0  0
   -0.3449    1.3588    0.3353 N   0  0  0  0  0  0  0  0  0  0  0  0
    0.8717    0.7798   -0.2874 C   0  0  2  0  0  0  0  0  0  0  0  0
    2.1515    0.5334    0.5649 C   0  0  0  0  0  0  0  0  0  0  0  0
    2.0692    0.0746    1.6967 O   0  0  0  0  0  0  0  0  0  0  0  0
    1.1777    1.7080   -1.4838 C   0  0  0  0  0  0  0  0  0  0  0  0
    0.0959    1.5967   -2.5334 C   0  0  0  0  0  0  0  0  0  0  0  0
    0.0996    0.5347   -3.4507 C   0  0  0  0  0  0  0  0  0  0  0  0
   -0.9291    2.5530   -2.6008 C   0  0  0  0  0  0  0  0  0  0  0  0
   -0.9127    0.4232   -4.4098 C   0  0  0  0  0  0  0  0  0  0  0  0
   -1.9404    2.4433   -3.5607 C   0  0  0  0  0  0  0  0  0  0  0  0
   -1.9339    1.3764   -4.4640 C   0  0  0  0  0  0  0  0  0  0  0  0
   -1.1830    1.2117   -0.2213 H   0  0  0  0  0  0  0  0  0  0  0  0
    0.6100   -0.2128   -0.6669 H   0  0  0  0  0  0  0  0  0  0  0  0
    2.1265    1.4447   -1.9580 H   0  0  0  0  0  0  0  0  0  0  0  0
    1.2695    2.7417   -1.1324 H   0  0  0  0  0  0  0  0  0  0  0  0
    0.8868   -0.2129   -3.4213 H   0  0  0  0  0  0  0  0  0  0  0  0
   -0.9420    3.3871   -1.9046 H   0  0  0  0  0  0  0  0  0  0  0  0
   -0.9055   -0.4033   -5.1147 H   0  0  0  0  0  0  0  0  0  0  0  0
   -2.7292    3.1889   -3.6073 H   0  0  0  0  0  0  0  0  0  0  0  0
   -2.7196    1.2900   -5.2093 H   0  0  0  0  0  0  0  0  0  0  0  0
    3.3723    0.2983   -0.0517 N   0  0  0  0  0  0  0  0  0  0  0  0
    4.5855   -0.1513    0.6542 C   0  0  2  0  0  0  0  0  0  0  0  0
    5.1914    0.9521    1.5579 C   0  0  0  0  0  0  0  0  0  0  0  0
    6.3018    1.4224    1.3389 O   0  0  0  0  0  0  0  0  0  0  0  0
    5.5705   -0.6533   -0.4089 C   0  0  0  0  0  0  0  0  0  0  0  0
    3.4851    0.6531   -0.9956 H   0  0  0  0  0  0  0  0  0  0  0  0
    4.3395   -0.9983    1.3038 H   0  0  0  0  0  0  0  0  0  0  0  0
    5.8615    0.1605   -1.0809 H   0  0  0  0  0  0  0  0  0  0  0  0
    6.4739   -1.0457    0.0689 H   0  0  0  0  0  0  0  0  0  0  0  0
    5.1182   -1.4543   -1.0011 H   0  0  0  0  0  0  0  0  0  0  0  0
    4.4535    1.4358    2.6201 N   0  0  0  0  0  0  0  0  0  0  0  0
    4.8762    2.5374    3.4726 C   0  0  0  0  0  0  0  0  0  0  0  0
    3.4952    1.0816    2.7008 H   0  0  0  0  0  0  0  0  0  0  0  0
    5.8365    2.3087    3.9460 H   0  0  0  0  0  0  0  0  0  0  0  0
    4.9804    3.4565    2.8870 H   0  0  0  0  0  0  0  0  0  0  0  0
    4.1355    2.7084    4.2597 H   0  0  0  0  0  0  0  0  0  0  0  0
  1  2  2  0  0  0  0
  1  3  1  0  0  0  0
  1  7  1  0  0  0  0
  3  4  1  0  0  0  0
  3  5  1  0  0  0  0
  3  6  1  0  0  0  0
  7  8  1  0  0  0  0
  7 12  1  0  0  0  0
  8  9  1  0  0  0  0
  8 11  1  0  0  0  0
  8 13  1  0  0  0  0
  9 10  2  0  0  0  0
  9 17  1  0  0  0  0
 11 14  1  0  0  0  0
 11 15  1  0  0  0  0
 11 16  1  0  0  0  0
 17 18  1  0  0  0  0
 17 28  1  0  0  0  0
 18 19  1  0  0  0  0
 18 21  1  0  0  0  0
 18 29  1  0  0  0  0
 19 20  2  0  0  0  0
 19 37  1  0  0  0  0
 21 22  1  0  0  0  0
 21 30  1  0  0  0  0
 21 31  1  0  0  0  0
 22 23  1  0  0  0  0
 22 24  2  0  0  0  0
 23 25  2  0  0  0  0
 23 32  1  0  0  0  0
 24 26  1  0  0  0  0
 24 33  1  0  0  0  0
 25 27  1  0  0  0  0
 25 34  1  0  0  0  0
 26 27  2  0  0  0  0
 26 35  1  0  0  0  0
 27 36  1  0  0  0  0
 37 38  1  0  0  0  0
 37 42  1  0  0  0  0
 38 39  1  0  0  0  0
 38 41  1  0  0  0  0
 38 43  1  0  0  0  0
 39 40  2  0  0  0  0
 39 47  1  0  0  0  0
 41 44  1  0  0  0  0
 41 45  1  0  0  0  0
 41 46  1  0  0  0  0
 47 48  1  0  0  0  0
 47 49  1  0  0  0  0
 48 50  1  0  0  0  0
 48 51  1  0  0  0  0
 48 52  1  0  0  0  0
M  END
$$$$

  -OEChem-05262217163D

 52 52  0     1  0  0  0  0  0999 V2000
   -2.8575    0.0365    4.2680 C   0  0  0  0  0  0  0  0  0  0  0  0
   -3.7889   -0.4364    3.6353 O   0  0  0  0  0  0  0  0  0  0  0  0
   -2.6712   -0.3192    5.7309 C   0  0  0  0  0  0  0  0  0  0  0  0
   -3.4544   -1.0110    6.0532 H   0  0  0  0  0  0  0  0  0  0  0  0
   -1.6985   -0.7950    5.8783 H   0  0  0  0  0  0  0  0  0  0  0  0
   -2.7243    0.5838    6.3436 H   0  0  0  0  0  0  0  0  0  0  0  0
   -1.9718    0.8951    3.6525 N   0  0  0  0  0  0  0  0  0  0  0  0
   -1.9630    1.1807    2.2128 C   0  0  2  0  0  0  0  0  0  0  0  0
   -0.5264    1.3571    1.6816 C   0  0  0  0  0  0  0  0  0  0  0  0
    0.3501    1.7488    2.4434 O   0  0  0  0  0  0  0  0  0  0  0  0
   -2.7906    2.4458    1.9700 C   0  0  0  0  0  0  0  0  0  0  0  0
   -1.1445    1.1725    4.1801 H   0  0  0  0  0  0  0  0  0  0  0  0
   -2.4113    0.3442    1.6658 H   0  0  0  0  0  0  0  0  0  0  0  0
   -2.3528    3.2968    2.5019 H   0  0  0  0  0  0  0  0  0  0  0  0
   -2.8278    2.6827    0.9025 H   0  0  0  0  0  0  0  0  0  0  0  0
   -3.8153    2.3009    2.3273 H   0  0  0  0  0  0  0  0  0  0  0  0
   -0.2901    1.2906    0.3178 N   0  0  0  0  0  0  0  0  0  0  0  0
    0.9153    0.7612   -0.3661 C   0  0  2  0  0  0  0  0  0  0  0  0
    2.2028    0.5280    0.4734 C   0  0  0  0  0  0  0  0  0  0  0  0
    2.1386   -0.1775    1.4730 O   0  0  0  0  0  0  0  0  0  0  0  0
    1.1658    1.7140   -1.5551 C   0  0  0  0  0  0  0  0  0  0  0  0
    0.0505    1.5948   -2.5679 C   0  0  0  0  0  0  0  0  0  0  0  0
    0.0434    0.5462   -3.5005 C   0  0  0  0  0  0  0  0  0  0  0  0
   -0.9982    2.5274   -2.5818 C   0  0  0  0  0  0  0  0  0  0  0  0
   -1.0023    0.4240   -4.4219 C   0  0  0  0  0  0  0  0  0  0  0  0
   -2.0435    2.4064   -3.5035 C   0  0  0  0  0  0  0  0  0  0  0  0
   -2.0470    1.3529   -4.4223 C   0  0  0  0  0  0  0  0  0  0  0  0
   -1.1438    1.1736   -0.2224 H   0  0  0  0  0  0  0  0  0  0  0  0
    0.6700   -0.2302   -0.7596 H   0  0  0  0  0  0  0  0  0  0  0  0
    2.1013    1.4659   -2.0643 H   0  0  0  0  0  0  0  0  0  0  0  0
    1.2535    2.7445   -1.1938 H   0  0  0  0  0  0  0  0  0  0  0  0
    0.8483   -0.1831   -3.5113 H   0  0  0  0  0  0  0  0  0  0  0  0
   -1.0045    3.3515   -1.8738 H   0  0  0  0  0  0  0  0  0  0  0  0
   -1.0037   -0.3931   -5.1377 H   0  0  0  0  0  0  0  0  0  0  0  0
   -2.8522    3.1317   -3.5075 H   0  0  0  0  0  0  0  0  0  0  0  0
   -2.8585    1.2582   -5.1383 H   0  0  0  0  0  0  0  0  0  0  0  0
    3.4719    0.6425   -0.0741 N   0  0  0  0  0  0  0  0  0  0  0  0
    4.7058    0.3099    0.6608 C   0  0  2  0  0  0  0  0  0  0  0  0
    5.0183    1.3340    1.7822 C   0  0  0  0  0  0  0  0  0  0  0  0
    6.0551    1.9875    1.7817 O   0  0  0  0  0  0  0  0  0  0  0  0
    5.8340    0.1916   -0.3716 C   0  0  0  0  0  0  0  0  0  0  0  0
    3.5620    1.2452   -0.8856 H   0  0  0  0  0  0  0  0  0  0  0  0
    4.5956   -0.6678    1.1426 H   0  0  0  0  0  0  0  0  0  0  0  0
    5.9990    1.1493   -0.8755 H   0  0  0  0  0  0  0  0  0  0  0  0
    6.7664   -0.1053    0.1194 H   0  0  0  0  0  0  0  0  0  0  0  0
    5.5857   -0.5634   -1.1236 H   0  0  0  0  0  0  0  0  0  0  0  0
    4.0939    1.5438    2.7872 N   0  0  0  0  0  0  0  0  0  0  0  0
    4.2339    2.5502    3.8292 C   0  0  0  0  0  0  0  0  0  0  0  0
    3.2102    1.0312    2.7064 H   0  0  0  0  0  0  0  0  0  0  0  0
    5.1102    2.3382    4.4503 H   0  0  0  0  0  0  0  0  0  0  0  0
    4.3446    3.5462    3.3881 H   0  0  0  0  0  0  0  0  0  0  0  0
    3.3464    2.5521    4.4695 H   0  0  0  0  0  0  0  0  0  0  0  0
  1  2  2  0  0  0  0
  1  3  1  0  0  0  0
  1  7  1  0  0  0  0
  3  4  1  0  0  0  0
  3  5  1  0  0  0  0
  3  6  1  0  0  0  0
  7  8  1  0  0  0  0
  7 12  1  0  0  0  0
  8  9  1  0  0  0  0
  8 11  1  0  0  0  0
  8 13  1  0  0  0  0
  9 10  2  0  0  0  0
  9 17  1  0  0  0  0
 11 14  1  0  0  0  0
 11 15  1  0  0  0  0
 11 16  1  0  0  0  0
 17 18  1  0  0  0  0
 17 28  1  0  0  0  0
 18 19  1  0  0  0  0
 18 21  1  0  0  0  0
 18 29  1  0  0  0  0
 19 20  2  0  0  0  0
 19 37  1  0  0  0  0
 21 22  1  0  0  0  0
 21 30  1  0  0  0  0
 21 31  1  0  0  0  0
 22 23  1  0  0  0  0
 22 24  2  0  0  0  0
 23 25  2  0  0  0  0
 23 32  1  0  0  0  0
 24 26  1  0  0  0  0
 24 33  1  0  0  0  0
 25 27  1  0  0  0  0
 25 34  1  0  0  0  0
 26 27  2  0  0  0  0
 26 35  1  0  0  0  0
 27 36  1  0  0  0  0
 37 38  1  0  0  0  0
 37 42  1  0  0  0  0
 38 39  1  0  0  0  0
 38 41  1  0  0  0  0
 38 43  1  0  0  0  0
 39 40  2  0  0  0  0
 39 47  1  0  0  0  0
 41 44  1  0  0  0  0
 41 45  1  0  0  0  0
 41 46  1  0  0  0  0
 47 48  1  0  0  0  0
 47 49  1  0  0  0  0
 48 50  1  0  0  0  0
 48 51  1  0  0  0  0
 48 52  1  0  0  0  0
M  END
$$$$

  -OEChem-05262217163D

 52 52  0     1  0  0  0  0  0999 V2000
   -2.9422    0.0820    4.2901 C   0  0  0  0  0  0  0  0  0  0  0  0
   -3.9378   -0.2472    3.6644 O   0  0  0  0  0  0  0  0  0  0  0  0
   -2.7977   -0.3002    5.7512 C   0  0  0  0  0  0  0  0  0  0  0  0
   -3.6854   -0.8426    6.0886 H   0  0  0  0  0  0  0  0  0  0  0  0
   -1.9218   -0.9398    5.8851 H   0  0  0  0  0  0  0  0  0  0  0  0
   -2.6809    0.5983    6.3620 H   0  0  0  0  0  0  0  0  0  0  0  0
   -1.9452    0.8017    3.6668 N   0  0  0  0  0  0  0  0  0  0  0  0
   -1.9183    1.1132    2.2325 C   0  0  2  0  0  0  0  0  0  0  0  0
   -0.4730    1.1969    1.6981 C   0  0  0  0  0  0  0  0  0  0  0  0
    0.4395    1.4338    2.4812 O   0  0  0  0  0  0  0  0  0  0  0  0
   -2.6558    2.4381    2.0128 C   0  0  0  0  0  0  0  0  0  0  0  0
   -1.0833    0.9614    4.1877 H   0  0  0  0  0  0  0  0  0  0  0  0
   -2.4270    0.3193    1.6747 H   0  0  0  0  0  0  0  0  0  0  0  0
   -2.1593    3.2469    2.5584 H   0  0  0  0  0  0  0  0  0  0  0  0
   -2.6777    2.6954    0.9498 H   0  0  0  0  0  0  0  0  0  0  0  0
   -3.6880    2.3602    2.3690 H   0  0  0  0  0  0  0  0  0  0  0  0
   -0.2530    1.1785    0.3287 N   0  0  0  0  0  0  0  0  0  0  0  0
    0.9522    0.7089   -0.3975 C   0  0  2  0  0  0  0  0  0  0  0  0
    2.2529    0.4937    0.4222 C   0  0  0  0  0  0  0  0  0  0  0  0
    2.2668   -0.3774    1.2836 O   0  0  0  0  0  0  0  0  0  0  0  0
    1.1635    1.7016   -1.5603 C   0  0  0  0  0  0  0  0  0  0  0  0
    0.0401    1.5925   -2.5640 C   0  0  0  0  0  0  0  0  0  0  0  0
    0.0434    0.5750   -3.5300 C   0  0  0  0  0  0  0  0  0  0  0  0
   -1.0230    2.5086   -2.5407 C   0  0  0  0  0  0  0  0  0  0  0  0
   -1.0044    0.4687   -4.4508 C   0  0  0  0  0  0  0  0  0  0  0  0
   -2.0708    2.4033   -3.4615 C   0  0  0  0  0  0  0  0  0  0  0  0
   -2.0624    1.3819   -4.4159 C   0  0  0  0  0  0  0  0  0  0  0  0
   -1.1115    1.1140   -0.2133 H   0  0  0  0  0  0  0  0  0  0  0  0
    0.7312   -0.2779   -0.8172 H   0  0  0  0  0  0  0  0  0  0  0  0
    2.0971    1.4822   -2.0873 H   0  0  0  0  0  0  0  0  0  0  0  0
    1.2363    2.7231   -1.1709 H   0  0  0  0  0  0  0  0  0  0  0  0
    0.8592   -0.1411   -3.5694 H   0  0  0  0  0  0  0  0  0  0  0  0
   -1.0368    3.3098   -1.8071 H   0  0  0  0  0  0  0  0  0  0  0  0
   -0.9960   -0.3233   -5.1944 H   0  0  0  0  0  0  0  0  0  0  0  0
   -2.8899    3.1168   -3.4395 H   0  0  0  0  0  0  0  0  0  0  0  0
   -2.8749    1.3002   -5.1326 H   0  0  0  0  0  0  0  0  0  0  0  0
    3.4923    0.9423   -0.0058 N   0  0  0  0  0  0  0  0  0  0  0  0
    4.7303    0.7293    0.7633 C   0  0  2  0  0  0  0  0  0  0  0  0
    4.7897    1.6244    2.0276 C   0  0  0  0  0  0  0  0  0  0  0  0
    5.6937    2.4355    2.1925 O   0  0  0  0  0  0  0  0  0  0  0  0
    5.9068    0.9614   -0.1940 C   0  0  0  0  0  0  0  0  0  0  0  0
    3.4861    1.7078   -0.6725 H   0  0  0  0  0  0  0  0  0  0  0  0
    4.7821   -0.3105    1.1042 H   0  0  0  0  0  0  0  0  0  0  0  0
    5.9076    1.9918   -0.5636 H   0  0  0  0  0  0  0  0  0  0  0  0
    6.8556    0.7784    0.3208 H   0  0  0  0  0  0  0  0  0  0  0  0
    5.8420    0.2815   -1.0489 H   0  0  0  0  0  0  0  0  0  0  0  0
    3.7787    1.5472    2.9666 N   0  0  0  0  0  0  0  0  0  0  0  0
    3.6598    2.4434    4.1071 C   0  0  0  0  0  0  0  0  0  0  0  0
    2.9908    0.9317    2.7406 H   0  0  0  0  0  0  0  0  0  0  0  0
    3.5300    3.4768    3.7695 H   0  0  0  0  0  0  0  0  0  0  0  0
    2.7925    2.1643    4.7131 H   0  0  0  0  0  0  0  0  0  0  0  0
    4.5543    2.3859    4.7361 H   0  0  0  0  0  0  0  0  0  0  0  0
  1  2  2  0  0  0  0
  1  3  1  0  0  0  0
  1  7  1  0  0  0  0
  3  4  1  0  0  0  0
  3  5  1  0  0  0  0
  3  6  1  0  0  0  0
  7  8  1  0  0  0  0
  7 12  1  0  0  0  0
  8  9  1  0  0  0  0
  8 11  1  0  0  0  0
  8 13  1  0  0  0  0
  9 10  2  0  0  0  0
  9 17  1  0  0  0  0
 11 14  1  0  0  0  0
 11 15  1  0  0  0  0
 11 16  1  0  0  0  0
 17 18  1  0  0  0  0
 17 28  1  0  0  0  0
 18 19  1  0  0  0  0
 18 21  1  0  0  0  0
 18 29  1  0  0  0  0
 19 20  2  0  0  0  0
 19 37  1  0  0  0  0
 21 22  1  0  0  0  0
 21 30  1  0  0  0  0
 21 31  1  0  0  0  0
 22 23  1  0  0  0  0
 22 24  2  0  0  0  0
 23 25  2  0  0  0  0
 23 32  1  0  0  0  0
 24 26  1  0  0  0  0
 24 33  1  0  0  0  0
 25 27  1  0  0  0  0
 25 34  1  0  0  0  0
 26 27  2  0  0  0  0
 26 35  1  0  0  0  0
 27 36  1  0  0  0  0
 37 38  1  0  0  0  0
 37 42  1  0  0  0  0
 38 39  1  0  0  0  0
 38 41  1  0  0  0  0
 38 43  1  0  0  0  0
 39 40  2  0  0  0  0
 39 47  1  0  0  0  0
 41 44  1  0  0  0  0
 41 45  1  0  0  0  0
 41 46  1  0  0  0  0
 47 48  1  0  0  0  0
 47 49  1  0  0  0  0
 48 50  1  0  0  0  0
 48 51  1  0  0  0  0
 48 52  1  0  0  0  0
M  END
$$$$

  -OEChem-05262217163D

 52 52  0     1  0  0  0  0  0999 V2000
   -3.0132    0.0583    4.2884 C   0  0  0  0  0  0  0  0  0  0  0  0
   -4.0355   -0.1689    3.6603 O   0  0  0  0  0  0  0  0  0  0  0  0
   -2.8961   -0.3767    5.7371 C   0  0  0  0  0  0  0  0  0  0  0  0
   -3.8433   -0.8025    6.0800 H   0  0  0  0  0  0  0  0  0  0  0  0
   -2.1136   -1.1330    5.8363 H   0  0  0  0  0  0  0  0  0  0  0  0
   -2.6473    0.4809    6.3673 H   0  0  0  0  0  0  0  0  0  0  0  0
   -1.9590    0.7024    3.6759 N   0  0  0  0  0  0  0  0  0  0  0  0
   -1.9060    1.0256    2.2445 C   0  0  2  0  0  0  0  0  0  0  0  0
   -0.4567    1.0335    1.7127 C   0  0  0  0  0  0  0  0  0  0  0  0
    0.4700    1.1315    2.5083 O   0  0  0  0  0  0  0  0  0  0  0  0
   -2.5667    2.3917    2.0302 C   0  0  0  0  0  0  0  0  0  0  0  0
   -1.0849    0.7754    4.1961 H   0  0  0  0  0  0  0  0  0  0  0  0
   -2.4558    0.2658    1.6785 H   0  0  0  0  0  0  0  0  0  0  0  0
   -2.0258    3.1689    2.5797 H   0  0  0  0  0  0  0  0  0  0  0  0
   -2.5735    2.6548    0.9684 H   0  0  0  0  0  0  0  0  0  0  0  0
   -3.6021    2.3721    2.3847 H   0  0  0  0  0  0  0  0  0  0  0  0
   -0.2419    1.0638    0.3422 N   0  0  0  0  0  0  0  0  0  0  0  0
    0.9771    0.6842   -0.4104 C   0  0  2  0  0  0  0  0  0  0  0  0
    2.2940    0.5211    0.3919 C   0  0  0  0  0  0  0  0  0  0  0  0
    2.4319   -0.4644    1.1047 O   0  0  0  0  0  0  0  0  0  0  0  0
    1.1311    1.7218   -1.5414 C   0  0  0  0  0  0  0  0  0  0  0  0
    0.0093    1.5926   -2.5433 C   0  0  0  0  0  0  0  0  0  0  0  0
    0.0579    0.6085   -3.5417 C   0  0  0  0  0  0  0  0  0  0  0  0
   -1.0972    2.4540   -2.4859 C   0  0  0  0  0  0  0  0  0  0  0  0
   -0.9868    0.4816   -4.4631 C   0  0  0  0  0  0  0  0  0  0  0  0
   -2.1422    2.3280   -3.4070 C   0  0  0  0  0  0  0  0  0  0  0  0
   -2.0876    1.3410   -4.3956 C   0  0  0  0  0  0  0  0  0  0  0  0
   -1.0982    1.0460   -0.2070 H   0  0  0  0  0  0  0  0  0  0  0  0
    0.8043   -0.2997   -0.8590 H   0  0  0  0  0  0  0  0  0  0  0  0
    2.0749    1.5624   -2.0735 H   0  0  0  0  0  0  0  0  0  0  0  0
    1.1549    2.7332   -1.1211 H   0  0  0  0  0  0  0  0  0  0  0  0
    0.9079   -0.0648   -3.6059 H   0  0  0  0  0  0  0  0  0  0  0  0
   -1.1485    3.2288   -1.7263 H   0  0  0  0  0  0  0  0  0  0  0  0
   -0.9422   -0.2840   -5.2324 H   0  0  0  0  0  0  0  0  0  0  0  0
   -2.9951    2.9990   -3.3574 H   0  0  0  0  0  0  0  0  0  0  0  0
   -2.8978    1.2435   -5.1129 H   0  0  0  0  0  0  0  0  0  0  0  0
    3.4234    1.2839    0.1440 N   0  0  0  0  0  0  0  0  0  0  0  0
    4.6673    1.1548    0.9209 C   0  0  2  0  0  0  0  0  0  0  0  0
    4.5737    1.8626    2.2962 C   0  0  0  0  0  0  0  0  0  0  0  0
    5.4239    2.6698    2.6540 O   0  0  0  0  0  0  0  0  0  0  0  0
    5.8057    1.6904    0.0433 C   0  0  0  0  0  0  0  0  0  0  0  0
    3.2805    2.1464   -0.3719 H   0  0  0  0  0  0  0  0  0  0  0  0
    4.8744    0.0981    1.1213 H   0  0  0  0  0  0  0  0  0  0  0  0
    5.6613    2.7543   -0.1692 H   0  0  0  0  0  0  0  0  0  0  0  0
    6.7671    1.5666    0.5522 H   0  0  0  0  0  0  0  0  0  0  0  0
    5.8455    1.1446   -0.9042 H   0  0  0  0  0  0  0  0  0  0  0  0
    3.4952    1.6197    3.1257 N   0  0  0  0  0  0  0  0  0  0  0  0
    3.2779    2.2965    4.3957 C   0  0  0  0  0  0  0  0  0  0  0  0
    2.7720    0.9827    2.7775 H   0  0  0  0  0  0  0  0  0  0  0  0
    3.2417    3.3812    4.2513 H   0  0  0  0  0  0  0  0  0  0  0  0
    2.3283    1.9746    4.8337 H   0  0  0  0  0  0  0  0  0  0  0  0
    4.0834    2.0591    5.0980 H   0  0  0  0  0  0  0  0  0  0  0  0
  1  2  2  0  0  0  0
  1  3  1  0  0  0  0
  1  7  1  0  0  0  0
  3  4  1  0  0  0  0
  3  5  1  0  0  0  0
  3  6  1  0  0  0  0
  7  8  1  0  0  0  0
  7 12  1  0  0  0  0
  8  9  1  0  0  0  0
  8 11  1  0  0  0  0
  8 13  1  0  0  0  0
  9 10  2  0  0  0  0
  9 17  1  0  0  0  0
 11 14  1  0  0  0  0
 11 15  1  0  0  0  0
 11 16  1  0  0  0  0
 17 18  1  0  0  0  0
 17 28  1  0  0  0  0
 18 19  1  0  0  0  0
 18 21  1  0  0  0  0
 18 29  1  0  0  0  0
 19 20  2  0  0  0  0
 19 37  1  0  0  0  0
 21 22  1  0  0  0  0
 21 30  1  0  0  0  0
 21 31  1  0  0  0  0
 22 23  1  0  0  0  0
 22 24  2  0  0  0  0
 23 25  2  0  0  0  0
 23 32  1  0  0  0  0
 24 26  1  0  0  0  0
 24 33  1  0  0  0  0
 25 27  1  0  0  0  0
 25 34  1  0  0  0  0
 26 27  2  0  0  0  0
 26 35  1  0  0  0  0
 27 36  1  0  0  0  0
 37 38  1  0  0  0  0
 37 42  1  0  0  0  0
 38 39  1  0  0  0  0
 38 41  1  0  0  0  0
 38 43  1  0  0  0  0
 39 40  2  0  0  0  0
 39 47  1  0  0  0  0
 41 44  1  0  0  0  0
 41 45  1  0  0  0  0
 41 46  1  0  0  0  0
 47 48  1  0  0  0  0
 47 49  1  0  0  0  0
 48 50  1  0  0  0  0
 48 51  1  0  0  0  0
 48 52  1  0  0  0  0
M  END
$$$$

  -OEChem-05262217163D

 52 52  0     1  0  0  0  0  0999 V2000
   -3.0860    0.0426    4.2588 C   0  0  0  0  0  0  0  0  0  0  0  0
   -4.1125   -0.1201    3.6180 O   0  0  0  0  0  0  0  0  0  0  0  0
   -3.0074   -0.4142    5.7034 C   0  0  0  0  0  0  0  0  0  0  0  0
   -3.9692   -0.8266    6.0217 H   0  0  0  0  0  0  0  0  0  0  0  0
   -2.2410   -1.1859    5.8089 H   0  0  0  0  0  0  0  0  0  0  0  0
   -2.7555    0.4303    6.3495 H   0  0  0  0  0  0  0  0  0  0  0  0
   -1.9923    0.6364    3.6655 N   0  0  0  0  0  0  0  0  0  0  0  0
   -1.9112    0.9882    2.2421 C   0  0  2  0  0  0  0  0  0  0  0  0
   -0.4627    0.9188    1.7128 C   0  0  0  0  0  0  0  0  0  0  0  0
    0.4641    0.8835    2.5120 O   0  0  0  0  0  0  0  0  0  0  0  0
   -2.4826    2.3986    2.0598 C   0  0  0  0  0  0  0  0  0  0  0  0
   -1.1207    0.6511    4.1942 H   0  0  0  0  0  0  0  0  0  0  0  0
   -2.5058    0.2786    1.6564 H   0  0  0  0  0  0  0  0  0  0  0  0
   -1.8960    3.1252    2.6313 H   0  0  0  0  0  0  0  0  0  0  0  0
   -2.4668    2.6887    1.0052 H   0  0  0  0  0  0  0  0  0  0  0  0
   -3.5195    2.4359    2.4093 H   0  0  0  0  0  0  0  0  0  0  0  0
   -0.2439    0.9810    0.3445 N   0  0  0  0  0  0  0  0  0  0  0  0
    1.0011    0.7141   -0.4114 C   0  0  2  0  0  0  0  0  0  0  0  0
    2.3278    0.6545    0.3864 C   0  0  0  0  0  0  0  0  0  0  0  0
    2.6534   -0.3971    0.9207 O   0  0  0  0  0  0  0  0  0  0  0  0
    1.0794    1.7669   -1.5347 C   0  0  0  0  0  0  0  0  0  0  0  0
   -0.0244    1.5542   -2.5429 C   0  0  0  0  0  0  0  0  0  0  0  0
    0.1064    0.5819   -3.5458 C   0  0  0  0  0  0  0  0  0  0  0  0
   -1.1959    2.3255   -2.4880 C   0  0  0  0  0  0  0  0  0  0  0  0
   -0.9221    0.3757   -4.4715 C   0  0  0  0  0  0  0  0  0  0  0  0
   -2.2246    2.1201   -3.4136 C   0  0  0  0  0  0  0  0  0  0  0  0
   -2.0883    1.1439   -4.4049 C   0  0  0  0  0  0  0  0  0  0  0  0
   -1.0928    1.0018   -0.2159 H   0  0  0  0  0  0  0  0  0  0  0  0
    0.9089   -0.2767   -0.8690 H   0  0  0  0  0  0  0  0  0  0  0  0
    2.0406    1.6865   -2.0542 H   0  0  0  0  0  0  0  0  0  0  0  0
    1.0181    2.7750   -1.1110 H   0  0  0  0  0  0  0  0  0  0  0  0
    1.0077   -0.0213   -3.6094 H   0  0  0  0  0  0  0  0  0  0  0  0
   -1.3104    3.0931   -1.7280 H   0  0  0  0  0  0  0  0  0  0  0  0
   -0.8147   -0.3814   -5.2430 H   0  0  0  0  0  0  0  0  0  0  0  0
   -3.1281    2.7215   -3.3663 H   0  0  0  0  0  0  0  0  0  0  0  0
   -2.8862    0.9842   -5.1248 H   0  0  0  0  0  0  0  0  0  0  0  0
    3.2560    1.6823    0.3597 N   0  0  0  0  0  0  0  0  0  0  0  0
    4.5263    1.6505    1.1030 C   0  0  2  0  0  0  0  0  0  0  0  0
    4.3483    2.0129    2.5989 C   0  0  0  0  0  0  0  0  0  0  0  0
    5.0558    2.8573    3.1367 O   0  0  0  0  0  0  0  0  0  0  0  0
    5.4998    2.5831    0.3706 C   0  0  0  0  0  0  0  0  0  0  0  0
    2.9300    2.5805    0.0176 H   0  0  0  0  0  0  0  0  0  0  0  0
    4.9485    0.6403    1.0711 H   0  0  0  0  0  0  0  0  0  0  0  0
    5.1406    3.6166    0.4011 H   0  0  0  0  0  0  0  0  0  0  0  0
    6.4876    2.5466    0.8413 H   0  0  0  0  0  0  0  0  0  0  0  0
    5.6064    2.2783   -0.6749 H   0  0  0  0  0  0  0  0  0  0  0  0
    3.3618    1.3973    3.3445 N   0  0  0  0  0  0  0  0  0  0  0  0
    3.0635    1.7284    4.7296 C   0  0  0  0  0  0  0  0  0  0  0  0
    2.7308    0.7639    2.8445 H   0  0  0  0  0  0  0  0  0  0  0  0
    3.9415    1.5601    5.3619 H   0  0  0  0  0  0  0  0  0  0  0  0
    2.7596    2.7766    4.8159 H   0  0  0  0  0  0  0  0  0  0  0  0
    2.2469    1.0989    5.0959 H   0  0  0  0  0  0  0  0  0  0  0  0
  1  2  2  0  0  0  0
  1  3  1  0  0  0  0
  1  7  1  0  0  0  0
  3  4  1  0  0  0  0
  3  5  1  0  0  0  0
  3  6  1  0  0  0  0
  7  8  1  0  0  0  0
  7 12  1  0  0  0  0
  8  9  1  0  0  0  0
  8 11  1  0  0  0  0
  8 13  1  0  0  0  0
  9 10  2  0  0  0  0
  9 17  1  0  0  0  0
 11 14  1  0  0  0  0
 11 15  1  0  0  0  0
 11 16  1  0  0  0  0
 17 18  1  0  0  0  0
 17 28  1  0  0  0  0
 18 19  1  0  0  0  0
 18 21  1  0  0  0  0
 18 29  1  0  0  0  0
 19 20  2  0  0  0  0
 19 37  1  0  0  0  0
 21 22  1  0  0  0  0
 21 30  1  0  0  0  0
 21 31  1  0  0  0  0
 22 23  1  0  0  0  0
 22 24  2  0  0  0  0
 23 25  2  0  0  0  0
 23 32  1  0  0  0  0
 24 26  1  0  0  0  0
 24 33  1  0  0  0  0
 25 27  1  0  0  0  0
 25 34  1  0  0  0  0
 26 27  2  0  0  0  0
 26 35  1  0  0  0  0
 27 36  1  0  0  0  0
 37 38  1  0  0  0  0
 37 42  1  0  0  0  0
 38 39  1  0  0  0  0
 38 41  1  0  0  0  0
 38 43  1  0  0  0  0
 39 40  2  0  0  0  0
 39 47  1  0  0  0  0
 41 44  1  0  0  0  0
 41 45  1  0  0  0  0
 41 46  1  0  0  0  0
 47 48  1  0  0  0  0
 47 49  1  0  0  0  0
 48 50  1  0  0  0  0
 48 51  1  0  0  0  0
 48 52  1  0  0  0  0
M  END
$$$$

  -OEChem-05262217163D

 52 52  0     1  0  0  0  0  0999 V2000
   -3.1420    0.0663    4.2266 C   0  0  0  0  0  0  0  0  0  0  0  0
   -4.1646   -0.0859    3.5772 O   0  0  0  0  0  0  0  0  0  0  0  0
   -3.0697   -0.4183    5.6624 C   0  0  0  0  0  0  0  0  0  0  0  0
   -4.0220   -0.8684    5.9568 H   0  0  0  0  0  0  0  0  0  0  0  0
   -2.2801   -1.1669    5.7645 H   0  0  0  0  0  0  0  0  0  0  0  0
   -2.8559    0.4206    6.3291 H   0  0  0  0  0  0  0  0  0  0  0  0
   -2.0462    0.6726    3.6503 N   0  0  0  0  0  0  0  0  0  0  0  0
   -1.9535    1.0391    2.2313 C   0  0  2  0  0  0  0  0  0  0  0  0
   -0.5044    0.9398    1.7091 C   0  0  0  0  0  0  0  0  0  0  0  0
    0.4148    0.8500    2.5115 O   0  0  0  0  0  0  0  0  0  0  0  0
   -2.4919    2.4640    2.0657 C   0  0  0  0  0  0  0  0  0  0  0  0
   -1.1762    0.6730    4.1822 H   0  0  0  0  0  0  0  0  0  0  0  0
   -2.5623    0.3516    1.6338 H   0  0  0  0  0  0  0  0  0  0  0  0
   -1.8947    3.1689    2.6528 H   0  0  0  0  0  0  0  0  0  0  0  0
   -2.4616    2.7695    1.0158 H   0  0  0  0  0  0  0  0  0  0  0  0
   -3.5302    2.5179    2.4086 H   0  0  0  0  0  0  0  0  0  0  0  0
   -0.2713    0.9870    0.3431 N   0  0  0  0  0  0  0  0  0  0  0  0
    0.9956    0.7603   -0.3881 C   0  0  2  0  0  0  0  0  0  0  0  0
    2.3118    0.7744    0.4267 C   0  0  0  0  0  0  0  0  0  0  0  0
    2.8023   -0.2857    0.7934 O   0  0  0  0  0  0  0  0  0  0  0  0
    1.0630    1.7964   -1.5257 C   0  0  0  0  0  0  0  0  0  0  0  0
   -0.0104    1.5281   -2.5528 C   0  0  0  0  0  0  0  0  0  0  0  0
    0.1773    0.5443   -3.5349 C   0  0  0  0  0  0  0  0  0  0  0  0
   -1.2108    2.2554   -2.5354 C   0  0  0  0  0  0  0  0  0  0  0  0
   -0.8238    0.2823   -4.4761 C   0  0  0  0  0  0  0  0  0  0  0  0
   -2.2128    1.9927   -3.4754 C   0  0  0  0  0  0  0  0  0  0  0  0
   -2.0203    1.0045   -4.4451 C   0  0  0  0  0  0  0  0  0  0  0  0
   -1.1096    1.0195   -0.2329 H   0  0  0  0  0  0  0  0  0  0  0  0
    0.9496   -0.2410   -0.8296 H   0  0  0  0  0  0  0  0  0  0  0  0
    2.0405    1.7421   -2.0179 H   0  0  0  0  0  0  0  0  0  0  0  0
    0.9562    2.8084   -1.1209 H   0  0  0  0  0  0  0  0  0  0  0  0
    1.1016   -0.0258   -3.5685 H   0  0  0  0  0  0  0  0  0  0  0  0
   -1.3704    3.0324   -1.7937 H   0  0  0  0  0  0  0  0  0  0  0  0
   -0.6717   -0.4829   -5.2319 H   0  0  0  0  0  0  0  0  0  0  0  0
   -3.1399    2.5584   -3.4557 H   0  0  0  0  0  0  0  0  0  0  0  0
   -2.7975    0.8005   -5.1763 H   0  0  0  0  0  0  0  0  0  0  0  0
    3.0321    1.9397    0.6300 N   0  0  0  0  0  0  0  0  0  0  0  0
    4.2951    1.9960    1.3839 C   0  0  2  0  0  0  0  0  0  0  0  0
    4.0725    1.9930    2.9165 C   0  0  0  0  0  0  0  0  0  0  0  0
    4.5057    2.8928    3.6280 O   0  0  0  0  0  0  0  0  0  0  0  0
    5.0650    3.2281    0.8919 C   0  0  0  0  0  0  0  0  0  0  0  0
    2.5355    2.8106    0.4707 H   0  0  0  0  0  0  0  0  0  0  0  0
    4.9013    1.1137    1.1515 H   0  0  0  0  0  0  0  0  0  0  0  0
    4.5121    4.1452    1.1187 H   0  0  0  0  0  0  0  0  0  0  0  0
    6.0424    3.2836    1.3821 H   0  0  0  0  0  0  0  0  0  0  0  0
    5.2250    3.1715   -0.1890 H   0  0  0  0  0  0  0  0  0  0  0  0
    3.3592    0.9623    3.4940 N   0  0  0  0  0  0  0  0  0  0  0  0
    2.9501    0.9504    4.8903 C   0  0  0  0  0  0  0  0  0  0  0  0
    2.8875    0.3299    2.8418 H   0  0  0  0  0  0  0  0  0  0  0  0
    3.8233    1.0148    5.5478 H   0  0  0  0  0  0  0  0  0  0  0  0
    2.2848    1.7940    5.0998 H   0  0  0  0  0  0  0  0  0  0  0  0
    2.4157    0.0225    5.1152 H   0  0  0  0  0  0  0  0  0  0  0  0
  1  2  2  0  0  0  0
  1  3  1  0  0  0  0
  1  7  1  0  0  0  0
  3  4  1  0  0  0  0
  3  5  1  0  0  0  0
  3  6  1  0  0  0  0
  7  8  1  0  0  0  0
  7 12  1  0  0  0  0
  8  9  1  0  0  0  0
  8 11  1  0  0  0  0
  8 13  1  0  0  0  0
  9 10  2  0  0  0  0
  9 17  1  0  0  0  0
 11 14  1  0  0  0  0
 11 15  1  0  0  0  0
 11 16  1  0  0  0  0
 17 18  1  0  0  0  0
 17 28  1  0  0  0  0
 18 19  1  0  0  0  0
 18 21  1  0  0  0  0
 18 29  1  0  0  0  0
 19 20  2  0  0  0  0
 19 37  1  0  0  0  0
 21 22  1  0  0  0  0
 21 30  1  0  0  0  0
 21 31  1  0  0  0  0
 22 23  1  0  0  0  0
 22 24  2  0  0  0  0
 23 25  2  0  0  0  0
 23 32  1  0  0  0  0
 24 26  1  0  0  0  0
 24 33  1  0  0  0  0
 25 27  1  0  0  0  0
 25 34  1  0  0  0  0
 26 27  2  0  0  0  0
 26 35  1  0  0  0  0
 27 36  1  0  0  0  0
 37 38  1  0  0  0  0
 37 42  1  0  0  0  0
 38 39  1  0  0  0  0
 38 41  1  0  0  0  0
 38 43  1  0  0  0  0
 39 40  2  0  0  0  0
 39 47  1  0  0  0  0
 41 44  1  0  0  0  0
 41 45  1  0  0  0  0
 41 46  1  0  0  0  0
 47 48  1  0  0  0  0
 47 49  1  0  0  0  0
 48 50  1  0  0  0  0
 48 51  1  0  0  0  0
 48 52  1  0  0  0  0
M  END
$$$$

  -OEChem-05262217163D

 52 52  0     1  0  0  0  0  0999 V2000
   -3.0809   -0.0898    4.0473 C   0  0  0  0  0  0  0  0  0  0  0  0
   -3.9386   -0.5121    3.2879 O   0  0  0  0  0  0  0  0  0  0  0  0
   -2.9595   -0.6587    5.4486 C   0  0  0  0  0  0  0  0  0  0  0  0
   -3.7058   -1.4429    5.6036 H   0  0  0  0  0  0  0  0  0  0  0  0
   -1.9645   -1.0871    5.5925 H   0  0  0  0  0  0  0  0  0  0  0  0
   -3.1190    0.1308    6.1869 H   0  0  0  0  0  0  0  0  0  0  0  0
   -2.2061    0.8923    3.6318 N   0  0  0  0  0  0  0  0  0  0  0  0
   -2.0545    1.3193    2.2333 C   0  0  2  0  0  0  0  0  0  0  0  0
   -0.6025    1.1438    1.7418 C   0  0  0  0  0  0  0  0  0  0  0  0
    0.3036    1.1015    2.5620 O   0  0  0  0  0  0  0  0  0  0  0  0
   -2.4792    2.7866    2.1429 C   0  0  0  0  0  0  0  0  0  0  0  0
   -1.4102    1.0682    4.2434 H   0  0  0  0  0  0  0  0  0  0  0  0
   -2.6971    0.7242    1.5758 H   0  0  0  0  0  0  0  0  0  0  0  0
   -1.8443    3.4096    2.7811 H   0  0  0  0  0  0  0  0  0  0  0  0
   -2.3990    3.1479    1.1131 H   0  0  0  0  0  0  0  0  0  0  0  0
   -3.5180    2.8986    2.4695 H   0  0  0  0  0  0  0  0  0  0  0  0
   -0.3442    1.0859    0.3811 N   0  0  0  0  0  0  0  0  0  0  0  0
    0.9340    0.7867   -0.3035 C   0  0  2  0  0  0  0  0  0  0  0  0
    2.2353    0.8420    0.5307 C   0  0  0  0  0  0  0  0  0  0  0  0
    2.8501   -0.1924    0.7606 O   0  0  0  0  0  0  0  0  0  0  0  0
    1.0596    1.7428   -1.5031 C   0  0  0  0  0  0  0  0  0  0  0  0
    0.0073    1.4340   -2.5409 C   0  0  0  0  0  0  0  0  0  0  0  0
    0.1942    0.3832   -3.4512 C   0  0  0  0  0  0  0  0  0  0  0  0
   -1.1706    2.1945   -2.6080 C   0  0  0  0  0  0  0  0  0  0  0  0
   -0.7875    0.0870   -4.4029 C   0  0  0  0  0  0  0  0  0  0  0  0
   -2.1518    1.8999   -3.5606 C   0  0  0  0  0  0  0  0  0  0  0  0
   -1.9616    0.8439   -4.4568 C   0  0  0  0  0  0  0  0  0  0  0  0
   -1.1706    1.0852   -0.2132 H   0  0  0  0  0  0  0  0  0  0  0  0
    0.8775   -0.2412   -0.6777 H   0  0  0  0  0  0  0  0  0  0  0  0
    2.0488    1.6317   -1.9607 H   0  0  0  0  0  0  0  0  0  0  0  0
    0.9708    2.7818   -1.1685 H   0  0  0  0  0  0  0  0  0  0  0  0
    1.1020   -0.2130   -3.4194 H   0  0  0  0  0  0  0  0  0  0  0  0
   -1.3272    3.0222   -1.9226 H   0  0  0  0  0  0  0  0  0  0  0  0
   -0.6373   -0.7307   -5.1020 H   0  0  0  0  0  0  0  0  0  0  0  0
   -3.0605    2.4933   -3.6089 H   0  0  0  0  0  0  0  0  0  0  0  0
   -2.7221    0.6145   -5.1980 H   0  0  0  0  0  0  0  0  0  0  0  0
    2.7942    2.0511    0.9078 N   0  0  0  0  0  0  0  0  0  0  0  0
    4.0164    2.1576    1.7192 C   0  0  2  0  0  0  0  0  0  0  0  0
    3.7566    1.8605    3.2165 C   0  0  0  0  0  0  0  0  0  0  0  0
    3.9171    2.7173    4.0791 O   0  0  0  0  0  0  0  0  0  0  0  0
    4.6044    3.5534    1.4791 C   0  0  0  0  0  0  0  0  0  0  0  0
    2.1572    2.8420    0.9159 H   0  0  0  0  0  0  0  0  0  0  0  0
    4.7522    1.4247    1.3715 H   0  0  0  0  0  0  0  0  0  0  0  0
    3.9098    4.3284    1.8185 H   0  0  0  0  0  0  0  0  0  0  0  0
    5.5449    3.6671    2.0279 H   0  0  0  0  0  0  0  0  0  0  0  0
    4.8057    3.7044    0.4141 H   0  0  0  0  0  0  0  0  0  0  0  0
    3.3301    0.5996    3.5820 N   0  0  0  0  0  0  0  0  0  0  0  0
    2.8477    0.2777    4.9167 C   0  0  0  0  0  0  0  0  0  0  0  0
    3.0563   -0.0066    2.8047 H   0  0  0  0  0  0  0  0  0  0  0  0
    3.6141    0.4979    5.6671 H   0  0  0  0  0  0  0  0  0  0  0  0
    1.9494    0.8598    5.1467 H   0  0  0  0  0  0  0  0  0  0  0  0
    2.5992   -0.7859    4.9793 H   0  0  0  0  0  0  0  0  0  0  0  0
  1  2  2  0  0  0  0
  1  3  1  0  0  0  0
  1  7  1  0  0  0  0
  3  4  1  0  0  0  0
  3  5  1  0  0  0  0
  3  6  1  0  0  0  0
  7  8  1  0  0  0  0
  7 12  1  0  0  0  0
  8  9  1  0  0  0  0
  8 11  1  0  0  0  0
  8 13  1  0  0  0  0
  9 10  2  0  0  0  0
  9 17  1  0  0  0  0
 11 14  1  0  0  0  0
 11 15  1  0  0  0  0
 11 16  1  0  0  0  0
 17 18  1  0  0  0  0
 17 28  1  0  0  0  0
 18 19  1  0  0  0  0
 18 21  1  0  0  0  0
 18 29  1  0  0  0  0
 19 20  2  0  0  0  0
 19 37  1  0  0  0  0
 21 22  1  0  0  0  0
 21 30  1  0  0  0  0
 21 31  1  0  0  0  0
 22 23  1  0  0  0  0
 22 24  2  0  0  0  0
 23 25  2  0  0  0  0
 23 32  1  0  0  0  0
 24 26  1  0  0  0  0
 24 33  1  0  0  0  0
 25 27  1  0  0  0  0
 25 34  1  0  0  0  0
 26 27  2  0  0  0  0
 26 35  1  0  0  0  0
 27 36  1  0  0  0  0
 37 38  1  0  0  0  0
 37 42  1  0  0  0  0
 38 39  1  0  0  0  0
 38 41  1  0  0  0  0
 38 43  1  0  0  0  0
 39 40  2  0  0  0  0
 39 47  1  0  0  0  0
 41 44  1  0  0  0  0
 41 45  1  0  0  0  0
 41 46  1  0  0  0  0
 47 48  1  0  0  0  0
 47 49  1  0  0  0  0
 48 50  1  0  0  0  0
 48 51  1  0  0  0  0
 48 52  1  0  0  0  0
M  END
$$$$

  -OEChem-05262217163D

 52 52  0     1  0  0  0  0  0999 V2000
   -3.0708   -0.1561    3.9276 C   0  0  0  0  0  0  0  0  0  0  0  0
   -3.7090   -0.7687    3.0862 O   0  0  0  0  0  0  0  0  0  0  0  0
   -2.9741   -0.6877    5.3449 C   0  0  0  0  0  0  0  0  0  0  0  0
   -3.5619   -1.6043    5.4454 H   0  0  0  0  0  0  0  0  0  0  0  0
   -1.9321   -0.9088    5.5888 H   0  0  0  0  0  0  0  0  0  0  0  0
   -3.3566    0.0547    6.0497 H   0  0  0  0  0  0  0  0  0  0  0  0
   -2.4128    1.0091    3.5924 N   0  0  0  0  0  0  0  0  0  0  0  0
   -2.1991    1.4481    2.2056 C   0  0  2  0  0  0  0  0  0  0  0  0
   -0.7340    1.2473    1.7653 C   0  0  0  0  0  0  0  0  0  0  0  0
    0.1491    1.2575    2.6106 O   0  0  0  0  0  0  0  0  0  0  0  0
   -2.5889    2.9255    2.1211 C   0  0  0  0  0  0  0  0  0  0  0  0
   -1.7346    1.3374    4.2774 H   0  0  0  0  0  0  0  0  0  0  0  0
   -2.8367    0.8829    1.5174 H   0  0  0  0  0  0  0  0  0  0  0  0
   -1.9623    3.5277    2.7869 H   0  0  0  0  0  0  0  0  0  0  0  0
   -2.4680    3.2964    1.0988 H   0  0  0  0  0  0  0  0  0  0  0  0
   -3.6354    3.0565    2.4146 H   0  0  0  0  0  0  0  0  0  0  0  0
   -0.4303    1.1324    0.4183 N   0  0  0  0  0  0  0  0  0  0  0  0
    0.8691    0.8099   -0.2169 C   0  0  2  0  0  0  0  0  0  0  0  0
    2.1615    0.8977    0.6293 C   0  0  0  0  0  0  0  0  0  0  0  0
    2.9295   -0.0570    0.6511 O   0  0  0  0  0  0  0  0  0  0  0  0
    1.0318    1.7275   -1.4407 C   0  0  0  0  0  0  0  0  0  0  0  0
    0.0124    1.3897   -2.5024 C   0  0  0  0  0  0  0  0  0  0  0  0
    0.2278    0.3120   -3.3737 C   0  0  0  0  0  0  0  0  0  0  0  0
   -1.1613    2.1487   -2.6316 C   0  0  0  0  0  0  0  0  0  0  0  0
   -0.7205   -0.0114   -4.3498 C   0  0  0  0  0  0  0  0  0  0  0  0
   -2.1100    1.8268   -3.6085 C   0  0  0  0  0  0  0  0  0  0  0  0
   -1.8905    0.7449   -4.4665 C   0  0  0  0  0  0  0  0  0  0  0  0
   -1.2379    1.0962   -0.2005 H   0  0  0  0  0  0  0  0  0  0  0  0
    0.8192   -0.2299   -0.5576 H   0  0  0  0  0  0  0  0  0  0  0  0
    2.0350    1.6016   -1.8634 H   0  0  0  0  0  0  0  0  0  0  0  0
    0.9374    2.7761   -1.1398 H   0  0  0  0  0  0  0  0  0  0  0  0
    1.1336   -0.2826   -3.2927 H   0  0  0  0  0  0  0  0  0  0  0  0
   -1.3386    2.9967   -1.9767 H   0  0  0  0  0  0  0  0  0  0  0  0
   -0.5469   -0.8501   -5.0180 H   0  0  0  0  0  0  0  0  0  0  0  0
   -3.0159    2.4186   -3.7051 H   0  0  0  0  0  0  0  0  0  0  0  0
   -2.6258    0.4938   -5.2259 H   0  0  0  0  0  0  0  0  0  0  0  0
    2.5517    2.0858    1.2219 N   0  0  0  0  0  0  0  0  0  0  0  0
    3.7679    2.2136    2.0398 C   0  0  2  0  0  0  0  0  0  0  0  0
    3.6040    1.5826    3.4450 C   0  0  0  0  0  0  0  0  0  0  0  0
    3.6718    2.2564    4.4674 O   0  0  0  0  0  0  0  0  0  0  0  0
    4.1239    3.7042    2.0924 C   0  0  0  0  0  0  0  0  0  0  0  0
    1.7759    2.6998    1.4583 H   0  0  0  0  0  0  0  0  0  0  0  0
    4.5966    1.6915    1.5499 H   0  0  0  0  0  0  0  0  0  0  0  0
    3.3254    4.2737    2.5786 H   0  0  0  0  0  0  0  0  0  0  0  0
    5.0490    3.8531    2.6582 H   0  0  0  0  0  0  0  0  0  0  0  0
    4.2701    4.0971    1.0817 H   0  0  0  0  0  0  0  0  0  0  0  0
    3.3893    0.2224    3.5449 N   0  0  0  0  0  0  0  0  0  0  0  0
    3.0465   -0.4491    4.7897 C   0  0  0  0  0  0  0  0  0  0  0  0
    3.2280   -0.2627    2.6591 H   0  0  0  0  0  0  0  0  0  0  0  0
    3.8289   -0.2912    5.5393 H   0  0  0  0  0  0  0  0  0  0  0  0
    2.0985   -0.0654    5.1806 H   0  0  0  0  0  0  0  0  0  0  0  0
    2.9431   -1.5252    4.6201 H   0  0  0  0  0  0  0  0  0  0  0  0
  1  2  2  0  0  0  0
  1  3  1  0  0  0  0
  1  7  1  0  0  0  0
  3  4  1  0  0  0  0
  3  5  1  0  0  0  0
  3  6  1  0  0  0  0
  7  8  1  0  0  0  0
  7 12  1  0  0  0  0
  8  9  1  0  0  0  0
  8 11  1  0  0  0  0
  8 13  1  0  0  0  0
  9 10  2  0  0  0  0
  9 17  1  0  0  0  0
 11 14  1  0  0  0  0
 11 15  1  0  0  0  0
 11 16  1  0  0  0  0
 17 18  1  0  0  0  0
 17 28  1  0  0  0  0
 18 19  1  0  0  0  0
 18 21  1  0  0  0  0
 18 29  1  0  0  0  0
 19 20  2  0  0  0  0
 19 37  1  0  0  0  0
 21 22  1  0  0  0  0
 21 30  1  0  0  0  0
 21 31  1  0  0  0  0
 22 23  1  0  0  0  0
 22 24  2  0  0  0  0
 23 25  2  0  0  0  0
 23 32  1  0  0  0  0
 24 26  1  0  0  0  0
 24 33  1  0  0  0  0
 25 27  1  0  0  0  0
 25 34  1  0  0  0  0
 26 27  2  0  0  0  0
 26 35  1  0  0  0  0
 27 36  1  0  0  0  0
 37 38  1  0  0  0  0
 37 42  1  0  0  0  0
 38 39  1  0  0  0  0
 38 41  1  0  0  0  0
 38 43  1  0  0  0  0
 39 40  2  0  0  0  0
 39 47  1  0  0  0  0
 41 44  1  0  0  0  0
 41 45  1  0  0  0  0
 41 46  1  0  0  0  0
 47 48  1  0  0  0  0
 47 49  1  0  0  0  0
 48 50  1  0  0  0  0
 48 51  1  0  0  0  0
 48 52  1  0  0  0  0
M  END
$$$$

  -OEChem-05262217163D

 52 52  0     1  0  0  0  0  0999 V2000
   -3.3572   -0.1048    3.8081 C   0  0  0  0  0  0  0  0  0  0  0  0
   -3.8884   -0.7556    2.9222 O   0  0  0  0  0  0  0  0  0  0  0  0
   -3.3821   -0.6070    5.2391 C   0  0  0  0  0  0  0  0  0  0  0  0
   -3.9113   -1.5624    5.2943 H   0  0  0  0  0  0  0  0  0  0  0  0
   -2.3615   -0.7489    5.6029 H   0  0  0  0  0  0  0  0  0  0  0  0
   -3.8926    0.1162    5.8796 H   0  0  0  0  0  0  0  0  0  0  0  0
   -2.7114    1.0780    3.5121 N   0  0  0  0  0  0  0  0  0  0  0  0
   -2.3886    1.4965    2.1398 C   0  0  2  0  0  0  0  0  0  0  0  0
   -0.9014    1.2626    1.8026 C   0  0  0  0  0  0  0  0  0  0  0  0
   -0.0748    1.2808    2.7029 O   0  0  0  0  0  0  0  0  0  0  0  0
   -2.7375    2.9803    2.0103 C   0  0  0  0  0  0  0  0  0  0  0  0
   -2.1114    1.4408    4.2502 H   0  0  0  0  0  0  0  0  0  0  0  0
   -2.9897    0.9378    1.4144 H   0  0  0  0  0  0  0  0  0  0  0  0
   -2.1425    3.5774    2.7091 H   0  0  0  0  0  0  0  0  0  0  0  0
   -2.5388    3.3329    0.9934 H   0  0  0  0  0  0  0  0  0  0  0  0
   -3.7978    3.1398    2.2299 H   0  0  0  0  0  0  0  0  0  0  0  0
   -0.5167    1.1209    0.4799 N   0  0  0  0  0  0  0  0  0  0  0  0
    0.8115    0.7975   -0.0955 C   0  0  2  0  0  0  0  0  0  0  0  0
    2.0961    0.8972    0.7642 C   0  0  0  0  0  0  0  0  0  0  0  0
    2.9982    0.0922    0.5636 O   0  0  0  0  0  0  0  0  0  0  0  0
    1.0069    1.7157   -1.3150 C   0  0  0  0  0  0  0  0  0  0  0  0
    0.0301    1.3681   -2.4124 C   0  0  0  0  0  0  0  0  0  0  0  0
    0.2885    0.2926   -3.2747 C   0  0  0  0  0  0  0  0  0  0  0  0
   -1.1457    2.1152   -2.5844 C   0  0  0  0  0  0  0  0  0  0  0  0
   -0.6195   -0.0396   -4.2854 C   0  0  0  0  0  0  0  0  0  0  0  0
   -2.0550    1.7829   -3.5943 C   0  0  0  0  0  0  0  0  0  0  0  0
   -1.7928    0.7039   -4.4441 C   0  0  0  0  0  0  0  0  0  0  0  0
   -1.2893    1.0914   -0.1824 H   0  0  0  0  0  0  0  0  0  0  0  0
    0.7757   -0.2444   -0.4322 H   0  0  0  0  0  0  0  0  0  0  0  0
    2.0246    1.6007   -1.7054 H   0  0  0  0  0  0  0  0  0  0  0  0
    0.8935    2.7633   -1.0171 H   0  0  0  0  0  0  0  0  0  0  0  0
    1.1972   -0.2923   -3.1602 H   0  0  0  0  0  0  0  0  0  0  0  0
   -1.3553    2.9617   -1.9374 H   0  0  0  0  0  0  0  0  0  0  0  0
   -0.4115   -0.8754   -4.9474 H   0  0  0  0  0  0  0  0  0  0  0  0
   -2.9633    2.3646   -3.7227 H   0  0  0  0  0  0  0  0  0  0  0  0
   -2.4971    0.4454   -5.2298 H   0  0  0  0  0  0  0  0  0  0  0  0
    2.3460    1.9755    1.5924 N   0  0  0  0  0  0  0  0  0  0  0  0
    3.5950    2.1476    2.3510 C   0  0  2  0  0  0  0  0  0  0  0  0
    3.6821    1.2171    3.5867 C   0  0  0  0  0  0  0  0  0  0  0  0
    3.8159    1.6605    4.7219 O   0  0  0  0  0  0  0  0  0  0  0  0
    3.6938    3.6336    2.7172 C   0  0  0  0  0  0  0  0  0  0  0  0
    1.4978    2.3553    2.0152 H   0  0  0  0  0  0  0  0  0  0  0  0
    4.4477    1.9048    1.7085 H   0  0  0  0  0  0  0  0  0  0  0  0
    2.8680    3.9224    3.3755 H   0  0  0  0  0  0  0  0  0  0  0  0
    4.6368    3.8355    3.2350 H   0  0  0  0  0  0  0  0  0  0  0  0
    3.6562    4.2523    1.8156 H   0  0  0  0  0  0  0  0  0  0  0  0
    3.6441   -0.1509    3.4019 N   0  0  0  0  0  0  0  0  0  0  0  0
    3.6689   -1.1227    4.4857 C   0  0  0  0  0  0  0  0  0  0  0  0
    3.4950   -0.4699    2.4415 H   0  0  0  0  0  0  0  0  0  0  0  0
    4.5926   -1.0260    5.0655 H   0  0  0  0  0  0  0  0  0  0  0  0
    2.8148   -0.9723    5.1542 H   0  0  0  0  0  0  0  0  0  0  0  0
    3.6189   -2.1385    4.0821 H   0  0  0  0  0  0  0  0  0  0  0  0
  1  2  2  0  0  0  0
  1  3  1  0  0  0  0
  1  7  1  0  0  0  0
  3  4  1  0  0  0  0
  3  5  1  0  0  0  0
  3  6  1  0  0  0  0
  7  8  1  0  0  0  0
  7 12  1  0  0  0  0
  8  9  1  0  0  0  0
  8 11  1  0  0  0  0
  8 13  1  0  0  0  0
  9 10  2  0  0  0  0
  9 17  1  0  0  0  0
 11 14  1  0  0  0  0
 11 15  1  0  0  0  0
 11 16  1  0  0  0  0
 17 18  1  0  0  0  0
 17 28  1  0  0  0  0
 18 19  1  0  0  0  0
 18 21  1  0  0  0  0
 18 29  1  0  0  0  0
 19 20  2  0  0  0  0
 19 37  1  0  0  0  0
 21 22  1  0  0  0  0
 21 30  1  0  0  0  0
 21 31  1  0  0  0  0
 22 23  1  0  0  0  0
 22 24  2  0  0  0  0
 23 25  2  0  0  0  0
 23 32  1  0  0  0  0
 24 26  1  0  0  0  0
 24 33  1  0  0  0  0
 25 27  1  0  0  0  0
 25 34  1  0  0  0  0
 26 27  2  0  0  0  0
 26 35  1  0  0  0  0
 27 36  1  0  0  0  0
 37 38  1  0  0  0  0
 37 42  1  0  0  0  0
 38 39  1  0  0  0  0
 38 41  1  0  0  0  0
 38 43  1  0  0  0  0
 39 40  2  0  0  0  0
 39 47  1  0  0  0  0
 41 44  1  0  0  0  0
 41 45  1  0  0  0  0
 41 46  1  0  0  0  0
 47 48  1  0  0  0  0
 47 49  1  0  0  0  0
 48 50  1  0  0  0  0
 48 51  1  0  0  0  0
 48 52  1  0  0  0  0
M  END
$$$$

  -OEChem-05262217163D

 52 52  0     1  0  0  0  0  0999 V2000
   -3.9785    0.2998    3.8598 C   0  0  0  0  0  0  0  0  0  0  0  0
   -4.8821    0.2369    3.0413 O   0  0  0  0  0  0  0  0  0  0  0  0
   -4.1868   -0.2209    5.2696 C   0  0  0  0  0  0  0  0  0  0  0  0
   -5.2032   -0.6089    5.3820 H   0  0  0  0  0  0  0  0  0  0  0  0
   -3.4777   -1.0254    5.4789 H   0  0  0  0  0  0  0  0  0  0  0  0
   -4.0360    0.5852    5.9916 H   0  0  0  0  0  0  0  0  0  0  0  0
   -2.7616    0.8372    3.4971 N   0  0  0  0  0  0  0  0  0  0  0  0
   -2.4093    1.2375    2.1282 C   0  0  2  0  0  0  0  0  0  0  0  0
   -0.9064    1.0388    1.8387 C   0  0  0  0  0  0  0  0  0  0  0  0
   -0.1285    0.9173    2.7737 O   0  0  0  0  0  0  0  0  0  0  0  0
   -2.8015    2.7059    1.9376 C   0  0  0  0  0  0  0  0  0  0  0  0
   -2.0000    0.7702    4.1719 H   0  0  0  0  0  0  0  0  0  0  0  0
   -2.9634    0.6211    1.4117 H   0  0  0  0  0  0  0  0  0  0  0  0
   -2.2567    3.3424    2.6423 H   0  0  0  0  0  0  0  0  0  0  0  0
   -2.5742    3.0368    0.9200 H   0  0  0  0  0  0  0  0  0  0  0  0
   -3.8748    2.8364    2.1095 H   0  0  0  0  0  0  0  0  0  0  0  0
   -0.4700    0.9829    0.5256 N   0  0  0  0  0  0  0  0  0  0  0  0
    0.8882    0.7959   -0.0434 C   0  0  2  0  0  0  0  0  0  0  0  0
    2.1765    0.9585    0.8064 C   0  0  0  0  0  0  0  0  0  0  0  0
    3.1953    0.3968    0.4195 O   0  0  0  0  0  0  0  0  0  0  0  0
    0.9992    1.7777   -1.2253 C   0  0  0  0  0  0  0  0  0  0  0  0
    0.0609    1.3854   -2.3416 C   0  0  0  0  0  0  0  0  0  0  0  0
    0.4204    0.3743   -3.2447 C   0  0  0  0  0  0  0  0  0  0  0  0
   -1.1767    2.0300   -2.4938 C   0  0  0  0  0  0  0  0  0  0  0  0
   -0.4496    0.0019   -4.2748 C   0  0  0  0  0  0  0  0  0  0  0  0
   -2.0474    1.6582   -3.5237 C   0  0  0  0  0  0  0  0  0  0  0  0
   -1.6846    0.6427   -4.4136 C   0  0  0  0  0  0  0  0  0  0  0  0
   -1.2153    1.0361   -0.1659 H   0  0  0  0  0  0  0  0  0  0  0  0
    0.9367   -0.2301   -0.4236 H   0  0  0  0  0  0  0  0  0  0  0  0
    2.0223    1.7759   -1.6181 H   0  0  0  0  0  0  0  0  0  0  0  0
    0.7890    2.7972   -0.8850 H   0  0  0  0  0  0  0  0  0  0  0  0
    1.3787   -0.1286   -3.1469 H   0  0  0  0  0  0  0  0  0  0  0  0
   -1.4644    2.8294   -1.8174 H   0  0  0  0  0  0  0  0  0  0  0  0
   -0.1642   -0.7841   -4.9684 H   0  0  0  0  0  0  0  0  0  0  0  0
   -3.0034    2.1615   -3.6376 H   0  0  0  0  0  0  0  0  0  0  0  0
   -2.3583    0.3552   -5.2161 H   0  0  0  0  0  0  0  0  0  0  0  0
    2.2788    1.8124    1.8878 N   0  0  0  0  0  0  0  0  0  0  0  0
    3.5123    2.0161    2.6640 C   0  0  2  0  0  0  0  0  0  0  0  0
    3.8210    0.8375    3.6204 C   0  0  0  0  0  0  0  0  0  0  0  0
    3.9194    0.9945    4.8320 O   0  0  0  0  0  0  0  0  0  0  0  0
    3.3634    3.3544    3.3980 C   0  0  0  0  0  0  0  0  0  0  0  0
    1.3943    1.9590    2.3784 H   0  0  0  0  0  0  0  0  0  0  0  0
    4.3636    2.1033    1.9807 H   0  0  0  0  0  0  0  0  0  0  0  0
    2.5255    3.3157    4.1017 H   0  0  0  0  0  0  0  0  0  0  0  0
    4.2757    3.5844    3.9577 H   0  0  0  0  0  0  0  0  0  0  0  0
    3.1834    4.1628    2.6830 H   0  0  0  0  0  0  0  0  0  0  0  0
    4.0202   -0.4220    3.0903 N   0  0  0  0  0  0  0  0  0  0  0  0
    4.2739   -1.6134    3.8875 C   0  0  0  0  0  0  0  0  0  0  0  0
    3.9016   -0.5070    2.0778 H   0  0  0  0  0  0  0  0  0  0  0  0
    5.1889   -1.4923    4.4764 H   0  0  0  0  0  0  0  0  0  0  0  0
    3.4377   -1.8024    4.5686 H   0  0  0  0  0  0  0  0  0  0  0  0
    4.3943   -2.4842    3.2361 H   0  0  0  0  0  0  0  0  0  0  0  0
  1  2  2  0  0  0  0
  1  3  1  0  0  0  0
  1  7  1  0  0  0  0
  3  4  1  0  0  0  0
  3  5  1  0  0  0  0
  3  6  1  0  0  0  0
  7  8  1  0  0  0  0
  7 12  1  0  0  0  0
  8  9  1  0  0  0  0
  8 11  1  0  0  0  0
  8 13  1  0  0  0  0
  9 10  2  0  0  0  0
  9 17  1  0  0  0  0
 11 14  1  0  0  0  0
 11 15  1  0  0  0  0
 11 16  1  0  0  0  0
 17 18  1  0  0  0  0
 17 28  1  0  0  0  0
 18 19  1  0  0  0  0
 18 21  1  0  0  0  0
 18 29  1  0  0  0  0
 19 20  2  0  0  0  0
 19 37  1  0  0  0  0
 21 22  1  0  0  0  0
 21 30  1  0  0  0  0
 21 31  1  0  0  0  0
 22 23  1  0  0  0  0
 22 24  2  0  0  0  0
 23 25  2  0  0  0  0
 23 32  1  0  0  0  0
 24 26  1  0  0  0  0
 24 33  1  0  0  0  0
 25 27  1  0  0  0  0
 25 34  1  0  0  0  0
 26 27  2  0  0  0  0
 26 35  1  0  0  0  0
 27 36  1  0  0  0  0
 37 38  1  0  0  0  0
 37 42  1  0  0  0  0
 38 39  1  0  0  0  0
 38 41  1  0  0  0  0
 38 43  1  0  0  0  0
 39 40  2  0  0  0  0
 39 47  1  0  0  0  0
 41 44  1  0  0  0  0
 41 45  1  0  0  0  0
 41 46  1  0  0  0  0
 47 48  1  0  0  0  0
 47 49  1  0  0  0  0
 48 50  1  0  0  0  0
 48 51  1  0  0  0  0
 48 52  1  0  0  0  0
M  END
$$$$

  -OEChem-05262217163D

 52 52  0     1  0  0  0  0  0999 V2000
   -4.1734    0.4168    3.7752 C   0  0  0  0  0  0  0  0  0  0  0  0
   -5.0521    0.4213    2.9278 O   0  0  0  0  0  0  0  0  0  0  0  0
   -4.4591   -0.1078    5.1697 C   0  0  0  0  0  0  0  0  0  0  0  0
   -5.5158   -0.3738    5.2634 H   0  0  0  0  0  0  0  0  0  0  0  0
   -3.8537   -0.9962    5.3658 H   0  0  0  0  0  0  0  0  0  0  0  0
   -4.2220    0.6575    5.9127 H   0  0  0  0  0  0  0  0  0  0  0  0
   -2.9123    0.8753    3.4580 N   0  0  0  0  0  0  0  0  0  0  0  0
   -2.4860    1.2477    2.1024 C   0  0  2  0  0  0  0  0  0  0  0  0
   -0.9868    0.9625    1.8716 C   0  0  0  0  0  0  0  0  0  0  0  0
   -0.2690    0.7277    2.8327 O   0  0  0  0  0  0  0  0  0  0  0  0
   -2.7868    2.7350    1.8900 C   0  0  0  0  0  0  0  0  0  0  0  0
   -2.1781    0.7369    4.1519 H   0  0  0  0  0  0  0  0  0  0  0  0
   -3.0462    0.6584    1.3680 H   0  0  0  0  0  0  0  0  0  0  0  0
   -2.2400    3.3440    2.6172 H   0  0  0  0  0  0  0  0  0  0  0  0
   -2.4959    3.0482    0.8829 H   0  0  0  0  0  0  0  0  0  0  0  0
   -3.8579    2.9260    2.0121 H   0  0  0  0  0  0  0  0  0  0  0  0
   -0.5008    0.9269    0.5756 N   0  0  0  0  0  0  0  0  0  0  0  0
    0.8714    0.7647    0.0302 C   0  0  2  0  0  0  0  0  0  0  0  0
    2.1607    0.9280    0.8862 C   0  0  0  0  0  0  0  0  0  0  0  0
    3.2209    0.5555    0.3954 O   0  0  0  0  0  0  0  0  0  0  0  0
    0.9666    1.7711   -1.1367 C   0  0  0  0  0  0  0  0  0  0  0  0
    0.0457    1.3776   -2.2679 C   0  0  0  0  0  0  0  0  0  0  0  0
    0.4346    0.3918   -3.1867 C   0  0  0  0  0  0  0  0  0  0  0  0
   -1.2018    2.0028   -2.4239 C   0  0  0  0  0  0  0  0  0  0  0  0
   -0.4196    0.0179   -4.2296 C   0  0  0  0  0  0  0  0  0  0  0  0
   -2.0554    1.6314   -3.4681 C   0  0  0  0  0  0  0  0  0  0  0  0
   -1.6661    0.6358   -4.3687 C   0  0  0  0  0  0  0  0  0  0  0  0
   -1.2193    1.0496   -0.1354 H   0  0  0  0  0  0  0  0  0  0  0  0
    0.9388   -0.2537   -0.3663 H   0  0  0  0  0  0  0  0  0  0  0  0
    1.9900    1.8033   -1.5269 H   0  0  0  0  0  0  0  0  0  0  0  0
    0.7305    2.7793   -0.7802 H   0  0  0  0  0  0  0  0  0  0  0  0
    1.4032   -0.0914   -3.0898 H   0  0  0  0  0  0  0  0  0  0  0  0
   -1.5112    2.7885   -1.7412 H   0  0  0  0  0  0  0  0  0  0  0  0
   -0.1136   -0.7510   -4.9333 H   0  0  0  0  0  0  0  0  0  0  0  0
   -3.0185    2.1201   -3.5855 H   0  0  0  0  0  0  0  0  0  0  0  0
   -2.3280    0.3472   -5.1802 H   0  0  0  0  0  0  0  0  0  0  0  0
    2.2179    1.5163    2.1345 N   0  0  0  0  0  0  0  0  0  0  0  0
    3.4469    1.6966    2.9242 C   0  0  2  0  0  0  0  0  0  0  0  0
    3.9224    0.3912    3.6092 C   0  0  0  0  0  0  0  0  0  0  0  0
    4.1061    0.3234    4.8192 O   0  0  0  0  0  0  0  0  0  0  0  0
    3.1719    2.8259    3.9252 C   0  0  0  0  0  0  0  0  0  0  0  0
    1.3290    1.5375    2.6380 H   0  0  0  0  0  0  0  0  0  0  0  0
    4.2576    2.0245    2.2652 H   0  0  0  0  0  0  0  0  0  0  0  0
    2.3749    2.5382    4.6187 H   0  0  0  0  0  0  0  0  0  0  0  0
    4.0732    3.0476    4.5056 H   0  0  0  0  0  0  0  0  0  0  0  0
    2.8681    3.7362    3.3999 H   0  0  0  0  0  0  0  0  0  0  0  0
    4.1820   -0.7197    2.8316 N   0  0  0  0  0  0  0  0  0  0  0  0
    4.6453   -1.9963    3.3563 C   0  0  0  0  0  0  0  0  0  0  0  0
    4.0321   -0.6094    1.8260 H   0  0  0  0  0  0  0  0  0  0  0  0
    5.6286   -1.8834    3.8242 H   0  0  0  0  0  0  0  0  0  0  0  0
    3.9417   -2.3818    4.1012 H   0  0  0  0  0  0  0  0  0  0  0  0
    4.7279   -2.7283    2.5474 H   0  0  0  0  0  0  0  0  0  0  0  0
  1  2  2  0  0  0  0
  1  3  1  0  0  0  0
  1  7  1  0  0  0  0
  3  4  1  0  0  0  0
  3  5  1  0  0  0  0
  3  6  1  0  0  0  0
  7  8  1  0  0  0  0
  7 12  1  0  0  0  0
  8  9  1  0  0  0  0
  8 11  1  0  0  0  0
  8 13  1  0  0  0  0
  9 10  2  0  0  0  0
  9 17  1  0  0  0  0
 11 14  1  0  0  0  0
 11 15  1  0  0  0  0
 11 16  1  0  0  0  0
 17 18  1  0  0  0  0
 17 28  1  0  0  0  0
 18 19  1  0  0  0  0
 18 21  1  0  0  0  0
 18 29  1  0  0  0  0
 19 20  2  0  0  0  0
 19 37  1  0  0  0  0
 21 22  1  0  0  0  0
 21 30  1  0  0  0  0
 21 31  1  0  0  0  0
 22 23  1  0  0  0  0
 22 24  2  0  0  0  0
 23 25  2  0  0  0  0
 23 32  1  0  0  0  0
 24 26  1  0  0  0  0
 24 33  1  0  0  0  0
 25 27  1  0  0  0  0
 25 34  1  0  0  0  0
 26 27  2  0  0  0  0
 26 35  1  0  0  0  0
 27 36  1  0  0  0  0
 37 38  1  0  0  0  0
 37 42  1  0  0  0  0
 38 39  1  0  0  0  0
 38 41  1  0  0  0  0
 38 43  1  0  0  0  0
 39 40  2  0  0  0  0
 39 47  1  0  0  0  0
 41 44  1  0  0  0  0
 41 45  1  0  0  0  0
 41 46  1  0  0  0  0
 47 48  1  0  0  0  0
 47 49  1  0  0  0  0
 48 50  1  0  0  0  0
 48 51  1  0  0  0  0
 48 52  1  0  0  0  0
M  END
$$$$

  -OEChem-05262217163D

 52 52  0     1  0  0  0  0  0999 V2000
   -1.8990    0.6345    4.4182 C   0  0  0  0  0  0  0  0  0  0  0  0
   -0.6925    0.6675    4.2472 O   0  0  0  0  0  0  0  0  0  0  0  0
   -2.4766   -0.0375    5.6494 C   0  0  0  0  0  0  0  0  0  0  0  0
   -3.0945   -0.8888    5.3528 H   0  0  0  0  0  0  0  0  0  0  0  0
   -1.6703   -0.3973    6.2949 H   0  0  0  0  0  0  0  0  0  0  0  0
   -3.0881    0.6724    6.2113 H   0  0  0  0  0  0  0  0  0  0  0  0
   -2.7417    1.1915    3.4770 N   0  0  0  0  0  0  0  0  0  0  0  0
   -2.2939    1.6005    2.1327 C   0  0  2  0  0  0  0  0  0  0  0  0
   -1.6111    0.4514    1.3442 C   0  0  0  0  0  0  0  0  0  0  0  0
   -2.0429   -0.6829    1.4773 O   0  0  0  0  0  0  0  0  0  0  0  0
   -1.4587    2.8892    2.2091 C   0  0  0  0  0  0  0  0  0  0  0  0
   -3.7237    0.9578    3.5893 H   0  0  0  0  0  0  0  0  0  0  0  0
   -3.1892    1.8496    1.5552 H   0  0  0  0  0  0  0  0  0  0  0  0
   -0.5310    2.7376    2.7646 H   0  0  0  0  0  0  0  0  0  0  0  0
   -1.2055    3.2404    1.2047 H   0  0  0  0  0  0  0  0  0  0  0  0
   -2.0300    3.6749    2.7125 H   0  0  0  0  0  0  0  0  0  0  0  0
   -1.1596    0.6664    0.0687 N   0  0  0  0  0  0  0  0  0  0  0  0
    0.2602    0.7343   -0.3403 C   0  0  2  0  0  0  0  0  0  0  0  0
    1.4335    0.9034    0.6718 C   0  0  0  0  0  0  0  0  0  0  0  0
    2.5558    0.9831    0.1836 O   0  0  0  0  0  0  0  0  0  0  0  0
    0.3193    1.8652   -1.3945 C   0  0  0  0  0  0  0  0  0  0  0  0
   -0.4328    1.4807   -2.6477 C   0  0  0  0  0  0  0  0  0  0  0  0
    0.1727    0.6579   -3.6087 C   0  0  0  0  0  0  0  0  0  0  0  0
   -1.7419    1.9364   -2.8659 C   0  0  0  0  0  0  0  0  0  0  0  0
   -0.5206    0.2914   -4.7669 C   0  0  0  0  0  0  0  0  0  0  0  0
   -2.4365    1.5710   -4.0241 C   0  0  0  0  0  0  0  0  0  0  0  0
   -1.8258    0.7474   -4.9748 C   0  0  0  0  0  0  0  0  0  0  0  0
   -1.6675    0.0290   -0.5418 H   0  0  0  0  0  0  0  0  0  0  0  0
    0.4899   -0.2166   -0.8324 H   0  0  0  0  0  0  0  0  0  0  0  0
    1.3551    2.0767   -1.6794 H   0  0  0  0  0  0  0  0  0  0  0  0
   -0.0868    2.7891   -0.9710 H   0  0  0  0  0  0  0  0  0  0  0  0
    1.1875    0.3004   -3.4561 H   0  0  0  0  0  0  0  0  0  0  0  0
   -2.2233    2.5752   -2.1317 H   0  0  0  0  0  0  0  0  0  0  0  0
   -0.0437   -0.3472   -5.5046 H   0  0  0  0  0  0  0  0  0  0  0  0
   -3.4495    1.9276   -4.1860 H   0  0  0  0  0  0  0  0  0  0  0  0
   -2.3630    0.4625   -5.8747 H   0  0  0  0  0  0  0  0  0  0  0  0
    1.3465    1.0119    2.0539 N   0  0  0  0  0  0  0  0  0  0  0  0
    2.5556    1.0111    2.9039 C   0  0  2  0  0  0  0  0  0  0  0  0
    3.0050   -0.4095    3.3167 C   0  0  0  0  0  0  0  0  0  0  0  0
    2.2522   -1.3721    3.2269 O   0  0  0  0  0  0  0  0  0  0  0  0
    2.3111    1.8805    4.1394 C   0  0  0  0  0  0  0  0  0  0  0  0
    0.4893    0.6783    2.5018 H   0  0  0  0  0  0  0  0  0  0  0  0
    3.3888    1.4692    2.3621 H   0  0  0  0  0  0  0  0  0  0  0  0
    1.6327    1.3834    4.8369 H   0  0  0  0  0  0  0  0  0  0  0  0
    3.2537    2.0698    4.6610 H   0  0  0  0  0  0  0  0  0  0  0  0
    1.8770    2.8420    3.8494 H   0  0  0  0  0  0  0  0  0  0  0  0
    4.2883   -0.6120    3.7937 N   0  0  0  0  0  0  0  0  0  0  0  0
    4.8114   -1.9271    4.1426 C   0  0  0  0  0  0  0  0  0  0  0  0
    4.9199    0.1826    3.7851 H   0  0  0  0  0  0  0  0  0  0  0  0
    4.1992   -2.3882    4.9247 H   0  0  0  0  0  0  0  0  0  0  0  0
    4.8141   -2.5825    3.2653 H   0  0  0  0  0  0  0  0  0  0  0  0
    5.8368   -1.8402    4.5142 H   0  0  0  0  0  0  0  0  0  0  0  0
  1  2  2  0  0  0  0
  1  3  1  0  0  0  0
  1  7  1  0  0  0  0
  3  4  1  0  0  0  0
  3  5  1  0  0  0  0
  3  6  1  0  0  0  0
  7  8  1  0  0  0  0
  7 12  1  0  0  0  0
  8  9  1  0  0  0  0
  8 11  1  0  0  0  0
  8 13  1  0  0  0  0
  9 10  2  0  0  0  0
  9 17  1  0  0  0  0
 11 14  1  0  0  0  0
 11 15  1  0  0  0  0
 11 16  1  0  0  0  0
 17 18  1  0  0  0  0
 17 28  1  0  0  0  0
 18 19  1  0  0  0  0
 18 21  1  0  0  0  0
 18 29  1  0  0  0  0
 19 20  2  0  0  0  0
 19 37  1  0  0  0  0
 21 22  1  0  0  0  0
 21 30  1  0  0  0  0
 21 31  1  0  0  0  0
 22 23  1  0  0  0  0
 22 24  2  0  0  0  0
 23 25  2  0  0  0  0
 23 32  1  0  0  0  0
 24 26  1  0  0  0  0
 24 33  1  0  0  0  0
 25 27  1  0  0  0  0
 25 34  1  0  0  0  0
 26 27  2  0  0  0  0
 26 35  1  0  0  0  0
 27 36  1  0  0  0  0
 37 38  1  0  0  0  0
 37 42  1  0  0  0  0
 38 39  1  0  0  0  0
 38 41  1  0  0  0  0
 38 43  1  0  0  0  0
 39 40  2  0  0  0  0
 39 47  1  0  0  0  0
 41 44  1  0  0  0  0
 41 45  1  0  0  0  0
 41 46  1  0  0  0  0
 47 48  1  0  0  0  0
 47 49  1  0  0  0  0
 48 50  1  0  0  0  0
 48 51  1  0  0  0  0
 48 52  1  0  0  0  0
M  END
$$$$

  -OEChem-05262217163D

 52 52  0     1  0  0  0  0  0999 V2000
   -3.9877    0.0088    3.1194 C   0  0  0  0  0  0  0  0  0  0  0  0
   -4.2741   -0.3945    2.0032 O   0  0  0  0  0  0  0  0  0  0  0  0
   -4.4408   -0.7588    4.3469 C   0  0  0  0  0  0  0  0  0  0  0  0
   -5.0733   -1.6011    4.0524 H   0  0  0  0  0  0  0  0  0  0  0  0
   -3.5723   -1.1425    4.8880 H   0  0  0  0  0  0  0  0  0  0  0  0
   -5.0136   -0.1036    5.0079 H   0  0  0  0  0  0  0  0  0  0  0  0
   -3.2243    1.1486    3.2668 N   0  0  0  0  0  0  0  0  0  0  0  0
   -2.5298    1.7900    2.1413 C   0  0  2  0  0  0  0  0  0  0  0  0
   -1.0790    1.2839    1.9926 C   0  0  0  0  0  0  0  0  0  0  0  0
   -0.4348    1.0545    3.0045 O   0  0  0  0  0  0  0  0  0  0  0  0
   -2.5487    3.3016    2.3798 C   0  0  0  0  0  0  0  0  0  0  0  0
   -2.8372    1.3014    4.1949 H   0  0  0  0  0  0  0  0  0  0  0  0
   -3.0608    1.5893    1.2045 H   0  0  0  0  0  0  0  0  0  0  0  0
   -2.0254    3.5523    3.3085 H   0  0  0  0  0  0  0  0  0  0  0  0
   -2.0584    3.8248    1.5530 H   0  0  0  0  0  0  0  0  0  0  0  0
   -3.5803    3.6604    2.4528 H   0  0  0  0  0  0  0  0  0  0  0  0
   -0.5602    1.1113    0.7196 N   0  0  0  0  0  0  0  0  0  0  0  0
    0.7879    0.7621    0.1952 C   0  0  2  0  0  0  0  0  0  0  0  0
    2.1040    0.8159    1.0363 C   0  0  0  0  0  0  0  0  0  0  0  0
    3.1748    0.6867    0.4514 O   0  0  0  0  0  0  0  0  0  0  0  0
    0.9464    1.6754   -1.0468 C   0  0  0  0  0  0  0  0  0  0  0  0
   -0.0289    1.2896   -2.1352 C   0  0  0  0  0  0  0  0  0  0  0  0
    0.2544    0.2120   -2.9870 C   0  0  0  0  0  0  0  0  0  0  0  0
   -1.2199    2.0103   -2.3187 C   0  0  0  0  0  0  0  0  0  0  0  0
   -0.6474   -0.1544   -3.9916 C   0  0  0  0  0  0  0  0  0  0  0  0
   -2.1224    1.6439   -3.3229 C   0  0  0  0  0  0  0  0  0  0  0  0
   -1.8379    0.5591   -4.1575 C   0  0  0  0  0  0  0  0  0  0  0  0
   -1.2593    1.2269   -0.0117 H   0  0  0  0  0  0  0  0  0  0  0  0
    0.7371   -0.2807   -0.1339 H   0  0  0  0  0  0  0  0  0  0  0  0
    1.9542    1.5955   -1.4670 H   0  0  0  0  0  0  0  0  0  0  0  0
    0.8082    2.7224   -0.7571 H   0  0  0  0  0  0  0  0  0  0  0  0
    1.1777   -0.3483   -2.8676 H   0  0  0  0  0  0  0  0  0  0  0  0
   -1.4470    2.8643   -1.6875 H   0  0  0  0  0  0  0  0  0  0  0  0
   -0.4217   -0.9932   -4.6438 H   0  0  0  0  0  0  0  0  0  0  0  0
   -3.0425    2.2046   -3.4605 H   0  0  0  0  0  0  0  0  0  0  0  0
   -2.5378    0.2741   -4.9378 H   0  0  0  0  0  0  0  0  0  0  0  0
    2.1859    0.9017    2.4110 N   0  0  0  0  0  0  0  0  0  0  0  0
    3.4275    0.9581    3.1994 C   0  0  2  0  0  0  0  0  0  0  0  0
    4.0860   -0.4308    3.3902 C   0  0  0  0  0  0  0  0  0  0  0  0
    4.3408   -0.8818    4.5012 O   0  0  0  0  0  0  0  0  0  0  0  0
    3.0793    1.6386    4.5290 C   0  0  0  0  0  0  0  0  0  0  0  0
    1.2984    0.9020    2.9164 H   0  0  0  0  0  0  0  0  0  0  0  0
    4.1580    1.5890    2.6827 H   0  0  0  0  0  0  0  0  0  0  0  0
    2.3595    1.0355    5.0922 H   0  0  0  0  0  0  0  0  0  0  0  0
    3.9793    1.7637    5.1394 H   0  0  0  0  0  0  0  0  0  0  0  0
    2.6438    2.6261    4.3497 H   0  0  0  0  0  0  0  0  0  0  0  0
    4.4306   -1.1693    2.2756 N   0  0  0  0  0  0  0  0  0  0  0  0
    5.0721   -2.4756    2.3223 C   0  0  0  0  0  0  0  0  0  0  0  0
    4.2018   -0.7481    1.3717 H   0  0  0  0  0  0  0  0  0  0  0  0
    6.0281   -2.4142    2.8528 H   0  0  0  0  0  0  0  0  0  0  0  0
    4.4296   -3.1993    2.8348 H   0  0  0  0  0  0  0  0  0  0  0  0
    5.2627   -2.8380    1.3075 H   0  0  0  0  0  0  0  0  0  0  0  0
  1  2  2  0  0  0  0
  1  3  1  0  0  0  0
  1  7  1  0  0  0  0
  3  4  1  0  0  0  0
  3  5  1  0  0  0  0
  3  6  1  0  0  0  0
  7  8  1  0  0  0  0
  7 12  1  0  0  0  0
  8  9  1  0  0  0  0
  8 11  1  0  0  0  0
  8 13  1  0  0  0  0
  9 10  2  0  0  0  0
  9 17  1  0  0  0  0
 11 14  1  0  0  0  0
 11 15  1  0  0  0  0
 11 16  1  0  0  0  0
 17 18  1  0  0  0  0
 17 28  1  0  0  0  0
 18 19  1  0  0  0  0
 18 21  1  0  0  0  0
 18 29  1  0  0  0  0
 19 20  2  0  0  0  0
 19 37  1  0  0  0  0
 21 22  1  0  0  0  0
 21 30  1  0  0  0  0
 21 31  1  0  0  0  0
 22 23  1  0  0  0  0
 22 24  2  0  0  0  0
 23 25  2  0  0  0  0
 23 32  1  0  0  0  0
 24 26  1  0  0  0  0
 24 33  1  0  0  0  0
 25 27  1  0  0  0  0
 25 34  1  0  0  0  0
 26 27  2  0  0  0  0
 26 35  1  0  0  0  0
 27 36  1  0  0  0  0
 37 38  1  0  0  0  0
 37 42  1  0  0  0  0
 38 39  1  0  0  0  0
 38 41  1  0  0  0  0
 38 43  1  0  0  0  0
 39 40  2  0  0  0  0
 39 47  1  0  0  0  0
 41 44  1  0  0  0  0
 41 45  1  0  0  0  0
 41 46  1  0  0  0  0
 47 48  1  0  0  0  0
 47 49  1  0  0  0  0
 48 50  1  0  0  0  0
 48 51  1  0  0  0  0
 48 52  1  0  0  0  0
M  END
$$$$

  -OEChem-05262217163D

 52 52  0     1  0  0  0  0  0999 V2000
   -3.9592    0.0813    3.1163 C   0  0  0  0  0  0  0  0  0  0  0  0
   -4.1898   -0.4225    2.0282 O   0  0  0  0  0  0  0  0  0  0  0  0
   -4.4345   -0.5964    4.3877 C   0  0  0  0  0  0  0  0  0  0  0  0
   -5.0318   -1.4797    4.1443 H   0  0  0  0  0  0  0  0  0  0  0  0
   -3.5756   -0.9066    4.9882 H   0  0  0  0  0  0  0  0  0  0  0  0
   -5.0490    0.0932    4.9716 H   0  0  0  0  0  0  0  0  0  0  0  0
   -3.2363    1.2541    3.1943 N   0  0  0  0  0  0  0  0  0  0  0  0
   -2.5179    1.8172    2.0423 C   0  0  2  0  0  0  0  0  0  0  0  0
   -1.0705    1.2887    1.9402 C   0  0  0  0  0  0  0  0  0  0  0  0
   -0.4521    1.0707    2.9707 O   0  0  0  0  0  0  0  0  0  0  0  0
   -2.5188    3.3408    2.1851 C   0  0  0  0  0  0  0  0  0  0  0  0
   -2.8896    1.4957    4.1192 H   0  0  0  0  0  0  0  0  0  0  0  0
   -3.0418    1.5642    1.1140 H   0  0  0  0  0  0  0  0  0  0  0  0
   -1.9924    3.6422    3.0967 H   0  0  0  0  0  0  0  0  0  0  0  0
   -2.0211    3.8043    1.3275 H   0  0  0  0  0  0  0  0  0  0  0  0
   -3.5456    3.7173    2.2336 H   0  0  0  0  0  0  0  0  0  0  0  0
   -0.5190    1.1114    0.6816 N   0  0  0  0  0  0  0  0  0  0  0  0
    0.8231    0.6961    0.1924 C   0  0  2  0  0  0  0  0  0  0  0  0
    2.1008    0.6638    1.0949 C   0  0  0  0  0  0  0  0  0  0  0  0
    3.2087    0.7334    0.5725 O   0  0  0  0  0  0  0  0  0  0  0  0
    1.0613    1.6151   -1.0342 C   0  0  0  0  0  0  0  0  0  0  0  0
    0.0961    1.2922   -2.1518 C   0  0  0  0  0  0  0  0  0  0  0  0
    0.3427    0.2119   -3.0116 C   0  0  0  0  0  0  0  0  0  0  0  0
   -1.0505    2.0773   -2.3527 C   0  0  0  0  0  0  0  0  0  0  0  0
   -0.5534   -0.0934   -4.0414 C   0  0  0  0  0  0  0  0  0  0  0  0
   -1.9465    1.7734   -3.3830 C   0  0  0  0  0  0  0  0  0  0  0  0
   -1.6995    0.6857   -4.2256 C   0  0  0  0  0  0  0  0  0  0  0  0
   -1.1945    1.2484   -0.0679 H   0  0  0  0  0  0  0  0  0  0  0  0
    0.7286   -0.3379   -0.1535 H   0  0  0  0  0  0  0  0  0  0  0  0
    2.0723    1.4848   -1.4333 H   0  0  0  0  0  0  0  0  0  0  0  0
    0.9724    2.6649   -0.7353 H   0  0  0  0  0  0  0  0  0  0  0  0
    1.2323   -0.3977   -2.8798 H   0  0  0  0  0  0  0  0  0  0  0  0
   -1.2459    2.9343   -1.7152 H   0  0  0  0  0  0  0  0  0  0  0  0
   -0.3571   -0.9346   -4.7000 H   0  0  0  0  0  0  0  0  0  0  0  0
   -2.8324    2.3835   -3.5339 H   0  0  0  0  0  0  0  0  0  0  0  0
   -2.3938    0.4490   -5.0267 H   0  0  0  0  0  0  0  0  0  0  0  0
    2.1021    0.4255    2.4542 N   0  0  0  0  0  0  0  0  0  0  0  0
    3.2858    0.4585    3.3291 C   0  0  2  0  0  0  0  0  0  0  0  0
    4.1069   -0.8541    3.2888 C   0  0  0  0  0  0  0  0  0  0  0  0
    4.3847   -1.4773    4.3073 O   0  0  0  0  0  0  0  0  0  0  0  0
    2.7844    0.7998    4.7379 C   0  0  0  0  0  0  0  0  0  0  0  0
    1.1834    0.4088    2.9015 H   0  0  0  0  0  0  0  0  0  0  0  0
    3.9540    1.2642    3.0077 H   0  0  0  0  0  0  0  0  0  0  0  0
    2.1266    0.0087    5.1125 H   0  0  0  0  0  0  0  0  0  0  0  0
    3.6285    0.9047    5.4269 H   0  0  0  0  0  0  0  0  0  0  0  0
    2.2275    1.7418    4.7274 H   0  0  0  0  0  0  0  0  0  0  0  0
    4.5680   -1.3219    2.0746 N   0  0  0  0  0  0  0  0  0  0  0  0
    5.3629   -2.5302    1.9088 C   0  0  0  0  0  0  0  0  0  0  0  0
    4.3244   -0.7575    1.2567 H   0  0  0  0  0  0  0  0  0  0  0  0
    6.3179   -2.4347    2.4355 H   0  0  0  0  0  0  0  0  0  0  0  0
    4.8264   -3.3989    2.3042 H   0  0  0  0  0  0  0  0  0  0  0  0
    5.5674   -2.7034    0.8482 H   0  0  0  0  0  0  0  0  0  0  0  0
  1  2  2  0  0  0  0
  1  3  1  0  0  0  0
  1  7  1  0  0  0  0
  3  4  1  0  0  0  0
  3  5  1  0  0  0  0
  3  6  1  0  0  0  0
  7  8  1  0  0  0  0
  7 12  1  0  0  0  0
  8  9  1  0  0  0  0
  8 11  1  0  0  0  0
  8 13  1  0  0  0  0
  9 10  2  0  0  0  0
  9 17  1  0  0  0  0
 11 14  1  0  0  0  0
 11 15  1  0  0  0  0
 11 16  1  0  0  0  0
 17 18  1  0  0  0  0
 17 28  1  0  0  0  0
 18 19  1  0  0  0  0
 18 21  1  0  0  0  0
 18 29  1  0  0  0  0
 19 20  2  0  0  0  0
 19 37  1  0  0  0  0
 21 22  1  0  0  0  0
 21 30  1  0  0  0  0
 21 31  1  0  0  0  0
 22 23  1  0  0  0  0
 22 24  2  0  0  0  0
 23 25  2  0  0  0  0
 23 32  1  0  0  0  0
 24 26  1  0  0  0  0
 24 33  1  0  0  0  0
 25 27  1  0  0  0  0
 25 34  1  0  0  0  0
 26 27  2  0  0  0  0
 26 35  1  0  0  0  0
 27 36  1  0  0  0  0
 37 38  1  0  0  0  0
 37 42  1  0  0  0  0
 38 39  1  0  0  0  0
 38 41  1  0  0  0  0
 38 43  1  0  0  0  0
 39 40  2  0  0  0  0
 39 47  1  0  0  0  0
 41 44  1  0  0  0  0
 41 45  1  0  0  0  0
 41 46  1  0  0  0  0
 47 48  1  0  0  0  0
 47 49  1  0  0  0  0
 48 50  1  0  0  0  0
 48 51  1  0  0  0  0
 48 52  1  0  0  0  0
M  END
$$$$

  -OEChem-05262217163D

 52 52  0     1  0  0  0  0  0999 V2000
   -3.9379    0.1079    3.1286 C   0  0  0  0  0  0  0  0  0  0  0  0
   -4.2328   -0.3277    2.0268 O   0  0  0  0  0  0  0  0  0  0  0  0
   -4.4086   -0.6067    4.3813 C   0  0  0  0  0  0  0  0  0  0  0  0
   -5.0682   -1.4374    4.1153 H   0  0  0  0  0  0  0  0  0  0  0  0
   -3.5503   -1.0008    4.9310 H   0  0  0  0  0  0  0  0  0  0  0  0
   -4.9578    0.0857    5.0239 H   0  0  0  0  0  0  0  0  0  0  0  0
   -3.1472    1.2335    3.2373 N   0  0  0  0  0  0  0  0  0  0  0  0
   -2.4398    1.8194    2.0897 C   0  0  2  0  0  0  0  0  0  0  0  0
   -1.0132    1.2507    1.9333 C   0  0  0  0  0  0  0  0  0  0  0  0
   -0.3752    0.9812    2.9398 O   0  0  0  0  0  0  0  0  0  0  0  0
   -2.3905    3.3353    2.2911 C   0  0  0  0  0  0  0  0  0  0  0  0
   -2.7561    1.4086    4.1595 H   0  0  0  0  0  0  0  0  0  0  0  0
   -2.9919    1.6189    1.1649 H   0  0  0  0  0  0  0  0  0  0  0  0
   -1.8396    3.5856    3.2035 H   0  0  0  0  0  0  0  0  0  0  0  0
   -1.8936    3.8159    1.4426 H   0  0  0  0  0  0  0  0  0  0  0  0
   -3.4043    3.7397    2.3733 H   0  0  0  0  0  0  0  0  0  0  0  0
   -0.5002    1.0738    0.6584 N   0  0  0  0  0  0  0  0  0  0  0  0
    0.8282    0.6399    0.1513 C   0  0  2  0  0  0  0  0  0  0  0  0
    2.0921    0.6018    1.0708 C   0  0  0  0  0  0  0  0  0  0  0  0
    3.1904    0.9284    0.6315 O   0  0  0  0  0  0  0  0  0  0  0  0
    1.0774    1.5303   -1.0918 C   0  0  0  0  0  0  0  0  0  0  0  0
    0.0976    1.2040   -2.1952 C   0  0  0  0  0  0  0  0  0  0  0  0
    0.3140    0.1025   -3.0362 C   0  0  0  0  0  0  0  0  0  0  0  0
   -1.0325    2.0106   -2.4034 C   0  0  0  0  0  0  0  0  0  0  0  0
   -0.5972   -0.2032   -4.0529 C   0  0  0  0  0  0  0  0  0  0  0  0
   -1.9436    1.7063   -3.4201 C   0  0  0  0  0  0  0  0  0  0  0  0
   -1.7280    0.5968   -4.2429 C   0  0  0  0  0  0  0  0  0  0  0  0
   -1.1821    1.2472   -0.0777 H   0  0  0  0  0  0  0  0  0  0  0  0
    0.7196   -0.3973   -0.1809 H   0  0  0  0  0  0  0  0  0  0  0  0
    2.0824    1.3652   -1.4930 H   0  0  0  0  0  0  0  0  0  0  0  0
    1.0153    2.5873   -0.8124 H   0  0  0  0  0  0  0  0  0  0  0  0
    1.1906   -0.5243   -2.8991 H   0  0  0  0  0  0  0  0  0  0  0  0
   -1.2034    2.8841   -1.7814 H   0  0  0  0  0  0  0  0  0  0  0  0
   -0.4254   -1.0613   -4.6963 H   0  0  0  0  0  0  0  0  0  0  0  0
   -2.8165    2.3339   -3.5752 H   0  0  0  0  0  0  0  0  0  0  0  0
   -2.4348    0.3599   -5.0332 H   0  0  0  0  0  0  0  0  0  0  0  0
    2.0817    0.0785    2.3483 N   0  0  0  0  0  0  0  0  0  0  0  0
    3.2200    0.1181    3.2810 C   0  0  2  0  0  0  0  0  0  0  0  0
    4.2452   -1.0172    3.0378 C   0  0  0  0  0  0  0  0  0  0  0  0
    4.5785   -1.7934    3.9263 O   0  0  0  0  0  0  0  0  0  0  0  0
    2.6320    0.0930    4.6972 C   0  0  0  0  0  0  0  0  0  0  0  0
    1.1500   -0.0094    2.7605 H   0  0  0  0  0  0  0  0  0  0  0  0
    3.7570    1.0646    3.1608 H   0  0  0  0  0  0  0  0  0  0  0  0
    2.0927   -0.8433    4.8722 H   0  0  0  0  0  0  0  0  0  0  0  0
    3.4296    0.1791    5.4416 H   0  0  0  0  0  0  0  0  0  0  0  0
    1.9382    0.9277    4.8371 H   0  0  0  0  0  0  0  0  0  0  0  0
    4.8323   -1.1371    1.7942 N   0  0  0  0  0  0  0  0  0  0  0  0
    5.8330   -2.1372    1.4509 C   0  0  0  0  0  0  0  0  0  0  0  0
    4.5311   -0.4573    1.0915 H   0  0  0  0  0  0  0  0  0  0  0  0
    5.4354   -3.1455    1.6061 H   0  0  0  0  0  0  0  0  0  0  0  0
    6.1212   -2.0369    0.4001 H   0  0  0  0  0  0  0  0  0  0  0  0
    6.7277   -2.0107    2.0691 H   0  0  0  0  0  0  0  0  0  0  0  0
  1  2  2  0  0  0  0
  1  3  1  0  0  0  0
  1  7  1  0  0  0  0
  3  4  1  0  0  0  0
  3  5  1  0  0  0  0
  3  6  1  0  0  0  0
  7  8  1  0  0  0  0
  7 12  1  0  0  0  0
  8  9  1  0  0  0  0
  8 11  1  0  0  0  0
  8 13  1  0  0  0  0
  9 10  2  0  0  0  0
  9 17  1  0  0  0  0
 11 14  1  0  0  0  0
 11 15  1  0  0  0  0
 11 16  1  0  0  0  0
 17 18  1  0  0  0  0
 17 28  1  0  0  0  0
 18 19  1  0  0  0  0
 18 21  1  0  0  0  0
 18 29  1  0  0  0  0
 19 20  2  0  0  0  0
 19 37  1  0  0  0  0
 21 22  1  0  0  0  0
 21 30  1  0  0  0  0
 21 31  1  0  0  0  0
 22 23  1  0  0  0  0
 22 24  2  0  0  0  0
 23 25  2  0  0  0  0
 23 32  1  0  0  0  0
 24 26  1  0  0  0  0
 24 33  1  0  0  0  0
 25 27  1  0  0  0  0
 25 34  1  0  0  0  0
 26 27  2  0  0  0  0
 26 35  1  0  0  0  0
 27 36  1  0  0  0  0
 37 38  1  0  0  0  0
 37 42  1  0  0  0  0
 38 39  1  0  0  0  0
 38 41  1  0  0  0  0
 38 43  1  0  0  0  0
 39 40  2  0  0  0  0
 39 47  1  0  0  0  0
 41 44  1  0  0  0  0
 41 45  1  0  0  0  0
 41 46  1  0  0  0  0
 47 48  1  0  0  0  0
 47 49  1  0  0  0  0
 48 50  1  0  0  0  0
 48 51  1  0  0  0  0
 48 52  1  0  0  0  0
M  END
$$$$

  -OEChem-05262217163D

 52 52  0     1  0  0  0  0  0999 V2000
   -3.9611    0.1940    3.1473 C   0  0  0  0  0  0  0  0  0  0  0  0
   -4.3363   -0.1179    2.0282 O   0  0  0  0  0  0  0  0  0  0  0  0
   -4.4775   -0.5562    4.3607 C   0  0  0  0  0  0  0  0  0  0  0  0
   -5.2237   -1.2961    4.0574 H   0  0  0  0  0  0  0  0  0  0  0  0
   -3.6532   -1.0714    4.8599 H   0  0  0  0  0  0  0  0  0  0  0  0
   -4.9403    0.1416    5.0627 H   0  0  0  0  0  0  0  0  0  0  0  0
   -3.0434    1.2113    3.3099 N   0  0  0  0  0  0  0  0  0  0  0  0
   -2.3141    1.8136    2.1846 C   0  0  2  0  0  0  0  0  0  0  0  0
   -0.9533    1.1282    1.9378 C   0  0  0  0  0  0  0  0  0  0  0  0
   -0.3162    0.7116    2.8947 O   0  0  0  0  0  0  0  0  0  0  0  0
   -2.1127    3.2976    2.4983 C   0  0  0  0  0  0  0  0  0  0  0  0
   -2.6091    1.2711    4.2276 H   0  0  0  0  0  0  0  0  0  0  0  0
   -2.9071    1.7383    1.2667 H   0  0  0  0  0  0  0  0  0  0  0  0
   -1.5013    3.4209    3.3983 H   0  0  0  0  0  0  0  0  0  0  0  0
   -1.6095    3.7982    1.6653 H   0  0  0  0  0  0  0  0  0  0  0  0
   -3.0787    3.7854    2.6625 H   0  0  0  0  0  0  0  0  0  0  0  0
   -0.4879    0.9960    0.6398 N   0  0  0  0  0  0  0  0  0  0  0  0
    0.8345    0.5816    0.1097 C   0  0  2  0  0  0  0  0  0  0  0  0
    2.0757    0.5444    1.0530 C   0  0  0  0  0  0  0  0  0  0  0  0
    3.1125    1.1302    0.7563 O   0  0  0  0  0  0  0  0  0  0  0  0
    1.0934    1.4912   -1.1150 C   0  0  0  0  0  0  0  0  0  0  0  0
    0.1156    1.1910   -2.2269 C   0  0  0  0  0  0  0  0  0  0  0  0
    0.3297    0.1030   -3.0858 C   0  0  0  0  0  0  0  0  0  0  0  0
   -1.0144    2.0011   -2.4199 C   0  0  0  0  0  0  0  0  0  0  0  0
   -0.5827   -0.1851   -4.1062 C   0  0  0  0  0  0  0  0  0  0  0  0
   -1.9278    1.7136   -3.4396 C   0  0  0  0  0  0  0  0  0  0  0  0
   -1.7140    0.6175   -4.2807 C   0  0  0  0  0  0  0  0  0  0  0  0
   -1.1617    1.2687   -0.0726 H   0  0  0  0  0  0  0  0  0  0  0  0
    0.7350   -0.4496   -0.2434 H   0  0  0  0  0  0  0  0  0  0  0  0
    2.1020    1.3229   -1.5075 H   0  0  0  0  0  0  0  0  0  0  0  0
    1.0357    2.5440   -0.8186 H   0  0  0  0  0  0  0  0  0  0  0  0
    1.2068   -0.5257   -2.9613 H   0  0  0  0  0  0  0  0  0  0  0  0
   -1.1854    2.8637   -1.7832 H   0  0  0  0  0  0  0  0  0  0  0  0
   -0.4113   -1.0325   -4.7637 H   0  0  0  0  0  0  0  0  0  0  0  0
   -2.8015    2.3432   -3.5834 H   0  0  0  0  0  0  0  0  0  0  0  0
   -2.4222    0.3929   -5.0732 H   0  0  0  0  0  0  0  0  0  0  0  0
    2.1053   -0.2627    2.1736 N   0  0  0  0  0  0  0  0  0  0  0  0
    3.2063   -0.2807    3.1503 C   0  0  2  0  0  0  0  0  0  0  0  0
    4.4060   -1.1503    2.6981 C   0  0  0  0  0  0  0  0  0  0  0  0
    4.8196   -2.0874    3.3717 O   0  0  0  0  0  0  0  0  0  0  0  0
    2.6066   -0.7477    4.4830 C   0  0  0  0  0  0  0  0  0  0  0  0
    1.1755   -0.4876    2.5336 H   0  0  0  0  0  0  0  0  0  0  0  0
    3.5831    0.7374    3.2928 H   0  0  0  0  0  0  0  0  0  0  0  0
    2.2219   -1.7688    4.3938 H   0  0  0  0  0  0  0  0  0  0  0  0
    3.3678   -0.7315    5.2693 H   0  0  0  0  0  0  0  0  0  0  0  0
    1.7861   -0.0894    4.7846 H   0  0  0  0  0  0  0  0  0  0  0  0
    5.0512   -0.8450    1.5165 N   0  0  0  0  0  0  0  0  0  0  0  0
    6.1793   -1.5919    0.9791 C   0  0  0  0  0  0  0  0  0  0  0  0
    4.6566   -0.0676    0.9808 H   0  0  0  0  0  0  0  0  0  0  0  0
    5.8888   -2.6272    0.7734 H   0  0  0  0  0  0  0  0  0  0  0  0
    6.5224   -1.1357    0.0455 H   0  0  0  0  0  0  0  0  0  0  0  0
    7.0120   -1.5927    1.6901 H   0  0  0  0  0  0  0  0  0  0  0  0
  1  2  2  0  0  0  0
  1  3  1  0  0  0  0
  1  7  1  0  0  0  0
  3  4  1  0  0  0  0
  3  5  1  0  0  0  0
  3  6  1  0  0  0  0
  7  8  1  0  0  0  0
  7 12  1  0  0  0  0
  8  9  1  0  0  0  0
  8 11  1  0  0  0  0
  8 13  1  0  0  0  0
  9 10  2  0  0  0  0
  9 17  1  0  0  0  0
 11 14  1  0  0  0  0
 11 15  1  0  0  0  0
 11 16  1  0  0  0  0
 17 18  1  0  0  0  0
 17 28  1  0  0  0  0
 18 19  1  0  0  0  0
 18 21  1  0  0  0  0
 18 29  1  0  0  0  0
 19 20  2  0  0  0  0
 19 37  1  0  0  0  0
 21 22  1  0  0  0  0
 21 30  1  0  0  0  0
 21 31  1  0  0  0  0
 22 23  1  0  0  0  0
 22 24  2  0  0  0  0
 23 25  2  0  0  0  0
 23 32  1  0  0  0  0
 24 26  1  0  0  0  0
 24 33  1  0  0  0  0
 25 27  1  0  0  0  0
 25 34  1  0  0  0  0
 26 27  2  0  0  0  0
 26 35  1  0  0  0  0
 27 36  1  0  0  0  0
 37 38  1  0  0  0  0
 37 42  1  0  0  0  0
 38 39  1  0  0  0  0
 38 41  1  0  0  0  0
 38 43  1  0  0  0  0
 39 40  2  0  0  0  0
 39 47  1  0  0  0  0
 41 44  1  0  0  0  0
 41 45  1  0  0  0  0
 41 46  1  0  0  0  0
 47 48  1  0  0  0  0
 47 49  1  0  0  0  0
 48 50  1  0  0  0  0
 48 51  1  0  0  0  0
 48 52  1  0  0  0  0
M  END
$$$$

  -OEChem-05262217163D

 52 52  0     1  0  0  0  0  0999 V2000
   -3.8943    0.1858    3.3707 C   0  0  0  0  0  0  0  0  0  0  0  0
   -4.4121   -0.1073    2.3046 O   0  0  0  0  0  0  0  0  0  0  0  0
   -4.3094   -0.5335    4.6403 C   0  0  0  0  0  0  0  0  0  0  0  0
   -5.0620   -1.2939    4.4134 H   0  0  0  0  0  0  0  0  0  0  0  0
   -3.4430   -1.0212    5.0939 H   0  0  0  0  0  0  0  0  0  0  0  0
   -4.7322    0.1799    5.3516 H   0  0  0  0  0  0  0  0  0  0  0  0
   -2.9126    1.1542    3.4231 N   0  0  0  0  0  0  0  0  0  0  0  0
   -2.2666    1.7035    2.2220 C   0  0  2  0  0  0  0  0  0  0  0  0
   -0.9277    1.0047    1.9038 C   0  0  0  0  0  0  0  0  0  0  0  0
   -0.2826    0.4930    2.8095 O   0  0  0  0  0  0  0  0  0  0  0  0
   -2.0413    3.1987    2.4536 C   0  0  0  0  0  0  0  0  0  0  0  0
   -2.3778    1.1887    4.2876 H   0  0  0  0  0  0  0  0  0  0  0  0
   -2.9221    1.5885    1.3524 H   0  0  0  0  0  0  0  0  0  0  0  0
   -1.3760    3.3598    3.3082 H   0  0  0  0  0  0  0  0  0  0  0  0
   -1.5881    3.6582    1.5696 H   0  0  0  0  0  0  0  0  0  0  0  0
   -2.9942    3.6993    2.6533 H   0  0  0  0  0  0  0  0  0  0  0  0
   -0.4903    0.9439    0.5911 N   0  0  0  0  0  0  0  0  0  0  0  0
    0.8305    0.5467    0.0522 C   0  0  2  0  0  0  0  0  0  0  0  0
    2.0336    0.4705    1.0355 C   0  0  0  0  0  0  0  0  0  0  0  0
    2.9839    1.2420    0.9407 O   0  0  0  0  0  0  0  0  0  0  0  0
    1.1371    1.5155   -1.1110 C   0  0  0  0  0  0  0  0  0  0  0  0
    0.1804    1.3037   -2.2606 C   0  0  0  0  0  0  0  0  0  0  0  0
    0.3896    0.2620   -3.1765 C   0  0  0  0  0  0  0  0  0  0  0  0
   -0.9223    2.1549   -2.4348 C   0  0  0  0  0  0  0  0  0  0  0  0
   -0.4998    0.0614   -4.2374 C   0  0  0  0  0  0  0  0  0  0  0  0
   -1.8121    1.9549   -3.4954 C   0  0  0  0  0  0  0  0  0  0  0  0
   -1.6028    0.9057   -4.3953 C   0  0  0  0  0  0  0  0  0  0  0  0
   -1.1472    1.3074   -0.0957 H   0  0  0  0  0  0  0  0  0  0  0  0
    0.7345   -0.4637   -0.3572 H   0  0  0  0  0  0  0  0  0  0  0  0
    2.1545    1.3452   -1.4803 H   0  0  0  0  0  0  0  0  0  0  0  0
    1.0933    2.5506   -0.7556 H   0  0  0  0  0  0  0  0  0  0  0  0
    1.2442   -0.3995   -3.0662 H   0  0  0  0  0  0  0  0  0  0  0  0
   -1.0892    2.9827   -1.7519 H   0  0  0  0  0  0  0  0  0  0  0  0
   -0.3323   -0.7506   -4.9394 H   0  0  0  0  0  0  0  0  0  0  0  0
   -2.6634    2.6173   -3.6240 H   0  0  0  0  0  0  0  0  0  0  0  0
   -2.2928    0.7489   -5.2195 H   0  0  0  0  0  0  0  0  0  0  0  0
    2.1389   -0.5856    1.9210 N   0  0  0  0  0  0  0  0  0  0  0  0
    3.2088   -0.7036    2.9248 C   0  0  2  0  0  0  0  0  0  0  0  0
    4.5221   -1.2844    2.3437 C   0  0  0  0  0  0  0  0  0  0  0  0
    5.0413   -2.2975    2.7985 O   0  0  0  0  0  0  0  0  0  0  0  0
    2.6450   -1.5470    4.0753 C   0  0  0  0  0  0  0  0  0  0  0  0
    1.2388   -0.9952    2.1686 H   0  0  0  0  0  0  0  0  0  0  0  0
    3.4460    0.2880    3.3244 H   0  0  0  0  0  0  0  0  0  0  0  0
    2.3955   -2.5546    3.7269 H   0  0  0  0  0  0  0  0  0  0  0  0
    3.3816   -1.6316    4.8807 H   0  0  0  0  0  0  0  0  0  0  0  0
    1.7412   -1.0824    4.4819 H   0  0  0  0  0  0  0  0  0  0  0  0
    5.1423   -0.6306    1.2976 N   0  0  0  0  0  0  0  0  0  0  0  0
    6.3804   -1.0731    0.6724 C   0  0  0  0  0  0  0  0  0  0  0  0
    4.6690    0.2073    0.9499 H   0  0  0  0  0  0  0  0  0  0  0  0
    7.1929   -1.0932    1.4060 H   0  0  0  0  0  0  0  0  0  0  0  0
    6.2582   -2.0765    0.2516 H   0  0  0  0  0  0  0  0  0  0  0  0
    6.6605   -0.3904   -0.1355 H   0  0  0  0  0  0  0  0  0  0  0  0
  1  2  2  0  0  0  0
  1  3  1  0  0  0  0
  1  7  1  0  0  0  0
  3  4  1  0  0  0  0
  3  5  1  0  0  0  0
  3  6  1  0  0  0  0
  7  8  1  0  0  0  0
  7 12  1  0  0  0  0
  8  9  1  0  0  0  0
  8 11  1  0  0  0  0
  8 13  1  0  0  0  0
  9 10  2  0  0  0  0
  9 17  1  0  0  0  0
 11 14  1  0  0  0  0
 11 15  1  0  0  0  0
 11 16  1  0  0  0  0
 17 18  1  0  0  0  0
 17 28  1  0  0  0  0
 18 19  1  0  0  0  0
 18 21  1  0  0  0  0
 18 29  1  0  0  0  0
 19 20  2  0  0  0  0
 19 37  1  0  0  0  0
 21 22  1  0  0  0  0
 21 30  1  0  0  0  0
 21 31  1  0  0  0  0
 22 23  1  0  0  0  0
 22 24  2  0  0  0  0
 23 25  2  0  0  0  0
 23 32  1  0  0  0  0
 24 26  1  0  0  0  0
 24 33  1  0  0  0  0
 25 27  1  0  0  0  0
 25 34  1  0  0  0  0
 26 27  2  0  0  0  0
 26 35  1  0  0  0  0
 27 36  1  0  0  0  0
 37 38  1  0  0  0  0
 37 42  1  0  0  0  0
 38 39  1  0  0  0  0
 38 41  1  0  0  0  0
 38 43  1  0  0  0  0
 39 40  2  0  0  0  0
 39 47  1  0  0  0  0
 41 44  1  0  0  0  0
 41 45  1  0  0  0  0
 41 46  1  0  0  0  0
 47 48  1  0  0  0  0
 47 49  1  0  0  0  0
 48 50  1  0  0  0  0
 48 51  1  0  0  0  0
 48 52  1  0  0  0  0
M  END
$$$$

  -OEChem-05262217163D

 52 52  0     1  0  0  0  0  0999 V2000
   -3.9181    0.3514    3.6727 C   0  0  0  0  0  0  0  0  0  0  0  0
   -4.7212    0.3548    2.7533 O   0  0  0  0  0  0  0  0  0  0  0  0
   -4.2369   -0.3911    4.9567 C   0  0  0  0  0  0  0  0  0  0  0  0
   -5.2201   -0.8643    4.8849 H   0  0  0  0  0  0  0  0  0  0  0  0
   -3.4867   -1.1651    5.1366 H   0  0  0  0  0  0  0  0  0  0  0  0
   -4.2418    0.3051    5.7990 H   0  0  0  0  0  0  0  0  0  0  0  0
   -2.7091    1.0034    3.5463 N   0  0  0  0  0  0  0  0  0  0  0  0
   -2.1858    1.5184    2.2723 C   0  0  2  0  0  0  0  0  0  0  0  0
   -0.8814    0.8072    1.8557 C   0  0  0  0  0  0  0  0  0  0  0  0
   -0.2356    0.1854    2.6909 O   0  0  0  0  0  0  0  0  0  0  0  0
   -1.9442    3.0199    2.4387 C   0  0  0  0  0  0  0  0  0  0  0  0
   -2.0179    0.7937    4.2641 H   0  0  0  0  0  0  0  0  0  0  0  0
   -2.9126    1.3685    1.4670 H   0  0  0  0  0  0  0  0  0  0  0  0
   -1.2056    3.2053    3.2255 H   0  0  0  0  0  0  0  0  0  0  0  0
   -1.5748    3.4552    1.5052 H   0  0  0  0  0  0  0  0  0  0  0  0
   -2.8770    3.5244    2.7098 H   0  0  0  0  0  0  0  0  0  0  0  0
   -0.4904    0.8234    0.5268 N   0  0  0  0  0  0  0  0  0  0  0  0
    0.8224    0.4550   -0.0456 C   0  0  2  0  0  0  0  0  0  0  0  0
    2.0106    0.3414    0.9469 C   0  0  0  0  0  0  0  0  0  0  0  0
    2.8130    1.2610    1.0823 O   0  0  0  0  0  0  0  0  0  0  0  0
    1.1448    1.4971   -1.1369 C   0  0  0  0  0  0  0  0  0  0  0  0
    0.1882    1.3836   -2.3001 C   0  0  0  0  0  0  0  0  0  0  0  0
    0.3820    0.4075   -3.2885 C   0  0  0  0  0  0  0  0  0  0  0  0
   -0.9000    2.2635   -2.4133 C   0  0  0  0  0  0  0  0  0  0  0  0
   -0.5082    0.2995   -4.3623 C   0  0  0  0  0  0  0  0  0  0  0  0
   -1.7909    2.1556   -3.4864 C   0  0  0  0  0  0  0  0  0  0  0  0
   -1.5968    1.1712   -4.4599 C   0  0  0  0  0  0  0  0  0  0  0  0
   -1.1336    1.2883   -0.1095 H   0  0  0  0  0  0  0  0  0  0  0  0
    0.7287   -0.5273   -0.5185 H   0  0  0  0  0  0  0  0  0  0  0  0
    2.1632    1.3385   -1.5087 H   0  0  0  0  0  0  0  0  0  0  0  0
    1.1132    2.5057   -0.7104 H   0  0  0  0  0  0  0  0  0  0  0  0
    1.2259   -0.2735   -3.2260 H   0  0  0  0  0  0  0  0  0  0  0  0
   -1.0541    3.0435   -1.6735 H   0  0  0  0  0  0  0  0  0  0  0  0
   -0.3526   -0.4609   -5.1222 H   0  0  0  0  0  0  0  0  0  0  0  0
   -2.6308    2.8398   -3.5675 H   0  0  0  0  0  0  0  0  0  0  0  0
   -2.2868    1.0869   -5.2946 H   0  0  0  0  0  0  0  0  0  0  0  0
    2.2858   -0.8682    1.5579 N   0  0  0  0  0  0  0  0  0  0  0  0
    3.3255   -1.0329    2.5861 C   0  0  2  0  0  0  0  0  0  0  0  0
    4.7351   -1.2464    1.9824 C   0  0  0  0  0  0  0  0  0  0  0  0
    5.4018   -2.2456    2.2261 O   0  0  0  0  0  0  0  0  0  0  0  0
    2.8830   -2.1857    3.4956 C   0  0  0  0  0  0  0  0  0  0  0  0
    1.5001   -1.5125    1.5937 H   0  0  0  0  0  0  0  0  0  0  0  0
    3.3752   -0.1284    3.2018 H   0  0  0  0  0  0  0  0  0  0  0  0
    2.8237   -3.1217    2.9310 H   0  0  0  0  0  0  0  0  0  0  0  0
    3.5985   -2.3190    4.3133 H   0  0  0  0  0  0  0  0  0  0  0  0
    1.9007   -1.9728    3.9292 H   0  0  0  0  0  0  0  0  0  0  0  0
    5.2638   -0.2754    1.1557 N   0  0  0  0  0  0  0  0  0  0  0  0
    6.5767   -0.3555    0.5314 C   0  0  0  0  0  0  0  0  0  0  0  0
    4.6661    0.5363    0.9792 H   0  0  0  0  0  0  0  0  0  0  0  0
    7.3617   -0.3905    1.2939 H   0  0  0  0  0  0  0  0  0  0  0  0
    6.6506   -1.2521   -0.0928 H   0  0  0  0  0  0  0  0  0  0  0  0
    6.7466    0.5211   -0.1010 H   0  0  0  0  0  0  0  0  0  0  0  0
  1  2  2  0  0  0  0
  1  3  1  0  0  0  0
  1  7  1  0  0  0  0
  3  4  1  0  0  0  0
  3  5  1  0  0  0  0
  3  6  1  0  0  0  0
  7  8  1  0  0  0  0
  7 12  1  0  0  0  0
  8  9  1  0  0  0  0
  8 11  1  0  0  0  0
  8 13  1  0  0  0  0
  9 10  2  0  0  0  0
  9 17  1  0  0  0  0
 11 14  1  0  0  0  0
 11 15  1  0  0  0  0
 11 16  1  0  0  0  0
 17 18  1  0  0  0  0
 17 28  1  0  0  0  0
 18 19  1  0  0  0  0
 18 21  1  0  0  0  0
 18 29  1  0  0  0  0
 19 20  2  0  0  0  0
 19 37  1  0  0  0  0
 21 22  1  0  0  0  0
 21 30  1  0  0  0  0
 21 31  1  0  0  0  0
 22 23  1  0  0  0  0
 22 24  2  0  0  0  0
 23 25  2  0  0  0  0
 23 32  1  0  0  0  0
 24 26  1  0  0  0  0
 24 33  1  0  0  0  0
 25 27  1  0  0  0  0
 25 34  1  0  0  0  0
 26 27  2  0  0  0  0
 26 35  1  0  0  0  0
 27 36  1  0  0  0  0
 37 38  1  0  0  0  0
 37 42  1  0  0  0  0
 38 39  1  0  0  0  0
 38 41  1  0  0  0  0
 38 43  1  0  0  0  0
 39 40  2  0  0  0  0
 39 47  1  0  0  0  0
 41 44  1  0  0  0  0
 41 45  1  0  0  0  0
 41 46  1  0  0  0  0
 47 48  1  0  0  0  0
 47 49  1  0  0  0  0
 48 50  1  0  0  0  0
 48 51  1  0  0  0  0
 48 52  1  0  0  0  0
M  END
$$$$

  -OEChem-05262217163D

 52 52  0     1  0  0  0  0  0999 V2000
   -3.9167    0.6173    3.9619 C   0  0  0  0  0  0  0  0  0  0  0  0
   -4.7894    1.0762    3.2420 O   0  0  0  0  0  0  0  0  0  0  0  0
   -4.2868   -0.0906    5.2519 C   0  0  0  0  0  0  0  0  0  0  0  0
   -5.3737   -0.1129    5.3710 H   0  0  0  0  0  0  0  0  0  0  0  0
   -3.9135   -1.1176    5.2352 H   0  0  0  0  0  0  0  0  0  0  0  0
   -3.8501    0.4356    6.1044 H   0  0  0  0  0  0  0  0  0  0  0  0
   -2.5916    0.7371    3.6001 N   0  0  0  0  0  0  0  0  0  0  0  0
   -2.1305    1.2715    2.3120 C   0  0  2  0  0  0  0  0  0  0  0  0
   -0.8780    0.5337    1.7946 C   0  0  0  0  0  0  0  0  0  0  0  0
   -0.2651   -0.2242    2.5387 O   0  0  0  0  0  0  0  0  0  0  0  0
   -1.8337    2.7631    2.4927 C   0  0  0  0  0  0  0  0  0  0  0  0
   -1.9068    0.2293    4.1587 H   0  0  0  0  0  0  0  0  0  0  0  0
   -2.9146    1.1490    1.5569 H   0  0  0  0  0  0  0  0  0  0  0  0
   -1.0421    2.9083    3.2350 H   0  0  0  0  0  0  0  0  0  0  0  0
   -1.5102    3.2101    1.5478 H   0  0  0  0  0  0  0  0  0  0  0  0
   -2.7314    3.2890    2.8332 H   0  0  0  0  0  0  0  0  0  0  0  0
   -0.5108    0.6564    0.4641 N   0  0  0  0  0  0  0  0  0  0  0  0
    0.8131    0.3591   -0.1207 C   0  0  2  0  0  0  0  0  0  0  0  0
    1.9873    0.2154    0.8805 C   0  0  0  0  0  0  0  0  0  0  0  0
    2.5887    1.2074    1.2827 O   0  0  0  0  0  0  0  0  0  0  0  0
    1.1369    1.4760   -1.1329 C   0  0  0  0  0  0  0  0  0  0  0  0
    0.2003    1.4286   -2.3164 C   0  0  0  0  0  0  0  0  0  0  0  0
    0.4272    0.5229   -3.3635 C   0  0  0  0  0  0  0  0  0  0  0  0
   -0.9044    2.2922   -2.3879 C   0  0  0  0  0  0  0  0  0  0  0  0
   -0.4431    0.4708   -4.4575 C   0  0  0  0  0  0  0  0  0  0  0  0
   -1.7762    2.2390   -3.4808 C   0  0  0  0  0  0  0  0  0  0  0  0
   -1.5467    1.3269   -4.5150 C   0  0  0  0  0  0  0  0  0  0  0  0
   -1.1204    1.2422   -0.1005 H   0  0  0  0  0  0  0  0  0  0  0  0
    0.7448   -0.5910   -0.6585 H   0  0  0  0  0  0  0  0  0  0  0  0
    2.1649    1.3583   -1.4930 H   0  0  0  0  0  0  0  0  0  0  0  0
    1.0799    2.4533   -0.6410 H   0  0  0  0  0  0  0  0  0  0  0  0
    1.2832   -0.1452   -3.3324 H   0  0  0  0  0  0  0  0  0  0  0  0
   -1.0876    3.0158   -1.5992 H   0  0  0  0  0  0  0  0  0  0  0  0
   -0.2601   -0.2333   -5.2641 H   0  0  0  0  0  0  0  0  0  0  0  0
   -2.6296    2.9093   -3.5302 H   0  0  0  0  0  0  0  0  0  0  0  0
   -2.2216    1.2869   -5.3653 H   0  0  0  0  0  0  0  0  0  0  0  0
    2.4925   -1.0353    1.1859 N   0  0  0  0  0  0  0  0  0  0  0  0
    3.5458   -1.2595    2.1883 C   0  0  2  0  0  0  0  0  0  0  0  0
    4.9672   -1.0372    1.6167 C   0  0  0  0  0  0  0  0  0  0  0  0
    5.8102   -1.9269    1.6119 O   0  0  0  0  0  0  0  0  0  0  0  0
    3.3419   -2.6711    2.7521 C   0  0  0  0  0  0  0  0  0  0  0  0
    1.8951   -1.8230    0.9525 H   0  0  0  0  0  0  0  0  0  0  0  0
    3.4180   -0.5520    3.0149 H   0  0  0  0  0  0  0  0  0  0  0  0
    3.4698   -3.4226    1.9663 H   0  0  0  0  0  0  0  0  0  0  0  0
    4.0703   -2.8715    3.5445 H   0  0  0  0  0  0  0  0  0  0  0  0
    2.3374   -2.7710    3.1753 H   0  0  0  0  0  0  0  0  0  0  0  0
    5.2965    0.1998    1.0993 N   0  0  0  0  0  0  0  0  0  0  0  0
    6.5928    0.5296    0.5244 C   0  0  0  0  0  0  0  0  0  0  0  0
    4.5522    0.9023    1.1079 H   0  0  0  0  0  0  0  0  0  0  0  0
    7.3866    0.3879    1.2652 H   0  0  0  0  0  0  0  0  0  0  0  0
    6.8007   -0.1063   -0.3423 H   0  0  0  0  0  0  0  0  0  0  0  0
    6.6061    1.5742    0.1986 H   0  0  0  0  0  0  0  0  0  0  0  0
  1  2  2  0  0  0  0
  1  3  1  0  0  0  0
  1  7  1  0  0  0  0
  3  4  1  0  0  0  0
  3  5  1  0  0  0  0
  3  6  1  0  0  0  0
  7  8  1  0  0  0  0
  7 12  1  0  0  0  0
  8  9  1  0  0  0  0
  8 11  1  0  0  0  0
  8 13  1  0  0  0  0
  9 10  2  0  0  0  0
  9 17  1  0  0  0  0
 11 14  1  0  0  0  0
 11 15  1  0  0  0  0
 11 16  1  0  0  0  0
 17 18  1  0  0  0  0
 17 28  1  0  0  0  0
 18 19  1  0  0  0  0
 18 21  1  0  0  0  0
 18 29  1  0  0  0  0
 19 20  2  0  0  0  0
 19 37  1  0  0  0  0
 21 22  1  0  0  0  0
 21 30  1  0  0  0  0
 21 31  1  0  0  0  0
 22 23  1  0  0  0  0
 22 24  2  0  0  0  0
 23 25  2  0  0  0  0
 23 32  1  0  0  0  0
 24 26  1  0  0  0  0
 24 33  1  0  0  0  0
 25 27  1  0  0  0  0
 25 34  1  0  0  0  0
 26 27  2  0  0  0  0
 26 35  1  0  0  0  0
 27 36  1  0  0  0  0
 37 38  1  0  0  0  0
 37 42  1  0  0  0  0
 38 39  1  0  0  0  0
 38 41  1  0  0  0  0
 38 43  1  0  0  0  0
 39 40  2  0  0  0  0
 39 47  1  0  0  0  0
 41 44  1  0  0  0  0
 41 45  1  0  0  0  0
 41 46  1  0  0  0  0
 47 48  1  0  0  0  0
 47 49  1  0  0  0  0
 48 50  1  0  0  0  0
 48 51  1  0  0  0  0
 48 52  1  0  0  0  0
M  END
$$$$

  -OEChem-05262217163D

 52 52  0     1  0  0  0  0  0999 V2000
   -3.7890    0.6474    4.0997 C   0  0  0  0  0  0  0  0  0  0  0  0
   -4.6710    1.1984    3.4598 O   0  0  0  0  0  0  0  0  0  0  0  0
   -4.1212   -0.0783    5.3901 C   0  0  0  0  0  0  0  0  0  0  0  0
   -5.1925   -0.0069    5.5985 H   0  0  0  0  0  0  0  0  0  0  0  0
   -3.8484   -1.1333    5.3060 H   0  0  0  0  0  0  0  0  0  0  0  0
   -3.5701    0.3686    6.2210 H   0  0  0  0  0  0  0  0  0  0  0  0
   -2.4888    0.6704    3.6423 N   0  0  0  0  0  0  0  0  0  0  0  0
   -2.0802    1.1973    2.3338 C   0  0  2  0  0  0  0  0  0  0  0  0
   -0.8781    0.4231    1.7540 C   0  0  0  0  0  0  0  0  0  0  0  0
   -0.2946   -0.4067    2.4437 O   0  0  0  0  0  0  0  0  0  0  0  0
   -1.7286    2.6791    2.4964 C   0  0  0  0  0  0  0  0  0  0  0  0
   -1.8104    0.0888    4.1335 H   0  0  0  0  0  0  0  0  0  0  0  0
   -2.9066    1.0980    1.6218 H   0  0  0  0  0  0  0  0  0  0  0  0
   -0.8869    2.7980    3.1864 H   0  0  0  0  0  0  0  0  0  0  0  0
   -1.4531    3.1184    1.5331 H   0  0  0  0  0  0  0  0  0  0  0  0
   -2.5863    3.2311    2.8939 H   0  0  0  0  0  0  0  0  0  0  0  0
   -0.5340    0.5841    0.4216 N   0  0  0  0  0  0  0  0  0  0  0  0
    0.7841    0.2963   -0.1797 C   0  0  2  0  0  0  0  0  0  0  0  0
    1.9620    0.1224    0.8104 C   0  0  0  0  0  0  0  0  0  0  0  0
    2.4013    1.0948    1.4182 O   0  0  0  0  0  0  0  0  0  0  0  0
    1.1222    1.4429   -1.1510 C   0  0  0  0  0  0  0  0  0  0  0  0
    0.1824    1.4496   -2.3325 C   0  0  0  0  0  0  0  0  0  0  0  0
    0.3909    0.5792   -3.4129 C   0  0  0  0  0  0  0  0  0  0  0  0
   -0.9046    2.3372   -2.3708 C   0  0  0  0  0  0  0  0  0  0  0  0
   -0.4846    0.5813   -4.5043 C   0  0  0  0  0  0  0  0  0  0  0  0
   -1.7796    2.3404   -3.4622 C   0  0  0  0  0  0  0  0  0  0  0  0
   -1.5721    1.4596   -4.5276 C   0  0  0  0  0  0  0  0  0  0  0  0
   -1.1245    1.2256   -0.1007 H   0  0  0  0  0  0  0  0  0  0  0  0
    0.7036   -0.6363   -0.7450 H   0  0  0  0  0  0  0  0  0  0  0  0
    2.1481    1.3240   -1.5163 H   0  0  0  0  0  0  0  0  0  0  0  0
    1.0791    2.4028   -0.6246 H   0  0  0  0  0  0  0  0  0  0  0  0
    1.2338   -0.1057   -3.4089 H   0  0  0  0  0  0  0  0  0  0  0  0
   -1.0711    3.0373   -1.5574 H   0  0  0  0  0  0  0  0  0  0  0  0
   -0.3190   -0.0984   -5.3354 H   0  0  0  0  0  0  0  0  0  0  0  0
   -2.6183    3.0307   -3.4856 H   0  0  0  0  0  0  0  0  0  0  0  0
   -2.2510    1.4627   -5.3755 H   0  0  0  0  0  0  0  0  0  0  0  0
    2.6703   -1.0648    0.8599 N   0  0  0  0  0  0  0  0  0  0  0  0
    3.7603   -1.3192    1.8150 C   0  0  2  0  0  0  0  0  0  0  0  0
    5.1178   -0.7454    1.3404 C   0  0  0  0  0  0  0  0  0  0  0  0
    6.0961   -1.4617    1.1624 O   0  0  0  0  0  0  0  0  0  0  0  0
    3.8079   -2.8317    2.0650 C   0  0  0  0  0  0  0  0  0  0  0  0
    2.2510   -1.8654    0.3971 H   0  0  0  0  0  0  0  0  0  0  0  0
    3.5256   -0.8350    2.7692 H   0  0  0  0  0  0  0  0  0  0  0  0
    4.0498   -3.3687    1.1423 H   0  0  0  0  0  0  0  0  0  0  0  0
    4.5724   -3.0675    2.8124 H   0  0  0  0  0  0  0  0  0  0  0  0
    2.8425   -3.1876    2.4373 H   0  0  0  0  0  0  0  0  0  0  0  0
    5.2347    0.6126    1.1208 N   0  0  0  0  0  0  0  0  0  0  0  0
    6.4646    1.2724    0.7052 C   0  0  0  0  0  0  0  0  0  0  0  0
    4.3861    1.1661    1.2673 H   0  0  0  0  0  0  0  0  0  0  0  0
    7.2410    1.1470    1.4670 H   0  0  0  0  0  0  0  0  0  0  0  0
    6.8261    0.8520   -0.2390 H   0  0  0  0  0  0  0  0  0  0  0  0
    6.2886    2.3428    0.5622 H   0  0  0  0  0  0  0  0  0  0  0  0
  1  2  2  0  0  0  0
  1  3  1  0  0  0  0
  1  7  1  0  0  0  0
  3  4  1  0  0  0  0
  3  5  1  0  0  0  0
  3  6  1  0  0  0  0
  7  8  1  0  0  0  0
  7 12  1  0  0  0  0
  8  9  1  0  0  0  0
  8 11  1  0  0  0  0
  8 13  1  0  0  0  0
  9 10  2  0  0  0  0
  9 17  1  0  0  0  0
 11 14  1  0  0  0  0
 11 15  1  0  0  0  0
 11 16  1  0  0  0  0
 17 18  1  0  0  0  0
 17 28  1  0  0  0  0
 18 19  1  0  0  0  0
 18 21  1  0  0  0  0
 18 29  1  0  0  0  0
 19 20  2  0  0  0  0
 19 37  1  0  0  0  0
 21 22  1  0  0  0  0
 21 30  1  0  0  0  0
 21 31  1  0  0  0  0
 22 23  1  0  0  0  0
 22 24  2  0  0  0  0
 23 25  2  0  0  0  0
 23 32  1  0  0  0  0
 24 26  1  0  0  0  0
 24 33  1  0  0  0  0
 25 27  1  0  0  0  0
 25 34  1  0  0  0  0
 26 27  2  0  0  0  0
 26 35  1  0  0  0  0
 27 36  1  0  0  0  0
 37 38  1  0  0  0  0
 37 42  1  0  0  0  0
 38 39  1  0  0  0  0
 38 41  1  0  0  0  0
 38 43  1  0  0  0  0
 39 40  2  0  0  0  0
 39 47  1  0  0  0  0
 41 44  1  0  0  0  0
 41 45  1  0  0  0  0
 41 46  1  0  0  0  0
 47 48  1  0  0  0  0
 47 49  1  0  0  0  0
 48 50  1  0  0  0  0
 48 51  1  0  0  0  0
 48 52  1  0  0  0  0
M  END
$$$$

  -OEChem-05262217163D

 52 52  0     1  0  0  0  0  0999 V2000
   -3.7339    0.6611    4.1741 C   0  0  0  0  0  0  0  0  0  0  0  0
   -4.5812    1.3162    3.5874 O   0  0  0  0  0  0  0  0  0  0  0  0
   -4.0857   -0.0651    5.4590 C   0  0  0  0  0  0  0  0  0  0  0  0
   -5.1080    0.1780    5.7613 H   0  0  0  0  0  0  0  0  0  0  0  0
   -4.0091   -1.1448    5.3101 H   0  0  0  0  0  0  0  0  0  0  0  0
   -3.4025    0.2351    6.2573 H   0  0  0  0  0  0  0  0  0  0  0  0
   -2.4567    0.5720    3.6630 N   0  0  0  0  0  0  0  0  0  0  0  0
   -2.0424    1.1191    2.3649 C   0  0  2  0  0  0  0  0  0  0  0  0
   -0.8985    0.2986    1.7340 C   0  0  0  0  0  0  0  0  0  0  0  0
   -0.3657   -0.6055    2.3694 O   0  0  0  0  0  0  0  0  0  0  0  0
   -1.5998    2.5718    2.5687 C   0  0  0  0  0  0  0  0  0  0  0  0
   -1.8148   -0.0812    4.1115 H   0  0  0  0  0  0  0  0  0  0  0  0
   -2.8873    1.0916    1.6683 H   0  0  0  0  0  0  0  0  0  0  0  0
   -0.7436    2.6174    3.2497 H   0  0  0  0  0  0  0  0  0  0  0  0
   -1.3102    3.0250    1.6160 H   0  0  0  0  0  0  0  0  0  0  0  0
   -2.4167    3.1618    2.9962 H   0  0  0  0  0  0  0  0  0  0  0  0
   -0.5550    0.5017    0.4077 N   0  0  0  0  0  0  0  0  0  0  0  0
    0.7703    0.2327   -0.1863 C   0  0  2  0  0  0  0  0  0  0  0  0
    1.9425    0.0338    0.8060 C   0  0  0  0  0  0  0  0  0  0  0  0
    2.2471    0.9387    1.5786 O   0  0  0  0  0  0  0  0  0  0  0  0
    1.1236    1.4140   -1.1091 C   0  0  0  0  0  0  0  0  0  0  0  0
    0.2006    1.4697   -2.3028 C   0  0  0  0  0  0  0  0  0  0  0  0
    0.4219    0.6411   -3.4130 C   0  0  0  0  0  0  0  0  0  0  0  0
   -0.8844    2.3606   -2.3214 C   0  0  0  0  0  0  0  0  0  0  0  0
   -0.4382    0.6877   -4.5153 C   0  0  0  0  0  0  0  0  0  0  0  0
   -1.7442    2.4084   -3.4236 C   0  0  0  0  0  0  0  0  0  0  0  0
   -1.5231    1.5693   -4.5196 C   0  0  0  0  0  0  0  0  0  0  0  0
   -1.1143    1.2003   -0.0734 H   0  0  0  0  0  0  0  0  0  0  0  0
    0.6956   -0.6823   -0.7810 H   0  0  0  0  0  0  0  0  0  0  0  0
    2.1539    1.3074   -1.4655 H   0  0  0  0  0  0  0  0  0  0  0  0
    1.0760    2.3524   -0.5457 H   0  0  0  0  0  0  0  0  0  0  0  0
    1.2636   -0.0445   -3.4247 H   0  0  0  0  0  0  0  0  0  0  0  0
   -1.0609    3.0282   -1.4833 H   0  0  0  0  0  0  0  0  0  0  0  0
   -0.2627    0.0408   -5.3700 H   0  0  0  0  0  0  0  0  0  0  0  0
   -2.5813    3.1006   -3.4315 H   0  0  0  0  0  0  0  0  0  0  0  0
   -2.1898    1.6065   -5.3765 H   0  0  0  0  0  0  0  0  0  0  0  0
    2.8405   -1.0039    0.6294 N   0  0  0  0  0  0  0  0  0  0  0  0
    4.0135   -1.2293    1.4886 C   0  0  2  0  0  0  0  0  0  0  0  0
    5.2244   -0.3544    1.0823 C   0  0  0  0  0  0  0  0  0  0  0  0
    6.2906   -0.8472    0.7329 O   0  0  0  0  0  0  0  0  0  0  0  0
    4.3250   -2.7306    1.4544 C   0  0  0  0  0  0  0  0  0  0  0  0
    2.5835   -1.7335   -0.0280 H   0  0  0  0  0  0  0  0  0  0  0  0
    3.7620   -0.9668    2.5220 H   0  0  0  0  0  0  0  0  0  0  0  0
    4.5934   -3.0460    0.4410 H   0  0  0  0  0  0  0  0  0  0  0  0
    5.1637   -2.9582    2.1206 H   0  0  0  0  0  0  0  0  0  0  0  0
    3.4565   -3.3086    1.7850 H   0  0  0  0  0  0  0  0  0  0  0  0
    5.1000    1.0201    1.1140 N   0  0  0  0  0  0  0  0  0  0  0  0
    6.1702    1.9476    0.7758 C   0  0  0  0  0  0  0  0  0  0  0  0
    4.1847    1.3819    1.3956 H   0  0  0  0  0  0  0  0  0  0  0  0
    7.0183    1.8156    1.4557 H   0  0  0  0  0  0  0  0  0  0  0  0
    6.5115    1.7819   -0.2513 H   0  0  0  0  0  0  0  0  0  0  0  0
    5.8154    2.9791    0.8607 H   0  0  0  0  0  0  0  0  0  0  0  0
  1  2  2  0  0  0  0
  1  3  1  0  0  0  0
  1  7  1  0  0  0  0
  3  4  1  0  0  0  0
  3  5  1  0  0  0  0
  3  6  1  0  0  0  0
  7  8  1  0  0  0  0
  7 12  1  0  0  0  0
  8  9  1  0  0  0  0
  8 11  1  0  0  0  0
  8 13  1  0  0  0  0
  9 10  2  0  0  0  0
  9 17  1  0  0  0  0
 11 14  1  0  0  0  0
 11 15  1  0  0  0  0
 11 16  1  0  0  0  0
 17 18  1  0  0  0  0
 17 28  1  0  0  0  0
 18 19  1  0  0  0  0
 18 21  1  0  0  0  0
 18 29  1  0  0  0  0
 19 20  2  0  0  0  0
 19 37  1  0  0  0  0
 21 22  1  0  0  0  0
 21 30  1  0  0  0  0
 21 31  1  0  0  0  0
 22 23  1  0  0  0  0
 22 24  2  0  0  0  0
 23 25  2  0  0  0  0
 23 32  1  0  0  0  0
 24 26  1  0  0  0  0
 24 33  1  0  0  0  0
 25 27  1  0  0  0  0
 25 34  1  0  0  0  0
 26 27  2  0  0  0  0
 26 35  1  0  0  0  0
 27 36  1  0  0  0  0
 37 38  1  0  0  0  0
 37 42  1  0  0  0  0
 38 39  1  0  0  0  0
 38 41  1  0  0  0  0
 38 43  1  0  0  0  0
 39 40  2  0  0  0  0
 39 47  1  0  0  0  0
 41 44  1  0  0  0  0
 41 45  1  0  0  0  0
 41 46  1  0  0  0  0
 47 48  1  0  0  0  0
 47 49  1  0  0  0  0
 48 50  1  0  0  0  0
 48 51  1  0  0  0  0
 48 52  1  0  0  0  0
M  END
$$$$

  -OEChem-05262217163D

 52 52  0     1  0  0  0  0  0999 V2000
   -3.6396    0.6532    4.2487 C   0  0  0  0  0  0  0  0  0  0  0  0
   -4.4681    1.3765    3.7181 O   0  0  0  0  0  0  0  0  0  0  0  0
   -3.9842   -0.0957    5.5222 C   0  0  0  0  0  0  0  0  0  0  0  0
   -4.9928    0.1667    5.8532 H   0  0  0  0  0  0  0  0  0  0  0  0
   -3.9396   -1.1730    5.3447 H   0  0  0  0  0  0  0  0  0  0  0  0
   -3.2759    0.1661    6.3118 H   0  0  0  0  0  0  0  0  0  0  0  0
   -2.3900    0.5072    3.6857 N   0  0  0  0  0  0  0  0  0  0  0  0
   -1.9962    1.0598    2.3836 C   0  0  2  0  0  0  0  0  0  0  0  0
   -0.9163    0.1960    1.6993 C   0  0  0  0  0  0  0  0  0  0  0  0
   -0.4469   -0.7790    2.2779 O   0  0  0  0  0  0  0  0  0  0  0  0
   -1.4769    2.4858    2.5956 C   0  0  0  0  0  0  0  0  0  0  0  0
   -1.7760   -0.2025    4.0848 H   0  0  0  0  0  0  0  0  0  0  0  0
   -2.8657    1.0857    1.7181 H   0  0  0  0  0  0  0  0  0  0  0  0
   -0.5892    2.4773    3.2367 H   0  0  0  0  0  0  0  0  0  0  0  0
   -1.2099    2.9456    1.6396 H   0  0  0  0  0  0  0  0  0  0  0  0
   -2.2452    3.1036    3.0714 H   0  0  0  0  0  0  0  0  0  0  0  0
   -0.5687    0.4344    0.3802 N   0  0  0  0  0  0  0  0  0  0  0  0
    0.7612    0.1693   -0.2075 C   0  0  2  0  0  0  0  0  0  0  0  0
    1.9290   -0.0656    0.7835 C   0  0  0  0  0  0  0  0  0  0  0  0
    2.1235    0.7316    1.6977 O   0  0  0  0  0  0  0  0  0  0  0  0
    1.1355    1.3797   -1.0838 C   0  0  0  0  0  0  0  0  0  0  0  0
    0.2267    1.4888   -2.2842 C   0  0  0  0  0  0  0  0  0  0  0  0
    0.4499    0.7004   -3.4229 C   0  0  0  0  0  0  0  0  0  0  0  0
   -0.8504    2.3893   -2.2781 C   0  0  0  0  0  0  0  0  0  0  0  0
   -0.3999    0.7975   -4.5303 C   0  0  0  0  0  0  0  0  0  0  0  0
   -1.7011    2.4863   -3.3842 C   0  0  0  0  0  0  0  0  0  0  0  0
   -1.4777    1.6879   -4.5098 C   0  0  0  0  0  0  0  0  0  0  0  0
   -1.0950    1.1813   -0.0633 H   0  0  0  0  0  0  0  0  0  0  0  0
    0.6832   -0.7271   -0.8294 H   0  0  0  0  0  0  0  0  0  0  0  0
    2.1678    1.2756   -1.4357 H   0  0  0  0  0  0  0  0  0  0  0  0
    1.0931    2.2977   -0.4873 H   0  0  0  0  0  0  0  0  0  0  0  0
    1.2846    0.0065   -3.4541 H   0  0  0  0  0  0  0  0  0  0  0  0
   -1.0298    3.0260   -1.4169 H   0  0  0  0  0  0  0  0  0  0  0  0
   -0.2227    0.1816   -5.4075 H   0  0  0  0  0  0  0  0  0  0  0  0
   -2.5334    3.1847   -3.3715 H   0  0  0  0  0  0  0  0  0  0  0  0
   -2.1378    1.7633   -5.3693 H   0  0  0  0  0  0  0  0  0  0  0  0
    2.9806   -0.8911    0.4251 N   0  0  0  0  0  0  0  0  0  0  0  0
    4.2180   -1.0392    1.2076 C   0  0  2  0  0  0  0  0  0  0  0  0
    5.2338    0.0944    0.9245 C   0  0  0  0  0  0  0  0  0  0  0  0
    6.3242   -0.1276    0.4116 O   0  0  0  0  0  0  0  0  0  0  0  0
    4.7832   -2.4342    0.9142 C   0  0  0  0  0  0  0  0  0  0  0  0
    2.8538   -1.4847   -0.3887 H   0  0  0  0  0  0  0  0  0  0  0  0
    3.9803   -0.9970    2.2764 H   0  0  0  0  0  0  0  0  0  0  0  0
    5.0449   -2.5311   -0.1442 H   0  0  0  0  0  0  0  0  0  0  0  0
    5.6847   -2.6093    1.5097 H   0  0  0  0  0  0  0  0  0  0  0  0
    4.0482   -3.2043    1.1668 H   0  0  0  0  0  0  0  0  0  0  0  0
    4.8935    1.3937    1.2432 N   0  0  0  0  0  0  0  0  0  0  0  0
    5.7438    2.5486    0.9909 C   0  0  0  0  0  0  0  0  0  0  0  0
    3.9472    1.5320    1.6085 H   0  0  0  0  0  0  0  0  0  0  0  0
    6.7035    2.4385    1.5071 H   0  0  0  0  0  0  0  0  0  0  0  0
    5.9302    2.6589   -0.0823 H   0  0  0  0  0  0  0  0  0  0  0  0
    5.2590    3.4598    1.3545 H   0  0  0  0  0  0  0  0  0  0  0  0
  1  2  2  0  0  0  0
  1  3  1  0  0  0  0
  1  7  1  0  0  0  0
  3  4  1  0  0  0  0
  3  5  1  0  0  0  0
  3  6  1  0  0  0  0
  7  8  1  0  0  0  0
  7 12  1  0  0  0  0
  8  9  1  0  0  0  0
  8 11  1  0  0  0  0
  8 13  1  0  0  0  0
  9 10  2  0  0  0  0
  9 17  1  0  0  0  0
 11 14  1  0  0  0  0
 11 15  1  0  0  0  0
 11 16  1  0  0  0  0
 17 18  1  0  0  0  0
 17 28  1  0  0  0  0
 18 19  1  0  0  0  0
 18 21  1  0  0  0  0
 18 29  1  0  0  0  0
 19 20  2  0  0  0  0
 19 37  1  0  0  0  0
 21 22  1  0  0  0  0
 21 30  1  0  0  0  0
 21 31  1  0  0  0  0
 22 23  1  0  0  0  0
 22 24  2  0  0  0  0
 23 25  2  0  0  0  0
 23 32  1  0  0  0  0
 24 26  1  0  0  0  0
 24 33  1  0  0  0  0
 25 27  1  0  0  0  0
 25 34  1  0  0  0  0
 26 27  2  0  0  0  0
 26 35  1  0  0  0  0
 27 36  1  0  0  0  0
 37 38  1  0  0  0  0
 37 42  1  0  0  0  0
 38 39  1  0  0  0  0
 38 41  1  0  0  0  0
 38 43  1  0  0  0  0
 39 40  2  0  0  0  0
 39 47  1  0  0  0  0
 41 44  1  0  0  0  0
 41 45  1  0  0  0  0
 41 46  1  0  0  0  0
 47 48  1  0  0  0  0
 47 49  1  0  0  0  0
 48 50  1  0  0  0  0
 48 51  1  0  0  0  0
 48 52  1  0  0  0  0
M  END
$$$$

  -OEChem-05262217163D

 52 52  0     1  0  0  0  0  0999 V2000
   -3.5564    0.6327    4.2969 C   0  0  0  0  0  0  0  0  0  0  0  0
   -4.3533    1.4227    3.8148 O   0  0  0  0  0  0  0  0  0  0  0  0
   -3.9128   -0.1387    5.5535 C   0  0  0  0  0  0  0  0  0  0  0  0
   -4.8522    0.2345    5.9709 H   0  0  0  0  0  0  0  0  0  0  0  0
   -4.0264   -1.2001    5.3197 H   0  0  0  0  0  0  0  0  0  0  0  0
   -3.1247   -0.0205    6.3008 H   0  0  0  0  0  0  0  0  0  0  0  0
   -2.3347    0.4304    3.6924 N   0  0  0  0  0  0  0  0  0  0  0  0
   -1.9426    1.0064    2.4003 C   0  0  2  0  0  0  0  0  0  0  0  0
   -0.9143    0.1186    1.6695 C   0  0  0  0  0  0  0  0  0  0  0  0
   -0.5057   -0.9143    2.1905 O   0  0  0  0  0  0  0  0  0  0  0  0
   -1.3595    2.4025    2.6447 C   0  0  0  0  0  0  0  0  0  0  0  0
   -1.7530   -0.3272    4.0500 H   0  0  0  0  0  0  0  0  0  0  0  0
   -2.8227    1.0884    1.7534 H   0  0  0  0  0  0  0  0  0  0  0  0
   -0.4640    2.3377    3.2715 H   0  0  0  0  0  0  0  0  0  0  0  0
   -1.0873    2.8785    1.6983 H   0  0  0  0  0  0  0  0  0  0  0  0
   -2.0937    3.0382    3.1498 H   0  0  0  0  0  0  0  0  0  0  0  0
   -0.5598    0.3939    0.3600 N   0  0  0  0  0  0  0  0  0  0  0  0
    0.7730    0.1345   -0.2254 C   0  0  2  0  0  0  0  0  0  0  0  0
    1.9505   -0.1407    0.7467 C   0  0  0  0  0  0  0  0  0  0  0  0
    2.0599    0.5042    1.7863 O   0  0  0  0  0  0  0  0  0  0  0  0
    1.1443    1.3741   -1.0645 C   0  0  0  0  0  0  0  0  0  0  0  0
    0.2365    1.5156   -2.2627 C   0  0  0  0  0  0  0  0  0  0  0  0
    0.4688    0.7607   -3.4222 C   0  0  0  0  0  0  0  0  0  0  0  0
   -0.8465    2.4086   -2.2357 C   0  0  0  0  0  0  0  0  0  0  0  0
   -0.3777    0.8823   -4.5294 C   0  0  0  0  0  0  0  0  0  0  0  0
   -1.6936    2.5298   -3.3422 C   0  0  0  0  0  0  0  0  0  0  0  0
   -1.4616    1.7642   -4.4883 C   0  0  0  0  0  0  0  0  0  0  0  0
   -1.0617    1.1758   -0.0501 H   0  0  0  0  0  0  0  0  0  0  0  0
    0.6904   -0.7429   -0.8737 H   0  0  0  0  0  0  0  0  0  0  0  0
    2.1771    1.2922   -1.4202 H   0  0  0  0  0  0  0  0  0  0  0  0
    1.0956    2.2718   -0.4386 H   0  0  0  0  0  0  0  0  0  0  0  0
    1.3081    0.0734   -3.4702 H   0  0  0  0  0  0  0  0  0  0  0  0
   -1.0341    3.0197   -1.3581 H   0  0  0  0  0  0  0  0  0  0  0  0
   -0.1932    0.2923   -5.4227 H   0  0  0  0  0  0  0  0  0  0  0  0
   -2.5303    3.2219   -3.3138 H   0  0  0  0  0  0  0  0  0  0  0  0
   -2.1196    1.8580   -5.3477 H   0  0  0  0  0  0  0  0  0  0  0  0
    3.1156   -0.6953    0.2432 N   0  0  0  0  0  0  0  0  0  0  0  0
    4.3929   -0.7557    0.9704 C   0  0  2  0  0  0  0  0  0  0  0  0
    5.1897    0.5664    0.8609 C   0  0  0  0  0  0  0  0  0  0  0  0
    6.2710    0.6236    0.2877 O   0  0  0  0  0  0  0  0  0  0  0  0
    5.1659   -1.9679    0.4374 C   0  0  0  0  0  0  0  0  0  0  0  0
    3.0792   -1.0925   -0.6905 H   0  0  0  0  0  0  0  0  0  0  0  0
    4.2010   -0.9281    2.0349 H   0  0  0  0  0  0  0  0  0  0  0  0
    5.3925   -1.8459   -0.6268 H   0  0  0  0  0  0  0  0  0  0  0  0
    6.1093   -2.0824    0.9807 H   0  0  0  0  0  0  0  0  0  0  0  0
    4.5792   -2.8822    0.5692 H   0  0  0  0  0  0  0  0  0  0  0  0
    4.6515    1.7189    1.3971 N   0  0  0  0  0  0  0  0  0  0  0  0
    5.2775    3.0307    1.3104 C   0  0  0  0  0  0  0  0  0  0  0  0
    3.7164    1.6294    1.8043 H   0  0  0  0  0  0  0  0  0  0  0  0
    6.2753    3.0098    1.7611 H   0  0  0  0  0  0  0  0  0  0  0  0
    5.3686    3.3432    0.2652 H   0  0  0  0  0  0  0  0  0  0  0  0
    4.6739    3.7715    1.8430 H   0  0  0  0  0  0  0  0  0  0  0  0
  1  2  2  0  0  0  0
  1  3  1  0  0  0  0
  1  7  1  0  0  0  0
  3  4  1  0  0  0  0
  3  5  1  0  0  0  0
  3  6  1  0  0  0  0
  7  8  1  0  0  0  0
  7 12  1  0  0  0  0
  8  9  1  0  0  0  0
  8 11  1  0  0  0  0
  8 13  1  0  0  0  0
  9 10  2  0  0  0  0
  9 17  1  0  0  0  0
 11 14  1  0  0  0  0
 11 15  1  0  0  0  0
 11 16  1  0  0  0  0
 17 18  1  0  0  0  0
 17 28  1  0  0  0  0
 18 19  1  0  0  0  0
 18 21  1  0  0  0  0
 18 29  1  0  0  0  0
 19 20  2  0  0  0  0
 19 37  1  0  0  0  0
 21 22  1  0  0  0  0
 21 30  1  0  0  0  0
 21 31  1  0  0  0  0
 22 23  1  0  0  0  0
 22 24  2  0  0  0  0
 23 25  2  0  0  0  0
 23 32  1  0  0  0  0
 24 26  1  0  0  0  0
 24 33  1  0  0  0  0
 25 27  1  0  0  0  0
 25 34  1  0  0  0  0
 26 27  2  0  0  0  0
 26 35  1  0  0  0  0
 27 36  1  0  0  0  0
 37 38  1  0  0  0  0
 37 42  1  0  0  0  0
 38 39  1  0  0  0  0
 38 41  1  0  0  0  0
 38 43  1  0  0  0  0
 39 40  2  0  0  0  0
 39 47  1  0  0  0  0
 41 44  1  0  0  0  0
 41 45  1  0  0  0  0
 41 46  1  0  0  0  0
 47 48  1  0  0  0  0
 47 49  1  0  0  0  0
 48 50  1  0  0  0  0
 48 51  1  0  0  0  0
 48 52  1  0  0  0  0
M  END
$$$$

  -OEChem-05262217163D

 52 52  0     1  0  0  0  0  0999 V2000
   -2.8873    0.0564    4.2828 C   0  0  0  0  0  0  0  0  0  0  0  0
   -3.7679   -0.5073    3.6518 O   0  0  0  0  0  0  0  0  0  0  0  0
   -2.6368   -0.3093    5.7335 C   0  0  0  0  0  0  0  0  0  0  0  0
   -3.3283   -1.0955    6.0497 H   0  0  0  0  0  0  0  0  0  0  0  0
   -1.6128   -0.6719    5.8543 H   0  0  0  0  0  0  0  0  0  0  0  0
   -2.7835    0.5665    6.3702 H   0  0  0  0  0  0  0  0  0  0  0  0
   -2.1068    1.0168    3.6756 N   0  0  0  0  0  0  0  0  0  0  0  0
   -2.0938    1.2733    2.2305 C   0  0  2  0  0  0  0  0  0  0  0  0
   -0.6515    1.4479    1.7154 C   0  0  0  0  0  0  0  0  0  0  0  0
    0.1977    1.9322    2.4551 O   0  0  0  0  0  0  0  0  0  0  0  0
   -2.9251    2.5294    1.9584 C   0  0  0  0  0  0  0  0  0  0  0  0
   -1.2986    1.3512    4.1997 H   0  0  0  0  0  0  0  0  0  0  0  0
   -2.5325    0.4263    1.6920 H   0  0  0  0  0  0  0  0  0  0  0  0
   -2.4946    3.3924    2.4766 H   0  0  0  0  0  0  0  0  0  0  0  0
   -2.9552    2.7457    0.8863 H   0  0  0  0  0  0  0  0  0  0  0  0
   -3.9512    2.3865    2.3116 H   0  0  0  0  0  0  0  0  0  0  0  0
   -0.3714    1.3133    0.3669 N   0  0  0  0  0  0  0  0  0  0  0  0
    0.8360    0.6880   -0.2279 C   0  0  2  0  0  0  0  0  0  0  0  0
    1.9518    0.0853    0.6755 C   0  0  0  0  0  0  0  0  0  0  0  0
    1.7274   -0.3161    1.8099 O   0  0  0  0  0  0  0  0  0  0  0  0
    1.4403    1.7693   -1.1488 C   0  0  0  0  0  0  0  0  0  0  0  0
    0.5273    2.0514   -2.3202 C   0  0  0  0  0  0  0  0  0  0  0  0
    0.5255    1.2079   -3.4420 C   0  0  0  0  0  0  0  0  0  0  0  0
   -0.3392    3.1549   -2.2959 C   0  0  0  0  0  0  0  0  0  0  0  0
   -0.3302    1.4623   -4.5194 C   0  0  0  0  0  0  0  0  0  0  0  0
   -1.1965    3.4091   -3.3718 C   0  0  0  0  0  0  0  0  0  0  0  0
   -1.1921    2.5624   -4.4842 C   0  0  0  0  0  0  0  0  0  0  0  0
   -1.2098    1.1908   -0.1939 H   0  0  0  0  0  0  0  0  0  0  0  0
    0.5012   -0.1539   -0.8414 H   0  0  0  0  0  0  0  0  0  0  0  0
    2.4096    1.4520   -1.5431 H   0  0  0  0  0  0  0  0  0  0  0  0
    1.6153    2.6841   -0.5710 H   0  0  0  0  0  0  0  0  0  0  0  0
    1.1898    0.3502   -3.4846 H   0  0  0  0  0  0  0  0  0  0  0  0
   -0.3497    3.8190   -1.4359 H   0  0  0  0  0  0  0  0  0  0  0  0
   -0.3248    0.8071   -5.3858 H   0  0  0  0  0  0  0  0  0  0  0  0
   -1.8641    4.2658   -3.3447 H   0  0  0  0  0  0  0  0  0  0  0  0
   -1.8553    2.7611   -5.3214 H   0  0  0  0  0  0  0  0  0  0  0  0
    3.0664   -0.4839    0.0776 N   0  0  0  0  0  0  0  0  0  0  0  0
    4.0776   -1.2851    0.7902 C   0  0  2  0  0  0  0  0  0  0  0  0
    4.9737   -0.4257    1.7179 C   0  0  0  0  0  0  0  0  0  0  0  0
    6.1803   -0.3234    1.5289 O   0  0  0  0  0  0  0  0  0  0  0  0
    4.8804   -2.0489   -0.2711 C   0  0  0  0  0  0  0  0  0  0  0  0
    3.2787   -0.1943   -0.8717 H   0  0  0  0  0  0  0  0  0  0  0  0
    3.5785   -2.0259    1.4244 H   0  0  0  0  0  0  0  0  0  0  0  0
    5.4071   -1.3532   -0.9324 H   0  0  0  0  0  0  0  0  0  0  0  0
    5.6213   -2.6964    0.2089 H   0  0  0  0  0  0  0  0  0  0  0  0
    4.2163   -2.6743   -0.8753 H   0  0  0  0  0  0  0  0  0  0  0  0
    4.3982    0.2557    2.7724 N   0  0  0  0  0  0  0  0  0  0  0  0
    5.1268    1.1468    3.6640 C   0  0  0  0  0  0  0  0  0  0  0  0
    3.3774    0.2012    2.8420 H   0  0  0  0  0  0  0  0  0  0  0  0
    5.9201    0.6010    4.1854 H   0  0  0  0  0  0  0  0  0  0  0  0
    5.5759    1.9708    3.1000 H   0  0  0  0  0  0  0  0  0  0  0  0
    4.4483    1.5682    4.4120 H   0  0  0  0  0  0  0  0  0  0  0  0
  1  2  2  0  0  0  0
  1  3  1  0  0  0  0
  1  7  1  0  0  0  0
  3  4  1  0  0  0  0
  3  5  1  0  0  0  0
  3  6  1  0  0  0  0
  7  8  1  0  0  0  0
  7 12  1  0  0  0  0
  8  9  1  0  0  0  0
  8 11  1  0  0  0  0
  8 13  1  0  0  0  0
  9 10  2  0  0  0  0
  9 17  1  0  0  0  0
 11 14  1  0  0  0  0
 11 15  1  0  0  0  0
 11 16  1  0  0  0  0
 17 18  1  0  0  0  0
 17 28  1  0  0  0  0
 18 19  1  0  0  0  0
 18 21  1  0  0  0  0
 18 29  1  0  0  0  0
 19 20  2  0  0  0  0
 19 37  1  0  0  0  0
 21 22  1  0  0  0  0
 21 30  1  0  0  0  0
 21 31  1  0  0  0  0
 22 23  1  0  0  0  0
 22 24  2  0  0  0  0
 23 25  2  0  0  0  0
 23 32  1  0  0  0  0
 24 26  1  0  0  0  0
 24 33  1  0  0  0  0
 25 27  1  0  0  0  0
 25 34  1  0  0  0  0
 26 27  2  0  0  0  0
 26 35  1  0  0  0  0
 27 36  1  0  0  0  0
 37 38  1  0  0  0  0
 37 42  1  0  0  0  0
 38 39  1  0  0  0  0
 38 41  1  0  0  0  0
 38 43  1  0  0  0  0
 39 40  2  0  0  0  0
 39 47  1  0  0  0  0
 41 44  1  0  0  0  0
 41 45  1  0  0  0  0
 41 46  1  0  0  0  0
 47 48  1  0  0  0  0
 47 49  1  0  0  0  0
 48 50  1  0  0  0  0
 48 51  1  0  0  0  0
 48 52  1  0  0  0  0
M  END
$$$$

  -OEChem-05262217163D

 52 52  0     1  0  0  0  0  0999 V2000
   -2.9260    0.0991    4.3304 C   0  0  0  0  0  0  0  0  0  0  0  0
   -3.8897   -0.3364    3.7199 O   0  0  0  0  0  0  0  0  0  0  0  0
   -2.7301   -0.2485    5.7941 C   0  0  0  0  0  0  0  0  0  0  0  0
   -3.5474   -0.8863    6.1427 H   0  0  0  0  0  0  0  0  0  0  0  0
   -1.7855   -0.7816    5.9280 H   0  0  0  0  0  0  0  0  0  0  0  0
   -2.7143    0.6638    6.3952 H   0  0  0  0  0  0  0  0  0  0  0  0
   -2.0111    0.9058    3.6884 N   0  0  0  0  0  0  0  0  0  0  0  0
   -2.0064    1.1638    2.2436 C   0  0  2  0  0  0  0  0  0  0  0  0
   -0.5677    1.3107    1.7087 C   0  0  0  0  0  0  0  0  0  0  0  0
    0.3235    1.6868    2.4632 O   0  0  0  0  0  0  0  0  0  0  0  0
   -2.8186    2.4346    1.9773 C   0  0  0  0  0  0  0  0  0  0  0  0
   -1.1621    1.1487    4.1982 H   0  0  0  0  0  0  0  0  0  0  0  0
   -2.4668    0.3219    1.7152 H   0  0  0  0  0  0  0  0  0  0  0  0
   -2.3702    3.2896    2.4936 H   0  0  0  0  0  0  0  0  0  0  0  0
   -2.8525    2.6528    0.9059 H   0  0  0  0  0  0  0  0  0  0  0  0
   -3.8452    2.3093    2.3367 H   0  0  0  0  0  0  0  0  0  0  0  0
   -0.3215    1.2353    0.3480 N   0  0  0  0  0  0  0  0  0  0  0  0
    0.8812    0.6579   -0.3013 C   0  0  2  0  0  0  0  0  0  0  0  0
    2.0063    0.0541    0.5883 C   0  0  0  0  0  0  0  0  0  0  0  0
    1.7229   -0.5959    1.5879 O   0  0  0  0  0  0  0  0  0  0  0  0
    1.4344    1.7789   -1.2080 C   0  0  0  0  0  0  0  0  0  0  0  0
    0.4772    2.0696   -2.3404 C   0  0  0  0  0  0  0  0  0  0  0  0
    0.4584    1.2557   -3.4835 C   0  0  0  0  0  0  0  0  0  0  0  0
   -0.4083    3.1552   -2.2612 C   0  0  0  0  0  0  0  0  0  0  0  0
   -0.4379    1.5169   -4.5255 C   0  0  0  0  0  0  0  0  0  0  0  0
   -1.3037    3.4185   -3.3031 C   0  0  0  0  0  0  0  0  0  0  0  0
   -1.3197    2.5982   -4.4352 C   0  0  0  0  0  0  0  0  0  0  0  0
   -1.1705    1.1470   -0.2038 H   0  0  0  0  0  0  0  0  0  0  0  0
    0.5559   -0.1767   -0.9298 H   0  0  0  0  0  0  0  0  0  0  0  0
    2.3934    1.4931   -1.6482 H   0  0  0  0  0  0  0  0  0  0  0  0
    1.6098    2.6814   -0.6116 H   0  0  0  0  0  0  0  0  0  0  0  0
    1.1388    0.4137   -3.5680 H   0  0  0  0  0  0  0  0  0  0  0  0
   -0.4026    3.7987   -1.3857 H   0  0  0  0  0  0  0  0  0  0  0  0
   -0.4482    0.8811   -5.4063 H   0  0  0  0  0  0  0  0  0  0  0  0
   -1.9852    4.2616   -3.2338 H   0  0  0  0  0  0  0  0  0  0  0  0
   -2.0143    2.8026   -5.2451 H   0  0  0  0  0  0  0  0  0  0  0  0
    3.2650   -0.2051    0.0664 N   0  0  0  0  0  0  0  0  0  0  0  0
    4.3319   -0.9016    0.8074 C   0  0  2  0  0  0  0  0  0  0  0  0
    4.9237   -0.0290    1.9431 C   0  0  0  0  0  0  0  0  0  0  0  0
    6.1019    0.3077    1.9456 O   0  0  0  0  0  0  0  0  0  0  0  0
    5.3844   -1.3466   -0.2162 C   0  0  0  0  0  0  0  0  0  0  0  0
    3.5354    0.3206   -0.7587 H   0  0  0  0  0  0  0  0  0  0  0  0
    3.9263   -1.8047    1.2759 H   0  0  0  0  0  0  0  0  0  0  0  0
    5.8387   -0.4797   -0.7067 H   0  0  0  0  0  0  0  0  0  0  0  0
    6.1764   -1.9169    0.2797 H   0  0  0  0  0  0  0  0  0  0  0  0
    4.9283   -1.9835   -0.9802 H   0  0  0  0  0  0  0  0  0  0  0  0
    4.0960    0.4102    2.9578 N   0  0  0  0  0  0  0  0  0  0  0  0
    4.5120    1.3228    4.0128 C   0  0  0  0  0  0  0  0  0  0  0  0
    3.1034    0.1732    2.8663 H   0  0  0  0  0  0  0  0  0  0  0  0
    5.3026    0.8710    4.6208 H   0  0  0  0  0  0  0  0  0  0  0  0
    4.8857    2.2587    3.5848 H   0  0  0  0  0  0  0  0  0  0  0  0
    3.6637    1.5547    4.6642 H   0  0  0  0  0  0  0  0  0  0  0  0
  1  2  2  0  0  0  0
  1  3  1  0  0  0  0
  1  7  1  0  0  0  0
  3  4  1  0  0  0  0
  3  5  1  0  0  0  0
  3  6  1  0  0  0  0
  7  8  1  0  0  0  0
  7 12  1  0  0  0  0
  8  9  1  0  0  0  0
  8 11  1  0  0  0  0
  8 13  1  0  0  0  0
  9 10  2  0  0  0  0
  9 17  1  0  0  0  0
 11 14  1  0  0  0  0
 11 15  1  0  0  0  0
 11 16  1  0  0  0  0
 17 18  1  0  0  0  0
 17 28  1  0  0  0  0
 18 19  1  0  0  0  0
 18 21  1  0  0  0  0
 18 29  1  0  0  0  0
 19 20  2  0  0  0  0
 19 37  1  0  0  0  0
 21 22  1  0  0  0  0
 21 30  1  0  0  0  0
 21 31  1  0  0  0  0
 22 23  1  0  0  0  0
 22 24  2  0  0  0  0
 23 25  2  0  0  0  0
 23 32  1  0  0  0  0
 24 26  1  0  0  0  0
 24 33  1  0  0  0  0
 25 27  1  0  0  0  0
 25 34  1  0  0  0  0
 26 27  2  0  0  0  0
 26 35  1  0  0  0  0
 27 36  1  0  0  0  0
 37 38  1  0  0  0  0
 37 42  1  0  0  0  0
 38 39  1  0  0  0  0
 38 41  1  0  0  0  0
 38 43  1  0  0  0  0
 39 40  2  0  0  0  0
 39 47  1  0  0  0  0
 41 44  1  0  0  0  0
 41 45  1  0  0  0  0
 41 46  1  0  0  0  0
 47 48  1  0  0  0  0
 47 49  1  0  0  0  0
 48 50  1  0  0  0  0
 48 51  1  0  0  0  0
 48 52  1  0  0  0  0
M  END
$$$$

  -OEChem-05262217163D

 52 52  0     1  0  0  0  0  0999 V2000
   -2.9565    0.1016    4.3260 C   0  0  0  0  0  0  0  0  0  0  0  0
   -3.9582   -0.2300    3.7115 O   0  0  0  0  0  0  0  0  0  0  0  0
   -2.7982   -0.2766    5.7867 C   0  0  0  0  0  0  0  0  0  0  0  0
   -3.6798   -0.8239    6.1321 H   0  0  0  0  0  0  0  0  0  0  0  0
   -1.9173   -0.9107    5.9146 H   0  0  0  0  0  0  0  0  0  0  0  0
   -2.6823    0.6236    6.3953 H   0  0  0  0  0  0  0  0  0  0  0  0
   -1.9643    0.8168    3.6901 N   0  0  0  0  0  0  0  0  0  0  0  0
   -1.9384    1.0921    2.2484 C   0  0  2  0  0  0  0  0  0  0  0  0
   -0.4935    1.1563    1.7116 C   0  0  0  0  0  0  0  0  0  0  0  0
    0.4275    1.4008    2.4852 O   0  0  0  0  0  0  0  0  0  0  0  0
   -2.6719    2.4128    1.9920 C   0  0  0  0  0  0  0  0  0  0  0  0
   -1.0964    0.9728    4.2021 H   0  0  0  0  0  0  0  0  0  0  0  0
   -2.4486    0.2849    1.7118 H   0  0  0  0  0  0  0  0  0  0  0  0
   -2.1748    3.2345    2.5175 H   0  0  0  0  0  0  0  0  0  0  0  0
   -2.6907    2.6428    0.9226 H   0  0  0  0  0  0  0  0  0  0  0  0
   -3.7054    2.3467    2.3469 H   0  0  0  0  0  0  0  0  0  0  0  0
   -0.2687    1.1347    0.3435 N   0  0  0  0  0  0  0  0  0  0  0  0
    0.9338    0.6261   -0.3604 C   0  0  2  0  0  0  0  0  0  0  0  0
    2.0799    0.0396    0.5089 C   0  0  0  0  0  0  0  0  0  0  0  0
    1.8114   -0.8074    1.3531 O   0  0  0  0  0  0  0  0  0  0  0  0
    1.4250    1.7839   -1.2552 C   0  0  0  0  0  0  0  0  0  0  0  0
    0.4252    2.0685   -2.3517 C   0  0  0  0  0  0  0  0  0  0  0  0
    0.3963    1.2813   -3.5129 C   0  0  0  0  0  0  0  0  0  0  0  0
   -0.4937    3.1205   -2.2173 C   0  0  0  0  0  0  0  0  0  0  0  0
   -0.5432    1.5352   -4.5180 C   0  0  0  0  0  0  0  0  0  0  0  0
   -1.4323    3.3763   -3.2225 C   0  0  0  0  0  0  0  0  0  0  0  0
   -1.4591    2.5814   -4.3721 C   0  0  0  0  0  0  0  0  0  0  0  0
   -1.1234    1.0953   -0.2056 H   0  0  0  0  0  0  0  0  0  0  0  0
    0.6260   -0.2057   -1.0018 H   0  0  0  0  0  0  0  0  0  0  0  0
    2.3743    1.5283   -1.7344 H   0  0  0  0  0  0  0  0  0  0  0  0
    1.5961    2.6776   -0.6450 H   0  0  0  0  0  0  0  0  0  0  0  0
    1.1021    0.4657   -3.6401 H   0  0  0  0  0  0  0  0  0  0  0  0
   -0.4803    3.7444   -1.3279 H   0  0  0  0  0  0  0  0  0  0  0  0
   -0.5607    0.9204   -5.4134 H   0  0  0  0  0  0  0  0  0  0  0  0
   -2.1392    4.1937   -3.1115 H   0  0  0  0  0  0  0  0  0  0  0  0
   -2.1881    2.7792   -5.1529 H   0  0  0  0  0  0  0  0  0  0  0  0
    3.4103    0.1020    0.1262 N   0  0  0  0  0  0  0  0  0  0  0  0
    4.5038   -0.4771    0.9260 C   0  0  2  0  0  0  0  0  0  0  0  0
    4.7774    0.3296    2.2224 C   0  0  0  0  0  0  0  0  0  0  0  0
    5.8877    0.7876    2.4665 O   0  0  0  0  0  0  0  0  0  0  0  0
    5.7308   -0.5739    0.0112 C   0  0  0  0  0  0  0  0  0  0  0  0
    3.6549    0.8293   -0.5380 H   0  0  0  0  0  0  0  0  0  0  0  0
    4.2395   -1.4949    1.2324 H   0  0  0  0  0  0  0  0  0  0  0  0
    6.0516    0.4219   -0.3111 H   0  0  0  0  0  0  0  0  0  0  0  0
    6.5614   -1.0500    0.5421 H   0  0  0  0  0  0  0  0  0  0  0  0
    5.5001   -1.1733   -0.8745 H   0  0  0  0  0  0  0  0  0  0  0  0
    3.7451    0.5699    3.1093 N   0  0  0  0  0  0  0  0  0  0  0  0
    3.8710    1.3787    4.3126 C   0  0  0  0  0  0  0  0  0  0  0  0
    2.8213    0.2135    2.8460 H   0  0  0  0  0  0  0  0  0  0  0  0
    4.5616    0.9076    5.0194 H   0  0  0  0  0  0  0  0  0  0  0  0
    4.2430    2.3787    4.0667 H   0  0  0  0  0  0  0  0  0  0  0  0
    2.8956    1.4833    4.7972 H   0  0  0  0  0  0  0  0  0  0  0  0
  1  2  2  0  0  0  0
  1  3  1  0  0  0  0
  1  7  1  0  0  0  0
  3  4  1  0  0  0  0
  3  5  1  0  0  0  0
  3  6  1  0  0  0  0
  7  8  1  0  0  0  0
  7 12  1  0  0  0  0
  8  9  1  0  0  0  0
  8 11  1  0  0  0  0
  8 13  1  0  0  0  0
  9 10  2  0  0  0  0
  9 17  1  0  0  0  0
 11 14  1  0  0  0  0
 11 15  1  0  0  0  0
 11 16  1  0  0  0  0
 17 18  1  0  0  0  0
 17 28  1  0  0  0  0
 18 19  1  0  0  0  0
 18 21  1  0  0  0  0
 18 29  1  0  0  0  0
 19 20  2  0  0  0  0
 19 37  1  0  0  0  0
 21 22  1  0  0  0  0
 21 30  1  0  0  0  0
 21 31  1  0  0  0  0
 22 23  1  0  0  0  0
 22 24  2  0  0  0  0
 23 25  2  0  0  0  0
 23 32  1  0  0  0  0
 24 26  1  0  0  0  0
 24 33  1  0  0  0  0
 25 27  1  0  0  0  0
 25 34  1  0  0  0  0
 26 27  2  0  0  0  0
 26 35  1  0  0  0  0
 27 36  1  0  0  0  0
 37 38  1  0  0  0  0
 37 42  1  0  0  0  0
 38 39  1  0  0  0  0
 38 41  1  0  0  0  0
 38 43  1  0  0  0  0
 39 40  2  0  0  0  0
 39 47  1  0  0  0  0
 41 44  1  0  0  0  0
 41 45  1  0  0  0  0
 41 46  1  0  0  0  0
 47 48  1  0  0  0  0
 47 49  1  0  0  0  0
 48 50  1  0  0  0  0
 48 51  1  0  0  0  0
 48 52  1  0  0  0  0
M  END
$$$$

  -OEChem-05262217163D

 52 52  0     1  0  0  0  0  0999 V2000
   -3.0265    0.0873    4.3063 C   0  0  0  0  0  0  0  0  0  0  0  0
   -4.0436   -0.1763    3.6843 O   0  0  0  0  0  0  0  0  0  0  0  0
   -2.9032   -0.3015    5.7673 C   0  0  0  0  0  0  0  0  0  0  0  0
   -3.8321   -0.7624    6.1147 H   0  0  0  0  0  0  0  0  0  0  0  0
   -2.0856   -1.0151    5.8955 H   0  0  0  0  0  0  0  0  0  0  0  0
   -2.7025    0.5850    6.3736 H   0  0  0  0  0  0  0  0  0  0  0  0
   -1.9834    0.7334    3.6779 N   0  0  0  0  0  0  0  0  0  0  0  0
   -1.9308    1.0165    2.2383 C   0  0  2  0  0  0  0  0  0  0  0  0
   -0.4793    1.0233    1.7137 C   0  0  0  0  0  0  0  0  0  0  0  0
    0.4458    1.1657    2.5069 O   0  0  0  0  0  0  0  0  0  0  0  0
   -2.6032    2.3706    1.9860 C   0  0  0  0  0  0  0  0  0  0  0  0
   -1.1126    0.8362    4.1979 H   0  0  0  0  0  0  0  0  0  0  0  0
   -2.4716    0.2360    1.6918 H   0  0  0  0  0  0  0  0  0  0  0  0
   -2.0695    3.1672    2.5145 H   0  0  0  0  0  0  0  0  0  0  0  0
   -2.6109    2.6043    0.9173 H   0  0  0  0  0  0  0  0  0  0  0  0
   -3.6388    2.3515    2.3402 H   0  0  0  0  0  0  0  0  0  0  0  0
   -0.2501    1.0413    0.3460 N   0  0  0  0  0  0  0  0  0  0  0  0
    0.9709    0.6126   -0.3770 C   0  0  2  0  0  0  0  0  0  0  0  0
    2.1450    0.0682    0.4801 C   0  0  0  0  0  0  0  0  0  0  0  0
    1.9514   -0.9160    1.1833 O   0  0  0  0  0  0  0  0  0  0  0  0
    1.3979    1.8097   -1.2512 C   0  0  0  0  0  0  0  0  0  0  0  0
    0.3802    2.0681   -2.3373 C   0  0  0  0  0  0  0  0  0  0  0  0
    0.3828    1.3048   -3.5146 C   0  0  0  0  0  0  0  0  0  0  0  0
   -0.5876    3.0718   -2.1769 C   0  0  0  0  0  0  0  0  0  0  0  0
   -0.5707    1.5371   -4.5119 C   0  0  0  0  0  0  0  0  0  0  0  0
   -1.5407    3.3054   -3.1737 C   0  0  0  0  0  0  0  0  0  0  0  0
   -1.5334    2.5367   -4.3412 C   0  0  0  0  0  0  0  0  0  0  0  0
   -1.0995    1.0378   -0.2131 H   0  0  0  0  0  0  0  0  0  0  0  0
    0.7021   -0.2210   -1.0333 H   0  0  0  0  0  0  0  0  0  0  0  0
    2.3564    1.6046   -1.7377 H   0  0  0  0  0  0  0  0  0  0  0  0
    1.5290    2.6993   -0.6252 H   0  0  0  0  0  0  0  0  0  0  0  0
    1.1253    0.5258   -3.6614 H   0  0  0  0  0  0  0  0  0  0  0  0
   -0.6012    3.6758   -1.2742 H   0  0  0  0  0  0  0  0  0  0  0  0
   -0.5627    0.9417   -5.4205 H   0  0  0  0  0  0  0  0  0  0  0  0
   -2.2853    4.0857   -3.0433 H   0  0  0  0  0  0  0  0  0  0  0  0
   -2.2729    2.7173   -5.1164 H   0  0  0  0  0  0  0  0  0  0  0  0
    3.4634    0.4469    0.2840 N   0  0  0  0  0  0  0  0  0  0  0  0
    4.5765   -0.0590    1.1058 C   0  0  2  0  0  0  0  0  0  0  0  0
    4.6221    0.6000    2.5084 C   0  0  0  0  0  0  0  0  0  0  0  0
    5.6431    1.1325    2.9284 O   0  0  0  0  0  0  0  0  0  0  0  0
    5.8679    0.1520    0.3046 C   0  0  0  0  0  0  0  0  0  0  0  0
    3.6143    1.3114   -0.2261 H   0  0  0  0  0  0  0  0  0  0  0  0
    4.4594   -1.1363    1.2646 H   0  0  0  0  0  0  0  0  0  0  0  0
    6.0514    1.2187    0.1415 H   0  0  0  0  0  0  0  0  0  0  0  0
    6.7221   -0.2663    0.8470 H   0  0  0  0  0  0  0  0  0  0  0  0
    5.8002   -0.3462   -0.6672 H   0  0  0  0  0  0  0  0  0  0  0  0
    3.4863    0.6228    3.2950 N   0  0  0  0  0  0  0  0  0  0  0  0
    3.4013    1.2989    4.5809 C   0  0  0  0  0  0  0  0  0  0  0  0
    2.6302    0.2407    2.8821 H   0  0  0  0  0  0  0  0  0  0  0  0
    4.1386    0.8898    5.2794 H   0  0  0  0  0  0  0  0  0  0  0  0
    3.5831    2.3719    4.4618 H   0  0  0  0  0  0  0  0  0  0  0  0
    2.4044    1.1615    5.0103 H   0  0  0  0  0  0  0  0  0  0  0  0
  1  2  2  0  0  0  0
  1  3  1  0  0  0  0
  1  7  1  0  0  0  0
  3  4  1  0  0  0  0
  3  5  1  0  0  0  0
  3  6  1  0  0  0  0
  7  8  1  0  0  0  0
  7 12  1  0  0  0  0
  8  9  1  0  0  0  0
  8 11  1  0  0  0  0
  8 13  1  0  0  0  0
  9 10  2  0  0  0  0
  9 17  1  0  0  0  0
 11 14  1  0  0  0  0
 11 15  1  0  0  0  0
 11 16  1  0  0  0  0
 17 18  1  0  0  0  0
 17 28  1  0  0  0  0
 18 19  1  0  0  0  0
 18 21  1  0  0  0  0
 18 29  1  0  0  0  0
 19 20  2  0  0  0  0
 19 37  1  0  0  0  0
 21 22  1  0  0  0  0
 21 30  1  0  0  0  0
 21 31  1  0  0  0  0
 22 23  1  0  0  0  0
 22 24  2  0  0  0  0
 23 25  2  0  0  0  0
 23 32  1  0  0  0  0
 24 26  1  0  0  0  0
 24 33  1  0  0  0  0
 25 27  1  0  0  0  0
 25 34  1  0  0  0  0
 26 27  2  0  0  0  0
 26 35  1  0  0  0  0
 27 36  1  0  0  0  0
 37 38  1  0  0  0  0
 37 42  1  0  0  0  0
 38 39  1  0  0  0  0
 38 41  1  0  0  0  0
 38 43  1  0  0  0  0
 39 40  2  0  0  0  0
 39 47  1  0  0  0  0
 41 44  1  0  0  0  0
 41 45  1  0  0  0  0
 41 46  1  0  0  0  0
 47 48  1  0  0  0  0
 47 49  1  0  0  0  0
 48 50  1  0  0  0  0
 48 51  1  0  0  0  0
 48 52  1  0  0  0  0
M  END
$$$$

  -OEChem-05262217163D

 52 52  0     1  0  0  0  0  0999 V2000
   -3.1463    0.0441    4.2346 C   0  0  0  0  0  0  0  0  0  0  0  0
   -4.1585   -0.1593    3.5830 O   0  0  0  0  0  0  0  0  0  0  0  0
   -3.0764   -0.3830    5.6886 C   0  0  0  0  0  0  0  0  0  0  0  0
   -4.0249   -0.8333    5.9949 H   0  0  0  0  0  0  0  0  0  0  0  0
   -2.2780   -1.1166    5.8250 H   0  0  0  0  0  0  0  0  0  0  0  0
   -2.8778    0.4844    6.3226 H   0  0  0  0  0  0  0  0  0  0  0  0
   -2.0630    0.6625    3.6469 N   0  0  0  0  0  0  0  0  0  0  0  0
   -1.9697    0.9839    2.2168 C   0  0  2  0  0  0  0  0  0  0  0  0
   -0.5107    0.9425    1.7144 C   0  0  0  0  0  0  0  0  0  0  0  0
    0.4064    0.9862    2.5273 O   0  0  0  0  0  0  0  0  0  0  0  0
   -2.5781    2.3723    1.9904 C   0  0  0  0  0  0  0  0  0  0  0  0
   -1.1993    0.7087    4.1864 H   0  0  0  0  0  0  0  0  0  0  0  0
   -2.5336    0.2437    1.6384 H   0  0  0  0  0  0  0  0  0  0  0  0
   -2.0208    3.1294    2.5512 H   0  0  0  0  0  0  0  0  0  0  0  0
   -2.5544    2.6355    0.9287 H   0  0  0  0  0  0  0  0  0  0  0  0
   -3.6207    2.3892    2.3241 H   0  0  0  0  0  0  0  0  0  0  0  0
   -0.2611    0.9951    0.3511 N   0  0  0  0  0  0  0  0  0  0  0  0
    0.9818    0.6258   -0.3657 C   0  0  2  0  0  0  0  0  0  0  0  0
    2.1643    0.1080    0.4931 C   0  0  0  0  0  0  0  0  0  0  0  0
    2.0655   -0.9892    1.0260 O   0  0  0  0  0  0  0  0  0  0  0  0
    1.3841    1.8457   -1.2189 C   0  0  0  0  0  0  0  0  0  0  0  0
    0.3731    2.0850   -2.3152 C   0  0  0  0  0  0  0  0  0  0  0  0
    0.4161    1.3351   -3.5004 C   0  0  0  0  0  0  0  0  0  0  0  0
   -0.6284    3.0555   -2.1572 C   0  0  0  0  0  0  0  0  0  0  0  0
   -0.5328    1.5454   -4.5067 C   0  0  0  0  0  0  0  0  0  0  0  0
   -1.5765    3.2673   -3.1636 C   0  0  0  0  0  0  0  0  0  0  0  0
   -1.5300    2.5106   -4.3380 C   0  0  0  0  0  0  0  0  0  0  0  0
   -1.0980    1.0277   -0.2262 H   0  0  0  0  0  0  0  0  0  0  0  0
    0.7491   -0.2063   -1.0381 H   0  0  0  0  0  0  0  0  0  0  0  0
    2.3578    1.6724   -1.6890 H   0  0  0  0  0  0  0  0  0  0  0  0
    1.4775    2.7327   -0.5825 H   0  0  0  0  0  0  0  0  0  0  0  0
    1.1857    0.5823   -3.6454 H   0  0  0  0  0  0  0  0  0  0  0  0
   -0.6732    3.6505   -1.2495 H   0  0  0  0  0  0  0  0  0  0  0  0
   -0.4950    0.9592   -5.4205 H   0  0  0  0  0  0  0  0  0  0  0  0
   -2.3487    4.0205   -3.0353 H   0  0  0  0  0  0  0  0  0  0  0  0
   -2.2660    2.6739   -5.1202 H   0  0  0  0  0  0  0  0  0  0  0  0
    3.3964    0.7392    0.5330 N   0  0  0  0  0  0  0  0  0  0  0  0
    4.5347    0.2587    1.3338 C   0  0  2  0  0  0  0  0  0  0  0  0
    4.4580    0.7033    2.8167 C   0  0  0  0  0  0  0  0  0  0  0  0
    5.4540    1.1076    3.4059 O   0  0  0  0  0  0  0  0  0  0  0  0
    5.8088    0.7444    0.6302 C   0  0  0  0  0  0  0  0  0  0  0  0
    3.4307    1.6930    0.1874 H   0  0  0  0  0  0  0  0  0  0  0  0
    4.5531   -0.8363    1.3337 H   0  0  0  0  0  0  0  0  0  0  0  0
    5.8580    1.8381    0.6329 H   0  0  0  0  0  0  0  0  0  0  0  0
    6.6967    0.3570    1.1405 H   0  0  0  0  0  0  0  0  0  0  0  0
    5.8290    0.3932   -0.4060 H   0  0  0  0  0  0  0  0  0  0  0  0
    3.2538    0.6777    3.4946 N   0  0  0  0  0  0  0  0  0  0  0  0
    3.0889    1.1152    4.8729 C   0  0  0  0  0  0  0  0  0  0  0  0
    2.4263    0.3740    2.9734 H   0  0  0  0  0  0  0  0  0  0  0  0
    3.3711    2.1678    4.9775 H   0  0  0  0  0  0  0  0  0  0  0  0
    2.0442    1.0050    5.1782 H   0  0  0  0  0  0  0  0  0  0  0  0
    3.7115    0.5134    5.5432 H   0  0  0  0  0  0  0  0  0  0  0  0
  1  2  2  0  0  0  0
  1  3  1  0  0  0  0
  1  7  1  0  0  0  0
  3  4  1  0  0  0  0
  3  5  1  0  0  0  0
  3  6  1  0  0  0  0
  7  8  1  0  0  0  0
  7 12  1  0  0  0  0
  8  9  1  0  0  0  0
  8 11  1  0  0  0  0
  8 13  1  0  0  0  0
  9 10  2  0  0  0  0
  9 17  1  0  0  0  0
 11 14  1  0  0  0  0
 11 15  1  0  0  0  0
 11 16  1  0  0  0  0
 17 18  1  0  0  0  0
 17 28  1  0  0  0  0
 18 19  1  0  0  0  0
 18 21  1  0  0  0  0
 18 29  1  0  0  0  0
 19 20  2  0  0  0  0
 19 37  1  0  0  0  0
 21 22  1  0  0  0  0
 21 30  1  0  0  0  0
 21 31  1  0  0  0  0
 22 23  1  0  0  0  0
 22 24  2  0  0  0  0
 23 25  2  0  0  0  0
 23 32  1  0  0  0  0
 24 26  1  0  0  0  0
 24 33  1  0  0  0  0
 25 27  1  0  0  0  0
 25 34  1  0  0  0  0
 26 27  2  0  0  0  0
 26 35  1  0  0  0  0
 27 36  1  0  0  0  0
 37 38  1  0  0  0  0
 37 42  1  0  0  0  0
 38 39  1  0  0  0  0
 38 41  1  0  0  0  0
 38 43  1  0  0  0  0
 39 40  2  0  0  0  0
 39 47  1  0  0  0  0
 41 44  1  0  0  0  0
 41 45  1  0  0  0  0
 41 46  1  0  0  0  0
 47 48  1  0  0  0  0
 47 49  1  0  0  0  0
 48 50  1  0  0  0  0
 48 51  1  0  0  0  0
 48 52  1  0  0  0  0
M  END
$$$$

  -OEChem-05262217163D

 52 52  0     1  0  0  0  0  0999 V2000
   -3.2225   -0.0619    4.1877 C   0  0  0  0  0  0  0  0  0  0  0  0
   -4.2315   -0.2570    3.5289 O   0  0  0  0  0  0  0  0  0  0  0  0
   -3.1629   -0.4955    5.6404 C   0  0  0  0  0  0  0  0  0  0  0  0
   -4.1244   -0.9165    5.9475 H   0  0  0  0  0  0  0  0  0  0  0  0
   -2.3876   -1.2542    5.7721 H   0  0  0  0  0  0  0  0  0  0  0  0
   -2.9353    0.3626    6.2773 H   0  0  0  0  0  0  0  0  0  0  0  0
   -2.1306    0.5486    3.6079 N   0  0  0  0  0  0  0  0  0  0  0  0
   -2.0257    0.8780    2.1804 C   0  0  2  0  0  0  0  0  0  0  0  0
   -0.5591    0.8614    1.6983 C   0  0  0  0  0  0  0  0  0  0  0  0
    0.3457    0.8810    2.5254 O   0  0  0  0  0  0  0  0  0  0  0  0
   -2.6528    2.2583    1.9519 C   0  0  0  0  0  0  0  0  0  0  0  0
   -1.2713    0.5893    4.1545 H   0  0  0  0  0  0  0  0  0  0  0  0
   -2.5712    0.1314    1.5924 H   0  0  0  0  0  0  0  0  0  0  0  0
   -2.1139    3.0223    2.5215 H   0  0  0  0  0  0  0  0  0  0  0  0
   -2.6225    2.5258    0.8914 H   0  0  0  0  0  0  0  0  0  0  0  0
   -3.6992    2.2576    2.2742 H   0  0  0  0  0  0  0  0  0  0  0  0
   -0.2850    0.9391    0.3413 N   0  0  0  0  0  0  0  0  0  0  0  0
    0.9912    0.6469   -0.3514 C   0  0  2  0  0  0  0  0  0  0  0  0
    2.1873    0.1916    0.5217 C   0  0  0  0  0  0  0  0  0  0  0  0
    2.2575   -0.9842    0.8496 O   0  0  0  0  0  0  0  0  0  0  0  0
    1.3520    1.8883   -1.1901 C   0  0  0  0  0  0  0  0  0  0  0  0
    0.3582    2.0820   -2.3105 C   0  0  0  0  0  0  0  0  0  0  0  0
    0.4716    1.3392   -3.4951 C   0  0  0  0  0  0  0  0  0  0  0  0
   -0.6953    3.0000   -2.1781 C   0  0  0  0  0  0  0  0  0  0  0  0
   -0.4574    1.5047   -4.5276 C   0  0  0  0  0  0  0  0  0  0  0  0
   -1.6255    3.1654   -3.2099 C   0  0  0  0  0  0  0  0  0  0  0  0
   -1.5074    2.4166   -4.3846 C   0  0  0  0  0  0  0  0  0  0  0  0
   -1.1085    0.9617   -0.2558 H   0  0  0  0  0  0  0  0  0  0  0  0
    0.8162   -0.1918   -1.0336 H   0  0  0  0  0  0  0  0  0  0  0  0
    2.3478    1.7643   -1.6298 H   0  0  0  0  0  0  0  0  0  0  0  0
    1.3826    2.7774   -0.5511 H   0  0  0  0  0  0  0  0  0  0  0  0
    1.2829    0.6275   -3.6189 H   0  0  0  0  0  0  0  0  0  0  0  0
   -0.7951    3.5912   -1.2723 H   0  0  0  0  0  0  0  0  0  0  0  0
   -0.3625    0.9248   -5.4415 H   0  0  0  0  0  0  0  0  0  0  0  0
   -2.4388    3.8774   -3.1015 H   0  0  0  0  0  0  0  0  0  0  0  0
   -2.2281    2.5456   -5.1872 H   0  0  0  0  0  0  0  0  0  0  0  0
    3.2485    1.0284    0.8243 N   0  0  0  0  0  0  0  0  0  0  0  0
    4.4353    0.6113    1.5910 C   0  0  2  0  0  0  0  0  0  0  0  0
    4.2755    0.7723    3.1235 C   0  0  0  0  0  0  0  0  0  0  0  0
    5.2562    0.9571    3.8347 O   0  0  0  0  0  0  0  0  0  0  0  0
    5.6206    1.4168    1.0446 C   0  0  0  0  0  0  0  0  0  0  0  0
    3.1095    2.0203    0.6595 H   0  0  0  0  0  0  0  0  0  0  0  0
    4.6392   -0.4492    1.4079 H   0  0  0  0  0  0  0  0  0  0  0  0
    5.4925    2.4826    1.2588 H   0  0  0  0  0  0  0  0  0  0  0  0
    6.5546    1.0807    1.5065 H   0  0  0  0  0  0  0  0  0  0  0  0
    5.7078    1.2825   -0.0379 H   0  0  0  0  0  0  0  0  0  0  0  0
    3.0275    0.7427    3.7169 N   0  0  0  0  0  0  0  0  0  0  0  0
    2.8121    0.8443    5.1529 C   0  0  0  0  0  0  0  0  0  0  0  0
    2.2212    0.5680    3.1106 H   0  0  0  0  0  0  0  0  0  0  0  0
    3.2971    0.0108    5.6718 H   0  0  0  0  0  0  0  0  0  0  0  0
    3.2188    1.7855    5.5368 H   0  0  0  0  0  0  0  0  0  0  0  0
    1.7411    0.8144    5.3740 H   0  0  0  0  0  0  0  0  0  0  0  0
  1  2  2  0  0  0  0
  1  3  1  0  0  0  0
  1  7  1  0  0  0  0
  3  4  1  0  0  0  0
  3  5  1  0  0  0  0
  3  6  1  0  0  0  0
  7  8  1  0  0  0  0
  7 12  1  0  0  0  0
  8  9  1  0  0  0  0
  8 11  1  0  0  0  0
  8 13  1  0  0  0  0
  9 10  2  0  0  0  0
  9 17  1  0  0  0  0
 11 14  1  0  0  0  0
 11 15  1  0  0  0  0
 11 16  1  0  0  0  0
 17 18  1  0  0  0  0
 17 28  1  0  0  0  0
 18 19  1  0  0  0  0
 18 21  1  0  0  0  0
 18 29  1  0  0  0  0
 19 20  2  0  0  0  0
 19 37  1  0  0  0  0
 21 22  1  0  0  0  0
 21 30  1  0  0  0  0
 21 31  1  0  0  0  0
 22 23  1  0  0  0  0
 22 24  2  0  0  0  0
 23 25  2  0  0  0  0
 23 32  1  0  0  0  0
 24 26  1  0  0  0  0
 24 33  1  0  0  0  0
 25 27  1  0  0  0  0
 25 34  1  0  0  0  0
 26 27  2  0  0  0  0
 26 35  1  0  0  0  0
 27 36  1  0  0  0  0
 37 38  1  0  0  0  0
 37 42  1  0  0  0  0
 38 39  1  0  0  0  0
 38 41  1  0  0  0  0
 38 43  1  0  0  0  0
 39 40  2  0  0  0  0
 39 47  1  0  0  0  0
 41 44  1  0  0  0  0
 41 45  1  0  0  0  0
 41 46  1  0  0  0  0
 47 48  1  0  0  0  0
 47 49  1  0  0  0  0
 48 50  1  0  0  0  0
 48 51  1  0  0  0  0
 48 52  1  0  0  0  0
M  END
$$$$

  -OEChem-05262217163D

 52 52  0     1  0  0  0  0  0999 V2000
   -2.9234   -0.1437    4.1083 C   0  0  0  0  0  0  0  0  0  0  0  0
   -3.6945   -0.7371    3.3710 O   0  0  0  0  0  0  0  0  0  0  0  0
   -2.7448   -0.5972    5.5453 C   0  0  0  0  0  0  0  0  0  0  0  0
   -3.3731   -1.4695    5.7464 H   0  0  0  0  0  0  0  0  0  0  0  0
   -1.7009   -0.8663    5.7247 H   0  0  0  0  0  0  0  0  0  0  0  0
   -3.0291    0.2064    6.2289 H   0  0  0  0  0  0  0  0  0  0  0  0
   -2.1966    0.9306    3.6391 N   0  0  0  0  0  0  0  0  0  0  0  0
   -2.0716    1.2768    2.2156 C   0  0  2  0  0  0  0  0  0  0  0  0
   -0.6103    1.1647    1.7331 C   0  0  0  0  0  0  0  0  0  0  0  0
    0.2949    1.2495    2.5520 O   0  0  0  0  0  0  0  0  0  0  0  0
   -2.5898    2.7054    2.0365 C   0  0  0  0  0  0  0  0  0  0  0  0
   -1.4415    1.2488    4.2440 H   0  0  0  0  0  0  0  0  0  0  0  0
   -2.6751    0.6034    1.5979 H   0  0  0  0  0  0  0  0  0  0  0  0
   -1.9916    3.4073    2.6265 H   0  0  0  0  0  0  0  0  0  0  0  0
   -2.5404    3.0033    0.9848 H   0  0  0  0  0  0  0  0  0  0  0  0
   -3.6317    2.7728    2.3655 H   0  0  0  0  0  0  0  0  0  0  0  0
   -0.3362    1.0887    0.3765 N   0  0  0  0  0  0  0  0  0  0  0  0
    0.9397    0.7173   -0.2781 C   0  0  2  0  0  0  0  0  0  0  0  0
    2.1412    0.3592    0.6313 C   0  0  0  0  0  0  0  0  0  0  0  0
    2.3533   -0.8175    0.8982 O   0  0  0  0  0  0  0  0  0  0  0  0
    1.3218    1.8629   -1.2337 C   0  0  0  0  0  0  0  0  0  0  0  0
    0.3386    1.9586   -2.3754 C   0  0  0  0  0  0  0  0  0  0  0  0
    0.4465    1.1016   -3.4808 C   0  0  0  0  0  0  0  0  0  0  0  0
   -0.6992    2.9026   -2.3411 C   0  0  0  0  0  0  0  0  0  0  0  0
   -0.4744    1.1810   -4.5311 C   0  0  0  0  0  0  0  0  0  0  0  0
   -1.6205    2.9828   -3.3904 C   0  0  0  0  0  0  0  0  0  0  0  0
   -1.5089    2.1206   -4.4853 C   0  0  0  0  0  0  0  0  0  0  0  0
   -1.1581    1.0622   -0.2226 H   0  0  0  0  0  0  0  0  0  0  0  0
    0.7588   -0.1856   -0.8714 H   0  0  0  0  0  0  0  0  0  0  0  0
    2.3210    1.6833   -1.6458 H   0  0  0  0  0  0  0  0  0  0  0  0
    1.3600    2.8110   -0.6869 H   0  0  0  0  0  0  0  0  0  0  0  0
    1.2457    0.3671   -3.5272 H   0  0  0  0  0  0  0  0  0  0  0  0
   -0.7921    3.5805   -1.4977 H   0  0  0  0  0  0  0  0  0  0  0  0
   -0.3854    0.5128   -5.3832 H   0  0  0  0  0  0  0  0  0  0  0  0
   -2.4213    3.7160   -3.3574 H   0  0  0  0  0  0  0  0  0  0  0  0
   -2.2230    2.1825   -5.3017 H   0  0  0  0  0  0  0  0  0  0  0  0
    3.0409    1.3157    1.0708 N   0  0  0  0  0  0  0  0  0  0  0  0
    4.1768    1.0106    1.9552 C   0  0  2  0  0  0  0  0  0  0  0  0
    3.7450    0.8142    3.4295 C   0  0  0  0  0  0  0  0  0  0  0  0
    4.1447    1.5555    4.3211 O   0  0  0  0  0  0  0  0  0  0  0  0
    5.2066    2.1337    1.7794 C   0  0  0  0  0  0  0  0  0  0  0  0
    2.6930    2.2703    1.0711 H   0  0  0  0  0  0  0  0  0  0  0  0
    4.6487    0.0755    1.6350 H   0  0  0  0  0  0  0  0  0  0  0  0
    4.7886    3.0939    2.0985 H   0  0  0  0  0  0  0  0  0  0  0  0
    6.0978    1.9273    2.3809 H   0  0  0  0  0  0  0  0  0  0  0  0
    5.5091    2.2137    0.7310 H   0  0  0  0  0  0  0  0  0  0  0  0
    2.8950   -0.2267    3.7447 N   0  0  0  0  0  0  0  0  0  0  0  0
    2.2678   -0.3771    5.0491 C   0  0  0  0  0  0  0  0  0  0  0  0
    2.4764   -0.7017    2.9412 H   0  0  0  0  0  0  0  0  0  0  0  0
    3.0269   -0.4345    5.8360 H   0  0  0  0  0  0  0  0  0  0  0  0
    1.6081    0.4725    5.2541 H   0  0  0  0  0  0  0  0  0  0  0  0
    1.6731   -1.2951    5.0761 H   0  0  0  0  0  0  0  0  0  0  0  0
  1  2  2  0  0  0  0
  1  3  1  0  0  0  0
  1  7  1  0  0  0  0
  3  4  1  0  0  0  0
  3  5  1  0  0  0  0
  3  6  1  0  0  0  0
  7  8  1  0  0  0  0
  7 12  1  0  0  0  0
  8  9  1  0  0  0  0
  8 11  1  0  0  0  0
  8 13  1  0  0  0  0
  9 10  2  0  0  0  0
  9 17  1  0  0  0  0
 11 14  1  0  0  0  0
 11 15  1  0  0  0  0
 11 16  1  0  0  0  0
 17 18  1  0  0  0  0
 17 28  1  0  0  0  0
 18 19  1  0  0  0  0
 18 21  1  0  0  0  0
 18 29  1  0  0  0  0
 19 20  2  0  0  0  0
 19 37  1  0  0  0  0
 21 22  1  0  0  0  0
 21 30  1  0  0  0  0
 21 31  1  0  0  0  0
 22 23  1  0  0  0  0
 22 24  2  0  0  0  0
 23 25  2  0  0  0  0
 23 32  1  0  0  0  0
 24 26  1  0  0  0  0
 24 33  1  0  0  0  0
 25 27  1  0  0  0  0
 25 34  1  0  0  0  0
 26 27  2  0  0  0  0
 26 35  1  0  0  0  0
 27 36  1  0  0  0  0
 37 38  1  0  0  0  0
 37 42  1  0  0  0  0
 38 39  1  0  0  0  0
 38 41  1  0  0  0  0
 38 43  1  0  0  0  0
 39 40  2  0  0  0  0
 39 47  1  0  0  0  0
 41 44  1  0  0  0  0
 41 45  1  0  0  0  0
 41 46  1  0  0  0  0
 47 48  1  0  0  0  0
 47 49  1  0  0  0  0
 48 50  1  0  0  0  0
 48 51  1  0  0  0  0
 48 52  1  0  0  0  0
M  END
$$$$

  -OEChem-05262217163D

 52 52  0     1  0  0  0  0  0999 V2000
   -2.3656   -0.2499    4.0695 C   0  0  0  0  0  0  0  0  0  0  0  0
   -2.5672   -1.1645    3.2860 O   0  0  0  0  0  0  0  0  0  0  0  0
   -2.1315   -0.5439    5.5391 C   0  0  0  0  0  0  0  0  0  0  0  0
   -2.0321   -1.6215    5.6964 H   0  0  0  0  0  0  0  0  0  0  0  0
   -1.2158   -0.0534    5.8785 H   0  0  0  0  0  0  0  0  0  0  0  0
   -2.9733   -0.1769    6.1309 H   0  0  0  0  0  0  0  0  0  0  0  0
   -2.3202    1.0526    3.6163 N   0  0  0  0  0  0  0  0  0  0  0  0
   -2.2102    1.3749    2.1862 C   0  0  2  0  0  0  0  0  0  0  0  0
   -0.7419    1.3736    1.7110 C   0  0  0  0  0  0  0  0  0  0  0  0
    0.1446    1.6614    2.5039 O   0  0  0  0  0  0  0  0  0  0  0  0
   -2.8458    2.7487    1.9628 C   0  0  0  0  0  0  0  0  0  0  0  0
   -1.9091    1.7176    4.2666 H   0  0  0  0  0  0  0  0  0  0  0  0
   -2.7627    0.6395    1.5913 H   0  0  0  0  0  0  0  0  0  0  0  0
   -2.3101    3.5167    2.5303 H   0  0  0  0  0  0  0  0  0  0  0  0
   -2.8157    3.0165    0.9021 H   0  0  0  0  0  0  0  0  0  0  0  0
   -3.8911    2.7394    2.2872 H   0  0  0  0  0  0  0  0  0  0  0  0
   -0.4451    1.2199    0.3668 N   0  0  0  0  0  0  0  0  0  0  0  0
    0.8386    0.7774   -0.2269 C   0  0  2  0  0  0  0  0  0  0  0  0
    2.0104    0.4315    0.7244 C   0  0  0  0  0  0  0  0  0  0  0  0
    2.3665   -0.7371    0.8179 O   0  0  0  0  0  0  0  0  0  0  0  0
    1.2932    1.8600   -1.2213 C   0  0  0  0  0  0  0  0  0  0  0  0
    0.3523    1.9326   -2.4008 C   0  0  0  0  0  0  0  0  0  0  0  0
    0.4670    1.0188   -3.4589 C   0  0  0  0  0  0  0  0  0  0  0  0
   -0.6531    2.9104   -2.4494 C   0  0  0  0  0  0  0  0  0  0  0  0
   -0.4142    1.0765   -4.5441 C   0  0  0  0  0  0  0  0  0  0  0  0
   -1.5341    2.9700   -3.5344 C   0  0  0  0  0  0  0  0  0  0  0  0
   -1.4160    2.0513   -4.5816 C   0  0  0  0  0  0  0  0  0  0  0  0
   -1.2601    1.0769   -0.2250 H   0  0  0  0  0  0  0  0  0  0  0  0
    0.6429   -0.1461   -0.7826 H   0  0  0  0  0  0  0  0  0  0  0  0
    2.2994    1.6261   -1.5866 H   0  0  0  0  0  0  0  0  0  0  0  0
    1.3483    2.8313   -0.7181 H   0  0  0  0  0  0  0  0  0  0  0  0
    1.2421    0.2577   -3.4411 H   0  0  0  0  0  0  0  0  0  0  0  0
   -0.7519    3.6305   -1.6424 H   0  0  0  0  0  0  0  0  0  0  0  0
   -0.3188    0.3644   -5.3589 H   0  0  0  0  0  0  0  0  0  0  0  0
   -2.3079    3.7318   -3.5663 H   0  0  0  0  0  0  0  0  0  0  0  0
   -2.0987    2.0969   -5.4254 H   0  0  0  0  0  0  0  0  0  0  0  0
    2.7417    1.4086    1.3759 N   0  0  0  0  0  0  0  0  0  0  0  0
    3.8199    1.0955    2.3286 C   0  0  2  0  0  0  0  0  0  0  0  0
    3.2886    0.5791    3.6913 C   0  0  0  0  0  0  0  0  0  0  0  0
    3.5599    1.1422    4.7465 O   0  0  0  0  0  0  0  0  0  0  0  0
    4.6785    2.3586    2.4672 C   0  0  0  0  0  0  0  0  0  0  0  0
    2.1971    2.2475    1.5707 H   0  0  0  0  0  0  0  0  0  0  0  0
    4.4544    0.3051    1.9141 H   0  0  0  0  0  0  0  0  0  0  0  0
    4.0931    3.1760    2.9000 H   0  0  0  0  0  0  0  0  0  0  0  0
    5.5360    2.1648    3.1194 H   0  0  0  0  0  0  0  0  0  0  0  0
    5.0531    2.6747    1.4891 H   0  0  0  0  0  0  0  0  0  0  0  0
    2.5194   -0.5676    3.7255 N   0  0  0  0  0  0  0  0  0  0  0  0
    1.9138   -1.1105    4.9319 C   0  0  0  0  0  0  0  0  0  0  0  0
    2.2832   -0.9754    2.8177 H   0  0  0  0  0  0  0  0  0  0  0  0
    2.6877   -1.4432    5.6313 H   0  0  0  0  0  0  0  0  0  0  0  0
    1.2947   -0.3527    5.4226 H   0  0  0  0  0  0  0  0  0  0  0  0
    1.2802   -1.9669    4.6818 H   0  0  0  0  0  0  0  0  0  0  0  0
  1  2  2  0  0  0  0
  1  3  1  0  0  0  0
  1  7  1  0  0  0  0
  3  4  1  0  0  0  0
  3  5  1  0  0  0  0
  3  6  1  0  0  0  0
  7  8  1  0  0  0  0
  7 12  1  0  0  0  0
  8  9  1  0  0  0  0
  8 11  1  0  0  0  0
  8 13  1  0  0  0  0
  9 10  2  0  0  0  0
  9 17  1  0  0  0  0
 11 14  1  0  0  0  0
 11 15  1  0  0  0  0
 11 16  1  0  0  0  0
 17 18  1  0  0  0  0
 17 28  1  0  0  0  0
 18 19  1  0  0  0  0
 18 21  1  0  0  0  0
 18 29  1  0  0  0  0
 19 20  2  0  0  0  0
 19 37  1  0  0  0  0
 21 22  1  0  0  0  0
 21 30  1  0  0  0  0
 21 31  1  0  0  0  0
 22 23  1  0  0  0  0
 22 24  2  0  0  0  0
 23 25  2  0  0  0  0
 23 32  1  0  0  0  0
 24 26  1  0  0  0  0
 24 33  1  0  0  0  0
 25 27  1  0  0  0  0
 25 34  1  0  0  0  0
 26 27  2  0  0  0  0
 26 35  1  0  0  0  0
 27 36  1  0  0  0  0
 37 38  1  0  0  0  0
 37 42  1  0  0  0  0
 38 39  1  0  0  0  0
 38 41  1  0  0  0  0
 38 43  1  0  0  0  0
 39 40  2  0  0  0  0
 39 47  1  0  0  0  0
 41 44  1  0  0  0  0
 41 45  1  0  0  0  0
 41 46  1  0  0  0  0
 47 48  1  0  0  0  0
 47 49  1  0  0  0  0
 48 50  1  0  0  0  0
 48 51  1  0  0  0  0
 48 52  1  0  0  0  0
M  END
$$$$

  -OEChem-05262217163D

 52 52  0     1  0  0  0  0  0999 V2000
   -2.5334   -0.2579    3.9676 C   0  0  0  0  0  0  0  0  0  0  0  0
   -2.7285   -1.1299    3.1351 O   0  0  0  0  0  0  0  0  0  0  0  0
   -2.3459   -0.6253    5.4274 C   0  0  0  0  0  0  0  0  0  0  0  0
   -2.4924   -1.6999    5.5679 H   0  0  0  0  0  0  0  0  0  0  0  0
   -1.3359   -0.3617    5.7514 H   0  0  0  0  0  0  0  0  0  0  0  0
   -3.0703   -0.0880    6.0442 H   0  0  0  0  0  0  0  0  0  0  0  0
   -2.4421    1.0627    3.5780 N   0  0  0  0  0  0  0  0  0  0  0  0
   -2.2834    1.4505    2.1690 C   0  0  2  0  0  0  0  0  0  0  0  0
   -0.7997    1.4483    1.7456 C   0  0  0  0  0  0  0  0  0  0  0  0
    0.0518    1.7506    2.5693 O   0  0  0  0  0  0  0  0  0  0  0  0
   -2.8936    2.8426    1.9904 C   0  0  0  0  0  0  0  0  0  0  0  0
   -2.0359    1.6863    4.2716 H   0  0  0  0  0  0  0  0  0  0  0  0
   -2.8260    0.7523    1.5223 H   0  0  0  0  0  0  0  0  0  0  0  0
   -2.3686    3.5750    2.6124 H   0  0  0  0  0  0  0  0  0  0  0  0
   -2.8231    3.1601    0.9453 H   0  0  0  0  0  0  0  0  0  0  0  0
   -3.9497    2.8327    2.2779 H   0  0  0  0  0  0  0  0  0  0  0  0
   -0.4564    1.2478    0.4188 N   0  0  0  0  0  0  0  0  0  0  0  0
    0.8420    0.8068   -0.1487 C   0  0  2  0  0  0  0  0  0  0  0  0
    2.0393    0.5001    0.7859 C   0  0  0  0  0  0  0  0  0  0  0  0
    2.5699   -0.6019    0.7104 O   0  0  0  0  0  0  0  0  0  0  0  0
    1.2876    1.8730   -1.1638 C   0  0  0  0  0  0  0  0  0  0  0  0
    0.3571    1.9019   -2.3534 C   0  0  0  0  0  0  0  0  0  0  0  0
    0.4984    0.9651   -3.3878 C   0  0  0  0  0  0  0  0  0  0  0  0
   -0.6612    2.8638   -2.4378 C   0  0  0  0  0  0  0  0  0  0  0  0
   -0.3694    0.9837   -4.4850 C   0  0  0  0  0  0  0  0  0  0  0  0
   -1.5290    2.8845   -3.5351 C   0  0  0  0  0  0  0  0  0  0  0  0
   -1.3841    1.9429   -4.5586 C   0  0  0  0  0  0  0  0  0  0  0  0
   -1.2552    1.0940   -0.1924 H   0  0  0  0  0  0  0  0  0  0  0  0
    0.6580   -0.1310   -0.6841 H   0  0  0  0  0  0  0  0  0  0  0  0
    2.3006    1.6481   -1.5159 H   0  0  0  0  0  0  0  0  0  0  0  0
    1.3243    2.8559   -0.6819 H   0  0  0  0  0  0  0  0  0  0  0  0
    1.2833    0.2154   -3.3414 H   0  0  0  0  0  0  0  0  0  0  0  0
   -0.7786    3.6021   -1.6499 H   0  0  0  0  0  0  0  0  0  0  0  0
   -0.2536    0.2543   -5.2817 H   0  0  0  0  0  0  0  0  0  0  0  0
   -2.3125    3.6344   -3.5956 H   0  0  0  0  0  0  0  0  0  0  0  0
   -2.0565    1.9584   -5.4119 H   0  0  0  0  0  0  0  0  0  0  0  0
    2.5886    1.4429    1.6348 N   0  0  0  0  0  0  0  0  0  0  0  0
    3.6437    1.1221    2.6093 C   0  0  2  0  0  0  0  0  0  0  0  0
    3.1033    0.3255    3.8250 C   0  0  0  0  0  0  0  0  0  0  0  0
    3.2082    0.7425    4.9735 O   0  0  0  0  0  0  0  0  0  0  0  0
    4.3002    2.4469    3.0143 C   0  0  0  0  0  0  0  0  0  0  0  0
    1.9048    2.1422    1.9324 H   0  0  0  0  0  0  0  0  0  0  0  0
    4.4095    0.5016    2.1322 H   0  0  0  0  0  0  0  0  0  0  0  0
    3.5740    3.0990    3.5101 H   0  0  0  0  0  0  0  0  0  0  0  0
    5.1295    2.2640    3.7048 H   0  0  0  0  0  0  0  0  0  0  0  0
    4.6919    2.9643    2.1333 H   0  0  0  0  0  0  0  0  0  0  0  0
    2.5043   -0.9011    3.6136 N   0  0  0  0  0  0  0  0  0  0  0  0
    1.9017   -1.7088    4.6635 C   0  0  0  0  0  0  0  0  0  0  0  0
    2.4150   -1.1950    2.6383 H   0  0  0  0  0  0  0  0  0  0  0  0
    2.6533   -1.9888    5.4088 H   0  0  0  0  0  0  0  0  0  0  0  0
    1.0998   -1.1533    5.1600 H   0  0  0  0  0  0  0  0  0  0  0  0
    1.4775   -2.6237    4.2386 H   0  0  0  0  0  0  0  0  0  0  0  0
  1  2  2  0  0  0  0
  1  3  1  0  0  0  0
  1  7  1  0  0  0  0
  3  4  1  0  0  0  0
  3  5  1  0  0  0  0
  3  6  1  0  0  0  0
  7  8  1  0  0  0  0
  7 12  1  0  0  0  0
  8  9  1  0  0  0  0
  8 11  1  0  0  0  0
  8 13  1  0  0  0  0
  9 10  2  0  0  0  0
  9 17  1  0  0  0  0
 11 14  1  0  0  0  0
 11 15  1  0  0  0  0
 11 16  1  0  0  0  0
 17 18  1  0  0  0  0
 17 28  1  0  0  0  0
 18 19  1  0  0  0  0
 18 21  1  0  0  0  0
 18 29  1  0  0  0  0
 19 20  2  0  0  0  0
 19 37  1  0  0  0  0
 21 22  1  0  0  0  0
 21 30  1  0  0  0  0
 21 31  1  0  0  0  0
 22 23  1  0  0  0  0
 22 24  2  0  0  0  0
 23 25  2  0  0  0  0
 23 32  1  0  0  0  0
 24 26  1  0  0  0  0
 24 33  1  0  0  0  0
 25 27  1  0  0  0  0
 25 34  1  0  0  0  0
 26 27  2  0  0  0  0
 26 35  1  0  0  0  0
 27 36  1  0  0  0  0
 37 38  1  0  0  0  0
 37 42  1  0  0  0  0
 38 39  1  0  0  0  0
 38 41  1  0  0  0  0
 38 43  1  0  0  0  0
 39 40  2  0  0  0  0
 39 47  1  0  0  0  0
 41 44  1  0  0  0  0
 41 45  1  0  0  0  0
 41 46  1  0  0  0  0
 47 48  1  0  0  0  0
 47 49  1  0  0  0  0
 48 50  1  0  0  0  0
 48 51  1  0  0  0  0
 48 52  1  0  0  0  0
M  END
$$$$

  -OEChem-05262217163D

 52 52  0     1  0  0  0  0  0999 V2000
   -3.2391   -0.1216    3.4748 C   0  0  0  0  0  0  0  0  0  0  0  0
   -3.4802   -0.7278    2.4422 O   0  0  0  0  0  0  0  0  0  0  0  0
   -3.3304   -0.8280    4.8140 C   0  0  0  0  0  0  0  0  0  0  0  0
   -3.7629   -1.8242    4.6862 H   0  0  0  0  0  0  0  0  0  0  0  0
   -2.3328   -0.9298    5.2489 H   0  0  0  0  0  0  0  0  0  0  0  0
   -3.9618   -0.2562    5.4982 H   0  0  0  0  0  0  0  0  0  0  0  0
   -2.8258    1.1939    3.4191 N   0  0  0  0  0  0  0  0  0  0  0  0
   -2.4031    1.8230    2.1605 C   0  0  2  0  0  0  0  0  0  0  0  0
   -0.9154    1.5375    1.8665 C   0  0  0  0  0  0  0  0  0  0  0  0
   -0.1100    1.6440    2.7789 O   0  0  0  0  0  0  0  0  0  0  0  0
   -2.6554    3.3283    2.2738 C   0  0  0  0  0  0  0  0  0  0  0  0
   -2.4166    1.5588    4.2762 H   0  0  0  0  0  0  0  0  0  0  0  0
   -3.0024    1.4396    1.3273 H   0  0  0  0  0  0  0  0  0  0  0  0
   -2.0724    3.7559    3.0962 H   0  0  0  0  0  0  0  0  0  0  0  0
   -2.3697    3.8335    1.3460 H   0  0  0  0  0  0  0  0  0  0  0  0
   -3.7164    3.5213    2.4607 H   0  0  0  0  0  0  0  0  0  0  0  0
   -0.5160    1.2464    0.5725 N   0  0  0  0  0  0  0  0  0  0  0  0
    0.7853    0.7703    0.0371 C   0  0  2  0  0  0  0  0  0  0  0  0
    2.0154    0.5006    0.9438 C   0  0  0  0  0  0  0  0  0  0  0  0
    2.7241   -0.4643    0.6796 O   0  0  0  0  0  0  0  0  0  0  0  0
    1.2199    1.7850   -1.0353 C   0  0  0  0  0  0  0  0  0  0  0  0
    0.2874    1.7445   -2.2228 C   0  0  0  0  0  0  0  0  0  0  0  0
    0.4381    0.7540   -3.2041 C   0  0  0  0  0  0  0  0  0  0  0  0
   -0.7411    2.6899   -2.3583 C   0  0  0  0  0  0  0  0  0  0  0  0
   -0.4308    0.7020   -4.2989 C   0  0  0  0  0  0  0  0  0  0  0  0
   -1.6108    2.6393   -3.4535 C   0  0  0  0  0  0  0  0  0  0  0  0
   -1.4566    1.6438   -4.4233 C   0  0  0  0  0  0  0  0  0  0  0  0
   -1.2860    1.1951   -0.0915 H   0  0  0  0  0  0  0  0  0  0  0  0
    0.5898   -0.1928   -0.4469 H   0  0  0  0  0  0  0  0  0  0  0  0
    2.2330    1.5495   -1.3806 H   0  0  0  0  0  0  0  0  0  0  0  0
    1.2517    2.7918   -0.6052 H   0  0  0  0  0  0  0  0  0  0  0  0
    1.2330    0.0184   -3.1167 H   0  0  0  0  0  0  0  0  0  0  0  0
   -0.8647    3.4712   -1.6141 H   0  0  0  0  0  0  0  0  0  0  0  0
   -0.3067   -0.0701   -5.0526 H   0  0  0  0  0  0  0  0  0  0  0  0
   -2.4039    3.3751   -3.5538 H   0  0  0  0  0  0  0  0  0  0  0  0
   -2.1298    1.6038   -5.2749 H   0  0  0  0  0  0  0  0  0  0  0  0
    2.4339    1.3545    1.9457 N   0  0  0  0  0  0  0  0  0  0  0  0
    3.5975    1.1035    2.8104 C   0  0  2  0  0  0  0  0  0  0  0  0
    3.3310    0.0136    3.8795 C   0  0  0  0  0  0  0  0  0  0  0  0
    3.4582    0.2358    5.0786 O   0  0  0  0  0  0  0  0  0  0  0  0
    3.9928    2.4519    3.4246 C   0  0  0  0  0  0  0  0  0  0  0  0
    1.6779    1.9181    2.3425 H   0  0  0  0  0  0  0  0  0  0  0  0
    4.4366    0.7542    2.1998 H   0  0  0  0  0  0  0  0  0  0  0  0
    3.1854    2.8368    4.0561 H   0  0  0  0  0  0  0  0  0  0  0  0
    4.8913    2.3413    4.0399 H   0  0  0  0  0  0  0  0  0  0  0  0
    4.2009    3.1825    2.6372 H   0  0  0  0  0  0  0  0  0  0  0  0
    2.9801   -1.2583    3.4713 N   0  0  0  0  0  0  0  0  0  0  0  0
    2.7101   -2.3641    4.3791 C   0  0  0  0  0  0  0  0  0  0  0  0
    2.8833   -1.3965    2.4624 H   0  0  0  0  0  0  0  0  0  0  0  0
    3.5977   -2.5926    4.9782 H   0  0  0  0  0  0  0  0  0  0  0  0
    1.8838   -2.1135    5.0524 H   0  0  0  0  0  0  0  0  0  0  0  0
    2.4357   -3.2586    3.8119 H   0  0  0  0  0  0  0  0  0  0  0  0
  1  2  2  0  0  0  0
  1  3  1  0  0  0  0
  1  7  1  0  0  0  0
  3  4  1  0  0  0  0
  3  5  1  0  0  0  0
  3  6  1  0  0  0  0
  7  8  1  0  0  0  0
  7 12  1  0  0  0  0
  8  9  1  0  0  0  0
  8 11  1  0  0  0  0
  8 13  1  0  0  0  0
  9 10  2  0  0  0  0
  9 17  1  0  0  0  0
 11 14  1  0  0  0  0
 11 15  1  0  0  0  0
 11 16  1  0  0  0  0
 17 18  1  0  0  0  0
 17 28  1  0  0  0  0
 18 19  1  0  0  0  0
 18 21  1  0  0  0  0
 18 29  1  0  0  0  0
 19 20  2  0  0  0  0
 19 37  1  0  0  0  0
 21 22  1  0  0  0  0
 21 30  1  0  0  0  0
 21 31  1  0  0  0  0
 22 23  1  0  0  0  0
 22 24  2  0  0  0  0
 23 25  2  0  0  0  0
 23 32  1  0  0  0  0
 24 26  1  0  0  0  0
 24 33  1  0  0  0  0
 25 27  1  0  0  0  0
 25 34  1  0  0  0  0
 26 27  2  0  0  0  0
 26 35  1  0  0  0  0
 27 36  1  0  0  0  0
 37 38  1  0  0  0  0
 37 42  1  0  0  0  0
 38 39  1  0  0  0  0
 38 41  1  0  0  0  0
 38 43  1  0  0  0  0
 39 40  2  0  0  0  0
 39 47  1  0  0  0  0
 41 44  1  0  0  0  0
 41 45  1  0  0  0  0
 41 46  1  0  0  0  0
 47 48  1  0  0  0  0
 47 49  1  0  0  0  0
 48 50  1  0  0  0  0
 48 51  1  0  0  0  0
 48 52  1  0  0  0  0
M  END
$$$$

  -OEChem-05262217163D

 52 52  0     1  0  0  0  0  0999 V2000
   -3.5123   -0.0565    3.2080 C   0  0  0  0  0  0  0  0  0  0  0  0
   -3.6749   -0.5703    2.1119 O   0  0  0  0  0  0  0  0  0  0  0  0
   -3.8238   -0.8358    4.4719 C   0  0  0  0  0  0  0  0  0  0  0  0
   -4.2351   -1.8170    4.2185 H   0  0  0  0  0  0  0  0  0  0  0  0
   -2.9119   -0.9773    5.0577 H   0  0  0  0  0  0  0  0  0  0  0  0
   -4.5557   -0.2931    5.0749 H   0  0  0  0  0  0  0  0  0  0  0  0
   -3.0066    1.2244    3.2964 N   0  0  0  0  0  0  0  0  0  0  0  0
   -2.4372    1.9221    2.1362 C   0  0  2  0  0  0  0  0  0  0  0  0
   -0.9529    1.5540    1.9287 C   0  0  0  0  0  0  0  0  0  0  0  0
   -0.1993    1.6124    2.8877 O   0  0  0  0  0  0  0  0  0  0  0  0
   -2.6002    3.4276    2.3595 C   0  0  0  0  0  0  0  0  0  0  0  0
   -2.6815    1.5090    4.2171 H   0  0  0  0  0  0  0  0  0  0  0  0
   -2.9911    1.6550    1.2297 H   0  0  0  0  0  0  0  0  0  0  0  0
   -2.0618    3.7451    3.2585 H   0  0  0  0  0  0  0  0  0  0  0  0
   -2.2053    3.9842    1.5040 H   0  0  0  0  0  0  0  0  0  0  0  0
   -3.6583    3.6806    2.4788 H   0  0  0  0  0  0  0  0  0  0  0  0
   -0.5122    1.2198    0.6588 N   0  0  0  0  0  0  0  0  0  0  0  0
    0.7985    0.7481    0.1397 C   0  0  2  0  0  0  0  0  0  0  0  0
    2.0567    0.5170    1.0217 C   0  0  0  0  0  0  0  0  0  0  0  0
    2.8727   -0.3119    0.6330 O   0  0  0  0  0  0  0  0  0  0  0  0
    1.2003    1.7516   -0.9582 C   0  0  0  0  0  0  0  0  0  0  0  0
    0.2628    1.6632   -2.1392 C   0  0  0  0  0  0  0  0  0  0  0  0
    0.4307    0.6579   -3.1025 C   0  0  0  0  0  0  0  0  0  0  0  0
   -0.7880    2.5819   -2.2863 C   0  0  0  0  0  0  0  0  0  0  0  0
   -0.4437    0.5657   -4.1905 C   0  0  0  0  0  0  0  0  0  0  0  0
   -1.6632    2.4902   -3.3737 C   0  0  0  0  0  0  0  0  0  0  0  0
   -1.4919    1.4809   -4.3257 C   0  0  0  0  0  0  0  0  0  0  0  0
   -1.2611    1.1910   -0.0307 H   0  0  0  0  0  0  0  0  0  0  0  0
    0.6150   -0.2288   -0.3202 H   0  0  0  0  0  0  0  0  0  0  0  0
    2.2168    1.5380   -1.3082 H   0  0  0  0  0  0  0  0  0  0  0  0
    1.2098    2.7672   -0.5489 H   0  0  0  0  0  0  0  0  0  0  0  0
    1.2424   -0.0584   -3.0072 H   0  0  0  0  0  0  0  0  0  0  0  0
   -0.9262    3.3741   -1.5567 H   0  0  0  0  0  0  0  0  0  0  0  0
   -0.3067   -0.2170   -4.9313 H   0  0  0  0  0  0  0  0  0  0  0  0
   -2.4740    3.2045   -3.4825 H   0  0  0  0  0  0  0  0  0  0  0  0
   -2.1694    1.4093   -5.1718 H   0  0  0  0  0  0  0  0  0  0  0  0
    2.3604    1.2084    2.1774 N   0  0  0  0  0  0  0  0  0  0  0  0
    3.5345    0.9470    3.0248 C   0  0  2  0  0  0  0  0  0  0  0  0
    3.3737   -0.3282    3.8892 C   0  0  0  0  0  0  0  0  0  0  0  0
    3.4538   -0.3000    5.1121 O   0  0  0  0  0  0  0  0  0  0  0  0
    3.7729    2.2083    3.8638 C   0  0  0  0  0  0  0  0  0  0  0  0
    1.5669    1.6870    2.6097 H   0  0  0  0  0  0  0  0  0  0  0  0
    4.4149    0.7961    2.3917 H   0  0  0  0  0  0  0  0  0  0  0  0
    2.9191    2.3990    4.5222 H   0  0  0  0  0  0  0  0  0  0  0  0
    4.6681    2.0892    4.4824 H   0  0  0  0  0  0  0  0  0  0  0  0
    3.9153    3.0772    3.2143 H   0  0  0  0  0  0  0  0  0  0  0  0
    3.1579   -1.5397    3.2629 N   0  0  0  0  0  0  0  0  0  0  0  0
    2.9585   -2.7996    3.9646 C   0  0  0  0  0  0  0  0  0  0  0  0
    3.0920   -1.5123    2.2425 H   0  0  0  0  0  0  0  0  0  0  0  0
    3.8444   -3.0525    4.5561 H   0  0  0  0  0  0  0  0  0  0  0  0
    2.0943   -2.7320    4.6335 H   0  0  0  0  0  0  0  0  0  0  0  0
    2.7789   -3.6059    3.2472 H   0  0  0  0  0  0  0  0  0  0  0  0
  1  2  2  0  0  0  0
  1  3  1  0  0  0  0
  1  7  1  0  0  0  0
  3  4  1  0  0  0  0
  3  5  1  0  0  0  0
  3  6  1  0  0  0  0
  7  8  1  0  0  0  0
  7 12  1  0  0  0  0
  8  9  1  0  0  0  0
  8 11  1  0  0  0  0
  8 13  1  0  0  0  0
  9 10  2  0  0  0  0
  9 17  1  0  0  0  0
 11 14  1  0  0  0  0
 11 15  1  0  0  0  0
 11 16  1  0  0  0  0
 17 18  1  0  0  0  0
 17 28  1  0  0  0  0
 18 19  1  0  0  0  0
 18 21  1  0  0  0  0
 18 29  1  0  0  0  0
 19 20  2  0  0  0  0
 19 37  1  0  0  0  0
 21 22  1  0  0  0  0
 21 30  1  0  0  0  0
 21 31  1  0  0  0  0
 22 23  1  0  0  0  0
 22 24  2  0  0  0  0
 23 25  2  0  0  0  0
 23 32  1  0  0  0  0
 24 26  1  0  0  0  0
 24 33  1  0  0  0  0
 25 27  1  0  0  0  0
 25 34  1  0  0  0  0
 26 27  2  0  0  0  0
 26 35  1  0  0  0  0
 27 36  1  0  0  0  0
 37 38  1  0  0  0  0
 37 42  1  0  0  0  0
 38 39  1  0  0  0  0
 38 41  1  0  0  0  0
 38 43  1  0  0  0  0
 39 40  2  0  0  0  0
 39 47  1  0  0  0  0
 41 44  1  0  0  0  0
 41 45  1  0  0  0  0
 41 46  1  0  0  0  0
 47 48  1  0  0  0  0
 47 49  1  0  0  0  0
 48 50  1  0  0  0  0
 48 51  1  0  0  0  0
 48 52  1  0  0  0  0
M  END
$$$$

  -OEChem-05262217163D

 52 52  0     1  0  0  0  0  0999 V2000
   -1.9107    0.7222    4.3944 C   0  0  0  0  0  0  0  0  0  0  0  0
   -0.6996    0.7503    4.2673 O   0  0  0  0  0  0  0  0  0  0  0  0
   -2.5368    0.0116    5.5790 C   0  0  0  0  0  0  0  0  0  0  0  0
   -3.1858   -0.7949    5.2280 H   0  0  0  0  0  0  0  0  0  0  0  0
   -1.7572   -0.4180    6.2146 H   0  0  0  0  0  0  0  0  0  0  0  0
   -3.1263    0.7163    6.1702 H   0  0  0  0  0  0  0  0  0  0  0  0
   -2.7134    1.3169    3.4426 N   0  0  0  0  0  0  0  0  0  0  0  0
   -2.2214    1.7312    2.1154 C   0  0  2  0  0  0  0  0  0  0  0  0
   -1.6552    0.5425    1.2947 C   0  0  0  0  0  0  0  0  0  0  0  0
   -2.2206   -0.5357    1.3835 O   0  0  0  0  0  0  0  0  0  0  0  0
   -1.2699    2.9335    2.2257 C   0  0  0  0  0  0  0  0  0  0  0  0
   -3.6982    1.0779    3.5128 H   0  0  0  0  0  0  0  0  0  0  0  0
   -3.0901    2.0832    1.5514 H   0  0  0  0  0  0  0  0  0  0  0  0
   -0.2968    2.6464    2.6300 H   0  0  0  0  0  0  0  0  0  0  0  0
   -1.1152    3.3822    1.2419 H   0  0  0  0  0  0  0  0  0  0  0  0
   -1.7023    3.6952    2.8815 H   0  0  0  0  0  0  0  0  0  0  0  0
   -1.1464    0.7297    0.0355 N   0  0  0  0  0  0  0  0  0  0  0  0
    0.2892    0.7406   -0.3248 C   0  0  2  0  0  0  0  0  0  0  0  0
    1.4325    0.5333    0.7103 C   0  0  0  0  0  0  0  0  0  0  0  0
    2.5454    0.3522    0.2283 O   0  0  0  0  0  0  0  0  0  0  0  0
    0.5485    2.0490   -1.1041 C   0  0  0  0  0  0  0  0  0  0  0  0
   -0.1666    2.0387   -2.4346 C   0  0  0  0  0  0  0  0  0  0  0  0
    0.3940    1.3647   -3.5296 C   0  0  0  0  0  0  0  0  0  0  0  0
   -1.3980    2.6922   -2.5921 C   0  0  0  0  0  0  0  0  0  0  0  0
   -0.2666    1.3419   -4.7623 C   0  0  0  0  0  0  0  0  0  0  0  0
   -2.0593    2.6713   -3.8250 C   0  0  0  0  0  0  0  0  0  0  0  0
   -1.4939    1.9950   -4.9103 C   0  0  0  0  0  0  0  0  0  0  0  0
   -1.6646    0.1153   -0.5896 H   0  0  0  0  0  0  0  0  0  0  0  0
    0.4298   -0.0982   -1.0149 H   0  0  0  0  0  0  0  0  0  0  0  0
    1.6199    2.1696   -1.2972 H   0  0  0  0  0  0  0  0  0  0  0  0
    0.2376    2.9116   -0.5093 H   0  0  0  0  0  0  0  0  0  0  0  0
    1.3479    0.8548   -3.4233 H   0  0  0  0  0  0  0  0  0  0  0  0
   -1.8458    3.2163   -1.7534 H   0  0  0  0  0  0  0  0  0  0  0  0
    0.1752    0.8167   -5.6041 H   0  0  0  0  0  0  0  0  0  0  0  0
   -3.0121    3.1794   -3.9397 H   0  0  0  0  0  0  0  0  0  0  0  0
   -2.0064    1.9771   -5.8675 H   0  0  0  0  0  0  0  0  0  0  0  0
    1.3468    0.5980    2.0949 N   0  0  0  0  0  0  0  0  0  0  0  0
    2.4892    0.2545    2.9676 C   0  0  2  0  0  0  0  0  0  0  0  0
    2.4633   -1.2132    3.4514 C   0  0  0  0  0  0  0  0  0  0  0  0
    1.4518   -1.8998    3.3692 O   0  0  0  0  0  0  0  0  0  0  0  0
    2.5242    1.2201    4.1559 C   0  0  0  0  0  0  0  0  0  0  0  0
    0.4220    0.5150    2.5233 H   0  0  0  0  0  0  0  0  0  0  0  0
    3.4297    0.3938    2.4264 H   0  0  0  0  0  0  0  0  0  0  0  0
    1.7139    1.0081    4.8572 H   0  0  0  0  0  0  0  0  0  0  0  0
    3.4712    1.1235    4.6947 H   0  0  0  0  0  0  0  0  0  0  0  0
    2.4272    2.2533    3.8092 H   0  0  0  0  0  0  0  0  0  0  0  0
    3.6119   -1.7816    3.9738 N   0  0  0  0  0  0  0  0  0  0  0  0
    3.6966   -3.1778    4.3836 C   0  0  0  0  0  0  0  0  0  0  0  0
    4.4582   -1.2215    3.9565 H   0  0  0  0  0  0  0  0  0  0  0  0
    2.9436   -3.3999    5.1469 H   0  0  0  0  0  0  0  0  0  0  0  0
    3.5347   -3.8388    3.5257 H   0  0  0  0  0  0  0  0  0  0  0  0
    4.6846   -3.3893    4.8031 H   0  0  0  0  0  0  0  0  0  0  0  0
  1  2  2  0  0  0  0
  1  3  1  0  0  0  0
  1  7  1  0  0  0  0
  3  4  1  0  0  0  0
  3  5  1  0  0  0  0
  3  6  1  0  0  0  0
  7  8  1  0  0  0  0
  7 12  1  0  0  0  0
  8  9  1  0  0  0  0
  8 11  1  0  0  0  0
  8 13  1  0  0  0  0
  9 10  2  0  0  0  0
  9 17  1  0  0  0  0
 11 14  1  0  0  0  0
 11 15  1  0  0  0  0
 11 16  1  0  0  0  0
 17 18  1  0  0  0  0
 17 28  1  0  0  0  0
 18 19  1  0  0  0  0
 18 21  1  0  0  0  0
 18 29  1  0  0  0  0
 19 20  2  0  0  0  0
 19 37  1  0  0  0  0
 21 22  1  0  0  0  0
 21 30  1  0  0  0  0
 21 31  1  0  0  0  0
 22 23  1  0  0  0  0
 22 24  2  0  0  0  0
 23 25  2  0  0  0  0
 23 32  1  0  0  0  0
 24 26  1  0  0  0  0
 24 33  1  0  0  0  0
 25 27  1  0  0  0  0
 25 34  1  0  0  0  0
 26 27  2  0  0  0  0
 26 35  1  0  0  0  0
 27 36  1  0  0  0  0
 37 38  1  0  0  0  0
 37 42  1  0  0  0  0
 38 39  1  0  0  0  0
 38 41  1  0  0  0  0
 38 43  1  0  0  0  0
 39 40  2  0  0  0  0
 39 47  1  0  0  0  0
 41 44  1  0  0  0  0
 41 45  1  0  0  0  0
 41 46  1  0  0  0  0
 47 48  1  0  0  0  0
 47 49  1  0  0  0  0
 48 50  1  0  0  0  0
 48 51  1  0  0  0  0
 48 52  1  0  0  0  0
M  END
$$$$

  -OEChem-05262217163D

 52 52  0     1  0  0  0  0  0999 V2000
   -3.6592    0.0464    3.4146 C   0  0  0  0  0  0  0  0  0  0  0  0
   -3.8363   -0.6184    2.4059 O   0  0  0  0  0  0  0  0  0  0  0  0
   -3.9614   -0.5414    4.7802 C   0  0  0  0  0  0  0  0  0  0  0  0
   -4.3010   -1.5761    4.6789 H   0  0  0  0  0  0  0  0  0  0  0  0
   -3.0620   -0.5268    5.4008 H   0  0  0  0  0  0  0  0  0  0  0  0
   -4.7452    0.0400    5.2718 H   0  0  0  0  0  0  0  0  0  0  0  0
   -3.1486    1.3246    3.3144 N   0  0  0  0  0  0  0  0  0  0  0  0
   -2.5770    1.8460    2.0649 C   0  0  2  0  0  0  0  0  0  0  0  0
   -1.0781    1.5018    1.9330 C   0  0  0  0  0  0  0  0  0  0  0  0
   -0.3739    1.5809    2.9278 O   0  0  0  0  0  0  0  0  0  0  0  0
   -2.7853    3.3619    2.0449 C   0  0  0  0  0  0  0  0  0  0  0  0
   -2.8123    1.7323    4.1831 H   0  0  0  0  0  0  0  0  0  0  0  0
   -3.1057    1.4203    1.2050 H   0  0  0  0  0  0  0  0  0  0  0  0
   -2.2646    3.8335    2.8848 H   0  0  0  0  0  0  0  0  0  0  0  0
   -2.3987    3.7875    1.1137 H   0  0  0  0  0  0  0  0  0  0  0  0
   -3.8514    3.5991    2.1171 H   0  0  0  0  0  0  0  0  0  0  0  0
   -0.5671    1.2189    0.6769 N   0  0  0  0  0  0  0  0  0  0  0  0
    0.7461    0.7135    0.1914 C   0  0  2  0  0  0  0  0  0  0  0  0
    1.9644    0.3518    1.0950 C   0  0  0  0  0  0  0  0  0  0  0  0
    2.9457   -0.1425    0.5489 O   0  0  0  0  0  0  0  0  0  0  0  0
    1.2136    1.7821   -0.8231 C   0  0  0  0  0  0  0  0  0  0  0  0
    0.3168    1.8066   -2.0391 C   0  0  0  0  0  0  0  0  0  0  0  0
    0.4901    0.8676   -3.0662 C   0  0  0  0  0  0  0  0  0  0  0  0
   -0.6921    2.7746   -2.1607 C   0  0  0  0  0  0  0  0  0  0  0  0
   -0.3423    0.8857   -4.1903 C   0  0  0  0  0  0  0  0  0  0  0  0
   -1.5243    2.7943   -3.2850 C   0  0  0  0  0  0  0  0  0  0  0  0
   -1.3510    1.8478   -4.2992 C   0  0  0  0  0  0  0  0  0  0  0  0
   -1.2798    1.2401   -0.0497 H   0  0  0  0  0  0  0  0  0  0  0  0
    0.5409   -0.2202   -0.3421 H   0  0  0  0  0  0  0  0  0  0  0  0
    2.2338    1.5727   -1.1624 H   0  0  0  0  0  0  0  0  0  0  0  0
    1.2368    2.7654   -0.3407 H   0  0  0  0  0  0  0  0  0  0  0  0
    1.2738    0.1184   -2.9921 H   0  0  0  0  0  0  0  0  0  0  0  0
   -0.8275    3.5202   -1.3827 H   0  0  0  0  0  0  0  0  0  0  0  0
   -0.2022    0.1535   -4.9802 H   0  0  0  0  0  0  0  0  0  0  0  0
   -2.3013    3.5481   -3.3747 H   0  0  0  0  0  0  0  0  0  0  0  0
   -1.9951    1.8629   -5.1738 H   0  0  0  0  0  0  0  0  0  0  0  0
    2.0202    0.4415    2.4700 N   0  0  0  0  0  0  0  0  0  0  0  0
    3.1865    0.1212    3.3069 C   0  0  2  0  0  0  0  0  0  0  0  0
    3.3482   -1.3985    3.5550 C   0  0  0  0  0  0  0  0  0  0  0  0
    3.3800   -1.8730    4.6849 O   0  0  0  0  0  0  0  0  0  0  0  0
    3.0328    0.9235    4.6049 C   0  0  0  0  0  0  0  0  0  0  0  0
    1.1928    0.8234    2.9305 H   0  0  0  0  0  0  0  0  0  0  0  0
    4.0988    0.4633    2.8075 H   0  0  0  0  0  0  0  0  0  0  0  0
    2.1357    0.6077    5.1471 H   0  0  0  0  0  0  0  0  0  0  0  0
    3.9016    0.7702    5.2526 H   0  0  0  0  0  0  0  0  0  0  0  0
    2.9500    1.9920    4.3847 H   0  0  0  0  0  0  0  0  0  0  0  0
    3.4882   -2.2427    2.4715 N   0  0  0  0  0  0  0  0  0  0  0  0
    3.6349   -3.6878    2.5717 C   0  0  0  0  0  0  0  0  0  0  0  0
    3.4365   -1.8005    1.5503 H   0  0  0  0  0  0  0  0  0  0  0  0
    4.5086   -3.9424    3.1808 H   0  0  0  0  0  0  0  0  0  0  0  0
    2.7443   -4.1319    3.0282 H   0  0  0  0  0  0  0  0  0  0  0  0
    3.7691   -4.1232    1.5767 H   0  0  0  0  0  0  0  0  0  0  0  0
  1  2  2  0  0  0  0
  1  3  1  0  0  0  0
  1  7  1  0  0  0  0
  3  4  1  0  0  0  0
  3  5  1  0  0  0  0
  3  6  1  0  0  0  0
  7  8  1  0  0  0  0
  7 12  1  0  0  0  0
  8  9  1  0  0  0  0
  8 11  1  0  0  0  0
  8 13  1  0  0  0  0
  9 10  2  0  0  0  0
  9 17  1  0  0  0  0
 11 14  1  0  0  0  0
 11 15  1  0  0  0  0
 11 16  1  0  0  0  0
 17 18  1  0  0  0  0
 17 28  1  0  0  0  0
 18 19  1  0  0  0  0
 18 21  1  0  0  0  0
 18 29  1  0  0  0  0
 19 20  2  0  0  0  0
 19 37  1  0  0  0  0
 21 22  1  0  0  0  0
 21 30  1  0  0  0  0
 21 31  1  0  0  0  0
 22 23  1  0  0  0  0
 22 24  2  0  0  0  0
 23 25  2  0  0  0  0
 23 32  1  0  0  0  0
 24 26  1  0  0  0  0
 24 33  1  0  0  0  0
 25 27  1  0  0  0  0
 25 34  1  0  0  0  0
 26 27  2  0  0  0  0
 26 35  1  0  0  0  0
 27 36  1  0  0  0  0
 37 38  1  0  0  0  0
 37 42  1  0  0  0  0
 38 39  1  0  0  0  0
 38 41  1  0  0  0  0
 38 43  1  0  0  0  0
 39 40  2  0  0  0  0
 39 47  1  0  0  0  0
 41 44  1  0  0  0  0
 41 45  1  0  0  0  0
 41 46  1  0  0  0  0
 47 48  1  0  0  0  0
 47 49  1  0  0  0  0
 48 50  1  0  0  0  0
 48 51  1  0  0  0  0
 48 52  1  0  0  0  0
M  END
$$$$

  -OEChem-05262217163D

 52 52  0     1  0  0  0  0  0999 V2000
   -3.7683    0.1979    3.4169 C   0  0  0  0  0  0  0  0  0  0  0  0
   -4.0014   -0.4994    2.4422 O   0  0  0  0  0  0  0  0  0  0  0  0
   -4.1060   -0.3000    4.8098 C   0  0  0  0  0  0  0  0  0  0  0  0
   -4.6226   -1.2624    4.7516 H   0  0  0  0  0  0  0  0  0  0  0  0
   -3.1906   -0.4273    5.3932 H   0  0  0  0  0  0  0  0  0  0  0  0
   -4.7561    0.4176    5.3159 H   0  0  0  0  0  0  0  0  0  0  0  0
   -3.1607    1.4265    3.2564 N   0  0  0  0  0  0  0  0  0  0  0  0
   -2.5541    1.8479    1.9857 C   0  0  2  0  0  0  0  0  0  0  0  0
   -1.0681    1.4401    1.8924 C   0  0  0  0  0  0  0  0  0  0  0  0
   -0.3904    1.4663    2.9086 O   0  0  0  0  0  0  0  0  0  0  0  0
   -2.7029    3.3669    1.8754 C   0  0  0  0  0  0  0  0  0  0  0  0
   -2.7893    1.8449    4.1055 H   0  0  0  0  0  0  0  0  0  0  0  0
   -3.0879    1.3923    1.1445 H   0  0  0  0  0  0  0  0  0  0  0  0
   -2.1728    3.8658    2.6934 H   0  0  0  0  0  0  0  0  0  0  0  0
   -2.2912    3.7233    0.9262 H   0  0  0  0  0  0  0  0  0  0  0  0
   -3.7597    3.6481    1.9209 H   0  0  0  0  0  0  0  0  0  0  0  0
   -0.5281    1.1673    0.6460 N   0  0  0  0  0  0  0  0  0  0  0  0
    0.7886    0.6422    0.1919 C   0  0  2  0  0  0  0  0  0  0  0  0
    1.9605    0.2450    1.1437 C   0  0  0  0  0  0  0  0  0  0  0  0
    3.0368   -0.0645    0.6423 O   0  0  0  0  0  0  0  0  0  0  0  0
    1.2917    1.7176   -0.8012 C   0  0  0  0  0  0  0  0  0  0  0  0
    0.4225    1.7655   -2.0368 C   0  0  0  0  0  0  0  0  0  0  0  0
    0.6083    0.8356   -3.0700 C   0  0  0  0  0  0  0  0  0  0  0  0
   -0.5745    2.7446   -2.1702 C   0  0  0  0  0  0  0  0  0  0  0  0
   -0.2000    0.8730   -4.2114 C   0  0  0  0  0  0  0  0  0  0  0  0
   -1.3842    2.7824   -3.3104 C   0  0  0  0  0  0  0  0  0  0  0  0
   -1.1982    1.8449   -4.3307 C   0  0  0  0  0  0  0  0  0  0  0  0
   -1.2122    1.2389   -0.1047 H   0  0  0  0  0  0  0  0  0  0  0  0
    0.5866   -0.2832   -0.3566 H   0  0  0  0  0  0  0  0  0  0  0  0
    2.3156    1.5032   -1.1244 H   0  0  0  0  0  0  0  0  0  0  0  0
    1.3151    2.6946   -0.3072 H   0  0  0  0  0  0  0  0  0  0  0  0
    1.3837    0.0788   -2.9884 H   0  0  0  0  0  0  0  0  0  0  0  0
   -0.7184    3.4851   -1.3891 H   0  0  0  0  0  0  0  0  0  0  0  0
   -0.0499    0.1484   -5.0069 H   0  0  0  0  0  0  0  0  0  0  0  0
   -2.1534    3.5431   -3.4079 H   0  0  0  0  0  0  0  0  0  0  0  0
   -1.8236    1.8748   -5.2186 H   0  0  0  0  0  0  0  0  0  0  0  0
    1.8537    0.0442    2.5045 N   0  0  0  0  0  0  0  0  0  0  0  0
    2.9667   -0.2873    3.4079 C   0  0  2  0  0  0  0  0  0  0  0  0
    3.3077   -1.7978    3.4116 C   0  0  0  0  0  0  0  0  0  0  0  0
    3.3151   -2.4594    4.4436 O   0  0  0  0  0  0  0  0  0  0  0  0
    2.5821    0.2406    4.7960 C   0  0  0  0  0  0  0  0  0  0  0  0
    0.9792    0.3568    2.9290 H   0  0  0  0  0  0  0  0  0  0  0  0
    3.8686    0.2445    3.0869 H   0  0  0  0  0  0  0  0  0  0  0  0
    1.6881   -0.2710    5.1671 H   0  0  0  0  0  0  0  0  0  0  0  0
    3.3980    0.0727    5.5062 H   0  0  0  0  0  0  0  0  0  0  0  0
    2.3773    1.3147    4.7523 H   0  0  0  0  0  0  0  0  0  0  0  0
    3.6435   -2.4129    2.2220 N   0  0  0  0  0  0  0  0  0  0  0  0
    3.9873   -3.8221    2.0943 C   0  0  0  0  0  0  0  0  0  0  0  0
    3.6197   -1.8183    1.3897 H   0  0  0  0  0  0  0  0  0  0  0  0
    4.8639   -4.0597    2.7059 H   0  0  0  0  0  0  0  0  0  0  0  0
    3.1510   -4.4508    2.4170 H   0  0  0  0  0  0  0  0  0  0  0  0
    4.2185   -4.0600    1.0518 H   0  0  0  0  0  0  0  0  0  0  0  0
  1  2  2  0  0  0  0
  1  3  1  0  0  0  0
  1  7  1  0  0  0  0
  3  4  1  0  0  0  0
  3  5  1  0  0  0  0
  3  6  1  0  0  0  0
  7  8  1  0  0  0  0
  7 12  1  0  0  0  0
  8  9  1  0  0  0  0
  8 11  1  0  0  0  0
  8 13  1  0  0  0  0
  9 10  2  0  0  0  0
  9 17  1  0  0  0  0
 11 14  1  0  0  0  0
 11 15  1  0  0  0  0
 11 16  1  0  0  0  0
 17 18  1  0  0  0  0
 17 28  1  0  0  0  0
 18 19  1  0  0  0  0
 18 21  1  0  0  0  0
 18 29  1  0  0  0  0
 19 20  2  0  0  0  0
 19 37  1  0  0  0  0
 21 22  1  0  0  0  0
 21 30  1  0  0  0  0
 21 31  1  0  0  0  0
 22 23  1  0  0  0  0
 22 24  2  0  0  0  0
 23 25  2  0  0  0  0
 23 32  1  0  0  0  0
 24 26  1  0  0  0  0
 24 33  1  0  0  0  0
 25 27  1  0  0  0  0
 25 34  1  0  0  0  0
 26 27  2  0  0  0  0
 26 35  1  0  0  0  0
 27 36  1  0  0  0  0
 37 38  1  0  0  0  0
 37 42  1  0  0  0  0
 38 39  1  0  0  0  0
 38 41  1  0  0  0  0
 38 43  1  0  0  0  0
 39 40  2  0  0  0  0
 39 47  1  0  0  0  0
 41 44  1  0  0  0  0
 41 45  1  0  0  0  0
 41 46  1  0  0  0  0
 47 48  1  0  0  0  0
 47 49  1  0  0  0  0
 48 50  1  0  0  0  0
 48 51  1  0  0  0  0
 48 52  1  0  0  0  0
M  END
$$$$

  -OEChem-05262217163D

 52 52  0     1  0  0  0  0  0999 V2000
   -3.8997    0.2121    3.2057 C   0  0  0  0  0  0  0  0  0  0  0  0
   -4.0997   -0.4566    2.2041 O   0  0  0  0  0  0  0  0  0  0  0  0
   -4.3594   -0.2879    4.5621 C   0  0  0  0  0  0  0  0  0  0  0  0
   -4.9131   -1.2245    4.4510 H   0  0  0  0  0  0  0  0  0  0  0  0
   -3.4954   -0.4645    5.2078 H   0  0  0  0  0  0  0  0  0  0  0  0
   -5.0118    0.4521    5.0319 H   0  0  0  0  0  0  0  0  0  0  0  0
   -3.2277    1.4133    3.1093 N   0  0  0  0  0  0  0  0  0  0  0  0
   -2.5330    1.8348    1.8842 C   0  0  2  0  0  0  0  0  0  0  0  0
   -1.0667    1.3526    1.8479 C   0  0  0  0  0  0  0  0  0  0  0  0
   -0.4495    1.2647    2.8989 O   0  0  0  0  0  0  0  0  0  0  0  0
   -2.5957    3.3622    1.8119 C   0  0  0  0  0  0  0  0  0  0  0  0
   -2.8947    1.8021    3.9879 H   0  0  0  0  0  0  0  0  0  0  0  0
   -3.0466    1.4317    1.0045 H   0  0  0  0  0  0  0  0  0  0  0  0
   -2.0824    3.8091    2.6695 H   0  0  0  0  0  0  0  0  0  0  0  0
   -2.1178    3.7217    0.8954 H   0  0  0  0  0  0  0  0  0  0  0  0
   -3.6371    3.6993    1.8133 H   0  0  0  0  0  0  0  0  0  0  0  0
   -0.4686    1.1284    0.6183 N   0  0  0  0  0  0  0  0  0  0  0  0
    0.8708    0.6191    0.2188 C   0  0  2  0  0  0  0  0  0  0  0  0
    1.9661    0.1955    1.2478 C   0  0  0  0  0  0  0  0  0  0  0  0
    3.1369    0.1257    0.8876 O   0  0  0  0  0  0  0  0  0  0  0  0
    1.4220    1.7138   -0.7278 C   0  0  0  0  0  0  0  0  0  0  0  0
    0.6147    1.7813   -2.0038 C   0  0  0  0  0  0  0  0  0  0  0  0
    0.8544    0.8694   -3.0421 C   0  0  0  0  0  0  0  0  0  0  0  0
   -0.3773    2.7604   -2.1699 C   0  0  0  0  0  0  0  0  0  0  0  0
    0.1058    0.9256   -4.2224 C   0  0  0  0  0  0  0  0  0  0  0  0
   -1.1278    2.8169   -3.3493 C   0  0  0  0  0  0  0  0  0  0  0  0
   -0.8870    1.8982   -4.3755 C   0  0  0  0  0  0  0  0  0  0  0  0
   -1.1017    1.2687   -0.1664 H   0  0  0  0  0  0  0  0  0  0  0  0
    0.7033   -0.2947   -0.3596 H   0  0  0  0  0  0  0  0  0  0  0  0
    2.4593    1.5041   -1.0078 H   0  0  0  0  0  0  0  0  0  0  0  0
    1.4215    2.6818   -0.2152 H   0  0  0  0  0  0  0  0  0  0  0  0
    1.6259    0.1119   -2.9342 H   0  0  0  0  0  0  0  0  0  0  0  0
   -0.5630    3.4866   -1.3842 H   0  0  0  0  0  0  0  0  0  0  0  0
    0.2983    0.2152   -5.0217 H   0  0  0  0  0  0  0  0  0  0  0  0
   -1.8933    3.5777   -3.4727 H   0  0  0  0  0  0  0  0  0  0  0  0
   -1.4655    1.9437   -5.2938 H   0  0  0  0  0  0  0  0  0  0  0  0
    1.6849   -0.3196    2.4975 N   0  0  0  0  0  0  0  0  0  0  0  0
    2.6950   -0.6922    3.5011 C   0  0  2  0  0  0  0  0  0  0  0  0
    3.2767   -2.1096    3.2749 C   0  0  0  0  0  0  0  0  0  0  0  0
    3.2656   -2.9637    4.1543 O   0  0  0  0  0  0  0  0  0  0  0  0
    2.0297   -0.5371    4.8742 C   0  0  0  0  0  0  0  0  0  0  0  0
    0.7475   -0.1046    2.8421 H   0  0  0  0  0  0  0  0  0  0  0  0
    3.5338    0.0102    3.4543 H   0  0  0  0  0  0  0  0  0  0  0  0
    1.6534    0.4824    5.0033 H   0  0  0  0  0  0  0  0  0  0  0  0
    1.1926   -1.2353    4.9757 H   0  0  0  0  0  0  0  0  0  0  0  0
    2.7506   -0.7422    5.6716 H   0  0  0  0  0  0  0  0  0  0  0  0
    3.8531   -2.4146    2.0578 N   0  0  0  0  0  0  0  0  0  0  0  0
    4.4459   -3.7036    1.7308 C   0  0  0  0  0  0  0  0  0  0  0  0
    3.8506   -1.6649    1.3615 H   0  0  0  0  0  0  0  0  0  0  0  0
    5.2701   -3.9303    2.4149 H   0  0  0  0  0  0  0  0  0  0  0  0
    3.6969   -4.4987    1.8049 H   0  0  0  0  0  0  0  0  0  0  0  0
    4.8375   -3.6903    0.7092 H   0  0  0  0  0  0  0  0  0  0  0  0
  1  2  2  0  0  0  0
  1  3  1  0  0  0  0
  1  7  1  0  0  0  0
  3  4  1  0  0  0  0
  3  5  1  0  0  0  0
  3  6  1  0  0  0  0
  7  8  1  0  0  0  0
  7 12  1  0  0  0  0
  8  9  1  0  0  0  0
  8 11  1  0  0  0  0
  8 13  1  0  0  0  0
  9 10  2  0  0  0  0
  9 17  1  0  0  0  0
 11 14  1  0  0  0  0
 11 15  1  0  0  0  0
 11 16  1  0  0  0  0
 17 18  1  0  0  0  0
 17 28  1  0  0  0  0
 18 19  1  0  0  0  0
 18 21  1  0  0  0  0
 18 29  1  0  0  0  0
 19 20  2  0  0  0  0
 19 37  1  0  0  0  0
 21 22  1  0  0  0  0
 21 30  1  0  0  0  0
 21 31  1  0  0  0  0
 22 23  1  0  0  0  0
 22 24  2  0  0  0  0
 23 25  2  0  0  0  0
 23 32  1  0  0  0  0
 24 26  1  0  0  0  0
 24 33  1  0  0  0  0
 25 27  1  0  0  0  0
 25 34  1  0  0  0  0
 26 27  2  0  0  0  0
 26 35  1  0  0  0  0
 27 36  1  0  0  0  0
 37 38  1  0  0  0  0
 37 42  1  0  0  0  0
 38 39  1  0  0  0  0
 38 41  1  0  0  0  0
 38 43  1  0  0  0  0
 39 40  2  0  0  0  0
 39 47  1  0  0  0  0
 41 44  1  0  0  0  0
 41 45  1  0  0  0  0
 41 46  1  0  0  0  0
 47 48  1  0  0  0  0
 47 49  1  0  0  0  0
 48 50  1  0  0  0  0
 48 51  1  0  0  0  0
 48 52  1  0  0  0  0
M  END
$$$$

  -OEChem-05262217163D

 52 52  0     1  0  0  0  0  0999 V2000
   -2.4976    2.6185    3.1125 C   0  0  0  0  0  0  0  0  0  0  0  0
   -1.8557    3.0042    2.1491 O   0  0  0  0  0  0  0  0  0  0  0  0
   -2.5542    3.4649    4.3701 C   0  0  0  0  0  0  0  0  0  0  0  0
   -2.1165    2.9177    5.2089 H   0  0  0  0  0  0  0  0  0  0  0  0
   -1.9931    4.3926    4.2254 H   0  0  0  0  0  0  0  0  0  0  0  0
   -3.5911    3.7147    4.6075 H   0  0  0  0  0  0  0  0  0  0  0  0
   -3.1494    1.4006    3.0774 N   0  0  0  0  0  0  0  0  0  0  0  0
   -3.0200    0.4085    1.9951 C   0  0  2  0  0  0  0  0  0  0  0  0
   -1.5579   -0.0632    1.8049 C   0  0  0  0  0  0  0  0  0  0  0  0
   -1.1225   -0.8690    2.6115 O   0  0  0  0  0  0  0  0  0  0  0  0
   -3.6777    0.9202    0.7010 C   0  0  0  0  0  0  0  0  0  0  0  0
   -3.5467    1.0862    3.9584 H   0  0  0  0  0  0  0  0  0  0  0  0
   -3.5810   -0.4818    2.2969 H   0  0  0  0  0  0  0  0  0  0  0  0
   -3.1734    1.8096    0.3133 H   0  0  0  0  0  0  0  0  0  0  0  0
   -3.6472    0.1441   -0.0701 H   0  0  0  0  0  0  0  0  0  0  0  0
   -4.7246    1.1771    0.8891 H   0  0  0  0  0  0  0  0  0  0  0  0
   -0.8002    0.3869    0.7348 N   0  0  0  0  0  0  0  0  0  0  0  0
    0.6562    0.3130    0.4485 C   0  0  2  0  0  0  0  0  0  0  0  0
    1.6599   -0.3635    1.4347 C   0  0  0  0  0  0  0  0  0  0  0  0
    2.7930    0.0865    1.5767 O   0  0  0  0  0  0  0  0  0  0  0  0
    1.0786    1.7639    0.1078 C   0  0  0  0  0  0  0  0  0  0  0  0
    0.4436    2.2164   -1.1886 C   0  0  0  0  0  0  0  0  0  0  0  0
    1.0035    1.8413   -2.4191 C   0  0  0  0  0  0  0  0  0  0  0  0
   -0.6983    3.0321   -1.1819 C   0  0  0  0  0  0  0  0  0  0  0  0
    0.4145    2.2483   -3.6213 C   0  0  0  0  0  0  0  0  0  0  0  0
   -1.2894    3.4386   -2.3823 C   0  0  0  0  0  0  0  0  0  0  0  0
   -0.7355    3.0431   -3.6033 C   0  0  0  0  0  0  0  0  0  0  0  0
   -1.2768    1.1184    0.2096 H   0  0  0  0  0  0  0  0  0  0  0  0
    0.7616   -0.2880   -0.4591 H   0  0  0  0  0  0  0  0  0  0  0  0
    2.1641    1.8371   -0.0136 H   0  0  0  0  0  0  0  0  0  0  0  0
    0.8021    2.4328    0.9303 H   0  0  0  0  0  0  0  0  0  0  0  0
    1.8991    1.2272   -2.4439 H   0  0  0  0  0  0  0  0  0  0  0  0
   -1.1267    3.3653   -0.2415 H   0  0  0  0  0  0  0  0  0  0  0  0
    0.8530    1.9489   -4.5687 H   0  0  0  0  0  0  0  0  0  0  0  0
   -2.1733    4.0695   -2.3631 H   0  0  0  0  0  0  0  0  0  0  0  0
   -1.1924    3.3610   -4.5360 H   0  0  0  0  0  0  0  0  0  0  0  0
    1.4043   -1.5826    2.0326 N   0  0  0  0  0  0  0  0  0  0  0  0
    2.2797   -2.2160    3.0333 C   0  0  2  0  0  0  0  0  0  0  0  0
    3.4607   -2.9983    2.4062 C   0  0  0  0  0  0  0  0  0  0  0  0
    3.6760   -4.1749    2.6757 O   0  0  0  0  0  0  0  0  0  0  0  0
    1.3846   -3.1016    3.9092 C   0  0  0  0  0  0  0  0  0  0  0  0
    0.4082   -1.8040    2.0930 H   0  0  0  0  0  0  0  0  0  0  0  0
    2.7139   -1.4435    3.6765 H   0  0  0  0  0  0  0  0  0  0  0  0
    0.9401   -3.9060    3.3144 H   0  0  0  0  0  0  0  0  0  0  0  0
    0.5793   -2.5089    4.3543 H   0  0  0  0  0  0  0  0  0  0  0  0
    1.9694   -3.5508    4.7181 H   0  0  0  0  0  0  0  0  0  0  0  0
    4.3271   -2.3429    1.5543 N   0  0  0  0  0  0  0  0  0  0  0  0
    5.5139   -2.9470    0.9659 C   0  0  0  0  0  0  0  0  0  0  0  0
    4.1242   -1.3539    1.3868 H   0  0  0  0  0  0  0  0  0  0  0  0
    6.2252   -3.2311    1.7484 H   0  0  0  0  0  0  0  0  0  0  0  0
    5.2449   -3.8396    0.3914 H   0  0  0  0  0  0  0  0  0  0  0  0
    6.0036   -2.2370    0.2927 H   0  0  0  0  0  0  0  0  0  0  0  0
  1  2  2  0  0  0  0
  1  3  1  0  0  0  0
  1  7  1  0  0  0  0
  3  4  1  0  0  0  0
  3  5  1  0  0  0  0
  3  6  1  0  0  0  0
  7  8  1  0  0  0  0
  7 12  1  0  0  0  0
  8  9  1  0  0  0  0
  8 11  1  0  0  0  0
  8 13  1  0  0  0  0
  9 10  2  0  0  0  0
  9 17  1  0  0  0  0
 11 14  1  0  0  0  0
 11 15  1  0  0  0  0
 11 16  1  0  0  0  0
 17 18  1  0  0  0  0
 17 28  1  0  0  0  0
 18 19  1  0  0  0  0
 18 21  1  0  0  0  0
 18 29  1  0  0  0  0
 19 20  2  0  0  0  0
 19 37  1  0  0  0  0
 21 22  1  0  0  0  0
 21 30  1  0  0  0  0
 21 31  1  0  0  0  0
 22 23  1  0  0  0  0
 22 24  2  0  0  0  0
 23 25  2  0  0  0  0
 23 32  1  0  0  0  0
 24 26  1  0  0  0  0
 24 33  1  0  0  0  0
 25 27  1  0  0  0  0
 25 34  1  0  0  0  0
 26 27  2  0  0  0  0
 26 35  1  0  0  0  0
 27 36  1  0  0  0  0
 37 38  1  0  0  0  0
 37 42  1  0  0  0  0
 38 39  1  0  0  0  0
 38 41  1  0  0  0  0
 38 43  1  0  0  0  0
 39 40  2  0  0  0  0
 39 47  1  0  0  0  0
 41 44  1  0  0  0  0
 41 45  1  0  0  0  0
 41 46  1  0  0  0  0
 47 48  1  0  0  0  0
 47 49  1  0  0  0  0
 48 50  1  0  0  0  0
 48 51  1  0  0  0  0
 48 52  1  0  0  0  0
M  END
$$$$

  -OEChem-05262217163D

 52 52  0     1  0  0  0  0  0999 V2000
   -3.0225   -0.1483    3.4810 C   0  0  0  0  0  0  0  0  0  0  0  0
   -2.9591   -0.8767    2.5016 O   0  0  0  0  0  0  0  0  0  0  0  0
   -3.2003   -0.7411    4.8660 C   0  0  0  0  0  0  0  0  0  0  0  0
   -3.3278   -1.8252    4.7989 H   0  0  0  0  0  0  0  0  0  0  0  0
   -2.3205   -0.5276    5.4783 H   0  0  0  0  0  0  0  0  0  0  0  0
   -4.0833   -0.3125    5.3463 H   0  0  0  0  0  0  0  0  0  0  0  0
   -2.8633    1.2146    3.3293 N   0  0  0  0  0  0  0  0  0  0  0  0
   -2.3807    1.7875    2.0652 C   0  0  2  0  0  0  0  0  0  0  0  0
   -0.8986    1.4404    1.8023 C   0  0  0  0  0  0  0  0  0  0  0  0
   -0.1277    1.3690    2.7489 O   0  0  0  0  0  0  0  0  0  0  0  0
   -2.5755    3.3042    2.1191 C   0  0  0  0  0  0  0  0  0  0  0  0
   -2.6654    1.7299    4.1824 H   0  0  0  0  0  0  0  0  0  0  0  0
   -2.9802    1.3896    1.2391 H   0  0  0  0  0  0  0  0  0  0  0  0
   -1.9783    3.7408    2.9266 H   0  0  0  0  0  0  0  0  0  0  0  0
   -2.2668    3.7613    1.1737 H   0  0  0  0  0  0  0  0  0  0  0  0
   -3.6288    3.5463    2.2926 H   0  0  0  0  0  0  0  0  0  0  0  0
   -0.4699    1.2330    0.5008 N   0  0  0  0  0  0  0  0  0  0  0  0
    0.7885    0.6222    0.0076 C   0  0  2  0  0  0  0  0  0  0  0  0
    1.8229    0.1156    1.0517 C   0  0  0  0  0  0  0  0  0  0  0  0
    3.0094    0.4252    0.9942 O   0  0  0  0  0  0  0  0  0  0  0  0
    1.4169    1.6554   -0.9528 C   0  0  0  0  0  0  0  0  0  0  0  0
    0.5635    1.8295   -2.1881 C   0  0  0  0  0  0  0  0  0  0  0  0
    0.6450    0.9108   -3.2450 C   0  0  0  0  0  0  0  0  0  0  0  0
   -0.3199    2.9148   -2.2936 C   0  0  0  0  0  0  0  0  0  0  0  0
   -0.1536    1.0664   -4.3832 C   0  0  0  0  0  0  0  0  0  0  0  0
   -1.1176    3.0727   -3.4321 C   0  0  0  0  0  0  0  0  0  0  0  0
   -1.0362    2.1467   -4.4765 C   0  0  0  0  0  0  0  0  0  0  0  0
   -1.1938    1.3502   -0.2043 H   0  0  0  0  0  0  0  0  0  0  0  0
    0.5243   -0.2696   -0.5686 H   0  0  0  0  0  0  0  0  0  0  0  0
    2.4101    1.3219   -1.2727 H   0  0  0  0  0  0  0  0  0  0  0  0
    1.5508    2.6108   -0.4340 H   0  0  0  0  0  0  0  0  0  0  0  0
    1.3310    0.0706   -3.1847 H   0  0  0  0  0  0  0  0  0  0  0  0
   -0.3829    3.6435   -1.4907 H   0  0  0  0  0  0  0  0  0  0  0  0
   -0.0851    0.3497   -5.1966 H   0  0  0  0  0  0  0  0  0  0  0  0
   -1.7958    3.9176   -3.5087 H   0  0  0  0  0  0  0  0  0  0  0  0
   -1.6530    2.2695   -5.3622 H   0  0  0  0  0  0  0  0  0  0  0  0
    1.4496   -0.8689    1.9495 N   0  0  0  0  0  0  0  0  0  0  0  0
    2.2935   -1.3093    3.0707 C   0  0  2  0  0  0  0  0  0  0  0  0
    3.3320   -2.3838    2.6651 C   0  0  0  0  0  0  0  0  0  0  0  0
    3.4069   -3.4641    3.2401 O   0  0  0  0  0  0  0  0  0  0  0  0
    1.3430   -1.7859    4.1767 C   0  0  0  0  0  0  0  0  0  0  0  0
    0.4441   -0.9640    2.0732 H   0  0  0  0  0  0  0  0  0  0  0  0
    2.8542   -0.4533    3.4604 H   0  0  0  0  0  0  0  0  0  0  0  0
    0.7654   -2.6528    3.8396 H   0  0  0  0  0  0  0  0  0  0  0  0
    1.9104   -2.0718    5.0680 H   0  0  0  0  0  0  0  0  0  0  0  0
    0.6482   -0.9863    4.4525 H   0  0  0  0  0  0  0  0  0  0  0  0
    4.2226   -2.1066    1.6477 N   0  0  0  0  0  0  0  0  0  0  0  0
    5.2704   -3.0142    1.2042 C   0  0  0  0  0  0  0  0  0  0  0  0
    4.1308   -1.1843    1.2135 H   0  0  0  0  0  0  0  0  0  0  0  0
    5.9781   -3.2067    2.0168 H   0  0  0  0  0  0  0  0  0  0  0  0
    4.8393   -3.9662    0.8778 H   0  0  0  0  0  0  0  0  0  0  0  0
    5.8174   -2.5759    0.3642 H   0  0  0  0  0  0  0  0  0  0  0  0
  1  2  2  0  0  0  0
  1  3  1  0  0  0  0
  1  7  1  0  0  0  0
  3  4  1  0  0  0  0
  3  5  1  0  0  0  0
  3  6  1  0  0  0  0
  7  8  1  0  0  0  0
  7 12  1  0  0  0  0
  8  9  1  0  0  0  0
  8 11  1  0  0  0  0
  8 13  1  0  0  0  0
  9 10  2  0  0  0  0
  9 17  1  0  0  0  0
 11 14  1  0  0  0  0
 11 15  1  0  0  0  0
 11 16  1  0  0  0  0
 17 18  1  0  0  0  0
 17 28  1  0  0  0  0
 18 19  1  0  0  0  0
 18 21  1  0  0  0  0
 18 29  1  0  0  0  0
 19 20  2  0  0  0  0
 19 37  1  0  0  0  0
 21 22  1  0  0  0  0
 21 30  1  0  0  0  0
 21 31  1  0  0  0  0
 22 23  1  0  0  0  0
 22 24  2  0  0  0  0
 23 25  2  0  0  0  0
 23 32  1  0  0  0  0
 24 26  1  0  0  0  0
 24 33  1  0  0  0  0
 25 27  1  0  0  0  0
 25 34  1  0  0  0  0
 26 27  2  0  0  0  0
 26 35  1  0  0  0  0
 27 36  1  0  0  0  0
 37 38  1  0  0  0  0
 37 42  1  0  0  0  0
 38 39  1  0  0  0  0
 38 41  1  0  0  0  0
 38 43  1  0  0  0  0
 39 40  2  0  0  0  0
 39 47  1  0  0  0  0
 41 44  1  0  0  0  0
 41 45  1  0  0  0  0
 41 46  1  0  0  0  0
 47 48  1  0  0  0  0
 47 49  1  0  0  0  0
 48 50  1  0  0  0  0
 48 51  1  0  0  0  0
 48 52  1  0  0  0  0
M  END
$$$$

  -OEChem-05262217163D

 52 52  0     1  0  0  0  0  0999 V2000
   -3.7788    0.2426    3.2027 C   0  0  0  0  0  0  0  0  0  0  0  0
   -4.1018   -0.1322    2.0860 O   0  0  0  0  0  0  0  0  0  0  0  0
   -4.2768   -0.4978    4.4294 C   0  0  0  0  0  0  0  0  0  0  0  0
   -4.9505   -1.3070    4.1335 H   0  0  0  0  0  0  0  0  0  0  0  0
   -3.4322   -0.9254    4.9755 H   0  0  0  0  0  0  0  0  0  0  0  0
   -4.8175    0.1884    5.0858 H   0  0  0  0  0  0  0  0  0  0  0  0
   -2.9271    1.3183    3.3488 N   0  0  0  0  0  0  0  0  0  0  0  0
   -2.1996    1.8996    2.2122 C   0  0  2  0  0  0  0  0  0  0  0  0
   -0.8779    1.1554    1.9264 C   0  0  0  0  0  0  0  0  0  0  0  0
   -0.2239    0.7185    2.8637 O   0  0  0  0  0  0  0  0  0  0  0  0
   -1.9233    3.3707    2.5285 C   0  0  0  0  0  0  0  0  0  0  0  0
   -2.5096    1.4265    4.2697 H   0  0  0  0  0  0  0  0  0  0  0  0
   -2.8213    1.8566    1.3114 H   0  0  0  0  0  0  0  0  0  0  0  0
   -1.2892    3.4606    3.4167 H   0  0  0  0  0  0  0  0  0  0  0  0
   -1.4130    3.8514    1.6878 H   0  0  0  0  0  0  0  0  0  0  0  0
   -2.8620    3.9022    2.7136 H   0  0  0  0  0  0  0  0  0  0  0  0
   -0.4639    0.9928    0.6137 N   0  0  0  0  0  0  0  0  0  0  0  0
    0.8228    0.4852    0.0848 C   0  0  2  0  0  0  0  0  0  0  0  0
    1.9109    0.0570    1.1068 C   0  0  0  0  0  0  0  0  0  0  0  0
    2.9885    0.6409    1.1823 O   0  0  0  0  0  0  0  0  0  0  0  0
    1.3608    1.5669   -0.8763 C   0  0  0  0  0  0  0  0  0  0  0  0
    0.4751    1.6942   -2.0936 C   0  0  0  0  0  0  0  0  0  0  0  0
    0.5999    0.7921   -3.1608 C   0  0  0  0  0  0  0  0  0  0  0  0
   -0.4803    2.7193   -2.1741 C   0  0  0  0  0  0  0  0  0  0  0  0
   -0.2287    0.9018   -4.2825 C   0  0  0  0  0  0  0  0  0  0  0  0
   -1.3095    2.8297   -3.2954 C   0  0  0  0  0  0  0  0  0  0  0  0
   -1.1857    1.9189   -4.3489 C   0  0  0  0  0  0  0  0  0  0  0  0
   -1.1129    1.3465   -0.0859 H   0  0  0  0  0  0  0  0  0  0  0  0
    0.6129   -0.4175   -0.4971 H   0  0  0  0  0  0  0  0  0  0  0  0
    2.3683    1.2998   -1.2138 H   0  0  0  0  0  0  0  0  0  0  0  0
    1.4409    2.5252   -0.3520 H   0  0  0  0  0  0  0  0  0  0  0  0
    1.3412   -0.0008   -3.1215 H   0  0  0  0  0  0  0  0  0  0  0  0
   -0.5776    3.4395   -1.3671 H   0  0  0  0  0  0  0  0  0  0  0  0
   -0.1278    0.1969   -5.1030 H   0  0  0  0  0  0  0  0  0  0  0  0
   -2.0470    3.6252   -3.3518 H   0  0  0  0  0  0  0  0  0  0  0  0
   -1.8289    2.0038   -5.2202 H   0  0  0  0  0  0  0  0  0  0  0  0
    1.7652   -1.1373    1.7886 N   0  0  0  0  0  0  0  0  0  0  0  0
    2.7044   -1.5993    2.8222 C   0  0  2  0  0  0  0  0  0  0  0  0
    3.9363   -2.3229    2.2255 C   0  0  0  0  0  0  0  0  0  0  0  0
    4.2041   -3.4863    2.5042 O   0  0  0  0  0  0  0  0  0  0  0  0
    1.9078   -2.4771    3.7948 C   0  0  0  0  0  0  0  0  0  0  0  0
    0.8073   -1.4710    1.8556 H   0  0  0  0  0  0  0  0  0  0  0  0
    3.0792   -0.7377    3.3856 H   0  0  0  0  0  0  0  0  0  0  0  0
    1.5134   -3.3605    3.2823 H   0  0  0  0  0  0  0  0  0  0  0  0
    2.5493   -2.8111    4.6166 H   0  0  0  0  0  0  0  0  0  0  0  0
    1.0708   -1.9128    4.2179 H   0  0  0  0  0  0  0  0  0  0  0  0
    4.7601   -1.6367    1.3554 N   0  0  0  0  0  0  0  0  0  0  0  0
    5.9167   -2.2192    0.6904 C   0  0  0  0  0  0  0  0  0  0  0  0
    4.4724   -0.6810    1.1283 H   0  0  0  0  0  0  0  0  0  0  0  0
    6.6383   -2.5853    1.4280 H   0  0  0  0  0  0  0  0  0  0  0  0
    5.6094   -3.0534    0.0512 H   0  0  0  0  0  0  0  0  0  0  0  0
    6.4111   -1.4680    0.0672 H   0  0  0  0  0  0  0  0  0  0  0  0
  1  2  2  0  0  0  0
  1  3  1  0  0  0  0
  1  7  1  0  0  0  0
  3  4  1  0  0  0  0
  3  5  1  0  0  0  0
  3  6  1  0  0  0  0
  7  8  1  0  0  0  0
  7 12  1  0  0  0  0
  8  9  1  0  0  0  0
  8 11  1  0  0  0  0
  8 13  1  0  0  0  0
  9 10  2  0  0  0  0
  9 17  1  0  0  0  0
 11 14  1  0  0  0  0
 11 15  1  0  0  0  0
 11 16  1  0  0  0  0
 17 18  1  0  0  0  0
 17 28  1  0  0  0  0
 18 19  1  0  0  0  0
 18 21  1  0  0  0  0
 18 29  1  0  0  0  0
 19 20  2  0  0  0  0
 19 37  1  0  0  0  0
 21 22  1  0  0  0  0
 21 30  1  0  0  0  0
 21 31  1  0  0  0  0
 22 23  1  0  0  0  0
 22 24  2  0  0  0  0
 23 25  2  0  0  0  0
 23 32  1  0  0  0  0
 24 26  1  0  0  0  0
 24 33  1  0  0  0  0
 25 27  1  0  0  0  0
 25 34  1  0  0  0  0
 26 27  2  0  0  0  0
 26 35  1  0  0  0  0
 27 36  1  0  0  0  0
 37 38  1  0  0  0  0
 37 42  1  0  0  0  0
 38 39  1  0  0  0  0
 38 41  1  0  0  0  0
 38 43  1  0  0  0  0
 39 40  2  0  0  0  0
 39 47  1  0  0  0  0
 41 44  1  0  0  0  0
 41 45  1  0  0  0  0
 41 46  1  0  0  0  0
 47 48  1  0  0  0  0
 47 49  1  0  0  0  0
 48 50  1  0  0  0  0
 48 51  1  0  0  0  0
 48 52  1  0  0  0  0
M  END
$$$$

  -OEChem-05262217163D

 52 52  0     1  0  0  0  0  0999 V2000
   -3.8859    0.4226    3.4912 C   0  0  0  0  0  0  0  0  0  0  0  0
   -4.5134    0.2232    2.4629 O   0  0  0  0  0  0  0  0  0  0  0  0
   -4.2925   -0.2757    4.7756 C   0  0  0  0  0  0  0  0  0  0  0  0
   -5.2013   -0.8625    4.6140 H   0  0  0  0  0  0  0  0  0  0  0  0
   -3.4944   -0.9460    5.1046 H   0  0  0  0  0  0  0  0  0  0  0  0
   -4.4852    0.4621    5.5583 H   0  0  0  0  0  0  0  0  0  0  0  0
   -2.7881    1.2587    3.4869 N   0  0  0  0  0  0  0  0  0  0  0  0
   -2.1525    1.7423    2.2520 C   0  0  2  0  0  0  0  0  0  0  0  0
   -0.8944    0.9257    1.8865 C   0  0  0  0  0  0  0  0  0  0  0  0
   -0.2830    0.3348    2.7672 O   0  0  0  0  0  0  0  0  0  0  0  0
   -1.7890    3.2146    2.4566 C   0  0  0  0  0  0  0  0  0  0  0  0
   -2.1904    1.1941    4.3078 H   0  0  0  0  0  0  0  0  0  0  0  0
   -2.8513    1.6773    1.4112 H   0  0  0  0  0  0  0  0  0  0  0  0
   -1.0829    3.3251    3.2860 H   0  0  0  0  0  0  0  0  0  0  0  0
   -1.3288    3.6245    1.5523 H   0  0  0  0  0  0  0  0  0  0  0  0
   -2.6870    3.7984    2.6822 H   0  0  0  0  0  0  0  0  0  0  0  0
   -0.4975    0.8522    0.5602 N   0  0  0  0  0  0  0  0  0  0  0  0
    0.7911    0.3833    0.0036 C   0  0  2  0  0  0  0  0  0  0  0  0
    1.8706   -0.0962    1.0091 C   0  0  0  0  0  0  0  0  0  0  0  0
    2.8059    0.6305    1.3331 O   0  0  0  0  0  0  0  0  0  0  0  0
    1.3471    1.5289   -0.8665 C   0  0  0  0  0  0  0  0  0  0  0  0
    0.4775    1.7567   -2.0796 C   0  0  0  0  0  0  0  0  0  0  0  0
    0.6060    0.9387   -3.2117 C   0  0  0  0  0  0  0  0  0  0  0  0
   -0.4640    2.7977   -2.0917 C   0  0  0  0  0  0  0  0  0  0  0  0
   -0.2055    1.1470   -4.3319 C   0  0  0  0  0  0  0  0  0  0  0  0
   -1.2747    3.0076   -3.2121 C   0  0  0  0  0  0  0  0  0  0  0  0
   -1.1474    2.1802   -4.3317 C   0  0  0  0  0  0  0  0  0  0  0  0
   -1.1059    1.3360   -0.0964 H   0  0  0  0  0  0  0  0  0  0  0  0
    0.5890   -0.4751   -0.6438 H   0  0  0  0  0  0  0  0  0  0  0  0
    2.3584    1.2787   -1.2055 H   0  0  0  0  0  0  0  0  0  0  0  0
    1.4260    2.4449   -0.2708 H   0  0  0  0  0  0  0  0  0  0  0  0
    1.3372    0.1356   -3.2253 H   0  0  0  0  0  0  0  0  0  0  0  0
   -0.5630    3.4554   -1.2332 H   0  0  0  0  0  0  0  0  0  0  0  0
   -0.1019    0.5079   -5.2042 H   0  0  0  0  0  0  0  0  0  0  0  0
   -1.9991    3.8171   -3.2162 H   0  0  0  0  0  0  0  0  0  0  0  0
   -1.7746    2.3433   -5.2035 H   0  0  0  0  0  0  0  0  0  0  0  0
    1.9090   -1.4260    1.3876 N   0  0  0  0  0  0  0  0  0  0  0  0
    2.8291   -1.9487    2.4098 C   0  0  2  0  0  0  0  0  0  0  0  0
    4.2314   -2.2783    1.8419 C   0  0  0  0  0  0  0  0  0  0  0  0
    4.7059   -3.4070    1.9000 O   0  0  0  0  0  0  0  0  0  0  0  0
    2.1457   -3.1602    3.0557 C   0  0  0  0  0  0  0  0  0  0  0  0
    1.0614   -1.9567    1.2102 H   0  0  0  0  0  0  0  0  0  0  0  0
    2.9695   -1.1937    3.1910 H   0  0  0  0  0  0  0  0  0  0  0  0
    1.9878   -3.9532    2.3176 H   0  0  0  0  0  0  0  0  0  0  0  0
    2.7664   -3.5588    3.8646 H   0  0  0  0  0  0  0  0  0  0  0  0
    1.1769   -2.8717    3.4758 H   0  0  0  0  0  0  0  0  0  0  0  0
    4.9736   -1.2695    1.2613 N   0  0  0  0  0  0  0  0  0  0  0  0
    6.2952   -1.4536    0.6789 C   0  0  0  0  0  0  0  0  0  0  0  0
    4.5202   -0.3530    1.2112 H   0  0  0  0  0  0  0  0  0  0  0  0
    6.9890   -1.8577    1.4235 H   0  0  0  0  0  0  0  0  0  0  0  0
    6.2462   -2.1434   -0.1699 H   0  0  0  0  0  0  0  0  0  0  0  0
    6.6879   -0.4953    0.3258 H   0  0  0  0  0  0  0  0  0  0  0  0
  1  2  2  0  0  0  0
  1  3  1  0  0  0  0
  1  7  1  0  0  0  0
  3  4  1  0  0  0  0
  3  5  1  0  0  0  0
  3  6  1  0  0  0  0
  7  8  1  0  0  0  0
  7 12  1  0  0  0  0
  8  9  1  0  0  0  0
  8 11  1  0  0  0  0
  8 13  1  0  0  0  0
  9 10  2  0  0  0  0
  9 17  1  0  0  0  0
 11 14  1  0  0  0  0
 11 15  1  0  0  0  0
 11 16  1  0  0  0  0
 17 18  1  0  0  0  0
 17 28  1  0  0  0  0
 18 19  1  0  0  0  0
 18 21  1  0  0  0  0
 18 29  1  0  0  0  0
 19 20  2  0  0  0  0
 19 37  1  0  0  0  0
 21 22  1  0  0  0  0
 21 30  1  0  0  0  0
 21 31  1  0  0  0  0
 22 23  1  0  0  0  0
 22 24  2  0  0  0  0
 23 25  2  0  0  0  0
 23 32  1  0  0  0  0
 24 26  1  0  0  0  0
 24 33  1  0  0  0  0
 25 27  1  0  0  0  0
 25 34  1  0  0  0  0
 26 27  2  0  0  0  0
 26 35  1  0  0  0  0
 27 36  1  0  0  0  0
 37 38  1  0  0  0  0
 37 42  1  0  0  0  0
 38 39  1  0  0  0  0
 38 41  1  0  0  0  0
 38 43  1  0  0  0  0
 39 40  2  0  0  0  0
 39 47  1  0  0  0  0
 41 44  1  0  0  0  0
 41 45  1  0  0  0  0
 41 46  1  0  0  0  0
 47 48  1  0  0  0  0
 47 49  1  0  0  0  0
 48 50  1  0  0  0  0
 48 51  1  0  0  0  0
 48 52  1  0  0  0  0
M  END
$$$$

  -OEChem-05262217163D

 52 52  0     1  0  0  0  0  0999 V2000
   -4.0205    0.7249    3.7334 C   0  0  0  0  0  0  0  0  0  0  0  0
   -4.8423    1.0178    2.8792 O   0  0  0  0  0  0  0  0  0  0  0  0
   -4.4536   -0.0207    4.9818 C   0  0  0  0  0  0  0  0  0  0  0  0
   -5.5272   -0.2254    4.9456 H   0  0  0  0  0  0  0  0  0  0  0  0
   -3.9167   -0.9697    5.0555 H   0  0  0  0  0  0  0  0  0  0  0  0
   -4.2394    0.5806    5.8688 H   0  0  0  0  0  0  0  0  0  0  0  0
   -2.6919    1.0513    3.5612 N   0  0  0  0  0  0  0  0  0  0  0  0
   -2.1215    1.5367    2.2967 C   0  0  2  0  0  0  0  0  0  0  0  0
   -0.9005    0.6998    1.8614 C   0  0  0  0  0  0  0  0  0  0  0  0
   -0.3510   -0.0339    2.6743 O   0  0  0  0  0  0  0  0  0  0  0  0
   -1.7240    3.0017    2.4882 C   0  0  0  0  0  0  0  0  0  0  0  0
   -2.0363    0.6268    4.2159 H   0  0  0  0  0  0  0  0  0  0  0  0
   -2.8624    1.4728    1.4928 H   0  0  0  0  0  0  0  0  0  0  0  0
   -0.9714    3.0944    3.2781 H   0  0  0  0  0  0  0  0  0  0  0  0
   -1.3090    3.4119    1.5627 H   0  0  0  0  0  0  0  0  0  0  0  0
   -2.5994    3.5964    2.7680 H   0  0  0  0  0  0  0  0  0  0  0  0
   -0.5058    0.7164    0.5327 N   0  0  0  0  0  0  0  0  0  0  0  0
    0.7966    0.3036   -0.0331 C   0  0  2  0  0  0  0  0  0  0  0  0
    1.8699   -0.2099    0.9596 C   0  0  0  0  0  0  0  0  0  0  0  0
    2.6296    0.5753    1.5200 O   0  0  0  0  0  0  0  0  0  0  0  0
    1.3567    1.5018   -0.8245 C   0  0  0  0  0  0  0  0  0  0  0  0
    0.5037    1.7907   -2.0367 C   0  0  0  0  0  0  0  0  0  0  0  0
    0.6584    1.0397   -3.2114 C   0  0  0  0  0  0  0  0  0  0  0  0
   -0.4537    2.8167   -2.0027 C   0  0  0  0  0  0  0  0  0  0  0  0
   -0.1461    1.2954   -4.3270 C   0  0  0  0  0  0  0  0  0  0  0  0
   -1.2565    3.0746   -3.1188 C   0  0  0  0  0  0  0  0  0  0  0  0
   -1.1054    2.3114   -4.2803 C   0  0  0  0  0  0  0  0  0  0  0  0
   -1.0735    1.3053   -0.0720 H   0  0  0  0  0  0  0  0  0  0  0  0
    0.6135   -0.5178   -0.7320 H   0  0  0  0  0  0  0  0  0  0  0  0
    2.3767    1.2786   -1.1568 H   0  0  0  0  0  0  0  0  0  0  0  0
    1.4160    2.3834   -0.1765 H   0  0  0  0  0  0  0  0  0  0  0  0
    1.4029    0.2506   -3.2617 H   0  0  0  0  0  0  0  0  0  0  0  0
   -0.5734    3.4246   -1.1107 H   0  0  0  0  0  0  0  0  0  0  0  0
   -0.0246    0.7061   -5.2313 H   0  0  0  0  0  0  0  0  0  0  0  0
   -1.9949    3.8709   -3.0864 H   0  0  0  0  0  0  0  0  0  0  0  0
   -1.7286    2.5118   -5.1475 H   0  0  0  0  0  0  0  0  0  0  0  0
    2.1452   -1.5632    1.0397 N   0  0  0  0  0  0  0  0  0  0  0  0
    3.1067   -2.1409    1.9912 C   0  0  2  0  0  0  0  0  0  0  0  0
    4.5671   -2.0659    1.4825 C   0  0  0  0  0  0  0  0  0  0  0  0
    5.2390   -3.0733    1.2927 O   0  0  0  0  0  0  0  0  0  0  0  0
    2.6488   -3.5749    2.2835 C   0  0  0  0  0  0  0  0  0  0  0  0
    1.4605   -2.1882    0.6258 H   0  0  0  0  0  0  0  0  0  0  0  0
    3.0654   -1.5825    2.9330 H   0  0  0  0  0  0  0  0  0  0  0  0
    2.6768   -4.1824    1.3732 H   0  0  0  0  0  0  0  0  0  0  0  0
    3.3050   -4.0373    3.0279 H   0  0  0  0  0  0  0  0  0  0  0  0
    1.6274   -3.5756    2.6769 H   0  0  0  0  0  0  0  0  0  0  0  0
    5.1274   -0.8294    1.2310 N   0  0  0  0  0  0  0  0  0  0  0  0
    6.4734   -0.6295    0.7133 C   0  0  0  0  0  0  0  0  0  0  0  0
    4.5099   -0.0230    1.3622 H   0  0  0  0  0  0  0  0  0  0  0  0
    7.2136   -1.0616    1.3944 H   0  0  0  0  0  0  0  0  0  0  0  0
    6.5793   -1.1010   -0.2692 H   0  0  0  0  0  0  0  0  0  0  0  0
    6.6818    0.4396    0.6093 H   0  0  0  0  0  0  0  0  0  0  0  0
  1  2  2  0  0  0  0
  1  3  1  0  0  0  0
  1  7  1  0  0  0  0
  3  4  1  0  0  0  0
  3  5  1  0  0  0  0
  3  6  1  0  0  0  0
  7  8  1  0  0  0  0
  7 12  1  0  0  0  0
  8  9  1  0  0  0  0
  8 11  1  0  0  0  0
  8 13  1  0  0  0  0
  9 10  2  0  0  0  0
  9 17  1  0  0  0  0
 11 14  1  0  0  0  0
 11 15  1  0  0  0  0
 11 16  1  0  0  0  0
 17 18  1  0  0  0  0
 17 28  1  0  0  0  0
 18 19  1  0  0  0  0
 18 21  1  0  0  0  0
 18 29  1  0  0  0  0
 19 20  2  0  0  0  0
 19 37  1  0  0  0  0
 21 22  1  0  0  0  0
 21 30  1  0  0  0  0
 21 31  1  0  0  0  0
 22 23  1  0  0  0  0
 22 24  2  0  0  0  0
 23 25  2  0  0  0  0
 23 32  1  0  0  0  0
 24 26  1  0  0  0  0
 24 33  1  0  0  0  0
 25 27  1  0  0  0  0
 25 34  1  0  0  0  0
 26 27  2  0  0  0  0
 26 35  1  0  0  0  0
 27 36  1  0  0  0  0
 37 38  1  0  0  0  0
 37 42  1  0  0  0  0
 38 39  1  0  0  0  0
 38 41  1  0  0  0  0
 38 43  1  0  0  0  0
 39 40  2  0  0  0  0
 39 47  1  0  0  0  0
 41 44  1  0  0  0  0
 41 45  1  0  0  0  0
 41 46  1  0  0  0  0
 47 48  1  0  0  0  0
 47 49  1  0  0  0  0
 48 50  1  0  0  0  0
 48 51  1  0  0  0  0
 48 52  1  0  0  0  0
M  END
$$$$

  -OEChem-05262217163D

 52 52  0     1  0  0  0  0  0999 V2000
   -4.0335    0.8997    3.8733 C   0  0  0  0  0  0  0  0  0  0  0  0
   -4.8059    1.5116    3.1522 O   0  0  0  0  0  0  0  0  0  0  0  0
   -4.5490    0.1749    5.1025 C   0  0  0  0  0  0  0  0  0  0  0  0
   -5.6288    0.3193    5.2002 H   0  0  0  0  0  0  0  0  0  0  0  0
   -4.3429   -0.8950    5.0180 H   0  0  0  0  0  0  0  0  0  0  0  0
   -4.0588    0.5635    5.9987 H   0  0  0  0  0  0  0  0  0  0  0  0
   -2.6913    0.8520    3.5626 N   0  0  0  0  0  0  0  0  0  0  0  0
   -2.1152    1.3554    2.3094 C   0  0  2  0  0  0  0  0  0  0  0  0
   -0.9509    0.4713    1.8171 C   0  0  0  0  0  0  0  0  0  0  0  0
   -0.4815   -0.3840    2.5585 O   0  0  0  0  0  0  0  0  0  0  0  0
   -1.6338    2.7905    2.5417 C   0  0  0  0  0  0  0  0  0  0  0  0
   -2.1086    0.2198    4.1107 H   0  0  0  0  0  0  0  0  0  0  0  0
   -2.8783    1.3544    1.5237 H   0  0  0  0  0  0  0  0  0  0  0  0
   -0.8622    2.8143    3.3184 H   0  0  0  0  0  0  0  0  0  0  0  0
   -1.2148    3.2103    1.6224 H   0  0  0  0  0  0  0  0  0  0  0  0
   -2.4692    3.4228    2.8598 H   0  0  0  0  0  0  0  0  0  0  0  0
   -0.5405    0.5614    0.4970 N   0  0  0  0  0  0  0  0  0  0  0  0
    0.7822    0.1972   -0.0533 C   0  0  2  0  0  0  0  0  0  0  0  0
    1.8425   -0.3419    0.9401 C   0  0  0  0  0  0  0  0  0  0  0  0
    2.4228    0.4313    1.6974 O   0  0  0  0  0  0  0  0  0  0  0  0
    1.3456    1.4495   -0.7534 C   0  0  0  0  0  0  0  0  0  0  0  0
    0.5227    1.8021   -1.9695 C   0  0  0  0  0  0  0  0  0  0  0  0
    0.7200    1.1287   -3.1840 C   0  0  0  0  0  0  0  0  0  0  0  0
   -0.4486    2.8136   -1.8989 C   0  0  0  0  0  0  0  0  0  0  0  0
   -0.0562    1.4457   -4.3042 C   0  0  0  0  0  0  0  0  0  0  0  0
   -1.2246    3.1312   -3.0185 C   0  0  0  0  0  0  0  0  0  0  0  0
   -1.0308    2.4446   -4.2206 C   0  0  0  0  0  0  0  0  0  0  0  0
   -1.0652    1.2307   -0.0605 H   0  0  0  0  0  0  0  0  0  0  0  0
    0.6312   -0.5874   -0.8003 H   0  0  0  0  0  0  0  0  0  0  0  0
    2.3785    1.2627   -1.0680 H   0  0  0  0  0  0  0  0  0  0  0  0
    1.3714    2.2901   -0.0509 H   0  0  0  0  0  0  0  0  0  0  0  0
    1.4764    0.3533   -3.2626 H   0  0  0  0  0  0  0  0  0  0  0  0
   -0.6010    3.3649   -0.9756 H   0  0  0  0  0  0  0  0  0  0  0  0
    0.1000    0.9181   -5.2408 H   0  0  0  0  0  0  0  0  0  0  0  0
   -1.9751    3.9145   -2.9569 H   0  0  0  0  0  0  0  0  0  0  0  0
   -1.6319    2.6921   -5.0909 H   0  0  0  0  0  0  0  0  0  0  0  0
    2.3733   -1.6092    0.7738 N   0  0  0  0  0  0  0  0  0  0  0  0
    3.4281   -2.1739    1.6309 C   0  0  2  0  0  0  0  0  0  0  0  0
    4.8447   -1.7211    1.2003 C   0  0  0  0  0  0  0  0  0  0  0  0
    5.6985   -2.5230    0.8398 O   0  0  0  0  0  0  0  0  0  0  0  0
    3.2603   -3.6987    1.6226 C   0  0  0  0  0  0  0  0  0  0  0  0
    1.8799   -2.2387    0.1485 H   0  0  0  0  0  0  0  0  0  0  0  0
    3.2813   -1.8313    2.6613 H   0  0  0  0  0  0  0  0  0  0  0  0
    3.4127   -4.0992    0.6151 H   0  0  0  0  0  0  0  0  0  0  0  0
    3.9906   -4.1633    2.2928 H   0  0  0  0  0  0  0  0  0  0  0  0
    2.2577   -3.9746    1.9637 H   0  0  0  0  0  0  0  0  0  0  0  0
    5.1509   -0.3749    1.2082 N   0  0  0  0  0  0  0  0  0  0  0  0
    6.4336    0.1761    0.7953 C   0  0  0  0  0  0  0  0  0  0  0  0
    4.3927    0.2560    1.4826 H   0  0  0  0  0  0  0  0  0  0  0  0
    7.2393   -0.2184    1.4231 H   0  0  0  0  0  0  0  0  0  0  0  0
    6.6412   -0.0795   -0.2489 H   0  0  0  0  0  0  0  0  0  0  0  0
    6.4238    1.2661    0.8897 H   0  0  0  0  0  0  0  0  0  0  0  0
  1  2  2  0  0  0  0
  1  3  1  0  0  0  0
  1  7  1  0  0  0  0
  3  4  1  0  0  0  0
  3  5  1  0  0  0  0
  3  6  1  0  0  0  0
  7  8  1  0  0  0  0
  7 12  1  0  0  0  0
  8  9  1  0  0  0  0
  8 11  1  0  0  0  0
  8 13  1  0  0  0  0
  9 10  2  0  0  0  0
  9 17  1  0  0  0  0
 11 14  1  0  0  0  0
 11 15  1  0  0  0  0
 11 16  1  0  0  0  0
 17 18  1  0  0  0  0
 17 28  1  0  0  0  0
 18 19  1  0  0  0  0
 18 21  1  0  0  0  0
 18 29  1  0  0  0  0
 19 20  2  0  0  0  0
 19 37  1  0  0  0  0
 21 22  1  0  0  0  0
 21 30  1  0  0  0  0
 21 31  1  0  0  0  0
 22 23  1  0  0  0  0
 22 24  2  0  0  0  0
 23 25  2  0  0  0  0
 23 32  1  0  0  0  0
 24 26  1  0  0  0  0
 24 33  1  0  0  0  0
 25 27  1  0  0  0  0
 25 34  1  0  0  0  0
 26 27  2  0  0  0  0
 26 35  1  0  0  0  0
 27 36  1  0  0  0  0
 37 38  1  0  0  0  0
 37 42  1  0  0  0  0
 38 39  1  0  0  0  0
 38 41  1  0  0  0  0
 38 43  1  0  0  0  0
 39 40  2  0  0  0  0
 39 47  1  0  0  0  0
 41 44  1  0  0  0  0
 41 45  1  0  0  0  0
 41 46  1  0  0  0  0
 47 48  1  0  0  0  0
 47 49  1  0  0  0  0
 48 50  1  0  0  0  0
 48 51  1  0  0  0  0
 48 52  1  0  0  0  0
M  END
$$$$

  -OEChem-05262217163D

 52 52  0     1  0  0  0  0  0999 V2000
   -3.9668    0.9028    3.9728 C   0  0  0  0  0  0  0  0  0  0  0  0
   -4.6988    1.6373    3.3281 O   0  0  0  0  0  0  0  0  0  0  0  0
   -4.5002    0.1720    5.1902 C   0  0  0  0  0  0  0  0  0  0  0  0
   -5.5588    0.4044    5.3354 H   0  0  0  0  0  0  0  0  0  0  0  0
   -4.3919   -0.9071    5.0559 H   0  0  0  0  0  0  0  0  0  0  0  0
   -3.9465    0.4788    6.0807 H   0  0  0  0  0  0  0  0  0  0  0  0
   -2.6548    0.7280    3.5881 N   0  0  0  0  0  0  0  0  0  0  0  0
   -2.0826    1.2521    2.3413 C   0  0  2  0  0  0  0  0  0  0  0  0
   -0.9943    0.3183    1.7713 C   0  0  0  0  0  0  0  0  0  0  0  0
   -0.5992   -0.6337    2.4347 O   0  0  0  0  0  0  0  0  0  0  0  0
   -1.4991    2.6399    2.6233 C   0  0  0  0  0  0  0  0  0  0  0  0
   -2.1163    0.0096    4.0720 H   0  0  0  0  0  0  0  0  0  0  0  0
   -2.8685    1.3385    1.5832 H   0  0  0  0  0  0  0  0  0  0  0  0
   -0.7018    2.5739    3.3707 H   0  0  0  0  0  0  0  0  0  0  0  0
   -1.0845    3.0771    1.7105 H   0  0  0  0  0  0  0  0  0  0  0  0
   -2.2783    3.3089    3.0024 H   0  0  0  0  0  0  0  0  0  0  0  0
   -0.5825    0.4649    0.4566 N   0  0  0  0  0  0  0  0  0  0  0  0
    0.7511    0.1275   -0.0859 C   0  0  2  0  0  0  0  0  0  0  0  0
    1.8068   -0.4404    0.8957 C   0  0  0  0  0  0  0  0  0  0  0  0
    2.2291    0.2631    1.8096 O   0  0  0  0  0  0  0  0  0  0  0  0
    1.3278    1.4055   -0.7244 C   0  0  0  0  0  0  0  0  0  0  0  0
    0.5314    1.8115   -1.9411 C   0  0  0  0  0  0  0  0  0  0  0  0
    0.7537    1.1884   -3.1782 C   0  0  0  0  0  0  0  0  0  0  0  0
   -0.4403    2.8205   -1.8496 C   0  0  0  0  0  0  0  0  0  0  0  0
    0.0066    1.5566   -4.3024 C   0  0  0  0  0  0  0  0  0  0  0  0
   -1.1880    3.1893   -2.9728 C   0  0  0  0  0  0  0  0  0  0  0  0
   -0.9661    2.5557   -4.1992 C   0  0  0  0  0  0  0  0  0  0  0  0
   -1.0724    1.1965   -0.0516 H   0  0  0  0  0  0  0  0  0  0  0  0
    0.6106   -0.6292   -0.8628 H   0  0  0  0  0  0  0  0  0  0  0  0
    2.3664    1.2300   -1.0262 H   0  0  0  0  0  0  0  0  0  0  0  0
    1.3418    2.2164    0.0122 H   0  0  0  0  0  0  0  0  0  0  0  0
    1.5100    0.4147   -3.2727 H   0  0  0  0  0  0  0  0  0  0  0  0
   -0.6142    3.3310   -0.9069 H   0  0  0  0  0  0  0  0  0  0  0  0
    0.1842    1.0682   -5.2565 H   0  0  0  0  0  0  0  0  0  0  0  0
   -1.9376    3.9720   -2.8949 H   0  0  0  0  0  0  0  0  0  0  0  0
   -1.5446    2.8439   -5.0724 H   0  0  0  0  0  0  0  0  0  0  0  0
    2.5676   -1.5382    0.5318 N   0  0  0  0  0  0  0  0  0  0  0  0
    3.6994   -2.0546    1.3180 C   0  0  2  0  0  0  0  0  0  0  0  0
    5.0128   -1.2857    1.0343 C   0  0  0  0  0  0  0  0  0  0  0  0
    6.0042   -1.8443    0.5798 O   0  0  0  0  0  0  0  0  0  0  0  0
    3.8119   -3.5570    1.0304 C   0  0  0  0  0  0  0  0  0  0  0  0
    2.2570   -2.0770   -0.2705 H   0  0  0  0  0  0  0  0  0  0  0  0
    3.4839   -1.9375    2.3857 H   0  0  0  0  0  0  0  0  0  0  0  0
    4.0465   -3.7318   -0.0245 H   0  0  0  0  0  0  0  0  0  0  0  0
    4.6068   -4.0001    1.6391 H   0  0  0  0  0  0  0  0  0  0  0  0
    2.8721   -4.0635    1.2708 H   0  0  0  0  0  0  0  0  0  0  0  0
    5.0627    0.0705    1.2863 N   0  0  0  0  0  0  0  0  0  0  0  0
    6.2333    0.9053    1.0567 C   0  0  0  0  0  0  0  0  0  0  0  0
    4.2007    0.4917    1.6438 H   0  0  0  0  0  0  0  0  0  0  0  0
    7.0658    0.5790    1.6887 H   0  0  0  0  0  0  0  0  0  0  0  0
    6.5433    0.8507    0.0080 H   0  0  0  0  0  0  0  0  0  0  0  0
    6.0044    1.9482    1.2957 H   0  0  0  0  0  0  0  0  0  0  0  0
  1  2  2  0  0  0  0
  1  3  1  0  0  0  0
  1  7  1  0  0  0  0
  3  4  1  0  0  0  0
  3  5  1  0  0  0  0
  3  6  1  0  0  0  0
  7  8  1  0  0  0  0
  7 12  1  0  0  0  0
  8  9  1  0  0  0  0
  8 11  1  0  0  0  0
  8 13  1  0  0  0  0
  9 10  2  0  0  0  0
  9 17  1  0  0  0  0
 11 14  1  0  0  0  0
 11 15  1  0  0  0  0
 11 16  1  0  0  0  0
 17 18  1  0  0  0  0
 17 28  1  0  0  0  0
 18 19  1  0  0  0  0
 18 21  1  0  0  0  0
 18 29  1  0  0  0  0
 19 20  2  0  0  0  0
 19 37  1  0  0  0  0
 21 22  1  0  0  0  0
 21 30  1  0  0  0  0
 21 31  1  0  0  0  0
 22 23  1  0  0  0  0
 22 24  2  0  0  0  0
 23 25  2  0  0  0  0
 23 32  1  0  0  0  0
 24 26  1  0  0  0  0
 24 33  1  0  0  0  0
 25 27  1  0  0  0  0
 25 34  1  0  0  0  0
 26 27  2  0  0  0  0
 26 35  1  0  0  0  0
 27 36  1  0  0  0  0
 37 38  1  0  0  0  0
 37 42  1  0  0  0  0
 38 39  1  0  0  0  0
 38 41  1  0  0  0  0
 38 43  1  0  0  0  0
 39 40  2  0  0  0  0
 39 47  1  0  0  0  0
 41 44  1  0  0  0  0
 41 45  1  0  0  0  0
 41 46  1  0  0  0  0
 47 48  1  0  0  0  0
 47 49  1  0  0  0  0
 48 50  1  0  0  0  0
 48 51  1  0  0  0  0
 48 52  1  0  0  0  0
M  END
$$$$

  -OEChem-05262217163D

 52 52  0     1  0  0  0  0  0999 V2000
   -3.9716    0.9398    3.9241 C   0  0  0  0  0  0  0  0  0  0  0  0
   -4.6157    1.7780    3.3126 O   0  0  0  0  0  0  0  0  0  0  0  0
   -4.6141    0.1604    5.0560 C   0  0  0  0  0  0  0  0  0  0  0  0
   -5.6446    0.4941    5.2070 H   0  0  0  0  0  0  0  0  0  0  0  0
   -4.6205   -0.9058    4.8167 H   0  0  0  0  0  0  0  0  0  0  0  0
   -4.0544    0.3159    5.9813 H   0  0  0  0  0  0  0  0  0  0  0  0
   -2.6639    0.6837    3.5719 N   0  0  0  0  0  0  0  0  0  0  0  0
   -2.0041    1.2378    2.3829 C   0  0  2  0  0  0  0  0  0  0  0  0
   -0.9952    0.2425    1.7739 C   0  0  0  0  0  0  0  0  0  0  0  0
   -0.6873   -0.7713    2.3904 O   0  0  0  0  0  0  0  0  0  0  0  0
   -1.2939    2.5343    2.7820 C   0  0  0  0  0  0  0  0  0  0  0  0
   -2.2073   -0.1127    4.0162 H   0  0  0  0  0  0  0  0  0  0  0  0
   -2.7519    1.4577    1.6135 H   0  0  0  0  0  0  0  0  0  0  0  0
   -0.5280    2.3330    3.5383 H   0  0  0  0  0  0  0  0  0  0  0  0
   -0.8123    2.9930    1.9135 H   0  0  0  0  0  0  0  0  0  0  0  0
   -2.0133    3.2483    3.1955 H   0  0  0  0  0  0  0  0  0  0  0  0
   -0.5806    0.3964    0.4617 N   0  0  0  0  0  0  0  0  0  0  0  0
    0.7516    0.0438   -0.0744 C   0  0  2  0  0  0  0  0  0  0  0  0
    1.8032   -0.5465    0.8985 C   0  0  0  0  0  0  0  0  0  0  0  0
    2.1024    0.0698    1.9176 O   0  0  0  0  0  0  0  0  0  0  0  0
    1.3507    1.3258   -0.6848 C   0  0  0  0  0  0  0  0  0  0  0  0
    0.5700    1.7655   -1.8995 C   0  0  0  0  0  0  0  0  0  0  0  0
    0.7928    1.1635   -3.1467 C   0  0  0  0  0  0  0  0  0  0  0  0
   -0.3862    2.7881   -1.7954 C   0  0  0  0  0  0  0  0  0  0  0  0
    0.0597    1.5658   -4.2685 C   0  0  0  0  0  0  0  0  0  0  0  0
   -1.1194    3.1901   -2.9165 C   0  0  0  0  0  0  0  0  0  0  0  0
   -0.8986    2.5772   -4.1532 C   0  0  0  0  0  0  0  0  0  0  0  0
   -1.0347    1.1658   -0.0230 H   0  0  0  0  0  0  0  0  0  0  0  0
    0.6046   -0.7016   -0.8609 H   0  0  0  0  0  0  0  0  0  0  0  0
    2.3894    1.1452   -0.9831 H   0  0  0  0  0  0  0  0  0  0  0  0
    1.3698    2.1224    0.0673 H   0  0  0  0  0  0  0  0  0  0  0  0
    1.5371    0.3798   -3.2517 H   0  0  0  0  0  0  0  0  0  0  0  0
   -0.5594    3.2840   -0.8449 H   0  0  0  0  0  0  0  0  0  0  0  0
    0.2367    1.0939   -5.2308 H   0  0  0  0  0  0  0  0  0  0  0  0
   -1.8576    3.9822   -2.8287 H   0  0  0  0  0  0  0  0  0  0  0  0
   -1.4666    2.8906   -5.0247 H   0  0  0  0  0  0  0  0  0  0  0  0
    2.7483   -1.4337    0.4109 N   0  0  0  0  0  0  0  0  0  0  0  0
    3.9714   -1.8230    1.1306 C   0  0  2  0  0  0  0  0  0  0  0  0
    5.1042   -0.7827    0.9570 C   0  0  0  0  0  0  0  0  0  0  0  0
    6.1563   -1.0602    0.3936 O   0  0  0  0  0  0  0  0  0  0  0  0
    4.3658   -3.2238    0.6473 C   0  0  0  0  0  0  0  0  0  0  0  0
    2.5808   -1.8420   -0.5034 H   0  0  0  0  0  0  0  0  0  0  0  0
    3.7592   -1.8909    2.2034 H   0  0  0  0  0  0  0  0  0  0  0  0
    4.6001   -3.2128   -0.4219 H   0  0  0  0  0  0  0  0  0  0  0  0
    5.2484   -3.5763    1.1909 H   0  0  0  0  0  0  0  0  0  0  0  0
    3.5489   -3.9308    0.8214 H   0  0  0  0  0  0  0  0  0  0  0  0
    4.9101    0.5019    1.4233 N   0  0  0  0  0  0  0  0  0  0  0  0
    5.8837    1.5764    1.2917 C   0  0  0  0  0  0  0  0  0  0  0  0
    3.9955    0.6938    1.8420 H   0  0  0  0  0  0  0  0  0  0  0  0
    6.8220    1.3043    1.7860 H   0  0  0  0  0  0  0  0  0  0  0  0
    6.0878    1.7816    0.2359 H   0  0  0  0  0  0  0  0  0  0  0  0
    5.5007    2.4906    1.7553 H   0  0  0  0  0  0  0  0  0  0  0  0
  1  2  2  0  0  0  0
  1  3  1  0  0  0  0
  1  7  1  0  0  0  0
  3  4  1  0  0  0  0
  3  5  1  0  0  0  0
  3  6  1  0  0  0  0
  7  8  1  0  0  0  0
  7 12  1  0  0  0  0
  8  9  1  0  0  0  0
  8 11  1  0  0  0  0
  8 13  1  0  0  0  0
  9 10  2  0  0  0  0
  9 17  1  0  0  0  0
 11 14  1  0  0  0  0
 11 15  1  0  0  0  0
 11 16  1  0  0  0  0
 17 18  1  0  0  0  0
 17 28  1  0  0  0  0
 18 19  1  0  0  0  0
 18 21  1  0  0  0  0
 18 29  1  0  0  0  0
 19 20  2  0  0  0  0
 19 37  1  0  0  0  0
 21 22  1  0  0  0  0
 21 30  1  0  0  0  0
 21 31  1  0  0  0  0
 22 23  1  0  0  0  0
 22 24  2  0  0  0  0
 23 25  2  0  0  0  0
 23 32  1  0  0  0  0
 24 26  1  0  0  0  0
 24 33  1  0  0  0  0
 25 27  1  0  0  0  0
 25 34  1  0  0  0  0
 26 27  2  0  0  0  0
 26 35  1  0  0  0  0
 27 36  1  0  0  0  0
 37 38  1  0  0  0  0
 37 42  1  0  0  0  0
 38 39  1  0  0  0  0
 38 41  1  0  0  0  0
 38 43  1  0  0  0  0
 39 40  2  0  0  0  0
 39 47  1  0  0  0  0
 41 44  1  0  0  0  0
 41 45  1  0  0  0  0
 41 46  1  0  0  0  0
 47 48  1  0  0  0  0
 47 49  1  0  0  0  0
 48 50  1  0  0  0  0
 48 51  1  0  0  0  0
 48 52  1  0  0  0  0
M  END
$$$$

  -OEChem-05262217163D

 52 52  0     1  0  0  0  0  0999 V2000
   -2.7547   -0.1308    4.1494 C   0  0  0  0  0  0  0  0  0  0  0  0
   -3.3708   -0.9060    3.4343 O   0  0  0  0  0  0  0  0  0  0  0  0
   -2.5165   -0.4711    5.6084 C   0  0  0  0  0  0  0  0  0  0  0  0
   -2.9897   -1.4256    5.8557 H   0  0  0  0  0  0  0  0  0  0  0  0
   -1.4438   -0.5484    5.8027 H   0  0  0  0  0  0  0  0  0  0  0  0
   -2.9403    0.3074    6.2473 H   0  0  0  0  0  0  0  0  0  0  0  0
   -2.2707    1.0555    3.6388 N   0  0  0  0  0  0  0  0  0  0  0  0
   -2.2158    1.3670    2.2046 C   0  0  2  0  0  0  0  0  0  0  0  0
   -0.7590    1.5598    1.7405 C   0  0  0  0  0  0  0  0  0  0  0  0
    0.0345    2.1184    2.4868 O   0  0  0  0  0  0  0  0  0  0  0  0
   -3.0370    2.6364    1.9670 C   0  0  0  0  0  0  0  0  0  0  0  0
   -1.6053    1.5543    4.2280 H   0  0  0  0  0  0  0  0  0  0  0  0
   -2.6463    0.5528    1.6127 H   0  0  0  0  0  0  0  0  0  0  0  0
   -2.6209    3.4738    2.5367 H   0  0  0  0  0  0  0  0  0  0  0  0
   -3.0349    2.9023    0.9056 H   0  0  0  0  0  0  0  0  0  0  0  0
   -4.0732    2.4798    2.2827 H   0  0  0  0  0  0  0  0  0  0  0  0
   -0.4283    1.3849    0.4088 N   0  0  0  0  0  0  0  0  0  0  0  0
    0.7656    0.6868   -0.1287 C   0  0  2  0  0  0  0  0  0  0  0  0
    1.8350    0.0294    0.7917 C   0  0  0  0  0  0  0  0  0  0  0  0
    1.7915    0.0113    2.0125 O   0  0  0  0  0  0  0  0  0  0  0  0
    1.4762    1.7126   -1.0334 C   0  0  0  0  0  0  0  0  0  0  0  0
    0.6349    2.0319   -2.2475 C   0  0  0  0  0  0  0  0  0  0  0  0
    0.6286    1.1736   -3.3575 C   0  0  0  0  0  0  0  0  0  0  0  0
   -0.1652    3.1843   -2.2718 C   0  0  0  0  0  0  0  0  0  0  0  0
   -0.1680    1.4612   -4.4712 C   0  0  0  0  0  0  0  0  0  0  0  0
   -0.9624    3.4728   -3.3845 C   0  0  0  0  0  0  0  0  0  0  0  0
   -0.9650    2.6098   -4.4844 C   0  0  0  0  0  0  0  0  0  0  0  0
   -1.2507    1.2713   -0.1769 H   0  0  0  0  0  0  0  0  0  0  0  0
    0.3963   -0.1374   -0.7460 H   0  0  0  0  0  0  0  0  0  0  0  0
    2.4415    1.3242   -1.3737 H   0  0  0  0  0  0  0  0  0  0  0  0
    1.6836    2.6235   -0.4604 H   0  0  0  0  0  0  0  0  0  0  0  0
    1.2448    0.2799   -3.3633 H   0  0  0  0  0  0  0  0  0  0  0  0
   -0.1693    3.8593   -1.4202 H   0  0  0  0  0  0  0  0  0  0  0  0
   -0.1661    0.7946   -5.3288 H   0  0  0  0  0  0  0  0  0  0  0  0
   -1.5769    4.3686   -3.3952 H   0  0  0  0  0  0  0  0  0  0  0  0
   -1.5813    2.8337   -5.3505 H   0  0  0  0  0  0  0  0  0  0  0  0
    2.7326   -0.8557    0.2146 N   0  0  0  0  0  0  0  0  0  0  0  0
    3.7053   -1.6645    0.9690 C   0  0  2  0  0  0  0  0  0  0  0  0
    4.8907   -0.8202    1.4986 C   0  0  0  0  0  0  0  0  0  0  0  0
    6.0349   -0.9948    1.0964 O   0  0  0  0  0  0  0  0  0  0  0  0
    4.1513   -2.8126    0.0552 C   0  0  0  0  0  0  0  0  0  0  0  0
    2.8051   -0.8503   -0.7980 H   0  0  0  0  0  0  0  0  0  0  0  0
    3.2143   -2.1092    1.8414 H   0  0  0  0  0  0  0  0  0  0  0  0
    4.6580   -2.4250   -0.8343 H   0  0  0  0  0  0  0  0  0  0  0  0
    4.8446   -3.4715    0.5878 H   0  0  0  0  0  0  0  0  0  0  0  0
    3.2878   -3.4051   -0.2619 H   0  0  0  0  0  0  0  0  0  0  0  0
    4.6470    0.1698    2.4294 N   0  0  0  0  0  0  0  0  0  0  0  0
    5.6648    1.0725    2.9473 C   0  0  0  0  0  0  0  0  0  0  0  0
    3.6634    0.3331    2.6661 H   0  0  0  0  0  0  0  0  0  0  0  0
    6.4528    0.5082    3.4566 H   0  0  0  0  0  0  0  0  0  0  0  0
    6.1135    1.6514    2.1335 H   0  0  0  0  0  0  0  0  0  0  0  0
    5.2198    1.7691    3.6645 H   0  0  0  0  0  0  0  0  0  0  0  0
  1  2  2  0  0  0  0
  1  3  1  0  0  0  0
  1  7  1  0  0  0  0
  3  4  1  0  0  0  0
  3  5  1  0  0  0  0
  3  6  1  0  0  0  0
  7  8  1  0  0  0  0
  7 12  1  0  0  0  0
  8  9  1  0  0  0  0
  8 11  1  0  0  0  0
  8 13  1  0  0  0  0
  9 10  2  0  0  0  0
  9 17  1  0  0  0  0
 11 14  1  0  0  0  0
 11 15  1  0  0  0  0
 11 16  1  0  0  0  0
 17 18  1  0  0  0  0
 17 28  1  0  0  0  0
 18 19  1  0  0  0  0
 18 21  1  0  0  0  0
 18 29  1  0  0  0  0
 19 20  2  0  0  0  0
 19 37  1  0  0  0  0
 21 22  1  0  0  0  0
 21 30  1  0  0  0  0
 21 31  1  0  0  0  0
 22 23  1  0  0  0  0
 22 24  2  0  0  0  0
 23 25  2  0  0  0  0
 23 32  1  0  0  0  0
 24 26  1  0  0  0  0
 24 33  1  0  0  0  0
 25 27  1  0  0  0  0
 25 34  1  0  0  0  0
 26 27  2  0  0  0  0
 26 35  1  0  0  0  0
 27 36  1  0  0  0  0
 37 38  1  0  0  0  0
 37 42  1  0  0  0  0
 38 39  1  0  0  0  0
 38 41  1  0  0  0  0
 38 43  1  0  0  0  0
 39 40  2  0  0  0  0
 39 47  1  0  0  0  0
 41 44  1  0  0  0  0
 41 45  1  0  0  0  0
 41 46  1  0  0  0  0
 47 48  1  0  0  0  0
 47 49  1  0  0  0  0
 48 50  1  0  0  0  0
 48 51  1  0  0  0  0
 48 52  1  0  0  0  0
M  END
$$$$

  -OEChem-05262217163D

 52 52  0     1  0  0  0  0  0999 V2000
   -2.9823    0.1575    4.3524 C   0  0  0  0  0  0  0  0  0  0  0  0
   -3.9780   -0.2191    3.7540 O   0  0  0  0  0  0  0  0  0  0  0  0
   -2.7757   -0.2245    5.8060 C   0  0  0  0  0  0  0  0  0  0  0  0
   -3.6282   -0.8060    6.1679 H   0  0  0  0  0  0  0  0  0  0  0  0
   -1.8694   -0.8265    5.9080 H   0  0  0  0  0  0  0  0  0  0  0  0
   -2.6783    0.6754    6.4181 H   0  0  0  0  0  0  0  0  0  0  0  0
   -2.0403    0.9299    3.7075 N   0  0  0  0  0  0  0  0  0  0  0  0
   -2.0398    1.1992    2.2648 C   0  0  2  0  0  0  0  0  0  0  0  0
   -0.6020    1.2563    1.7121 C   0  0  0  0  0  0  0  0  0  0  0  0
    0.3253    1.5623    2.4560 O   0  0  0  0  0  0  0  0  0  0  0  0
   -2.7673    2.5239    2.0188 C   0  0  0  0  0  0  0  0  0  0  0  0
   -1.1680    1.1117    4.2033 H   0  0  0  0  0  0  0  0  0  0  0  0
   -2.5617    0.3945    1.7356 H   0  0  0  0  0  0  0  0  0  0  0  0
   -2.2546    3.3423    2.5343 H   0  0  0  0  0  0  0  0  0  0  0  0
   -2.8009    2.7521    0.9493 H   0  0  0  0  0  0  0  0  0  0  0  0
   -3.7948    2.4659    2.3922 H   0  0  0  0  0  0  0  0  0  0  0  0
   -0.3695    1.1695    0.3498 N   0  0  0  0  0  0  0  0  0  0  0  0
    0.8232    0.5549   -0.2818 C   0  0  2  0  0  0  0  0  0  0  0  0
    1.7421   -0.3657    0.5719 C   0  0  0  0  0  0  0  0  0  0  0  0
    1.3272   -0.9422    1.5707 O   0  0  0  0  0  0  0  0  0  0  0  0
    1.6475    1.7244   -0.8594 C   0  0  0  0  0  0  0  0  0  0  0  0
    0.9110    2.3915   -1.9980 C   0  0  0  0  0  0  0  0  0  0  0  0
    0.9372    1.8395   -3.2880 C   0  0  0  0  0  0  0  0  0  0  0  0
    0.1773    3.5662   -1.7739 C   0  0  0  0  0  0  0  0  0  0  0  0
    0.2388    2.4507   -4.3352 C   0  0  0  0  0  0  0  0  0  0  0  0
   -0.5219    4.1778   -2.8199 C   0  0  0  0  0  0  0  0  0  0  0  0
   -0.4916    3.6197   -4.1012 C   0  0  0  0  0  0  0  0  0  0  0  0
   -1.2210    1.1046   -0.2005 H   0  0  0  0  0  0  0  0  0  0  0  0
    0.4791   -0.0775   -1.1052 H   0  0  0  0  0  0  0  0  0  0  0  0
    2.6116    1.3719   -1.2371 H   0  0  0  0  0  0  0  0  0  0  0  0
    1.8614    2.4489   -0.0653 H   0  0  0  0  0  0  0  0  0  0  0  0
    1.5010    0.9328   -3.4845 H   0  0  0  0  0  0  0  0  0  0  0  0
    0.1464    4.0055   -0.7803 H   0  0  0  0  0  0  0  0  0  0  0  0
    0.2644    2.0183   -5.3313 H   0  0  0  0  0  0  0  0  0  0  0  0
   -1.0875    5.0869   -2.6360 H   0  0  0  0  0  0  0  0  0  0  0  0
   -1.0328    4.0957   -4.9138 H   0  0  0  0  0  0  0  0  0  0  0  0
    2.8627   -0.9399   -0.0079 N   0  0  0  0  0  0  0  0  0  0  0  0
    3.7007   -1.9591    0.6488 C   0  0  2  0  0  0  0  0  0  0  0  0
    4.5549   -1.3702    1.8002 C   0  0  0  0  0  0  0  0  0  0  0  0
    5.7794   -1.4050    1.7736 O   0  0  0  0  0  0  0  0  0  0  0  0
    4.5474   -2.6249   -0.4432 C   0  0  0  0  0  0  0  0  0  0  0  0
    3.2342   -0.4877   -0.8373 H   0  0  0  0  0  0  0  0  0  0  0  0
    3.0617   -2.7328    1.0884 H   0  0  0  0  0  0  0  0  0  0  0  0
    5.2199   -1.8972   -0.9086 H   0  0  0  0  0  0  0  0  0  0  0  0
    5.1530   -3.4297   -0.0139 H   0  0  0  0  0  0  0  0  0  0  0  0
    3.9032   -3.0540   -1.2167 H   0  0  0  0  0  0  0  0  0  0  0  0
    3.9225   -0.7660    2.8691 N   0  0  0  0  0  0  0  0  0  0  0  0
    4.6169   -0.1095    3.9674 C   0  0  0  0  0  0  0  0  0  0  0  0
    2.9011   -0.7080    2.8164 H   0  0  0  0  0  0  0  0  0  0  0  0
    5.2190   -0.8331    4.5262 H   0  0  0  0  0  0  0  0  0  0  0  0
    5.2735    0.6805    3.5886 H   0  0  0  0  0  0  0  0  0  0  0  0
    3.8931    0.3421    4.6527 H   0  0  0  0  0  0  0  0  0  0  0  0
  1  2  2  0  0  0  0
  1  3  1  0  0  0  0
  1  7  1  0  0  0  0
  3  4  1  0  0  0  0
  3  5  1  0  0  0  0
  3  6  1  0  0  0  0
  7  8  1  0  0  0  0
  7 12  1  0  0  0  0
  8  9  1  0  0  0  0
  8 11  1  0  0  0  0
  8 13  1  0  0  0  0
  9 10  2  0  0  0  0
  9 17  1  0  0  0  0
 11 14  1  0  0  0  0
 11 15  1  0  0  0  0
 11 16  1  0  0  0  0
 17 18  1  0  0  0  0
 17 28  1  0  0  0  0
 18 19  1  0  0  0  0
 18 21  1  0  0  0  0
 18 29  1  0  0  0  0
 19 20  2  0  0  0  0
 19 37  1  0  0  0  0
 21 22  1  0  0  0  0
 21 30  1  0  0  0  0
 21 31  1  0  0  0  0
 22 23  1  0  0  0  0
 22 24  2  0  0  0  0
 23 25  2  0  0  0  0
 23 32  1  0  0  0  0
 24 26  1  0  0  0  0
 24 33  1  0  0  0  0
 25 27  1  0  0  0  0
 25 34  1  0  0  0  0
 26 27  2  0  0  0  0
 26 35  1  0  0  0  0
 27 36  1  0  0  0  0
 37 38  1  0  0  0  0
 37 42  1  0  0  0  0
 38 39  1  0  0  0  0
 38 41  1  0  0  0  0
 38 43  1  0  0  0  0
 39 40  2  0  0  0  0
 39 47  1  0  0  0  0
 41 44  1  0  0  0  0
 41 45  1  0  0  0  0
 41 46  1  0  0  0  0
 47 48  1  0  0  0  0
 47 49  1  0  0  0  0
 48 50  1  0  0  0  0
 48 51  1  0  0  0  0
 48 52  1  0  0  0  0
M  END
$$$$

  -OEChem-05262217163D

 52 52  0     1  0  0  0  0  0999 V2000
   -3.0060    0.1773    4.3599 C   0  0  0  0  0  0  0  0  0  0  0  0
   -4.0340   -0.1100    3.7668 O   0  0  0  0  0  0  0  0  0  0  0  0
   -2.8330   -0.2082    5.8169 C   0  0  0  0  0  0  0  0  0  0  0  0
   -3.7298   -0.7169    6.1812 H   0  0  0  0  0  0  0  0  0  0  0  0
   -1.9780   -0.8798    5.9258 H   0  0  0  0  0  0  0  0  0  0  0  0
   -2.6647    0.6857    6.4222 H   0  0  0  0  0  0  0  0  0  0  0  0
   -1.9966    0.8489    3.7042 N   0  0  0  0  0  0  0  0  0  0  0  0
   -1.9839    1.1180    2.2613 C   0  0  2  0  0  0  0  0  0  0  0  0
   -0.5461    1.1208    1.7035 C   0  0  0  0  0  0  0  0  0  0  0  0
    0.4004    1.3216    2.4599 O   0  0  0  0  0  0  0  0  0  0  0  0
   -2.6647    2.4676    2.0135 C   0  0  0  0  0  0  0  0  0  0  0  0
   -1.1123    0.9645    4.1984 H   0  0  0  0  0  0  0  0  0  0  0  0
   -2.5356    0.3313    1.7356 H   0  0  0  0  0  0  0  0  0  0  0  0
   -2.1231    3.2690    2.5261 H   0  0  0  0  0  0  0  0  0  0  0  0
   -2.6935    2.6943    0.9436 H   0  0  0  0  0  0  0  0  0  0  0  0
   -3.6930    2.4465    2.3884 H   0  0  0  0  0  0  0  0  0  0  0  0
   -0.3293    1.0842    0.3352 N   0  0  0  0  0  0  0  0  0  0  0  0
    0.8692    0.5285   -0.3376 C   0  0  2  0  0  0  0  0  0  0  0  0
    1.8076   -0.3862    0.4994 C   0  0  0  0  0  0  0  0  0  0  0  0
    1.3388   -1.1500    1.3366 O   0  0  0  0  0  0  0  0  0  0  0  0
    1.6393    1.7423   -0.9005 C   0  0  0  0  0  0  0  0  0  0  0  0
    0.8539    2.4116   -2.0036 C   0  0  0  0  0  0  0  0  0  0  0  0
    0.8718    1.8928   -3.3073 C   0  0  0  0  0  0  0  0  0  0  0  0
    0.0888    3.5566   -1.7349 C   0  0  0  0  0  0  0  0  0  0  0  0
    0.1316    2.5055   -4.3242 C   0  0  0  0  0  0  0  0  0  0  0  0
   -0.6510    4.1705   -2.7509 C   0  0  0  0  0  0  0  0  0  0  0  0
   -0.6304    3.6444   -4.0461 C   0  0  0  0  0  0  0  0  0  0  0  0
   -1.1830    1.0589   -0.2153 H   0  0  0  0  0  0  0  0  0  0  0  0
    0.5363   -0.0970   -1.1710 H   0  0  0  0  0  0  0  0  0  0  0  0
    2.6035    1.4360   -1.3148 H   0  0  0  0  0  0  0  0  0  0  0  0
    1.8467    2.4524   -0.0919 H   0  0  0  0  0  0  0  0  0  0  0  0
    1.4604    1.0102   -3.5386 H   0  0  0  0  0  0  0  0  0  0  0  0
    0.0665    3.9715   -0.7310 H   0  0  0  0  0  0  0  0  0  0  0  0
    0.1499    2.0979   -5.3311 H   0  0  0  0  0  0  0  0  0  0  0  0
   -1.2395    5.0575   -2.5342 H   0  0  0  0  0  0  0  0  0  0  0  0
   -1.2033    4.1218   -4.8359 H   0  0  0  0  0  0  0  0  0  0  0  0
    3.0883   -0.6902    0.0654 N   0  0  0  0  0  0  0  0  0  0  0  0
    3.9906   -1.6161    0.7721 C   0  0  2  0  0  0  0  0  0  0  0  0
    4.5264   -1.0186    2.0983 C   0  0  0  0  0  0  0  0  0  0  0  0
    5.7256   -0.8539    2.2887 O   0  0  0  0  0  0  0  0  0  0  0  0
    5.1078   -1.9950   -0.2082 C   0  0  0  0  0  0  0  0  0  0  0  0
    3.5032   -0.0567   -0.6104 H   0  0  0  0  0  0  0  0  0  0  0  0
    3.4499   -2.5332    1.0295 H   0  0  0  0  0  0  0  0  0  0  0  0
    5.6986   -1.1144   -0.4802 H   0  0  0  0  0  0  0  0  0  0  0  0
    5.7766   -2.7324    0.2470 H   0  0  0  0  0  0  0  0  0  0  0  0
    4.6853   -2.4297   -1.1193 H   0  0  0  0  0  0  0  0  0  0  0  0
    3.6313   -0.6301    3.0760 N   0  0  0  0  0  0  0  0  0  0  0  0
    4.0103    0.0398    4.3115 C   0  0  0  0  0  0  0  0  0  0  0  0
    2.6381   -0.7159    2.8407 H   0  0  0  0  0  0  0  0  0  0  0  0
    4.6419   -0.6131    4.9225 H   0  0  0  0  0  0  0  0  0  0  0  0
    4.5587    0.9625    4.0956 H   0  0  0  0  0  0  0  0  0  0  0  0
    3.1160    0.2963    4.8875 H   0  0  0  0  0  0  0  0  0  0  0  0
  1  2  2  0  0  0  0
  1  3  1  0  0  0  0
  1  7  1  0  0  0  0
  3  4  1  0  0  0  0
  3  5  1  0  0  0  0
  3  6  1  0  0  0  0
  7  8  1  0  0  0  0
  7 12  1  0  0  0  0
  8  9  1  0  0  0  0
  8 11  1  0  0  0  0
  8 13  1  0  0  0  0
  9 10  2  0  0  0  0
  9 17  1  0  0  0  0
 11 14  1  0  0  0  0
 11 15  1  0  0  0  0
 11 16  1  0  0  0  0
 17 18  1  0  0  0  0
 17 28  1  0  0  0  0
 18 19  1  0  0  0  0
 18 21  1  0  0  0  0
 18 29  1  0  0  0  0
 19 20  2  0  0  0  0
 19 37  1  0  0  0  0
 21 22  1  0  0  0  0
 21 30  1  0  0  0  0
 21 31  1  0  0  0  0
 22 23  1  0  0  0  0
 22 24  2  0  0  0  0
 23 25  2  0  0  0  0
 23 32  1  0  0  0  0
 24 26  1  0  0  0  0
 24 33  1  0  0  0  0
 25 27  1  0  0  0  0
 25 34  1  0  0  0  0
 26 27  2  0  0  0  0
 26 35  1  0  0  0  0
 27 36  1  0  0  0  0
 37 38  1  0  0  0  0
 37 42  1  0  0  0  0
 38 39  1  0  0  0  0
 38 41  1  0  0  0  0
 38 43  1  0  0  0  0
 39 40  2  0  0  0  0
 39 47  1  0  0  0  0
 41 44  1  0  0  0  0
 41 45  1  0  0  0  0
 41 46  1  0  0  0  0
 47 48  1  0  0  0  0
 47 49  1  0  0  0  0
 48 50  1  0  0  0  0
 48 51  1  0  0  0  0
 48 52  1  0  0  0  0
M  END
$$$$

  -OEChem-05262217163D

 52 52  0     1  0  0  0  0  0999 V2000
   -3.0274    0.1612    4.3466 C   0  0  0  0  0  0  0  0  0  0  0  0
   -4.0674   -0.0676    3.7493 O   0  0  0  0  0  0  0  0  0  0  0  0
   -2.8822   -0.2303    5.8050 C   0  0  0  0  0  0  0  0  0  0  0  0
   -3.8013   -0.7032    6.1622 H   0  0  0  0  0  0  0  0  0  0  0  0
   -2.0556   -0.9355    5.9213 H   0  0  0  0  0  0  0  0  0  0  0  0
   -2.6840    0.6567    6.4113 H   0  0  0  0  0  0  0  0  0  0  0  0
   -1.9790    0.7729    3.6935 N   0  0  0  0  0  0  0  0  0  0  0  0
   -1.9473    1.0430    2.2509 C   0  0  2  0  0  0  0  0  0  0  0  0
   -0.5068    1.0004    1.7004 C   0  0  0  0  0  0  0  0  0  0  0  0
    0.4420    1.1051    2.4734 O   0  0  0  0  0  0  0  0  0  0  0  0
   -2.5818    2.4151    1.9985 C   0  0  0  0  0  0  0  0  0  0  0  0
   -1.0918    0.8410    4.1911 H   0  0  0  0  0  0  0  0  0  0  0  0
   -2.5212    0.2752    1.7205 H   0  0  0  0  0  0  0  0  0  0  0  0
   -2.0156    3.1981    2.5131 H   0  0  0  0  0  0  0  0  0  0  0  0
   -2.5990    2.6421    0.9284 H   0  0  0  0  0  0  0  0  0  0  0  0
   -3.6119    2.4298    2.3685 H   0  0  0  0  0  0  0  0  0  0  0  0
   -0.2913    1.0117    0.3305 N   0  0  0  0  0  0  0  0  0  0  0  0
    0.9200    0.5253   -0.3711 C   0  0  2  0  0  0  0  0  0  0  0  0
    1.8831   -0.3748    0.4506 C   0  0  0  0  0  0  0  0  0  0  0  0
    1.4182   -1.2861    1.1265 O   0  0  0  0  0  0  0  0  0  0  0  0
    1.6327    1.7757   -0.9273 C   0  0  0  0  0  0  0  0  0  0  0  0
    0.8037    2.4286   -2.0083 C   0  0  0  0  0  0  0  0  0  0  0  0
    0.8218    1.9284   -3.3195 C   0  0  0  0  0  0  0  0  0  0  0  0
   -0.0044    3.5367   -1.7116 C   0  0  0  0  0  0  0  0  0  0  0  0
    0.0445    2.5264   -4.3171 C   0  0  0  0  0  0  0  0  0  0  0  0
   -0.7823    4.1350   -2.7084 C   0  0  0  0  0  0  0  0  0  0  0  0
   -0.7577    3.6299   -4.0118 C   0  0  0  0  0  0  0  0  0  0  0  0
   -1.1416    1.0282   -0.2258 H   0  0  0  0  0  0  0  0  0  0  0  0
    0.6029   -0.0994   -1.2115 H   0  0  0  0  0  0  0  0  0  0  0  0
    2.5973    1.5080   -1.3672 H   0  0  0  0  0  0  0  0  0  0  0  0
    1.8298    2.4819   -0.1129 H   0  0  0  0  0  0  0  0  0  0  0  0
    1.4419    1.0733   -3.5717 H   0  0  0  0  0  0  0  0  0  0  0  0
   -0.0299    3.9355   -0.7012 H   0  0  0  0  0  0  0  0  0  0  0  0
    0.0655    2.1361   -5.3306 H   0  0  0  0  0  0  0  0  0  0  0  0
   -1.4032    4.9940   -2.4712 H   0  0  0  0  0  0  0  0  0  0  0  0
   -1.3588    4.0960   -4.7875 H   0  0  0  0  0  0  0  0  0  0  0  0
    3.2494   -0.4082    0.2223 N   0  0  0  0  0  0  0  0  0  0  0  0
    4.1749   -1.2606    0.9884 C   0  0  2  0  0  0  0  0  0  0  0  0
    4.4104   -0.7300    2.4262 C   0  0  0  0  0  0  0  0  0  0  0  0
    5.5376   -0.4831    2.8392 O   0  0  0  0  0  0  0  0  0  0  0  0
    5.4691   -1.3736    0.1722 C   0  0  0  0  0  0  0  0  0  0  0  0
    3.6454    0.3874   -0.2683 H   0  0  0  0  0  0  0  0  0  0  0  0
    3.7554   -2.2678    1.0847 H   0  0  0  0  0  0  0  0  0  0  0  0
    5.9399   -0.3920    0.0566 H   0  0  0  0  0  0  0  0  0  0  0  0
    6.1775   -2.0394    0.6759 H   0  0  0  0  0  0  0  0  0  0  0  0
    5.2599   -1.7827   -0.8210 H   0  0  0  0  0  0  0  0  0  0  0  0
    3.3285   -0.4963    3.2534 N   0  0  0  0  0  0  0  0  0  0  0  0
    3.4270    0.1059    4.5748 C   0  0  0  0  0  0  0  0  0  0  0  0
    2.4012   -0.6391    2.8428 H   0  0  0  0  0  0  0  0  0  0  0  0
    4.0377   -0.5176    5.2359 H   0  0  0  0  0  0  0  0  0  0  0  0
    3.8779    1.1016    4.5097 H   0  0  0  0  0  0  0  0  0  0  0  0
    2.4303    0.2054    5.0151 H   0  0  0  0  0  0  0  0  0  0  0  0
  1  2  2  0  0  0  0
  1  3  1  0  0  0  0
  1  7  1  0  0  0  0
  3  4  1  0  0  0  0
  3  5  1  0  0  0  0
  3  6  1  0  0  0  0
  7  8  1  0  0  0  0
  7 12  1  0  0  0  0
  8  9  1  0  0  0  0
  8 11  1  0  0  0  0
  8 13  1  0  0  0  0
  9 10  2  0  0  0  0
  9 17  1  0  0  0  0
 11 14  1  0  0  0  0
 11 15  1  0  0  0  0
 11 16  1  0  0  0  0
 17 18  1  0  0  0  0
 17 28  1  0  0  0  0
 18 19  1  0  0  0  0
 18 21  1  0  0  0  0
 18 29  1  0  0  0  0
 19 20  2  0  0  0  0
 19 37  1  0  0  0  0
 21 22  1  0  0  0  0
 21 30  1  0  0  0  0
 21 31  1  0  0  0  0
 22 23  1  0  0  0  0
 22 24  2  0  0  0  0
 23 25  2  0  0  0  0
 23 32  1  0  0  0  0
 24 26  1  0  0  0  0
 24 33  1  0  0  0  0
 25 27  1  0  0  0  0
 25 34  1  0  0  0  0
 26 27  2  0  0  0  0
 26 35  1  0  0  0  0
 27 36  1  0  0  0  0
 37 38  1  0  0  0  0
 37 42  1  0  0  0  0
 38 39  1  0  0  0  0
 38 41  1  0  0  0  0
 38 43  1  0  0  0  0
 39 40  2  0  0  0  0
 39 47  1  0  0  0  0
 41 44  1  0  0  0  0
 41 45  1  0  0  0  0
 41 46  1  0  0  0  0
 47 48  1  0  0  0  0
 47 49  1  0  0  0  0
 48 50  1  0  0  0  0
 48 51  1  0  0  0  0
 48 52  1  0  0  0  0
M  END
$$$$

  -OEChem-05262217163D

 52 52  0     1  0  0  0  0  0999 V2000
   -3.1080    0.1178    4.2989 C   0  0  0  0  0  0  0  0  0  0  0  0
   -4.1456   -0.0748    3.6849 O   0  0  0  0  0  0  0  0  0  0  0  0
   -3.0068   -0.2607    5.7648 C   0  0  0  0  0  0  0  0  0  0  0  0
   -3.9654   -0.6492    6.1201 H   0  0  0  0  0  0  0  0  0  0  0  0
   -2.2428   -1.0301    5.8999 H   0  0  0  0  0  0  0  0  0  0  0  0
   -2.7400    0.6161    6.3598 H   0  0  0  0  0  0  0  0  0  0  0  0
   -2.0233    0.6776    3.6577 N   0  0  0  0  0  0  0  0  0  0  0  0
   -1.9609    0.9465    2.2154 C   0  0  2  0  0  0  0  0  0  0  0  0
   -0.5121    0.8845    1.6876 C   0  0  0  0  0  0  0  0  0  0  0  0
    0.4234    0.9273    2.4811 O   0  0  0  0  0  0  0  0  0  0  0  0
   -2.5731    2.3268    1.9498 C   0  0  0  0  0  0  0  0  0  0  0  0
   -1.1436    0.7192    4.1711 H   0  0  0  0  0  0  0  0  0  0  0  0
   -2.5362    0.1852    1.6775 H   0  0  0  0  0  0  0  0  0  0  0  0
   -2.0014    3.1047    2.4661 H   0  0  0  0  0  0  0  0  0  0  0  0
   -2.5760    2.5481    0.8784 H   0  0  0  0  0  0  0  0  0  0  0  0
   -3.6070    2.3596    2.3084 H   0  0  0  0  0  0  0  0  0  0  0  0
   -0.2750    0.9315    0.3222 N   0  0  0  0  0  0  0  0  0  0  0  0
    0.9629    0.5204   -0.3798 C   0  0  2  0  0  0  0  0  0  0  0  0
    1.9544   -0.3477    0.4404 C   0  0  0  0  0  0  0  0  0  0  0  0
    1.5466   -1.3794    0.9598 O   0  0  0  0  0  0  0  0  0  0  0  0
    1.6215    1.8110   -0.9093 C   0  0  0  0  0  0  0  0  0  0  0  0
    0.7712    2.4449   -1.9845 C   0  0  0  0  0  0  0  0  0  0  0  0
    0.8180    1.9718   -3.3047 C   0  0  0  0  0  0  0  0  0  0  0  0
   -0.0858    3.5107   -1.6712 C   0  0  0  0  0  0  0  0  0  0  0  0
    0.0195    2.5548   -4.2949 C   0  0  0  0  0  0  0  0  0  0  0  0
   -0.8844    4.0940   -2.6603 C   0  0  0  0  0  0  0  0  0  0  0  0
   -0.8317    3.6160   -3.9730 C   0  0  0  0  0  0  0  0  0  0  0  0
   -1.1134    0.9723   -0.2513 H   0  0  0  0  0  0  0  0  0  0  0  0
    0.6839   -0.1048   -1.2338 H   0  0  0  0  0  0  0  0  0  0  0  0
    2.5990    1.5883   -1.3480 H   0  0  0  0  0  0  0  0  0  0  0  0
    1.7828    2.5119   -0.0825 H   0  0  0  0  0  0  0  0  0  0  0  0
    1.4753    1.1487   -3.5692 H   0  0  0  0  0  0  0  0  0  0  0  0
   -0.1334    3.8896   -0.6541 H   0  0  0  0  0  0  0  0  0  0  0  0
    0.0615    2.1851   -5.3154 H   0  0  0  0  0  0  0  0  0  0  0  0
   -1.5432    4.9206   -2.4097 H   0  0  0  0  0  0  0  0  0  0  0  0
   -1.4493    4.0699   -4.7428 H   0  0  0  0  0  0  0  0  0  0  0  0
    3.3197   -0.1167    0.4616 N   0  0  0  0  0  0  0  0  0  0  0  0
    4.2675   -0.9182    1.2537 C   0  0  2  0  0  0  0  0  0  0  0  0
    4.2752   -0.5162    2.7502 C   0  0  0  0  0  0  0  0  0  0  0  0
    5.3209   -0.2499    3.3316 O   0  0  0  0  0  0  0  0  0  0  0  0
    5.6425   -0.7754    0.5889 C   0  0  0  0  0  0  0  0  0  0  0  0
    3.6301    0.7947    0.1396 H   0  0  0  0  0  0  0  0  0  0  0  0
    3.9861   -1.9759    1.2100 H   0  0  0  0  0  0  0  0  0  0  0  0
    5.9844    0.2636    0.6304 H   0  0  0  0  0  0  0  0  0  0  0  0
    6.3785   -1.4025    1.1019 H   0  0  0  0  0  0  0  0  0  0  0  0
    5.5944   -1.0888   -0.4583 H   0  0  0  0  0  0  0  0  0  0  0  0
    3.0832   -0.4177    3.4416 N   0  0  0  0  0  0  0  0  0  0  0  0
    2.9758    0.0843    4.8033 C   0  0  0  0  0  0  0  0  0  0  0  0
    2.2259   -0.5411    2.8961 H   0  0  0  0  0  0  0  0  0  0  0  0
    3.6121   -0.4967    5.4791 H   0  0  0  0  0  0  0  0  0  0  0  0
    3.2787    1.1353    4.8474 H   0  0  0  0  0  0  0  0  0  0  0  0
    1.9413    0.0051    5.1507 H   0  0  0  0  0  0  0  0  0  0  0  0
  1  2  2  0  0  0  0
  1  3  1  0  0  0  0
  1  7  1  0  0  0  0
  3  4  1  0  0  0  0
  3  5  1  0  0  0  0
  3  6  1  0  0  0  0
  7  8  1  0  0  0  0
  7 12  1  0  0  0  0
  8  9  1  0  0  0  0
  8 11  1  0  0  0  0
  8 13  1  0  0  0  0
  9 10  2  0  0  0  0
  9 17  1  0  0  0  0
 11 14  1  0  0  0  0
 11 15  1  0  0  0  0
 11 16  1  0  0  0  0
 17 18  1  0  0  0  0
 17 28  1  0  0  0  0
 18 19  1  0  0  0  0
 18 21  1  0  0  0  0
 18 29  1  0  0  0  0
 19 20  2  0  0  0  0
 19 37  1  0  0  0  0
 21 22  1  0  0  0  0
 21 30  1  0  0  0  0
 21 31  1  0  0  0  0
 22 23  1  0  0  0  0
 22 24  2  0  0  0  0
 23 25  2  0  0  0  0
 23 32  1  0  0  0  0
 24 26  1  0  0  0  0
 24 33  1  0  0  0  0
 25 27  1  0  0  0  0
 25 34  1  0  0  0  0
 26 27  2  0  0  0  0
 26 35  1  0  0  0  0
 27 36  1  0  0  0  0
 37 38  1  0  0  0  0
 37 42  1  0  0  0  0
 38 39  1  0  0  0  0
 38 41  1  0  0  0  0
 38 43  1  0  0  0  0
 39 40  2  0  0  0  0
 39 47  1  0  0  0  0
 41 44  1  0  0  0  0
 41 45  1  0  0  0  0
 41 46  1  0  0  0  0
 47 48  1  0  0  0  0
 47 49  1  0  0  0  0
 48 50  1  0  0  0  0
 48 51  1  0  0  0  0
 48 52  1  0  0  0  0
M  END
$$$$

  -OEChem-05262217163D

 52 52  0     1  0  0  0  0  0999 V2000
   -3.0648    0.0743    4.2777 C   0  0  0  0  0  0  0  0  0  0  0  0
   -4.0772   -0.1965    3.6514 O   0  0  0  0  0  0  0  0  0  0  0  0
   -2.9345   -0.3330    5.7332 C   0  0  0  0  0  0  0  0  0  0  0  0
   -3.8275   -0.8766    6.0542 H   0  0  0  0  0  0  0  0  0  0  0  0
   -2.0636   -0.9797    5.8637 H   0  0  0  0  0  0  0  0  0  0  0  0
   -2.8178    0.5549    6.3594 H   0  0  0  0  0  0  0  0  0  0  0  0
   -2.0307    0.7445    3.6599 N   0  0  0  0  0  0  0  0  0  0  0  0
   -1.9706    1.0255    2.2197 C   0  0  2  0  0  0  0  0  0  0  0  0
   -0.5196    0.9838    1.6971 C   0  0  0  0  0  0  0  0  0  0  0  0
    0.4103    1.0362    2.4945 O   0  0  0  0  0  0  0  0  0  0  0  0
   -2.5992    2.3999    1.9687 C   0  0  0  0  0  0  0  0  0  0  0  0
   -1.1597    0.8407    4.1809 H   0  0  0  0  0  0  0  0  0  0  0  0
   -2.5351    0.2639    1.6707 H   0  0  0  0  0  0  0  0  0  0  0  0
   -2.0417    3.1785    2.4995 H   0  0  0  0  0  0  0  0  0  0  0  0
   -2.5980    2.6357    0.9003 H   0  0  0  0  0  0  0  0  0  0  0  0
   -3.6356    2.4115    2.3216 H   0  0  0  0  0  0  0  0  0  0  0  0
   -0.2752    0.9956    0.3330 N   0  0  0  0  0  0  0  0  0  0  0  0
    0.9811    0.6046   -0.3456 C   0  0  2  0  0  0  0  0  0  0  0  0
    1.9968   -0.2004    0.5065 C   0  0  0  0  0  0  0  0  0  0  0  0
    1.6838   -1.3239    0.8816 O   0  0  0  0  0  0  0  0  0  0  0  0
    1.6048    1.8868   -0.9318 C   0  0  0  0  0  0  0  0  0  0  0  0
    0.7434    2.4420   -2.0412 C   0  0  0  0  0  0  0  0  0  0  0  0
    0.8178    1.9039   -3.3349 C   0  0  0  0  0  0  0  0  0  0  0  0
   -0.1488    3.4959   -1.7903 C   0  0  0  0  0  0  0  0  0  0  0  0
    0.0097    2.4070   -4.3599 C   0  0  0  0  0  0  0  0  0  0  0  0
   -0.9577    3.9997   -2.8147 C   0  0  0  0  0  0  0  0  0  0  0  0
   -0.8789    3.4546   -4.0998 C   0  0  0  0  0  0  0  0  0  0  0  0
   -1.1082    1.0099   -0.2500 H   0  0  0  0  0  0  0  0  0  0  0  0
    0.7254   -0.0639   -1.1737 H   0  0  0  0  0  0  0  0  0  0  0  0
    2.5940    1.6683   -1.3473 H   0  0  0  0  0  0  0  0  0  0  0  0
    1.7363    2.6331   -0.1405 H   0  0  0  0  0  0  0  0  0  0  0  0
    1.5042    1.0904   -3.5507 H   0  0  0  0  0  0  0  0  0  0  0  0
   -0.2165    3.9270   -0.7954 H   0  0  0  0  0  0  0  0  0  0  0  0
    0.0735    1.9848   -5.3588 H   0  0  0  0  0  0  0  0  0  0  0  0
   -1.6455    4.8163   -2.6137 H   0  0  0  0  0  0  0  0  0  0  0  0
   -1.5048    3.8466   -4.8964 H   0  0  0  0  0  0  0  0  0  0  0  0
    3.2823    0.2425    0.7707 N   0  0  0  0  0  0  0  0  0  0  0  0
    4.2596   -0.5154    1.5697 C   0  0  2  0  0  0  0  0  0  0  0  0
    4.0089   -0.3919    3.0933 C   0  0  0  0  0  0  0  0  0  0  0  0
    4.8749    0.0267    3.8536 O   0  0  0  0  0  0  0  0  0  0  0  0
    5.6558   -0.0358    1.1535 C   0  0  0  0  0  0  0  0  0  0  0  0
    3.4594    1.2311    0.6211 H   0  0  0  0  0  0  0  0  0  0  0  0
    4.1887   -1.5799    1.3222 H   0  0  0  0  0  0  0  0  0  0  0  0
    5.7906    1.0217    1.4030 H   0  0  0  0  0  0  0  0  0  0  0  0
    6.4255   -0.6143    1.6747 H   0  0  0  0  0  0  0  0  0  0  0  0
    5.7988   -0.1644    0.0762 H   0  0  0  0  0  0  0  0  0  0  0  0
    2.7796   -0.7537    3.6064 N   0  0  0  0  0  0  0  0  0  0  0  0
    2.3806   -0.5118    4.9848 C   0  0  0  0  0  0  0  0  0  0  0  0
    2.0543   -0.9538    2.9131 H   0  0  0  0  0  0  0  0  0  0  0  0
    3.0976   -0.9638    5.6781 H   0  0  0  0  0  0  0  0  0  0  0  0
    2.3267    0.5639    5.1815 H   0  0  0  0  0  0  0  0  0  0  0  0
    1.3962   -0.9510    5.1725 H   0  0  0  0  0  0  0  0  0  0  0  0
  1  2  2  0  0  0  0
  1  3  1  0  0  0  0
  1  7  1  0  0  0  0
  3  4  1  0  0  0  0
  3  5  1  0  0  0  0
  3  6  1  0  0  0  0
  7  8  1  0  0  0  0
  7 12  1  0  0  0  0
  8  9  1  0  0  0  0
  8 11  1  0  0  0  0
  8 13  1  0  0  0  0
  9 10  2  0  0  0  0
  9 17  1  0  0  0  0
 11 14  1  0  0  0  0
 11 15  1  0  0  0  0
 11 16  1  0  0  0  0
 17 18  1  0  0  0  0
 17 28  1  0  0  0  0
 18 19  1  0  0  0  0
 18 21  1  0  0  0  0
 18 29  1  0  0  0  0
 19 20  2  0  0  0  0
 19 37  1  0  0  0  0
 21 22  1  0  0  0  0
 21 30  1  0  0  0  0
 21 31  1  0  0  0  0
 22 23  1  0  0  0  0
 22 24  2  0  0  0  0
 23 25  2  0  0  0  0
 23 32  1  0  0  0  0
 24 26  1  0  0  0  0
 24 33  1  0  0  0  0
 25 27  1  0  0  0  0
 25 34  1  0  0  0  0
 26 27  2  0  0  0  0
 26 35  1  0  0  0  0
 27 36  1  0  0  0  0
 37 38  1  0  0  0  0
 37 42  1  0  0  0  0
 38 39  1  0  0  0  0
 38 41  1  0  0  0  0
 38 43  1  0  0  0  0
 39 40  2  0  0  0  0
 39 47  1  0  0  0  0
 41 44  1  0  0  0  0
 41 45  1  0  0  0  0
 41 46  1  0  0  0  0
 47 48  1  0  0  0  0
 47 49  1  0  0  0  0
 48 50  1  0  0  0  0
 48 51  1  0  0  0  0
 48 52  1  0  0  0  0
M  END
$$$$

  -OEChem-05262217163D

 52 52  0     1  0  0  0  0  0999 V2000
   -2.8924   -0.0434    4.2665 C   0  0  0  0  0  0  0  0  0  0  0  0
   -3.8136   -0.5225    3.6247 O   0  0  0  0  0  0  0  0  0  0  0  0
   -2.6817   -0.4452    5.7141 C   0  0  0  0  0  0  0  0  0  0  0  0
   -3.3982   -1.2209    5.9983 H   0  0  0  0  0  0  0  0  0  0  0  0
   -1.6698   -0.8347    5.8505 H   0  0  0  0  0  0  0  0  0  0  0  0
   -2.8225    0.4205    6.3657 H   0  0  0  0  0  0  0  0  0  0  0  0
   -2.0296    0.8550    3.6755 N   0  0  0  0  0  0  0  0  0  0  0  0
   -1.9872    1.1297    2.2326 C   0  0  2  0  0  0  0  0  0  0  0  0
   -0.5410    1.0926    1.6984 C   0  0  0  0  0  0  0  0  0  0  0  0
    0.3928    1.2188    2.4816 O   0  0  0  0  0  0  0  0  0  0  0  0
   -2.6204    2.5027    1.9929 C   0  0  0  0  0  0  0  0  0  0  0  0
   -1.1940    1.0994    4.2057 H   0  0  0  0  0  0  0  0  0  0  0  0
   -2.5562    0.3718    1.6833 H   0  0  0  0  0  0  0  0  0  0  0  0
   -2.0574    3.2812    2.5178 H   0  0  0  0  0  0  0  0  0  0  0  0
   -2.6323    2.7406    0.9250 H   0  0  0  0  0  0  0  0  0  0  0  0
   -3.6521    2.5107    2.3595 H   0  0  0  0  0  0  0  0  0  0  0  0
   -0.3004    1.0405    0.3351 N   0  0  0  0  0  0  0  0  0  0  0  0
    0.9634    0.6338   -0.3197 C   0  0  2  0  0  0  0  0  0  0  0  0
    1.9884   -0.1111    0.5732 C   0  0  0  0  0  0  0  0  0  0  0  0
    1.8082   -1.3014    0.8028 O   0  0  0  0  0  0  0  0  0  0  0  0
    1.5855    1.8904   -0.9574 C   0  0  0  0  0  0  0  0  0  0  0  0
    0.7328    2.3959   -2.0971 C   0  0  0  0  0  0  0  0  0  0  0  0
    0.8181    1.8044   -3.3665 C   0  0  0  0  0  0  0  0  0  0  0  0
   -0.1572    3.4628   -1.8998 C   0  0  0  0  0  0  0  0  0  0  0  0
    0.0246    2.2702   -4.4206 C   0  0  0  0  0  0  0  0  0  0  0  0
   -0.9506    3.9296   -2.9532 C   0  0  0  0  0  0  0  0  0  0  0  0
   -0.8604    3.3326   -4.2141 C   0  0  0  0  0  0  0  0  0  0  0  0
   -1.1343    0.9987   -0.2455 H   0  0  0  0  0  0  0  0  0  0  0  0
    0.7206   -0.0745   -1.1183 H   0  0  0  0  0  0  0  0  0  0  0  0
    2.5817    1.6551   -1.3475 H   0  0  0  0  0  0  0  0  0  0  0  0
    1.7062    2.6712   -0.1989 H   0  0  0  0  0  0  0  0  0  0  0  0
    1.5022    0.9787   -3.5406 H   0  0  0  0  0  0  0  0  0  0  0  0
   -0.2333    3.9349   -0.9246 H   0  0  0  0  0  0  0  0  0  0  0  0
    0.0972    1.8081   -5.4010 H   0  0  0  0  0  0  0  0  0  0  0  0
   -1.6344    4.7584   -2.7936 H   0  0  0  0  0  0  0  0  0  0  0  0
   -1.4748    3.6953   -5.0333 H   0  0  0  0  0  0  0  0  0  0  0  0
    3.1360    0.4931    1.0586 N   0  0  0  0  0  0  0  0  0  0  0  0
    4.0944   -0.1825    1.9483 C   0  0  2  0  0  0  0  0  0  0  0  0
    3.5755   -0.3061    3.4033 C   0  0  0  0  0  0  0  0  0  0  0  0
    4.1531    0.2330    4.3411 O   0  0  0  0  0  0  0  0  0  0  0  0
    5.4187    0.5850    1.8506 C   0  0  0  0  0  0  0  0  0  0  0  0
    3.1155    1.5087    1.0827 H   0  0  0  0  0  0  0  0  0  0  0  0
    4.2736   -1.2005    1.5868 H   0  0  0  0  0  0  0  0  0  0  0  0
    5.2955    1.6123    2.2084 H   0  0  0  0  0  0  0  0  0  0  0  0
    6.1861    0.0966    2.4595 H   0  0  0  0  0  0  0  0  0  0  0  0
    5.7677    0.6134    0.8140 H   0  0  0  0  0  0  0  0  0  0  0  0
    2.4420   -1.0548    3.6495 N   0  0  0  0  0  0  0  0  0  0  0  0
    1.7667   -1.0899    4.9380 C   0  0  0  0  0  0  0  0  0  0  0  0
    1.9327   -1.3590    2.8161 H   0  0  0  0  0  0  0  0  0  0  0  0
    2.4549   -1.4161    5.7248 H   0  0  0  0  0  0  0  0  0  0  0  0
    1.3823   -0.0971    5.1936 H   0  0  0  0  0  0  0  0  0  0  0  0
    0.9276   -1.7909    4.9027 H   0  0  0  0  0  0  0  0  0  0  0  0
  1  2  2  0  0  0  0
  1  3  1  0  0  0  0
  1  7  1  0  0  0  0
  3  4  1  0  0  0  0
  3  5  1  0  0  0  0
  3  6  1  0  0  0  0
  7  8  1  0  0  0  0
  7 12  1  0  0  0  0
  8  9  1  0  0  0  0
  8 11  1  0  0  0  0
  8 13  1  0  0  0  0
  9 10  2  0  0  0  0
  9 17  1  0  0  0  0
 11 14  1  0  0  0  0
 11 15  1  0  0  0  0
 11 16  1  0  0  0  0
 17 18  1  0  0  0  0
 17 28  1  0  0  0  0
 18 19  1  0  0  0  0
 18 21  1  0  0  0  0
 18 29  1  0  0  0  0
 19 20  2  0  0  0  0
 19 37  1  0  0  0  0
 21 22  1  0  0  0  0
 21 30  1  0  0  0  0
 21 31  1  0  0  0  0
 22 23  1  0  0  0  0
 22 24  2  0  0  0  0
 23 25  2  0  0  0  0
 23 32  1  0  0  0  0
 24 26  1  0  0  0  0
 24 33  1  0  0  0  0
 25 27  1  0  0  0  0
 25 34  1  0  0  0  0
 26 27  2  0  0  0  0
 26 35  1  0  0  0  0
 27 36  1  0  0  0  0
 37 38  1  0  0  0  0
 37 42  1  0  0  0  0
 38 39  1  0  0  0  0
 38 41  1  0  0  0  0
 38 43  1  0  0  0  0
 39 40  2  0  0  0  0
 39 47  1  0  0  0  0
 41 44  1  0  0  0  0
 41 45  1  0  0  0  0
 41 46  1  0  0  0  0
 47 48  1  0  0  0  0
 47 49  1  0  0  0  0
 48 50  1  0  0  0  0
 48 51  1  0  0  0  0
 48 52  1  0  0  0  0
M  END
$$$$

  -OEChem-05262217163D

 52 52  0     1  0  0  0  0  0999 V2000
   -2.5742   -0.1732    4.2317 C   0  0  0  0  0  0  0  0  0  0  0  0
   -3.0730   -1.0559    3.5522 O   0  0  0  0  0  0  0  0  0  0  0  0
   -2.3952   -0.3751    5.7248 C   0  0  0  0  0  0  0  0  0  0  0  0
   -2.6898   -1.3899    6.0063 H   0  0  0  0  0  0  0  0  0  0  0  0
   -1.3495   -0.2232    6.0020 H   0  0  0  0  0  0  0  0  0  0  0  0
   -3.0164    0.3372    6.2732 H   0  0  0  0  0  0  0  0  0  0  0  0
   -2.1689    1.0108    3.6507 N   0  0  0  0  0  0  0  0  0  0  0  0
   -2.0734    1.2071    2.1958 C   0  0  2  0  0  0  0  0  0  0  0  0
   -0.6128    1.1524    1.7016 C   0  0  0  0  0  0  0  0  0  0  0  0
    0.3018    1.3608    2.4893 O   0  0  0  0  0  0  0  0  0  0  0  0
   -2.7008    2.5649    1.8699 C   0  0  0  0  0  0  0  0  0  0  0  0
   -1.5562    1.5860    4.2250 H   0  0  0  0  0  0  0  0  0  0  0  0
   -2.6339    0.4314    1.6635 H   0  0  0  0  0  0  0  0  0  0  0  0
   -2.1501    3.3715    2.3647 H   0  0  0  0  0  0  0  0  0  0  0  0
   -2.6874    2.7455    0.7905 H   0  0  0  0  0  0  0  0  0  0  0  0
   -3.7408    2.5919    2.2108 H   0  0  0  0  0  0  0  0  0  0  0  0
   -0.3395    1.0642    0.3467 N   0  0  0  0  0  0  0  0  0  0  0  0
    0.9435    0.6623   -0.2726 C   0  0  2  0  0  0  0  0  0  0  0  0
    1.9711   -0.0393    0.6492 C   0  0  0  0  0  0  0  0  0  0  0  0
    1.9860   -1.2642    0.6792 O   0  0  0  0  0  0  0  0  0  0  0  0
    1.5631    1.9150   -0.9183 C   0  0  0  0  0  0  0  0  0  0  0  0
    0.7259    2.3850   -2.0843 C   0  0  0  0  0  0  0  0  0  0  0  0
    0.8450    1.7716   -3.3404 C   0  0  0  0  0  0  0  0  0  0  0  0
   -0.1954    3.4306   -1.9196 C   0  0  0  0  0  0  0  0  0  0  0  0
    0.0552    2.1969   -4.4141 C   0  0  0  0  0  0  0  0  0  0  0  0
   -0.9863    3.8560   -2.9919 C   0  0  0  0  0  0  0  0  0  0  0  0
   -0.8611    3.2388   -4.2400 C   0  0  0  0  0  0  0  0  0  0  0  0
   -1.1596    0.9833   -0.2490 H   0  0  0  0  0  0  0  0  0  0  0  0
    0.7262   -0.0637   -1.0630 H   0  0  0  0  0  0  0  0  0  0  0  0
    2.5716    1.6846   -1.2791 H   0  0  0  0  0  0  0  0  0  0  0  0
    1.6574    2.7130   -0.1742 H   0  0  0  0  0  0  0  0  0  0  0  0
    1.5526    0.9606   -3.4879 H   0  0  0  0  0  0  0  0  0  0  0  0
   -0.2997    3.9149   -0.9530 H   0  0  0  0  0  0  0  0  0  0  0  0
    0.1551    1.7187   -5.3844 H   0  0  0  0  0  0  0  0  0  0  0  0
   -1.6959    4.6669   -2.8559 H   0  0  0  0  0  0  0  0  0  0  0  0
   -1.4728    3.5699   -5.0744 H   0  0  0  0  0  0  0  0  0  0  0  0
    2.9212    0.6614    1.3719 N   0  0  0  0  0  0  0  0  0  0  0  0
    3.8491    0.0111    2.3116 C   0  0  2  0  0  0  0  0  0  0  0  0
    3.1583   -0.4283    3.6282 C   0  0  0  0  0  0  0  0  0  0  0  0
    3.5036    0.0136    4.7188 O   0  0  0  0  0  0  0  0  0  0  0  0
    5.0102    0.9849    2.5452 C   0  0  0  0  0  0  0  0  0  0  0  0
    2.6432    1.6152    1.5945 H   0  0  0  0  0  0  0  0  0  0  0  0
    4.2606   -0.8930    1.8510 H   0  0  0  0  0  0  0  0  0  0  0  0
    4.6515    1.9055    3.0166 H   0  0  0  0  0  0  0  0  0  0  0  0
    5.7602    0.5303    3.2002 H   0  0  0  0  0  0  0  0  0  0  0  0
    5.4901    1.2404    1.5958 H   0  0  0  0  0  0  0  0  0  0  0  0
    2.1427   -1.3624    3.5748 N   0  0  0  0  0  0  0  0  0  0  0  0
    1.3419   -1.7584    4.7229 C   0  0  0  0  0  0  0  0  0  0  0  0
    1.8414   -1.6376    2.6367 H   0  0  0  0  0  0  0  0  0  0  0  0
    1.9684   -2.2481    5.4755 H   0  0  0  0  0  0  0  0  0  0  0  0
    0.8658   -0.8823    5.1739 H   0  0  0  0  0  0  0  0  0  0  0  0
    0.5596   -2.4582    4.4135 H   0  0  0  0  0  0  0  0  0  0  0  0
  1  2  2  0  0  0  0
  1  3  1  0  0  0  0
  1  7  1  0  0  0  0
  3  4  1  0  0  0  0
  3  5  1  0  0  0  0
  3  6  1  0  0  0  0
  7  8  1  0  0  0  0
  7 12  1  0  0  0  0
  8  9  1  0  0  0  0
  8 11  1  0  0  0  0
  8 13  1  0  0  0  0
  9 10  2  0  0  0  0
  9 17  1  0  0  0  0
 11 14  1  0  0  0  0
 11 15  1  0  0  0  0
 11 16  1  0  0  0  0
 17 18  1  0  0  0  0
 17 28  1  0  0  0  0
 18 19  1  0  0  0  0
 18 21  1  0  0  0  0
 18 29  1  0  0  0  0
 19 20  2  0  0  0  0
 19 37  1  0  0  0  0
 21 22  1  0  0  0  0
 21 30  1  0  0  0  0
 21 31  1  0  0  0  0
 22 23  1  0  0  0  0
 22 24  2  0  0  0  0
 23 25  2  0  0  0  0
 23 32  1  0  0  0  0
 24 26  1  0  0  0  0
 24 33  1  0  0  0  0
 25 27  1  0  0  0  0
 25 34  1  0  0  0  0
 26 27  2  0  0  0  0
 26 35  1  0  0  0  0
 27 36  1  0  0  0  0
 37 38  1  0  0  0  0
 37 42  1  0  0  0  0
 38 39  1  0  0  0  0
 38 41  1  0  0  0  0
 38 43  1  0  0  0  0
 39 40  2  0  0  0  0
 39 47  1  0  0  0  0
 41 44  1  0  0  0  0
 41 45  1  0  0  0  0
 41 46  1  0  0  0  0
 47 48  1  0  0  0  0
 47 49  1  0  0  0  0
 48 50  1  0  0  0  0
 48 51  1  0  0  0  0
 48 52  1  0  0  0  0
M  END
$$$$

  -OEChem-05262217163D

 52 52  0     1  0  0  0  0  0999 V2000
   -2.1370   -0.0213    4.6161 C   0  0  0  0  0  0  0  0  0  0  0  0
   -3.1181   -0.6155    4.1948 O   0  0  0  0  0  0  0  0  0  0  0  0
   -1.6837   -0.2217    6.0500 C   0  0  0  0  0  0  0  0  0  0  0  0
   -2.1824   -1.0915    6.4855 H   0  0  0  0  0  0  0  0  0  0  0  0
   -0.6036   -0.3810    6.0863 H   0  0  0  0  0  0  0  0  0  0  0  0
   -1.9295    0.6627    6.6423 H   0  0  0  0  0  0  0  0  0  0  0  0
   -1.4412    0.8279    3.7842 N   0  0  0  0  0  0  0  0  0  0  0  0
   -1.7572    1.0510    2.3653 C   0  0  2  0  0  0  0  0  0  0  0  0
   -0.5072    1.5191    1.5990 C   0  0  0  0  0  0  0  0  0  0  0  0
    0.3622    2.1599    2.1789 O   0  0  0  0  0  0  0  0  0  0  0  0
   -2.8694    2.0986    2.2573 C   0  0  0  0  0  0  0  0  0  0  0  0
   -0.5286    1.1507    4.1206 H   0  0  0  0  0  0  0  0  0  0  0  0
   -2.0954    0.1123    1.9140 H   0  0  0  0  0  0  0  0  0  0  0  0
   -2.5495    3.0430    2.7095 H   0  0  0  0  0  0  0  0  0  0  0  0
   -3.1238    2.2821    1.2092 H   0  0  0  0  0  0  0  0  0  0  0  0
   -3.7698    1.7528    2.7749 H   0  0  0  0  0  0  0  0  0  0  0  0
   -0.3430    1.3304    0.2373 N   0  0  0  0  0  0  0  0  0  0  0  0
    0.9110    0.7950   -0.3488 C   0  0  2  0  0  0  0  0  0  0  0  0
    1.8838    0.1120    0.6451 C   0  0  0  0  0  0  0  0  0  0  0  0
    1.9815   -1.1096    0.6112 O   0  0  0  0  0  0  0  0  0  0  0  0
    1.6321    1.9394   -1.0812 C   0  0  0  0  0  0  0  0  0  0  0  0
    0.8417    2.3891   -2.2870 C   0  0  0  0  0  0  0  0  0  0  0  0
    0.9138    1.6763   -3.4934 C   0  0  0  0  0  0  0  0  0  0  0  0
    0.0089    3.5153   -2.2082 C   0  0  0  0  0  0  0  0  0  0  0  0
    0.1670    2.0853   -4.6037 C   0  0  0  0  0  0  0  0  0  0  0  0
   -0.7375    3.9256   -3.3178 C   0  0  0  0  0  0  0  0  0  0  0  0
   -0.6590    3.2100   -4.5162 C   0  0  0  0  0  0  0  0  0  0  0  0
   -1.1870    1.0032   -0.2258 H   0  0  0  0  0  0  0  0  0  0  0  0
    0.6468    0.0267   -1.0832 H   0  0  0  0  0  0  0  0  0  0  0  0
    2.6200    1.6001   -1.4113 H   0  0  0  0  0  0  0  0  0  0  0  0
    1.7884    2.7808   -0.3973 H   0  0  0  0  0  0  0  0  0  0  0  0
    1.5528    0.8016   -3.5732 H   0  0  0  0  0  0  0  0  0  0  0  0
   -0.0619    4.0733   -1.2786 H   0  0  0  0  0  0  0  0  0  0  0  0
    0.2297    1.5297   -5.5348 H   0  0  0  0  0  0  0  0  0  0  0  0
   -1.3768    4.8008   -3.2482 H   0  0  0  0  0  0  0  0  0  0  0  0
   -1.2376    3.5283   -5.3785 H   0  0  0  0  0  0  0  0  0  0  0  0
    2.6661    0.8202    1.5385 N   0  0  0  0  0  0  0  0  0  0  0  0
    3.2216    0.1646    2.7326 C   0  0  2  0  0  0  0  0  0  0  0  0
    2.1246   -0.4645    3.6362 C   0  0  0  0  0  0  0  0  0  0  0  0
    1.5783    0.1619    4.5401 O   0  0  0  0  0  0  0  0  0  0  0  0
    4.0422    1.2146    3.4881 C   0  0  0  0  0  0  0  0  0  0  0  0
    2.2985    1.7620    1.6981 H   0  0  0  0  0  0  0  0  0  0  0  0
    3.8990   -0.6383    2.4240 H   0  0  0  0  0  0  0  0  0  0  0  0
    3.4099    2.0580    3.7856 H   0  0  0  0  0  0  0  0  0  0  0  0
    4.4818    0.7764    4.3895 H   0  0  0  0  0  0  0  0  0  0  0  0
    4.8514    1.5910    2.8552 H   0  0  0  0  0  0  0  0  0  0  0  0
    1.7223   -1.7619    3.3829 N   0  0  0  0  0  0  0  0  0  0  0  0
    0.6127   -2.4163    4.0626 C   0  0  0  0  0  0  0  0  0  0  0  0
    1.9836   -2.1070    2.4564 H   0  0  0  0  0  0  0  0  0  0  0  0
    0.6868   -2.2836    5.1470 H   0  0  0  0  0  0  0  0  0  0  0  0
   -0.3407   -2.0064    3.7172 H   0  0  0  0  0  0  0  0  0  0  0  0
    0.6253   -3.4897    3.8508 H   0  0  0  0  0  0  0  0  0  0  0  0
  1  2  2  0  0  0  0
  1  3  1  0  0  0  0
  1  7  1  0  0  0  0
  3  4  1  0  0  0  0
  3  5  1  0  0  0  0
  3  6  1  0  0  0  0
  7  8  1  0  0  0  0
  7 12  1  0  0  0  0
  8  9  1  0  0  0  0
  8 11  1  0  0  0  0
  8 13  1  0  0  0  0
  9 10  2  0  0  0  0
  9 17  1  0  0  0  0
 11 14  1  0  0  0  0
 11 15  1  0  0  0  0
 11 16  1  0  0  0  0
 17 18  1  0  0  0  0
 17 28  1  0  0  0  0
 18 19  1  0  0  0  0
 18 21  1  0  0  0  0
 18 29  1  0  0  0  0
 19 20  2  0  0  0  0
 19 37  1  0  0  0  0
 21 22  1  0  0  0  0
 21 30  1  0  0  0  0
 21 31  1  0  0  0  0
 22 23  1  0  0  0  0
 22 24  2  0  0  0  0
 23 25  2  0  0  0  0
 23 32  1  0  0  0  0
 24 26  1  0  0  0  0
 24 33  1  0  0  0  0
 25 27  1  0  0  0  0
 25 34  1  0  0  0  0
 26 27  2  0  0  0  0
 26 35  1  0  0  0  0
 27 36  1  0  0  0  0
 37 38  1  0  0  0  0
 37 42  1  0  0  0  0
 38 39  1  0  0  0  0
 38 41  1  0  0  0  0
 38 43  1  0  0  0  0
 39 40  2  0  0  0  0
 39 47  1  0  0  0  0
 41 44  1  0  0  0  0
 41 45  1  0  0  0  0
 41 46  1  0  0  0  0
 47 48  1  0  0  0  0
 47 49  1  0  0  0  0
 48 50  1  0  0  0  0
 48 51  1  0  0  0  0
 48 52  1  0  0  0  0
M  END
$$$$

  -OEChem-05262217163D

 52 52  0     1  0  0  0  0  0999 V2000
   -2.3575   -0.1548    4.4689 C   0  0  0  0  0  0  0  0  0  0  0  0
   -3.3641   -0.6238    3.9590 O   0  0  0  0  0  0  0  0  0  0  0  0
   -1.9842   -0.5235    5.8924 C   0  0  0  0  0  0  0  0  0  0  0  0
   -2.6381   -1.3182    6.2613 H   0  0  0  0  0  0  0  0  0  0  0  0
   -0.9499   -0.8712    5.9342 H   0  0  0  0  0  0  0  0  0  0  0  0
   -2.0884    0.3500    6.5398 H   0  0  0  0  0  0  0  0  0  0  0  0
   -1.5650    0.7106    3.7470 N   0  0  0  0  0  0  0  0  0  0  0  0
   -1.8218    1.1079    2.3545 C   0  0  2  0  0  0  0  0  0  0  0  0
   -0.5213    1.5417    1.6541 C   0  0  0  0  0  0  0  0  0  0  0  0
    0.3039    2.2127    2.2611 O   0  0  0  0  0  0  0  0  0  0  0  0
   -2.8390    2.2536    2.3410 C   0  0  0  0  0  0  0  0  0  0  0  0
   -0.6469    0.9297    4.1480 H   0  0  0  0  0  0  0  0  0  0  0  0
   -2.2312    0.2556    1.8024 H   0  0  0  0  0  0  0  0  0  0  0  0
   -2.4532    3.1129    2.8991 H   0  0  0  0  0  0  0  0  0  0  0  0
   -3.0480    2.5697    1.3145 H   0  0  0  0  0  0  0  0  0  0  0  0
   -3.7792    1.9338    2.8010 H   0  0  0  0  0  0  0  0  0  0  0  0
   -0.2950    1.2976    0.3103 N   0  0  0  0  0  0  0  0  0  0  0  0
    0.9798    0.7873   -0.2574 C   0  0  2  0  0  0  0  0  0  0  0  0
    2.0124    0.1635    0.7164 C   0  0  0  0  0  0  0  0  0  0  0  0
    2.2779   -1.0270    0.5919 O   0  0  0  0  0  0  0  0  0  0  0  0
    1.6570    1.9417   -1.0147 C   0  0  0  0  0  0  0  0  0  0  0  0
    0.8529    2.3329   -2.2316 C   0  0  0  0  0  0  0  0  0  0  0  0
    0.9561    1.5955   -3.4206 C   0  0  0  0  0  0  0  0  0  0  0  0
   -0.0192    3.4306   -2.1823 C   0  0  0  0  0  0  0  0  0  0  0  0
    0.1965    1.9481   -4.5416 C   0  0  0  0  0  0  0  0  0  0  0  0
   -0.7788    3.7847   -3.3023 C   0  0  0  0  0  0  0  0  0  0  0  0
   -0.6720    3.0424   -4.4824 C   0  0  0  0  0  0  0  0  0  0  0  0
   -1.1220    0.9596   -0.1753 H   0  0  0  0  0  0  0  0  0  0  0  0
    0.7362   -0.0033   -0.9754 H   0  0  0  0  0  0  0  0  0  0  0  0
    2.6587    1.6361   -1.3361 H   0  0  0  0  0  0  0  0  0  0  0  0
    1.7787    2.8021   -0.3479 H   0  0  0  0  0  0  0  0  0  0  0  0
    1.6280    0.7438   -3.4781 H   0  0  0  0  0  0  0  0  0  0  0  0
   -0.1101    4.0100   -1.2678 H   0  0  0  0  0  0  0  0  0  0  0  0
    0.2822    1.3724   -5.4587 H   0  0  0  0  0  0  0  0  0  0  0  0
   -1.4509    4.6366   -3.2549 H   0  0  0  0  0  0  0  0  0  0  0  0
   -1.2614    3.3170   -5.3524 H   0  0  0  0  0  0  0  0  0  0  0  0
    2.5789    0.8573    1.7688 N   0  0  0  0  0  0  0  0  0  0  0  0
    3.0605    0.1588    2.9686 C   0  0  2  0  0  0  0  0  0  0  0  0
    1.9105   -0.5893    3.6935 C   0  0  0  0  0  0  0  0  0  0  0  0
    1.2441   -0.0632    4.5808 O   0  0  0  0  0  0  0  0  0  0  0  0
    3.7258    1.2011    3.8734 C   0  0  0  0  0  0  0  0  0  0  0  0
    2.1060    1.7486    1.9481 H   0  0  0  0  0  0  0  0  0  0  0  0
    3.8186   -0.5797    2.6867 H   0  0  0  0  0  0  0  0  0  0  0  0
    3.0087    1.9774    4.1605 H   0  0  0  0  0  0  0  0  0  0  0  0
    4.1056    0.7259    4.7832 H   0  0  0  0  0  0  0  0  0  0  0  0
    4.5636    1.6760    3.3539 H   0  0  0  0  0  0  0  0  0  0  0  0
    1.5666   -1.8549    3.2595 N   0  0  0  0  0  0  0  0  0  0  0  0
    0.3943   -2.5827    3.7256 C   0  0  0  0  0  0  0  0  0  0  0  0
    1.9667   -2.1166    2.3551 H   0  0  0  0  0  0  0  0  0  0  0  0
    0.3774   -2.6288    4.8193 H   0  0  0  0  0  0  0  0  0  0  0  0
   -0.5215   -2.0978    3.3743 H   0  0  0  0  0  0  0  0  0  0  0  0
    0.4123   -3.6075    3.3424 H   0  0  0  0  0  0  0  0  0  0  0  0
  1  2  2  0  0  0  0
  1  3  1  0  0  0  0
  1  7  1  0  0  0  0
  3  4  1  0  0  0  0
  3  5  1  0  0  0  0
  3  6  1  0  0  0  0
  7  8  1  0  0  0  0
  7 12  1  0  0  0  0
  8  9  1  0  0  0  0
  8 11  1  0  0  0  0
  8 13  1  0  0  0  0
  9 10  2  0  0  0  0
  9 17  1  0  0  0  0
 11 14  1  0  0  0  0
 11 15  1  0  0  0  0
 11 16  1  0  0  0  0
 17 18  1  0  0  0  0
 17 28  1  0  0  0  0
 18 19  1  0  0  0  0
 18 21  1  0  0  0  0
 18 29  1  0  0  0  0
 19 20  2  0  0  0  0
 19 37  1  0  0  0  0
 21 22  1  0  0  0  0
 21 30  1  0  0  0  0
 21 31  1  0  0  0  0
 22 23  1  0  0  0  0
 22 24  2  0  0  0  0
 23 25  2  0  0  0  0
 23 32  1  0  0  0  0
 24 26  1  0  0  0  0
 24 33  1  0  0  0  0
 25 27  1  0  0  0  0
 25 34  1  0  0  0  0
 26 27  2  0  0  0  0
 26 35  1  0  0  0  0
 27 36  1  0  0  0  0
 37 38  1  0  0  0  0
 37 42  1  0  0  0  0
 38 39  1  0  0  0  0
 38 41  1  0  0  0  0
 38 43  1  0  0  0  0
 39 40  2  0  0  0  0
 39 47  1  0  0  0  0
 41 44  1  0  0  0  0
 41 45  1  0  0  0  0
 41 46  1  0  0  0  0
 47 48  1  0  0  0  0
 47 49  1  0  0  0  0
 48 50  1  0  0  0  0
 48 51  1  0  0  0  0
 48 52  1  0  0  0  0
M  END
$$$$

  -OEChem-05262217163D

 52 52  0     1  0  0  0  0  0999 V2000
   -2.2287   -0.3283    3.8339 C   0  0  0  0  0  0  0  0  0  0  0  0
   -2.3526   -1.1003    2.8944 O   0  0  0  0  0  0  0  0  0  0  0  0
   -2.0242   -0.8540    5.2420 C   0  0  0  0  0  0  0  0  0  0  0  0
   -2.0397   -1.9471    5.2444 H   0  0  0  0  0  0  0  0  0  0  0  0
   -1.0599   -0.5164    5.6304 H   0  0  0  0  0  0  0  0  0  0  0  0
   -2.8192   -0.4892    5.8964 H   0  0  0  0  0  0  0  0  0  0  0  0
   -2.2758    1.0324    3.6085 N   0  0  0  0  0  0  0  0  0  0  0  0
   -2.2390    1.6037    2.2558 C   0  0  2  0  0  0  0  0  0  0  0  0
   -0.7884    1.7158    1.7461 C   0  0  0  0  0  0  0  0  0  0  0  0
    0.0511    2.2564    2.4543 O   0  0  0  0  0  0  0  0  0  0  0  0
   -2.9157    2.9761    2.2968 C   0  0  0  0  0  0  0  0  0  0  0  0
   -1.9355    1.6133    4.3708 H   0  0  0  0  0  0  0  0  0  0  0  0
   -2.8024    0.9673    1.5649 H   0  0  0  0  0  0  0  0  0  0  0  0
   -2.3820    3.6488    2.9760 H   0  0  0  0  0  0  0  0  0  0  0  0
   -2.9248    3.4261    1.2992 H   0  0  0  0  0  0  0  0  0  0  0  0
   -3.9497    2.8789    2.6424 H   0  0  0  0  0  0  0  0  0  0  0  0
   -0.4659    1.3614    0.4482 N   0  0  0  0  0  0  0  0  0  0  0  0
    0.8008    0.7633   -0.0484 C   0  0  2  0  0  0  0  0  0  0  0  0
    1.8263    0.1336    0.9333 C   0  0  0  0  0  0  0  0  0  0  0  0
    2.2879   -0.9659    0.6484 O   0  0  0  0  0  0  0  0  0  0  0  0
    1.5344    1.8516   -0.8511 C   0  0  0  0  0  0  0  0  0  0  0  0
    0.7761    2.2020   -2.1097 C   0  0  0  0  0  0  0  0  0  0  0  0
    0.8861    1.3957   -3.2523 C   0  0  0  0  0  0  0  0  0  0  0  0
   -0.0516    3.3341   -2.1499 C   0  0  0  0  0  0  0  0  0  0  0  0
    0.1791    1.7156   -4.4164 C   0  0  0  0  0  0  0  0  0  0  0  0
   -0.7599    3.6547   -3.3130 C   0  0  0  0  0  0  0  0  0  0  0  0
   -0.6446    2.8451   -4.4471 C   0  0  0  0  0  0  0  0  0  0  0  0
   -1.2804    1.0911   -0.0971 H   0  0  0  0  0  0  0  0  0  0  0  0
    0.5282   -0.0491   -0.7308 H   0  0  0  0  0  0  0  0  0  0  0  0
    2.5317    1.4953   -1.1325 H   0  0  0  0  0  0  0  0  0  0  0  0
    1.6735    2.7417   -0.2281 H   0  0  0  0  0  0  0  0  0  0  0  0
    1.5242    0.5166   -3.2385 H   0  0  0  0  0  0  0  0  0  0  0  0
   -0.1457    3.9687   -1.2734 H   0  0  0  0  0  0  0  0  0  0  0  0
    0.2722    1.0871   -5.2972 H   0  0  0  0  0  0  0  0  0  0  0  0
   -1.3968    4.5342   -3.3361 H   0  0  0  0  0  0  0  0  0  0  0  0
   -1.1909    3.0949   -5.3520 H   0  0  0  0  0  0  0  0  0  0  0  0
    2.2311    0.7073    2.1222 N   0  0  0  0  0  0  0  0  0  0  0  0
    2.9307   -0.0246    3.1868 C   0  0  2  0  0  0  0  0  0  0  0  0
    2.0075   -1.0577    3.8806 C   0  0  0  0  0  0  0  0  0  0  0  0
    1.5568   -0.8742    5.0067 O   0  0  0  0  0  0  0  0  0  0  0  0
    3.4882    1.0171    4.1638 C   0  0  0  0  0  0  0  0  0  0  0  0
    1.6855    1.5257    2.4047 H   0  0  0  0  0  0  0  0  0  0  0  0
    3.7778   -0.5730    2.7614 H   0  0  0  0  0  0  0  0  0  0  0  0
    2.6764    1.6064    4.6029 H   0  0  0  0  0  0  0  0  0  0  0  0
    4.0356    0.5231    4.9727 H   0  0  0  0  0  0  0  0  0  0  0  0
    4.1724    1.6964    3.6467 H   0  0  0  0  0  0  0  0  0  0  0  0
    1.6631   -2.2053    3.1940 N   0  0  0  0  0  0  0  0  0  0  0  0
    0.6879   -3.1774    3.6687 C   0  0  0  0  0  0  0  0  0  0  0  0
    1.9187   -2.2117    2.2031 H   0  0  0  0  0  0  0  0  0  0  0  0
    0.8796   -3.4424    4.7137 H   0  0  0  0  0  0  0  0  0  0  0  0
   -0.3248   -2.7736    3.5865 H   0  0  0  0  0  0  0  0  0  0  0  0
    0.7467   -4.0906    3.0690 H   0  0  0  0  0  0  0  0  0  0  0  0
  1  2  2  0  0  0  0
  1  3  1  0  0  0  0
  1  7  1  0  0  0  0
  3  4  1  0  0  0  0
  3  5  1  0  0  0  0
  3  6  1  0  0  0  0
  7  8  1  0  0  0  0
  7 12  1  0  0  0  0
  8  9  1  0  0  0  0
  8 11  1  0  0  0  0
  8 13  1  0  0  0  0
  9 10  2  0  0  0  0
  9 17  1  0  0  0  0
 11 14  1  0  0  0  0
 11 15  1  0  0  0  0
 11 16  1  0  0  0  0
 17 18  1  0  0  0  0
 17 28  1  0  0  0  0
 18 19  1  0  0  0  0
 18 21  1  0  0  0  0
 18 29  1  0  0  0  0
 19 20  2  0  0  0  0
 19 37  1  0  0  0  0
 21 22  1  0  0  0  0
 21 30  1  0  0  0  0
 21 31  1  0  0  0  0
 22 23  1  0  0  0  0
 22 24  2  0  0  0  0
 23 25  2  0  0  0  0
 23 32  1  0  0  0  0
 24 26  1  0  0  0  0
 24 33  1  0  0  0  0
 25 27  1  0  0  0  0
 25 34  1  0  0  0  0
 26 27  2  0  0  0  0
 26 35  1  0  0  0  0
 27 36  1  0  0  0  0
 37 38  1  0  0  0  0
 37 42  1  0  0  0  0
 38 39  1  0  0  0  0
 38 41  1  0  0  0  0
 38 43  1  0  0  0  0
 39 40  2  0  0  0  0
 39 47  1  0  0  0  0
 41 44  1  0  0  0  0
 41 45  1  0  0  0  0
 41 46  1  0  0  0  0
 47 48  1  0  0  0  0
 47 49  1  0  0  0  0
 48 50  1  0  0  0  0
 48 51  1  0  0  0  0
 48 52  1  0  0  0  0
M  END
$$$$

  -OEChem-05262217163D

 52 52  0     1  0  0  0  0  0999 V2000
   -1.2696    0.8049    3.8933 C   0  0  0  0  0  0  0  0  0  0  0  0
   -0.3806    1.4150    3.3163 O   0  0  0  0  0  0  0  0  0  0  0  0
   -1.1364    0.4978    5.3725 C   0  0  0  0  0  0  0  0  0  0  0  0
   -1.1422   -0.5836    5.5306 H   0  0  0  0  0  0  0  0  0  0  0  0
   -0.1955    0.9007    5.7591 H   0  0  0  0  0  0  0  0  0  0  0  0
   -1.9653    0.9461    5.9255 H   0  0  0  0  0  0  0  0  0  0  0  0
   -2.3528    0.3205    3.1806 N   0  0  0  0  0  0  0  0  0  0  0  0
   -2.4408    0.3360    1.7061 C   0  0  2  0  0  0  0  0  0  0  0  0
   -1.1692   -0.2526    1.0433 C   0  0  0  0  0  0  0  0  0  0  0  0
   -0.7015   -1.2805    1.5157 O   0  0  0  0  0  0  0  0  0  0  0  0
   -2.7771    1.7576    1.2388 C   0  0  0  0  0  0  0  0  0  0  0  0
   -2.9681   -0.3096    3.6874 H   0  0  0  0  0  0  0  0  0  0  0  0
   -3.2684   -0.3136    1.4057 H   0  0  0  0  0  0  0  0  0  0  0  0
   -1.9477    2.4416    1.4434 H   0  0  0  0  0  0  0  0  0  0  0  0
   -2.9886    1.7674    0.1655 H   0  0  0  0  0  0  0  0  0  0  0  0
   -3.6640    2.1264    1.7636 H   0  0  0  0  0  0  0  0  0  0  0  0
   -0.6003    0.2500   -0.1147 N   0  0  0  0  0  0  0  0  0  0  0  0
    0.8389    0.5681   -0.3232 C   0  0  2  0  0  0  0  0  0  0  0  0
    1.9555    0.0692    0.6358 C   0  0  0  0  0  0  0  0  0  0  0  0
    3.0731   -0.1166    0.1725 O   0  0  0  0  0  0  0  0  0  0  0  0
    0.9892    2.0997   -0.4161 C   0  0  0  0  0  0  0  0  0  0  0  0
    0.3272    2.6433   -1.6607 C   0  0  0  0  0  0  0  0  0  0  0  0
    0.9975    2.5771   -2.8912 C   0  0  0  0  0  0  0  0  0  0  0  0
   -0.9239    3.2756   -1.6022 C   0  0  0  0  0  0  0  0  0  0  0  0
    0.4094    3.0930   -4.0505 C   0  0  0  0  0  0  0  0  0  0  0  0
   -1.5147    3.7917   -2.7608 C   0  0  0  0  0  0  0  0  0  0  0  0
   -0.8500    3.6957   -3.9868 C   0  0  0  0  0  0  0  0  0  0  0  0
   -1.2077    0.9134   -0.5879 H   0  0  0  0  0  0  0  0  0  0  0  0
    1.1088    0.1330   -1.2914 H   0  0  0  0  0  0  0  0  0  0  0  0
    2.0516    2.3689   -0.4462 H   0  0  0  0  0  0  0  0  0  0  0  0
    0.5674    2.5668    0.4807 H   0  0  0  0  0  0  0  0  0  0  0  0
    1.9799    2.1157   -2.9505 H   0  0  0  0  0  0  0  0  0  0  0  0
   -1.4344    3.3928   -0.6533 H   0  0  0  0  0  0  0  0  0  0  0  0
    0.9348    3.0286   -4.9991 H   0  0  0  0  0  0  0  0  0  0  0  0
   -2.4836    4.2797   -2.7082 H   0  0  0  0  0  0  0  0  0  0  0  0
   -1.3044    4.0997   -4.8869 H   0  0  0  0  0  0  0  0  0  0  0  0
    1.7575   -0.1494    1.9846 N   0  0  0  0  0  0  0  0  0  0  0  0
    2.7689   -0.6037    2.9484 C   0  0  2  0  0  0  0  0  0  0  0  0
    2.1868   -1.6229    3.9547 C   0  0  0  0  0  0  0  0  0  0  0  0
    2.7656   -1.8764    5.0046 O   0  0  0  0  0  0  0  0  0  0  0  0
    3.3281    0.6396    3.6481 C   0  0  0  0  0  0  0  0  0  0  0  0
    0.8481    0.1360    2.3532 H   0  0  0  0  0  0  0  0  0  0  0  0
    3.5838   -1.1138    2.4245 H   0  0  0  0  0  0  0  0  0  0  0  0
    2.5389    1.1523    4.2070 H   0  0  0  0  0  0  0  0  0  0  0  0
    4.1246    0.3602    4.3447 H   0  0  0  0  0  0  0  0  0  0  0  0
    3.7438    1.3338    2.9114 H   0  0  0  0  0  0  0  0  0  0  0  0
    0.9757   -2.2419    3.7017 N   0  0  0  0  0  0  0  0  0  0  0  0
    0.4047   -3.2797    4.5473 C   0  0  0  0  0  0  0  0  0  0  0  0
    0.5353   -2.0390    2.7991 H   0  0  0  0  0  0  0  0  0  0  0  0
    1.0620   -4.1551    4.5724 H   0  0  0  0  0  0  0  0  0  0  0  0
    0.2679   -2.9105    5.5688 H   0  0  0  0  0  0  0  0  0  0  0  0
   -0.5699   -3.5876    4.1568 H   0  0  0  0  0  0  0  0  0  0  0  0
  1  2  2  0  0  0  0
  1  3  1  0  0  0  0
  1  7  1  0  0  0  0
  3  4  1  0  0  0  0
  3  5  1  0  0  0  0
  3  6  1  0  0  0  0
  7  8  1  0  0  0  0
  7 12  1  0  0  0  0
  8  9  1  0  0  0  0
  8 11  1  0  0  0  0
  8 13  1  0  0  0  0
  9 10  2  0  0  0  0
  9 17  1  0  0  0  0
 11 14  1  0  0  0  0
 11 15  1  0  0  0  0
 11 16  1  0  0  0  0
 17 18  1  0  0  0  0
 17 28  1  0  0  0  0
 18 19  1  0  0  0  0
 18 21  1  0  0  0  0
 18 29  1  0  0  0  0
 19 20  2  0  0  0  0
 19 37  1  0  0  0  0
 21 22  1  0  0  0  0
 21 30  1  0  0  0  0
 21 31  1  0  0  0  0
 22 23  1  0  0  0  0
 22 24  2  0  0  0  0
 23 25  2  0  0  0  0
 23 32  1  0  0  0  0
 24 26  1  0  0  0  0
 24 33  1  0  0  0  0
 25 27  1  0  0  0  0
 25 34  1  0  0  0  0
 26 27  2  0  0  0  0
 26 35  1  0  0  0  0
 27 36  1  0  0  0  0
 37 38  1  0  0  0  0
 37 42  1  0  0  0  0
 38 39  1  0  0  0  0
 38 41  1  0  0  0  0
 38 43  1  0  0  0  0
 39 40  2  0  0  0  0
 39 47  1  0  0  0  0
 41 44  1  0  0  0  0
 41 45  1  0  0  0  0
 41 46  1  0  0  0  0
 47 48  1  0  0  0  0
 47 49  1  0  0  0  0
 48 50  1  0  0  0  0
 48 51  1  0  0  0  0
 48 52  1  0  0  0  0
M  END
$$$$

  -OEChem-05262217163D

 52 52  0     1  0  0  0  0  0999 V2000
   -3.3884    0.0357    3.4603 C   0  0  0  0  0  0  0  0  0  0  0  0
   -3.5100   -0.6240    2.4398 O   0  0  0  0  0  0  0  0  0  0  0  0
   -3.6256   -0.5988    4.8174 C   0  0  0  0  0  0  0  0  0  0  0  0
   -3.9134   -1.6471    4.6984 H   0  0  0  0  0  0  0  0  0  0  0  0
   -2.7126   -0.5513    5.4164 H   0  0  0  0  0  0  0  0  0  0  0  0
   -4.4260   -0.0713    5.3419 H   0  0  0  0  0  0  0  0  0  0  0  0
   -2.9920    1.3549    3.3761 N   0  0  0  0  0  0  0  0  0  0  0  0
   -2.4948    1.9407    2.1244 C   0  0  2  0  0  0  0  0  0  0  0  0
   -1.0038    1.6124    1.8984 C   0  0  0  0  0  0  0  0  0  0  0  0
   -0.2148    1.8072    2.8119 O   0  0  0  0  0  0  0  0  0  0  0  0
   -2.7170    3.4542    2.1836 C   0  0  0  0  0  0  0  0  0  0  0  0
   -2.6954    1.7867    4.2473 H   0  0  0  0  0  0  0  0  0  0  0  0
   -3.0690    1.5484    1.2781 H   0  0  0  0  0  0  0  0  0  0  0  0
   -2.1580    3.8943    3.0159 H   0  0  0  0  0  0  0  0  0  0  0  0
   -2.3822    3.9244    1.2538 H   0  0  0  0  0  0  0  0  0  0  0  0
   -3.7799    3.6764    2.3203 H   0  0  0  0  0  0  0  0  0  0  0  0
   -0.5712    1.2559    0.6327 N   0  0  0  0  0  0  0  0  0  0  0  0
    0.6961    0.6433    0.1519 C   0  0  2  0  0  0  0  0  0  0  0  0
    1.7349   -0.0545    1.0770 C   0  0  0  0  0  0  0  0  0  0  0  0
    2.5546   -0.7932    0.5413 O   0  0  0  0  0  0  0  0  0  0  0  0
    1.4378    1.7652   -0.6023 C   0  0  0  0  0  0  0  0  0  0  0  0
    0.6978    2.1582   -1.8591 C   0  0  0  0  0  0  0  0  0  0  0  0
    0.8312    1.3924   -3.0261 C   0  0  0  0  0  0  0  0  0  0  0  0
   -0.1294    3.2915   -1.8755 C   0  0  0  0  0  0  0  0  0  0  0  0
    0.1437    1.7497   -4.1906 C   0  0  0  0  0  0  0  0  0  0  0  0
   -0.8170    3.6507   -3.0399 C   0  0  0  0  0  0  0  0  0  0  0  0
   -0.6810    2.8789   -4.1980 C   0  0  0  0  0  0  0  0  0  0  0  0
   -1.3250    1.2259   -0.0499 H   0  0  0  0  0  0  0  0  0  0  0  0
    0.4149   -0.1386   -0.5612 H   0  0  0  0  0  0  0  0  0  0  0  0
    2.4415    1.4304   -0.8866 H   0  0  0  0  0  0  0  0  0  0  0  0
    1.5648    2.6313    0.0560 H   0  0  0  0  0  0  0  0  0  0  0  0
    1.4735    0.5160   -3.0314 H   0  0  0  0  0  0  0  0  0  0  0  0
   -0.2358    3.8986   -0.9813 H   0  0  0  0  0  0  0  0  0  0  0  0
    0.2541    1.1512   -5.0903 H   0  0  0  0  0  0  0  0  0  0  0  0
   -1.4524    4.5316   -3.0471 H   0  0  0  0  0  0  0  0  0  0  0  0
   -1.2113    3.1584   -5.1039 H   0  0  0  0  0  0  0  0  0  0  0  0
    1.7950    0.0397    2.4518 N   0  0  0  0  0  0  0  0  0  0  0  0
    2.8109   -0.5865    3.3102 C   0  0  2  0  0  0  0  0  0  0  0  0
    2.5444   -2.0920    3.5547 C   0  0  0  0  0  0  0  0  0  0  0  0
    2.3827   -2.5486    4.6809 O   0  0  0  0  0  0  0  0  0  0  0  0
    2.8567    0.2292    4.6079 C   0  0  0  0  0  0  0  0  0  0  0  0
    1.1203    0.6702    2.8885 H   0  0  0  0  0  0  0  0  0  0  0  0
    3.7922   -0.5080    2.8307 H   0  0  0  0  0  0  0  0  0  0  0  0
    1.8928    0.1819    5.1250 H   0  0  0  0  0  0  0  0  0  0  0  0
    3.6289   -0.1634    5.2768 H   0  0  0  0  0  0  0  0  0  0  0  0
    3.0862    1.2773    4.3919 H   0  0  0  0  0  0  0  0  0  0  0  0
    2.5125   -2.9506    2.4739 N   0  0  0  0  0  0  0  0  0  0  0  0
    2.2349   -4.3767    2.5683 C   0  0  0  0  0  0  0  0  0  0  0  0
    2.6029   -2.5127    1.5535 H   0  0  0  0  0  0  0  0  0  0  0  0
    2.9549   -4.8637    3.2343 H   0  0  0  0  0  0  0  0  0  0  0  0
    1.2250   -4.5446    2.9564 H   0  0  0  0  0  0  0  0  0  0  0  0
    2.3098   -4.8414    1.5804 H   0  0  0  0  0  0  0  0  0  0  0  0
  1  2  2  0  0  0  0
  1  3  1  0  0  0  0
  1  7  1  0  0  0  0
  3  4  1  0  0  0  0
  3  5  1  0  0  0  0
  3  6  1  0  0  0  0
  7  8  1  0  0  0  0
  7 12  1  0  0  0  0
  8  9  1  0  0  0  0
  8 11  1  0  0  0  0
  8 13  1  0  0  0  0
  9 10  2  0  0  0  0
  9 17  1  0  0  0  0
 11 14  1  0  0  0  0
 11 15  1  0  0  0  0
 11 16  1  0  0  0  0
 17 18  1  0  0  0  0
 17 28  1  0  0  0  0
 18 19  1  0  0  0  0
 18 21  1  0  0  0  0
 18 29  1  0  0  0  0
 19 20  2  0  0  0  0
 19 37  1  0  0  0  0
 21 22  1  0  0  0  0
 21 30  1  0  0  0  0
 21 31  1  0  0  0  0
 22 23  1  0  0  0  0
 22 24  2  0  0  0  0
 23 25  2  0  0  0  0
 23 32  1  0  0  0  0
 24 26  1  0  0  0  0
 24 33  1  0  0  0  0
 25 27  1  0  0  0  0
 25 34  1  0  0  0  0
 26 27  2  0  0  0  0
 26 35  1  0  0  0  0
 27 36  1  0  0  0  0
 37 38  1  0  0  0  0
 37 42  1  0  0  0  0
 38 39  1  0  0  0  0
 38 41  1  0  0  0  0
 38 43  1  0  0  0  0
 39 40  2  0  0  0  0
 39 47  1  0  0  0  0
 41 44  1  0  0  0  0
 41 45  1  0  0  0  0
 41 46  1  0  0  0  0
 47 48  1  0  0  0  0
 47 49  1  0  0  0  0
 48 50  1  0  0  0  0
 48 51  1  0  0  0  0
 48 52  1  0  0  0  0
M  END
$$$$

  -OEChem-05262217163D

 52 52  0     1  0  0  0  0  0999 V2000
   -3.5881    0.3628    3.5536 C   0  0  0  0  0  0  0  0  0  0  0  0
   -3.8315   -0.3456    2.5893 O   0  0  0  0  0  0  0  0  0  0  0  0
   -3.8870   -0.1270    4.9580 C   0  0  0  0  0  0  0  0  0  0  0  0
   -4.3892   -1.0977    4.9194 H   0  0  0  0  0  0  0  0  0  0  0  0
   -2.9568   -0.2347    5.5216 H   0  0  0  0  0  0  0  0  0  0  0  0
   -4.5370    0.5847    5.4726 H   0  0  0  0  0  0  0  0  0  0  0  0
   -3.0008    1.5974    3.3661 N   0  0  0  0  0  0  0  0  0  0  0  0
   -2.4451    2.0133    2.0711 C   0  0  2  0  0  0  0  0  0  0  0  0
   -0.9897    1.5333    1.8884 C   0  0  0  0  0  0  0  0  0  0  0  0
   -0.2215    1.6040    2.8373 O   0  0  0  0  0  0  0  0  0  0  0  0
   -2.5237    3.5396    1.9901 C   0  0  0  0  0  0  0  0  0  0  0  0
   -2.6234    2.0397    4.2002 H   0  0  0  0  0  0  0  0  0  0  0  0
   -3.0491    1.5994    1.2559 H   0  0  0  0  0  0  0  0  0  0  0  0
   -1.9171    3.9982    2.7778 H   0  0  0  0  0  0  0  0  0  0  0  0
   -2.1560    3.8893    1.0204 H   0  0  0  0  0  0  0  0  0  0  0  0
   -3.5596    3.8731    2.1075 H   0  0  0  0  0  0  0  0  0  0  0  0
   -0.5481    1.1834    0.6238 N   0  0  0  0  0  0  0  0  0  0  0  0
    0.7021    0.5337    0.1471 C   0  0  2  0  0  0  0  0  0  0  0  0
    1.6996   -0.2196    1.0770 C   0  0  0  0  0  0  0  0  0  0  0  0
    2.6350   -0.8108    0.5473 O   0  0  0  0  0  0  0  0  0  0  0  0
    1.4769    1.6499   -0.5875 C   0  0  0  0  0  0  0  0  0  0  0  0
    0.7507    2.0773   -1.8423 C   0  0  0  0  0  0  0  0  0  0  0  0
    0.8707    1.3240   -3.0191 C   0  0  0  0  0  0  0  0  0  0  0  0
   -0.0499    3.2302   -1.8477 C   0  0  0  0  0  0  0  0  0  0  0  0
    0.1913    1.7088   -4.1798 C   0  0  0  0  0  0  0  0  0  0  0  0
   -0.7303    3.6158   -3.0078 C   0  0  0  0  0  0  0  0  0  0  0  0
   -0.6118    2.8533   -4.1738 C   0  0  0  0  0  0  0  0  0  0  0  0
   -1.2690    1.2645   -0.0900 H   0  0  0  0  0  0  0  0  0  0  0  0
    0.4037   -0.2286   -0.5796 H   0  0  0  0  0  0  0  0  0  0  0  0
    2.4741    1.2997   -0.8751 H   0  0  0  0  0  0  0  0  0  0  0  0
    1.6214    2.5030    0.0838 H   0  0  0  0  0  0  0  0  0  0  0  0
    1.4945    0.4343   -3.0339 H   0  0  0  0  0  0  0  0  0  0  0  0
   -0.1421    3.8321   -0.9485 H   0  0  0  0  0  0  0  0  0  0  0  0
    0.2905    1.1193   -5.0868 H   0  0  0  0  0  0  0  0  0  0  0  0
   -1.3468    4.5101   -3.0061 H   0  0  0  0  0  0  0  0  0  0  0  0
   -1.1379    3.1522   -5.0761 H   0  0  0  0  0  0  0  0  0  0  0  0
    1.5635   -0.3841    2.4403 N   0  0  0  0  0  0  0  0  0  0  0  0
    2.5583   -1.0149    3.3218 C   0  0  2  0  0  0  0  0  0  0  0  0
    2.4738   -2.5610    3.3220 C   0  0  0  0  0  0  0  0  0  0  0  0
    2.3333   -3.2031    4.3570 O   0  0  0  0  0  0  0  0  0  0  0  0
    2.3605   -0.4074    4.7160 C   0  0  0  0  0  0  0  0  0  0  0  0
    0.8356    0.1817    2.8792 H   0  0  0  0  0  0  0  0  0  0  0  0
    3.5655   -0.7514    2.9826 H   0  0  0  0  0  0  0  0  0  0  0  0
    1.3660   -0.6508    5.1035 H   0  0  0  0  0  0  0  0  0  0  0  0
    3.1093   -0.7995    5.4114 H   0  0  0  0  0  0  0  0  0  0  0  0
    2.4630    0.6813    4.6748 H   0  0  0  0  0  0  0  0  0  0  0  0
    2.6043   -3.2400    2.1270 N   0  0  0  0  0  0  0  0  0  0  0  0
    2.5789   -4.6903    2.0012 C   0  0  0  0  0  0  0  0  0  0  0  0
    2.7256   -2.6593    1.2933 H   0  0  0  0  0  0  0  0  0  0  0  0
    3.3899   -5.1390    2.5839 H   0  0  0  0  0  0  0  0  0  0  0  0
    1.6242   -5.0890    2.3592 H   0  0  0  0  0  0  0  0  0  0  0  0
    2.7042   -4.9805    0.9536 H   0  0  0  0  0  0  0  0  0  0  0  0
  1  2  2  0  0  0  0
  1  3  1  0  0  0  0
  1  7  1  0  0  0  0
  3  4  1  0  0  0  0
  3  5  1  0  0  0  0
  3  6  1  0  0  0  0
  7  8  1  0  0  0  0
  7 12  1  0  0  0  0
  8  9  1  0  0  0  0
  8 11  1  0  0  0  0
  8 13  1  0  0  0  0
  9 10  2  0  0  0  0
  9 17  1  0  0  0  0
 11 14  1  0  0  0  0
 11 15  1  0  0  0  0
 11 16  1  0  0  0  0
 17 18  1  0  0  0  0
 17 28  1  0  0  0  0
 18 19  1  0  0  0  0
 18 21  1  0  0  0  0
 18 29  1  0  0  0  0
 19 20  2  0  0  0  0
 19 37  1  0  0  0  0
 21 22  1  0  0  0  0
 21 30  1  0  0  0  0
 21 31  1  0  0  0  0
 22 23  1  0  0  0  0
 22 24  2  0  0  0  0
 23 25  2  0  0  0  0
 23 32  1  0  0  0  0
 24 26  1  0  0  0  0
 24 33  1  0  0  0  0
 25 27  1  0  0  0  0
 25 34  1  0  0  0  0
 26 27  2  0  0  0  0
 26 35  1  0  0  0  0
 27 36  1  0  0  0  0
 37 38  1  0  0  0  0
 37 42  1  0  0  0  0
 38 39  1  0  0  0  0
 38 41  1  0  0  0  0
 38 43  1  0  0  0  0
 39 40  2  0  0  0  0
 39 47  1  0  0  0  0
 41 44  1  0  0  0  0
 41 45  1  0  0  0  0
 41 46  1  0  0  0  0
 47 48  1  0  0  0  0
 47 49  1  0  0  0  0
 48 50  1  0  0  0  0
 48 51  1  0  0  0  0
 48 52  1  0  0  0  0
M  END
$$$$

  -OEChem-05262217163D

 52 52  0     1  0  0  0  0  0999 V2000
   -3.6109    0.2621    3.4207 C   0  0  0  0  0  0  0  0  0  0  0  0
   -3.7692   -0.4919    2.4735 O   0  0  0  0  0  0  0  0  0  0  0  0
   -3.9393   -0.1971    4.8287 C   0  0  0  0  0  0  0  0  0  0  0  0
   -4.3593   -1.2067    4.8080 H   0  0  0  0  0  0  0  0  0  0  0  0
   -3.0328   -0.2066    5.4388 H   0  0  0  0  0  0  0  0  0  0  0  0
   -4.6688    0.4782    5.2823 H   0  0  0  0  0  0  0  0  0  0  0  0
   -3.0839    1.5204    3.2133 N   0  0  0  0  0  0  0  0  0  0  0  0
   -2.4845    1.9123    1.9299 C   0  0  2  0  0  0  0  0  0  0  0  0
   -1.0147    1.4547    1.8157 C   0  0  0  0  0  0  0  0  0  0  0  0
   -0.3061    1.4801    2.8124 O   0  0  0  0  0  0  0  0  0  0  0  0
   -2.5842    3.4340    1.8070 C   0  0  0  0  0  0  0  0  0  0  0  0
   -2.7598    2.0045    4.0465 H   0  0  0  0  0  0  0  0  0  0  0  0
   -3.0493    1.4656    1.1041 H   0  0  0  0  0  0  0  0  0  0  0  0
   -2.0165    3.9221    2.6059 H   0  0  0  0  0  0  0  0  0  0  0  0
   -2.1841    3.7659    0.8440 H   0  0  0  0  0  0  0  0  0  0  0  0
   -3.6291    3.7526    1.8752 H   0  0  0  0  0  0  0  0  0  0  0  0
   -0.4925    1.1489    0.5705 N   0  0  0  0  0  0  0  0  0  0  0  0
    0.8011    0.5361    0.1679 C   0  0  2  0  0  0  0  0  0  0  0  0
    1.7266   -0.2125    1.1736 C   0  0  0  0  0  0  0  0  0  0  0  0
    2.8131   -0.6214    0.7769 O   0  0  0  0  0  0  0  0  0  0  0  0
    1.5954    1.6845   -0.4946 C   0  0  0  0  0  0  0  0  0  0  0  0
    0.9438    2.1187   -1.7870 C   0  0  0  0  0  0  0  0  0  0  0  0
    1.1591    1.3919   -2.9670 C   0  0  0  0  0  0  0  0  0  0  0  0
    0.1183    3.2529   -1.8241 C   0  0  0  0  0  0  0  0  0  0  0  0
    0.5512    1.7863   -4.1636 C   0  0  0  0  0  0  0  0  0  0  0  0
   -0.4915    3.6478   -3.0196 C   0  0  0  0  0  0  0  0  0  0  0  0
   -0.2760    2.9134   -4.1898 C   0  0  0  0  0  0  0  0  0  0  0  0
   -1.1631    1.2466   -0.1884 H   0  0  0  0  0  0  0  0  0  0  0  0
    0.5759   -0.2219   -0.5890 H   0  0  0  0  0  0  0  0  0  0  0  0
    2.6175    1.3660   -0.7246 H   0  0  0  0  0  0  0  0  0  0  0  0
    1.6746    2.5277    0.1999 H   0  0  0  0  0  0  0  0  0  0  0  0
    1.8037    0.5172   -2.9564 H   0  0  0  0  0  0  0  0  0  0  0  0
   -0.0470    3.8336   -0.9214 H   0  0  0  0  0  0  0  0  0  0  0  0
    0.7251    1.2180   -5.0728 H   0  0  0  0  0  0  0  0  0  0  0  0
   -1.1272    4.5283   -3.0413 H   0  0  0  0  0  0  0  0  0  0  0  0
   -0.7450    3.2213   -5.1200 H   0  0  0  0  0  0  0  0  0  0  0  0
    1.3282   -0.6388    2.4249 N   0  0  0  0  0  0  0  0  0  0  0  0
    2.2007   -1.3127    3.3990 C   0  0  2  0  0  0  0  0  0  0  0  0
    2.3209   -2.8356    3.1471 C   0  0  0  0  0  0  0  0  0  0  0  0
    2.0650   -3.6594    4.0182 O   0  0  0  0  0  0  0  0  0  0  0  0
    1.6459   -0.9812    4.7897 C   0  0  0  0  0  0  0  0  0  0  0  0
    0.5046   -0.1601    2.7926 H   0  0  0  0  0  0  0  0  0  0  0  0
    3.2112   -0.8962    3.3343 H   0  0  0  0  0  0  0  0  0  0  0  0
    0.6379   -1.3916    4.9079 H   0  0  0  0  0  0  0  0  0  0  0  0
    2.2880   -1.4070    5.5672 H   0  0  0  0  0  0  0  0  0  0  0  0
    1.6018    0.1028    4.9336 H   0  0  0  0  0  0  0  0  0  0  0  0
    2.7573   -3.2803    1.9151 N   0  0  0  0  0  0  0  0  0  0  0  0
    2.9074   -4.6829    1.5552 C   0  0  0  0  0  0  0  0  0  0  0  0
    2.9620   -2.5539    1.2243 H   0  0  0  0  0  0  0  0  0  0  0  0
    1.9473   -5.2030    1.6368 H   0  0  0  0  0  0  0  0  0  0  0  0
    3.2629   -4.7718    0.5242 H   0  0  0  0  0  0  0  0  0  0  0  0
    3.6321   -5.1717    2.2146 H   0  0  0  0  0  0  0  0  0  0  0  0
  1  2  2  0  0  0  0
  1  3  1  0  0  0  0
  1  7  1  0  0  0  0
  3  4  1  0  0  0  0
  3  5  1  0  0  0  0
  3  6  1  0  0  0  0
  7  8  1  0  0  0  0
  7 12  1  0  0  0  0
  8  9  1  0  0  0  0
  8 11  1  0  0  0  0
  8 13  1  0  0  0  0
  9 10  2  0  0  0  0
  9 17  1  0  0  0  0
 11 14  1  0  0  0  0
 11 15  1  0  0  0  0
 11 16  1  0  0  0  0
 17 18  1  0  0  0  0
 17 28  1  0  0  0  0
 18 19  1  0  0  0  0
 18 21  1  0  0  0  0
 18 29  1  0  0  0  0
 19 20  2  0  0  0  0
 19 37  1  0  0  0  0
 21 22  1  0  0  0  0
 21 30  1  0  0  0  0
 21 31  1  0  0  0  0
 22 23  1  0  0  0  0
 22 24  2  0  0  0  0
 23 25  2  0  0  0  0
 23 32  1  0  0  0  0
 24 26  1  0  0  0  0
 24 33  1  0  0  0  0
 25 27  1  0  0  0  0
 25 34  1  0  0  0  0
 26 27  2  0  0  0  0
 26 35  1  0  0  0  0
 27 36  1  0  0  0  0
 37 38  1  0  0  0  0
 37 42  1  0  0  0  0
 38 39  1  0  0  0  0
 38 41  1  0  0  0  0
 38 43  1  0  0  0  0
 39 40  2  0  0  0  0
 39 47  1  0  0  0  0
 41 44  1  0  0  0  0
 41 45  1  0  0  0  0
 41 46  1  0  0  0  0
 47 48  1  0  0  0  0
 47 49  1  0  0  0  0
 48 50  1  0  0  0  0
 48 51  1  0  0  0  0
 48 52  1  0  0  0  0
M  END
$$$$

  -OEChem-05262217163D

 52 52  0     1  0  0  0  0  0999 V2000
   -3.5497    0.3474    3.4478 C   0  0  0  0  0  0  0  0  0  0  0  0
   -3.7574   -0.2879    2.4259 O   0  0  0  0  0  0  0  0  0  0  0  0
   -3.9207   -0.2330    4.7992 C   0  0  0  0  0  0  0  0  0  0  0  0
   -4.4196   -1.1979    4.6711 H   0  0  0  0  0  0  0  0  0  0  0  0
   -3.0206   -0.3802    5.4016 H   0  0  0  0  0  0  0  0  0  0  0  0
   -4.5969    0.4450    5.3255 H   0  0  0  0  0  0  0  0  0  0  0  0
   -2.9246    1.5753    3.3724 N   0  0  0  0  0  0  0  0  0  0  0  0
   -2.2955    2.0497    2.1319 C   0  0  2  0  0  0  0  0  0  0  0  0
   -0.9002    1.4252    1.9157 C   0  0  0  0  0  0  0  0  0  0  0  0
   -0.1668    1.2595    2.8801 O   0  0  0  0  0  0  0  0  0  0  0  0
   -2.1976    3.5753    2.2016 C   0  0  0  0  0  0  0  0  0  0  0  0
   -2.5696    1.9460    4.2499 H   0  0  0  0  0  0  0  0  0  0  0  0
   -2.9265    1.7879    1.2756 H   0  0  0  0  0  0  0  0  0  0  0  0
   -1.5667    3.8831    3.0419 H   0  0  0  0  0  0  0  0  0  0  0  0
   -1.7635    3.9721    1.2787 H   0  0  0  0  0  0  0  0  0  0  0  0
   -3.1919    4.0137    2.3319 H   0  0  0  0  0  0  0  0  0  0  0  0
   -0.4715    1.1480    0.6285 N   0  0  0  0  0  0  0  0  0  0  0  0
    0.7693    0.5005    0.1297 C   0  0  2  0  0  0  0  0  0  0  0  0
    1.6968   -0.3114    1.0835 C   0  0  0  0  0  0  0  0  0  0  0  0
    2.8545   -0.5482    0.7531 O   0  0  0  0  0  0  0  0  0  0  0  0
    1.5624    1.6308   -0.5667 C   0  0  0  0  0  0  0  0  0  0  0  0
    0.8403    2.1092   -1.8052 C   0  0  0  0  0  0  0  0  0  0  0  0
    0.9472    1.3946   -3.0072 C   0  0  0  0  0  0  0  0  0  0  0  0
    0.0583    3.2740   -1.7704 C   0  0  0  0  0  0  0  0  0  0  0  0
    0.2693    1.8266   -4.1520 C   0  0  0  0  0  0  0  0  0  0  0  0
   -0.6199    3.7075   -2.9147 C   0  0  0  0  0  0  0  0  0  0  0  0
   -0.5172    2.9816   -4.1053 C   0  0  0  0  0  0  0  0  0  0  0  0
   -1.1521    1.3747   -0.0934 H   0  0  0  0  0  0  0  0  0  0  0  0
    0.4694   -0.2338   -0.6243 H   0  0  0  0  0  0  0  0  0  0  0  0
    2.5525    1.2787   -0.8739 H   0  0  0  0  0  0  0  0  0  0  0  0
    1.7213    2.4571    0.1341 H   0  0  0  0  0  0  0  0  0  0  0  0
    1.5586    0.4978   -3.0543 H   0  0  0  0  0  0  0  0  0  0  0  0
   -0.0186    3.8498   -0.8529 H   0  0  0  0  0  0  0  0  0  0  0  0
    0.3569    1.2659   -5.0783 H   0  0  0  0  0  0  0  0  0  0  0  0
   -1.2219    4.6110   -2.8816 H   0  0  0  0  0  0  0  0  0  0  0  0
   -1.0423    3.3175   -4.9949 H   0  0  0  0  0  0  0  0  0  0  0  0
    1.2110   -0.9859    2.1874 N   0  0  0  0  0  0  0  0  0  0  0  0
    2.0505   -1.7307    3.1393 C   0  0  2  0  0  0  0  0  0  0  0  0
    2.3941   -3.1619    2.6573 C   0  0  0  0  0  0  0  0  0  0  0  0
    2.1242   -4.1539    3.3254 O   0  0  0  0  0  0  0  0  0  0  0  0
    1.3103   -1.7219    4.4826 C   0  0  0  0  0  0  0  0  0  0  0  0
    0.3434   -0.5937    2.5544 H   0  0  0  0  0  0  0  0  0  0  0  0
    2.9997   -1.2030    3.2783 H   0  0  0  0  0  0  0  0  0  0  0  0
    0.3557   -2.2515    4.3978 H   0  0  0  0  0  0  0  0  0  0  0  0
    1.9131   -2.2149    5.2519 H   0  0  0  0  0  0  0  0  0  0  0  0
    1.1145   -0.6942    4.8038 H   0  0  0  0  0  0  0  0  0  0  0  0
    3.0585   -3.3271    1.4585 N   0  0  0  0  0  0  0  0  0  0  0  0
    3.4419   -4.6175    0.9046 C   0  0  0  0  0  0  0  0  0  0  0  0
    3.2495   -2.4708    0.9316 H   0  0  0  0  0  0  0  0  0  0  0  0
    2.5539   -5.2250    0.7017 H   0  0  0  0  0  0  0  0  0  0  0  0
    3.9887   -4.4780   -0.0328 H   0  0  0  0  0  0  0  0  0  0  0  0
    4.0878   -5.1579    1.6046 H   0  0  0  0  0  0  0  0  0  0  0  0
  1  2  2  0  0  0  0
  1  3  1  0  0  0  0
  1  7  1  0  0  0  0
  3  4  1  0  0  0  0
  3  5  1  0  0  0  0
  3  6  1  0  0  0  0
  7  8  1  0  0  0  0
  7 12  1  0  0  0  0
  8  9  1  0  0  0  0
  8 11  1  0  0  0  0
  8 13  1  0  0  0  0
  9 10  2  0  0  0  0
  9 17  1  0  0  0  0
 11 14  1  0  0  0  0
 11 15  1  0  0  0  0
 11 16  1  0  0  0  0
 17 18  1  0  0  0  0
 17 28  1  0  0  0  0
 18 19  1  0  0  0  0
 18 21  1  0  0  0  0
 18 29  1  0  0  0  0
 19 20  2  0  0  0  0
 19 37  1  0  0  0  0
 21 22  1  0  0  0  0
 21 30  1  0  0  0  0
 21 31  1  0  0  0  0
 22 23  1  0  0  0  0
 22 24  2  0  0  0  0
 23 25  2  0  0  0  0
 23 32  1  0  0  0  0
 24 26  1  0  0  0  0
 24 33  1  0  0  0  0
 25 27  1  0  0  0  0
 25 34  1  0  0  0  0
 26 27  2  0  0  0  0
 26 35  1  0  0  0  0
 27 36  1  0  0  0  0
 37 38  1  0  0  0  0
 37 42  1  0  0  0  0
 38 39  1  0  0  0  0
 38 41  1  0  0  0  0
 38 43  1  0  0  0  0
 39 40  2  0  0  0  0
 39 47  1  0  0  0  0
 41 44  1  0  0  0  0
 41 45  1  0  0  0  0
 41 46  1  0  0  0  0
 47 48  1  0  0  0  0
 47 49  1  0  0  0  0
 48 50  1  0  0  0  0
 48 51  1  0  0  0  0
 48 52  1  0  0  0  0
M  END
$$$$

  -OEChem-05262217163D

 52 52  0     1  0  0  0  0  0999 V2000
   -2.5634   -0.2787    3.3430 C   0  0  0  0  0  0  0  0  0  0  0  0
   -2.1674   -0.8662    2.3449 O   0  0  0  0  0  0  0  0  0  0  0  0
   -2.8952   -1.0485    4.6072 C   0  0  0  0  0  0  0  0  0  0  0  0
   -2.7722   -2.1223    4.4388 H   0  0  0  0  0  0  0  0  0  0  0  0
   -2.2301   -0.7411    5.4180 H   0  0  0  0  0  0  0  0  0  0  0  0
   -3.9299   -0.8559    4.9012 H   0  0  0  0  0  0  0  0  0  0  0  0
   -2.6763    1.0969    3.3236 N   0  0  0  0  0  0  0  0  0  0  0  0
   -2.2692    1.9095    2.1690 C   0  0  2  0  0  0  0  0  0  0  0  0
   -0.7862    1.6995    1.7911 C   0  0  0  0  0  0  0  0  0  0  0  0
    0.0827    1.8128    2.6447 O   0  0  0  0  0  0  0  0  0  0  0  0
   -2.5345    3.3802    2.4996 C   0  0  0  0  0  0  0  0  0  0  0  0
   -2.8109    1.5586    4.2185 H   0  0  0  0  0  0  0  0  0  0  0  0
   -2.8855    1.6293    1.3086 H   0  0  0  0  0  0  0  0  0  0  0  0
   -1.9357    3.6946    3.3608 H   0  0  0  0  0  0  0  0  0  0  0  0
   -2.2725    4.0144    1.6467 H   0  0  0  0  0  0  0  0  0  0  0  0
   -3.5926    3.5342    2.7332 H   0  0  0  0  0  0  0  0  0  0  0  0
   -0.4606    1.3818    0.4835 N   0  0  0  0  0  0  0  0  0  0  0  0
    0.7325    0.6416    0.0114 C   0  0  2  0  0  0  0  0  0  0  0  0
    1.5534   -0.1536    1.0650 C   0  0  0  0  0  0  0  0  0  0  0  0
    2.7749   -0.2467    0.9826 O   0  0  0  0  0  0  0  0  0  0  0  0
    1.6098    1.6636   -0.7435 C   0  0  0  0  0  0  0  0  0  0  0  0
    0.9267    2.1285   -2.0088 C   0  0  0  0  0  0  0  0  0  0  0  0
    0.9746    1.3438   -3.1703 C   0  0  0  0  0  0  0  0  0  0  0  0
    0.2325    3.3472   -2.0359 C   0  0  0  0  0  0  0  0  0  0  0  0
    0.3337    1.7679   -4.3392 C   0  0  0  0  0  0  0  0  0  0  0  0
   -0.4091    3.7729   -3.2038 C   0  0  0  0  0  0  0  0  0  0  0  0
   -0.3597    2.9822   -4.3561 C   0  0  0  0  0  0  0  0  0  0  0  0
   -1.2536    1.3639   -0.1517 H   0  0  0  0  0  0  0  0  0  0  0  0
    0.3966   -0.1191   -0.6994 H   0  0  0  0  0  0  0  0  0  0  0  0
    2.5673    1.2130   -1.0241 H   0  0  0  0  0  0  0  0  0  0  0  0
    1.8338    2.5125   -0.0886 H   0  0  0  0  0  0  0  0  0  0  0  0
    1.5150    0.4015   -3.1677 H   0  0  0  0  0  0  0  0  0  0  0  0
    0.1948    3.9673   -1.1449 H   0  0  0  0  0  0  0  0  0  0  0  0
    0.3793    1.1552   -5.2348 H   0  0  0  0  0  0  0  0  0  0  0  0
   -0.9409    4.7199   -3.2172 H   0  0  0  0  0  0  0  0  0  0  0  0
   -0.8539    3.3130   -5.2650 H   0  0  0  0  0  0  0  0  0  0  0  0
    0.9129   -0.9463    2.0036 N   0  0  0  0  0  0  0  0  0  0  0  0
    1.6085   -1.6760    3.0754 C   0  0  2  0  0  0  0  0  0  0  0  0
    2.1753   -3.0380    2.6056 C   0  0  0  0  0  0  0  0  0  0  0  0
    1.9022   -4.0875    3.1784 O   0  0  0  0  0  0  0  0  0  0  0  0
    0.6313   -1.8116    4.2472 C   0  0  0  0  0  0  0  0  0  0  0  0
   -0.1049   -0.8646    2.0585 H   0  0  0  0  0  0  0  0  0  0  0  0
    2.4580   -1.0787    3.4230 H   0  0  0  0  0  0  0  0  0  0  0  0
   -0.2266   -2.4268    3.9588 H   0  0  0  0  0  0  0  0  0  0  0  0
    1.1262   -2.2845    5.1013 H   0  0  0  0  0  0  0  0  0  0  0  0
    0.2740   -0.8251    4.5579 H   0  0  0  0  0  0  0  0  0  0  0  0
    3.0406   -3.0707    1.5301 N   0  0  0  0  0  0  0  0  0  0  0  0
    3.6714   -4.2795    1.0200 C   0  0  0  0  0  0  0  0  0  0  0  0
    3.2588   -2.1652    1.1056 H   0  0  0  0  0  0  0  0  0  0  0  0
    2.9127   -5.0094    0.7186 H   0  0  0  0  0  0  0  0  0  0  0  0
    4.2891   -4.0430    0.1484 H   0  0  0  0  0  0  0  0  0  0  0  0
    4.3105   -4.7297    1.7866 H   0  0  0  0  0  0  0  0  0  0  0  0
  1  2  2  0  0  0  0
  1  3  1  0  0  0  0
  1  7  1  0  0  0  0
  3  4  1  0  0  0  0
  3  5  1  0  0  0  0
  3  6  1  0  0  0  0
  7  8  1  0  0  0  0
  7 12  1  0  0  0  0
  8  9  1  0  0  0  0
  8 11  1  0  0  0  0
  8 13  1  0  0  0  0
  9 10  2  0  0  0  0
  9 17  1  0  0  0  0
 11 14  1  0  0  0  0
 11 15  1  0  0  0  0
 11 16  1  0  0  0  0
 17 18  1  0  0  0  0
 17 28  1  0  0  0  0
 18 19  1  0  0  0  0
 18 21  1  0  0  0  0
 18 29  1  0  0  0  0
 19 20  2  0  0  0  0
 19 37  1  0  0  0  0
 21 22  1  0  0  0  0
 21 30  1  0  0  0  0
 21 31  1  0  0  0  0
 22 23  1  0  0  0  0
 22 24  2  0  0  0  0
 23 25  2  0  0  0  0
 23 32  1  0  0  0  0
 24 26  1  0  0  0  0
 24 33  1  0  0  0  0
 25 27  1  0  0  0  0
 25 34  1  0  0  0  0
 26 27  2  0  0  0  0
 26 35  1  0  0  0  0
 27 36  1  0  0  0  0
 37 38  1  0  0  0  0
 37 42  1  0  0  0  0
 38 39  1  0  0  0  0
 38 41  1  0  0  0  0
 38 43  1  0  0  0  0
 39 40  2  0  0  0  0
 39 47  1  0  0  0  0
 41 44  1  0  0  0  0
 41 45  1  0  0  0  0
 41 46  1  0  0  0  0
 47 48  1  0  0  0  0
 47 49  1  0  0  0  0
 48 50  1  0  0  0  0
 48 51  1  0  0  0  0
 48 52  1  0  0  0  0
M  END
$$$$

  -OEChem-05262217163D

 52 52  0     1  0  0  0  0  0999 V2000
   -2.5324   -0.3685    3.1496 C   0  0  0  0  0  0  0  0  0  0  0  0
   -2.1116   -0.8654    2.1125 O   0  0  0  0  0  0  0  0  0  0  0  0
   -2.9072   -1.2521    4.3244 C   0  0  0  0  0  0  0  0  0  0  0  0
   -2.7422   -2.3041    4.0743 H   0  0  0  0  0  0  0  0  0  0  0  0
   -2.2970   -0.9975    5.1943 H   0  0  0  0  0  0  0  0  0  0  0  0
   -3.9617   -1.1123    4.5746 H   0  0  0  0  0  0  0  0  0  0  0  0
   -2.6459    1.0034    3.2592 N   0  0  0  0  0  0  0  0  0  0  0  0
   -2.2240    1.9299    2.1993 C   0  0  2  0  0  0  0  0  0  0  0  0
   -0.7366    1.7562    1.8198 C   0  0  0  0  0  0  0  0  0  0  0  0
    0.1293    1.8627    2.6772 O   0  0  0  0  0  0  0  0  0  0  0  0
   -2.4974    3.3594    2.6734 C   0  0  0  0  0  0  0  0  0  0  0  0
   -2.8150    1.3766    4.1889 H   0  0  0  0  0  0  0  0  0  0  0  0
   -2.8286    1.7406    1.3066 H   0  0  0  0  0  0  0  0  0  0  0  0
   -1.9207    3.5824    3.5772 H   0  0  0  0  0  0  0  0  0  0  0  0
   -2.2144    4.0773    1.8972 H   0  0  0  0  0  0  0  0  0  0  0  0
   -3.5611    3.4914    2.8947 H   0  0  0  0  0  0  0  0  0  0  0  0
   -0.4215    1.4177    0.5143 N   0  0  0  0  0  0  0  0  0  0  0  0
    0.7730    0.6782    0.0518 C   0  0  2  0  0  0  0  0  0  0  0  0
    1.5807   -0.0733    1.1425 C   0  0  0  0  0  0  0  0  0  0  0  0
    2.8063   -0.0156    1.1943 O   0  0  0  0  0  0  0  0  0  0  0  0
    1.6503    1.6804   -0.7272 C   0  0  0  0  0  0  0  0  0  0  0  0
    0.9681    2.1189   -2.0026 C   0  0  0  0  0  0  0  0  0  0  0  0
    1.0130    1.3092   -3.1474 C   0  0  0  0  0  0  0  0  0  0  0  0
    0.2776    3.3388   -2.0564 C   0  0  0  0  0  0  0  0  0  0  0  0
    0.3723    1.7095   -4.3250 C   0  0  0  0  0  0  0  0  0  0  0  0
   -0.3636    3.7408   -3.2332 C   0  0  0  0  0  0  0  0  0  0  0  0
   -0.3178    2.9249   -4.3678 C   0  0  0  0  0  0  0  0  0  0  0  0
   -1.2226    1.3698   -0.1087 H   0  0  0  0  0  0  0  0  0  0  0  0
    0.4438   -0.1031   -0.6396 H   0  0  0  0  0  0  0  0  0  0  0  0
    2.6061    1.2181   -0.9945 H   0  0  0  0  0  0  0  0  0  0  0  0
    1.8769    2.5433   -0.0915 H   0  0  0  0  0  0  0  0  0  0  0  0
    1.5500    0.3653   -3.1252 H   0  0  0  0  0  0  0  0  0  0  0  0
    0.2409    3.9787   -1.1796 H   0  0  0  0  0  0  0  0  0  0  0  0
    0.4143    1.0776   -5.2074 H   0  0  0  0  0  0  0  0  0  0  0  0
   -0.8932    4.6884   -3.2673 H   0  0  0  0  0  0  0  0  0  0  0  0
   -0.8127    3.2369   -5.2830 H   0  0  0  0  0  0  0  0  0  0  0  0
    0.9494   -1.0583    1.8834 N   0  0  0  0  0  0  0  0  0  0  0  0
    1.6207   -1.8634    2.9160 C   0  0  2  0  0  0  0  0  0  0  0  0
    2.3732   -3.0794    2.3240 C   0  0  0  0  0  0  0  0  0  0  0  0
    2.1603   -4.2250    2.7060 O   0  0  0  0  0  0  0  0  0  0  0  0
    0.5650   -2.2621    3.9513 C   0  0  0  0  0  0  0  0  0  0  0  0
   -0.0730   -1.0712    1.8480 H   0  0  0  0  0  0  0  0  0  0  0  0
    2.3661   -1.2455    3.4283 H   0  0  0  0  0  0  0  0  0  0  0  0
   -0.2161   -2.8733    3.4878 H   0  0  0  0  0  0  0  0  0  0  0  0
    1.0244   -2.8401    4.7593 H   0  0  0  0  0  0  0  0  0  0  0  0
    0.1074   -1.3686    4.3848 H   0  0  0  0  0  0  0  0  0  0  0  0
    3.3296   -2.8664    1.3514 N   0  0  0  0  0  0  0  0  0  0  0  0
    4.1209   -3.9208    0.7340 C   0  0  0  0  0  0  0  0  0  0  0  0
    3.4875   -1.8902    1.0868 H   0  0  0  0  0  0  0  0  0  0  0  0
    4.7259   -4.4362    1.4867 H   0  0  0  0  0  0  0  0  0  0  0  0
    3.4686   -4.6512    0.2443 H   0  0  0  0  0  0  0  0  0  0  0  0
    4.7920   -3.4961   -0.0188 H   0  0  0  0  0  0  0  0  0  0  0  0
  1  2  2  0  0  0  0
  1  3  1  0  0  0  0
  1  7  1  0  0  0  0
  3  4  1  0  0  0  0
  3  5  1  0  0  0  0
  3  6  1  0  0  0  0
  7  8  1  0  0  0  0
  7 12  1  0  0  0  0
  8  9  1  0  0  0  0
  8 11  1  0  0  0  0
  8 13  1  0  0  0  0
  9 10  2  0  0  0  0
  9 17  1  0  0  0  0
 11 14  1  0  0  0  0
 11 15  1  0  0  0  0
 11 16  1  0  0  0  0
 17 18  1  0  0  0  0
 17 28  1  0  0  0  0
 18 19  1  0  0  0  0
 18 21  1  0  0  0  0
 18 29  1  0  0  0  0
 19 20  2  0  0  0  0
 19 37  1  0  0  0  0
 21 22  1  0  0  0  0
 21 30  1  0  0  0  0
 21 31  1  0  0  0  0
 22 23  1  0  0  0  0
 22 24  2  0  0  0  0
 23 25  2  0  0  0  0
 23 32  1  0  0  0  0
 24 26  1  0  0  0  0
 24 33  1  0  0  0  0
 25 27  1  0  0  0  0
 25 34  1  0  0  0  0
 26 27  2  0  0  0  0
 26 35  1  0  0  0  0
 27 36  1  0  0  0  0
 37 38  1  0  0  0  0
 37 42  1  0  0  0  0
 38 39  1  0  0  0  0
 38 41  1  0  0  0  0
 38 43  1  0  0  0  0
 39 40  2  0  0  0  0
 39 47  1  0  0  0  0
 41 44  1  0  0  0  0
 41 45  1  0  0  0  0
 41 46  1  0  0  0  0
 47 48  1  0  0  0  0
 47 49  1  0  0  0  0
 48 50  1  0  0  0  0
 48 51  1  0  0  0  0
 48 52  1  0  0  0  0
M  END
$$$$

  -OEChem-05262217163D

 52 52  0     1  0  0  0  0  0999 V2000
   -2.4444   -0.3708    3.0297 C   0  0  0  0  0  0  0  0  0  0  0  0
   -2.0529   -0.7843    1.9457 O   0  0  0  0  0  0  0  0  0  0  0  0
   -2.8303   -1.3515    4.1214 C   0  0  0  0  0  0  0  0  0  0  0  0
   -2.6621   -2.3785    3.7842 H   0  0  0  0  0  0  0  0  0  0  0  0
   -2.2286   -1.1726    5.0159 H   0  0  0  0  0  0  0  0  0  0  0  0
   -3.8872   -1.2335    4.3734 H   0  0  0  0  0  0  0  0  0  0  0  0
   -2.5279    0.9876    3.2681 N   0  0  0  0  0  0  0  0  0  0  0  0
   -2.1258    2.0124    2.2929 C   0  0  2  0  0  0  0  0  0  0  0  0
   -0.6549    1.8587    1.8458 C   0  0  0  0  0  0  0  0  0  0  0  0
    0.2467    1.9767    2.6632 O   0  0  0  0  0  0  0  0  0  0  0  0
   -2.3604    3.3885    2.9231 C   0  0  0  0  0  0  0  0  0  0  0  0
   -2.6919    1.2753    4.2287 H   0  0  0  0  0  0  0  0  0  0  0  0
   -2.7634    1.9269    1.4071 H   0  0  0  0  0  0  0  0  0  0  0  0
   -1.7484    3.5106    3.8231 H   0  0  0  0  0  0  0  0  0  0  0  0
   -2.0944    4.1800    2.2153 H   0  0  0  0  0  0  0  0  0  0  0  0
   -3.4130    3.5089    3.1965 H   0  0  0  0  0  0  0  0  0  0  0  0
   -0.4047    1.4817    0.5370 N   0  0  0  0  0  0  0  0  0  0  0  0
    0.7482    0.6921    0.0564 C   0  0  2  0  0  0  0  0  0  0  0  0
    1.5568   -0.0480    1.1518 C   0  0  0  0  0  0  0  0  0  0  0  0
    2.7595    0.1415    1.3138 O   0  0  0  0  0  0  0  0  0  0  0  0
    1.6394    1.6318   -0.7799 C   0  0  0  0  0  0  0  0  0  0  0  0
    0.9346    2.0571   -2.0471 C   0  0  0  0  0  0  0  0  0  0  0  0
    0.9090    1.2123   -3.1669 C   0  0  0  0  0  0  0  0  0  0  0  0
    0.2912    3.3018   -2.1164 C   0  0  0  0  0  0  0  0  0  0  0  0
    0.2462    1.6039   -4.3354 C   0  0  0  0  0  0  0  0  0  0  0  0
   -0.3712    3.6952   -3.2843 C   0  0  0  0  0  0  0  0  0  0  0  0
   -0.3946    2.8454   -4.3943 C   0  0  0  0  0  0  0  0  0  0  0  0
   -1.2409    1.4029   -0.0349 H   0  0  0  0  0  0  0  0  0  0  0  0
    0.3713   -0.0963   -0.6016 H   0  0  0  0  0  0  0  0  0  0  0  0
    2.5670    1.1199   -1.0564 H   0  0  0  0  0  0  0  0  0  0  0  0
    1.9194    2.5050   -0.1807 H   0  0  0  0  0  0  0  0  0  0  0  0
    1.4074    0.2480   -3.1337 H   0  0  0  0  0  0  0  0  0  0  0  0
    0.3087    3.9675   -1.2582 H   0  0  0  0  0  0  0  0  0  0  0  0
    0.2326    0.9449   -5.1989 H   0  0  0  0  0  0  0  0  0  0  0  0
   -0.8632    4.6624   -3.3302 H   0  0  0  0  0  0  0  0  0  0  0  0
   -0.9054    3.1513   -5.3027 H   0  0  0  0  0  0  0  0  0  0  0  0
    0.9998   -1.1842    1.7123 N   0  0  0  0  0  0  0  0  0  0  0  0
    1.6878   -2.0300    2.7001 C   0  0  2  0  0  0  0  0  0  0  0  0
    2.6409   -3.0554    2.0395 C   0  0  0  0  0  0  0  0  0  0  0  0
    2.5205   -4.2626    2.2171 O   0  0  0  0  0  0  0  0  0  0  0  0
    0.6136   -2.6891    3.5712 C   0  0  0  0  0  0  0  0  0  0  0  0
   -0.0152   -1.2738    1.6244 H   0  0  0  0  0  0  0  0  0  0  0  0
    2.3009   -1.3991    3.3528 H   0  0  0  0  0  0  0  0  0  0  0  0
   -0.0515   -3.3074    2.9600 H   0  0  0  0  0  0  0  0  0  0  0  0
    1.0774   -3.3244    4.3325 H   0  0  0  0  0  0  0  0  0  0  0  0
    0.0203   -1.9241    4.0783 H   0  0  0  0  0  0  0  0  0  0  0  0
    3.6696   -2.5955    1.2422 N   0  0  0  0  0  0  0  0  0  0  0  0
    4.6381   -3.4526    0.5745 C   0  0  0  0  0  0  0  0  0  0  0  0
    3.7236   -1.5796    1.1244 H   0  0  0  0  0  0  0  0  0  0  0  0
    4.1302   -4.1613   -0.0877 H   0  0  0  0  0  0  0  0  0  0  0  0
    5.3240   -2.8481   -0.0267 H   0  0  0  0  0  0  0  0  0  0  0  0
    5.2235   -4.0133    1.3104 H   0  0  0  0  0  0  0  0  0  0  0  0
  1  2  2  0  0  0  0
  1  3  1  0  0  0  0
  1  7  1  0  0  0  0
  3  4  1  0  0  0  0
  3  5  1  0  0  0  0
  3  6  1  0  0  0  0
  7  8  1  0  0  0  0
  7 12  1  0  0  0  0
  8  9  1  0  0  0  0
  8 11  1  0  0  0  0
  8 13  1  0  0  0  0
  9 10  2  0  0  0  0
  9 17  1  0  0  0  0
 11 14  1  0  0  0  0
 11 15  1  0  0  0  0
 11 16  1  0  0  0  0
 17 18  1  0  0  0  0
 17 28  1  0  0  0  0
 18 19  1  0  0  0  0
 18 21  1  0  0  0  0
 18 29  1  0  0  0  0
 19 20  2  0  0  0  0
 19 37  1  0  0  0  0
 21 22  1  0  0  0  0
 21 30  1  0  0  0  0
 21 31  1  0  0  0  0
 22 23  1  0  0  0  0
 22 24  2  0  0  0  0
 23 25  2  0  0  0  0
 23 32  1  0  0  0  0
 24 26  1  0  0  0  0
 24 33  1  0  0  0  0
 25 27  1  0  0  0  0
 25 34  1  0  0  0  0
 26 27  2  0  0  0  0
 26 35  1  0  0  0  0
 27 36  1  0  0  0  0
 37 38  1  0  0  0  0
 37 42  1  0  0  0  0
 38 39  1  0  0  0  0
 38 41  1  0  0  0  0
 38 43  1  0  0  0  0
 39 40  2  0  0  0  0
 39 47  1  0  0  0  0
 41 44  1  0  0  0  0
 41 45  1  0  0  0  0
 41 46  1  0  0  0  0
 47 48  1  0  0  0  0
 47 49  1  0  0  0  0
 48 50  1  0  0  0  0
 48 51  1  0  0  0  0
 48 52  1  0  0  0  0
M  END
$$$$

  -OEChem-05262217163D

 52 52  0     1  0  0  0  0  0999 V2000
   -3.7621    0.4374    3.4260 C   0  0  0  0  0  0  0  0  0  0  0  0
   -4.2540    0.1023    2.3595 O   0  0  0  0  0  0  0  0  0  0  0  0
   -4.1766   -0.2597    4.7079 C   0  0  0  0  0  0  0  0  0  0  0  0
   -4.9286   -1.0249    4.4957 H   0  0  0  0  0  0  0  0  0  0  0  0
   -3.3088   -0.7377    5.1691 H   0  0  0  0  0  0  0  0  0  0  0  0
   -4.6001    0.4655    5.4069 H   0  0  0  0  0  0  0  0  0  0  0  0
   -2.7968    1.4223    3.4654 N   0  0  0  0  0  0  0  0  0  0  0  0
   -2.1262    1.9142    2.2535 C   0  0  2  0  0  0  0  0  0  0  0  0
   -0.8605    1.0943    1.9221 C   0  0  0  0  0  0  0  0  0  0  0  0
   -0.2175    0.5972    2.8364 O   0  0  0  0  0  0  0  0  0  0  0  0
   -1.7693    3.3843    2.4805 C   0  0  0  0  0  0  0  0  0  0  0  0
   -2.2641    1.4711    4.3307 H   0  0  0  0  0  0  0  0  0  0  0  0
   -2.8053    1.8574    1.3961 H   0  0  0  0  0  0  0  0  0  0  0  0
   -1.0775    3.4859    3.3231 H   0  0  0  0  0  0  0  0  0  0  0  0
   -1.2944    3.8047    1.5889 H   0  0  0  0  0  0  0  0  0  0  0  0
   -2.6723    3.9636    2.6976 H   0  0  0  0  0  0  0  0  0  0  0  0
   -0.4854    0.9302    0.5972 N   0  0  0  0  0  0  0  0  0  0  0  0
    0.7637    0.3515    0.0529 C   0  0  2  0  0  0  0  0  0  0  0  0
    1.6542   -0.4647    1.0259 C   0  0  0  0  0  0  0  0  0  0  0  0
    2.6943   -0.0013    1.4857 O   0  0  0  0  0  0  0  0  0  0  0  0
    1.5635    1.5126   -0.5720 C   0  0  0  0  0  0  0  0  0  0  0  0
    0.8502    2.0656   -1.7831 C   0  0  0  0  0  0  0  0  0  0  0  0
    0.9580    1.4226   -3.0252 C   0  0  0  0  0  0  0  0  0  0  0  0
    0.0681    3.2260   -1.6801 C   0  0  0  0  0  0  0  0  0  0  0  0
    0.2837    1.9236   -4.1438 C   0  0  0  0  0  0  0  0  0  0  0  0
   -0.6063    3.7282   -2.7980 C   0  0  0  0  0  0  0  0  0  0  0  0
   -0.5003    3.0757   -4.0302 C   0  0  0  0  0  0  0  0  0  0  0  0
   -1.0874    1.3938   -0.0796 H   0  0  0  0  0  0  0  0  0  0  0  0
    0.4932   -0.3455   -0.7457 H   0  0  0  0  0  0  0  0  0  0  0  0
    2.5526    1.1578   -0.8819 H   0  0  0  0  0  0  0  0  0  0  0  0
    1.7238    2.2981    0.1747 H   0  0  0  0  0  0  0  0  0  0  0  0
    1.5682    0.5296   -3.1258 H   0  0  0  0  0  0  0  0  0  0  0  0
   -0.0125    3.7460   -0.7302 H   0  0  0  0  0  0  0  0  0  0  0  0
    0.3728    1.4192   -5.1017 H   0  0  0  0  0  0  0  0  0  0  0  0
   -1.2079    4.6284   -2.7115 H   0  0  0  0  0  0  0  0  0  0  0  0
   -1.0214    3.4665   -4.8996 H   0  0  0  0  0  0  0  0  0  0  0  0
    1.4395   -1.8258    1.1506 N   0  0  0  0  0  0  0  0  0  0  0  0
    2.2054   -2.6927    2.0595 C   0  0  2  0  0  0  0  0  0  0  0  0
    3.5452   -3.1665    1.4449 C   0  0  0  0  0  0  0  0  0  0  0  0
    3.7988   -4.3547    1.2818 O   0  0  0  0  0  0  0  0  0  0  0  0
    1.2869   -3.8548    2.4577 C   0  0  0  0  0  0  0  0  0  0  0  0
    0.5480   -2.1723    0.8098 H   0  0  0  0  0  0  0  0  0  0  0  0
    2.4502   -2.1358    2.9706 H   0  0  0  0  0  0  0  0  0  0  0  0
    1.0225   -4.4547    1.5809 H   0  0  0  0  0  0  0  0  0  0  0  0
    1.7894   -4.5037    3.1820 H   0  0  0  0  0  0  0  0  0  0  0  0
    0.3680   -3.4757    2.9155 H   0  0  0  0  0  0  0  0  0  0  0  0
    4.4828   -2.2246    1.0713 N   0  0  0  0  0  0  0  0  0  0  0  0
    5.7674   -2.5416    0.4637 C   0  0  0  0  0  0  0  0  0  0  0  0
    4.2097   -1.2462    1.1999 H   0  0  0  0  0  0  0  0  0  0  0  0
    6.3650   -3.1669    1.1351 H   0  0  0  0  0  0  0  0  0  0  0  0
    5.6220   -3.0759   -0.4806 H   0  0  0  0  0  0  0  0  0  0  0  0
    6.3247   -1.6224    0.2595 H   0  0  0  0  0  0  0  0  0  0  0  0
  1  2  2  0  0  0  0
  1  3  1  0  0  0  0
  1  7  1  0  0  0  0
  3  4  1  0  0  0  0
  3  5  1  0  0  0  0
  3  6  1  0  0  0  0
  7  8  1  0  0  0  0
  7 12  1  0  0  0  0
  8  9  1  0  0  0  0
  8 11  1  0  0  0  0
  8 13  1  0  0  0  0
  9 10  2  0  0  0  0
  9 17  1  0  0  0  0
 11 14  1  0  0  0  0
 11 15  1  0  0  0  0
 11 16  1  0  0  0  0
 17 18  1  0  0  0  0
 17 28  1  0  0  0  0
 18 19  1  0  0  0  0
 18 21  1  0  0  0  0
 18 29  1  0  0  0  0
 19 20  2  0  0  0  0
 19 37  1  0  0  0  0
 21 22  1  0  0  0  0
 21 30  1  0  0  0  0
 21 31  1  0  0  0  0
 22 23  1  0  0  0  0
 22 24  2  0  0  0  0
 23 25  2  0  0  0  0
 23 32  1  0  0  0  0
 24 26  1  0  0  0  0
 24 33  1  0  0  0  0
 25 27  1  0  0  0  0
 25 34  1  0  0  0  0
 26 27  2  0  0  0  0
 26 35  1  0  0  0  0
 27 36  1  0  0  0  0
 37 38  1  0  0  0  0
 37 42  1  0  0  0  0
 38 39  1  0  0  0  0
 38 41  1  0  0  0  0
 38 43  1  0  0  0  0
 39 40  2  0  0  0  0
 39 47  1  0  0  0  0
 41 44  1  0  0  0  0
 41 45  1  0  0  0  0
 41 46  1  0  0  0  0
 47 48  1  0  0  0  0
 47 49  1  0  0  0  0
 48 50  1  0  0  0  0
 48 51  1  0  0  0  0
 48 52  1  0  0  0  0
M  END
$$$$

  -OEChem-05262217163D

 52 52  0     1  0  0  0  0  0999 V2000
   -3.9748    0.6734    3.5021 C   0  0  0  0  0  0  0  0  0  0  0  0
   -4.6227    0.5917    2.4703 O   0  0  0  0  0  0  0  0  0  0  0  0
   -4.4562   -0.0292    4.7575 C   0  0  0  0  0  0  0  0  0  0  0  0
   -5.4082   -0.5327    4.5670 H   0  0  0  0  0  0  0  0  0  0  0  0
   -3.7211   -0.7738    5.0730 H   0  0  0  0  0  0  0  0  0  0  0  0
   -4.5970    0.6975    5.5613 H   0  0  0  0  0  0  0  0  0  0  0  0
   -2.7903    1.3803    3.5292 N   0  0  0  0  0  0  0  0  0  0  0  0
   -2.0992    1.8374    2.3147 C   0  0  2  0  0  0  0  0  0  0  0  0
   -0.9028    0.9305    1.9575 C   0  0  0  0  0  0  0  0  0  0  0  0
   -0.3434    0.3042    2.8469 O   0  0  0  0  0  0  0  0  0  0  0  0
   -1.6261    3.2717    2.5576 C   0  0  0  0  0  0  0  0  0  0  0  0
   -2.2023    1.2110    4.3427 H   0  0  0  0  0  0  0  0  0  0  0  0
   -2.7849    1.8425    1.4612 H   0  0  0  0  0  0  0  0  0  0  0  0
   -0.9161    3.3065    3.3904 H   0  0  0  0  0  0  0  0  0  0  0  0
   -1.1338    3.6686    1.6650 H   0  0  0  0  0  0  0  0  0  0  0  0
   -2.4784    3.9151    2.7974 H   0  0  0  0  0  0  0  0  0  0  0  0
   -0.5143    0.8140    0.6319 N   0  0  0  0  0  0  0  0  0  0  0  0
    0.7441    0.2593    0.0861 C   0  0  2  0  0  0  0  0  0  0  0  0
    1.6348   -0.5846    1.0342 C   0  0  0  0  0  0  0  0  0  0  0  0
    2.5356   -0.0619    1.6848 O   0  0  0  0  0  0  0  0  0  0  0  0
    1.5571    1.4375   -0.4863 C   0  0  0  0  0  0  0  0  0  0  0  0
    0.8647    2.0328   -1.6891 C   0  0  0  0  0  0  0  0  0  0  0  0
    0.9893    1.4320   -2.9503 C   0  0  0  0  0  0  0  0  0  0  0  0
    0.0912    3.1965   -1.5601 C   0  0  0  0  0  0  0  0  0  0  0  0
    0.3364    1.9754   -4.0617 C   0  0  0  0  0  0  0  0  0  0  0  0
   -0.5621    3.7409   -2.6706 C   0  0  0  0  0  0  0  0  0  0  0  0
   -0.4426    3.1280   -3.9215 C   0  0  0  0  0  0  0  0  0  0  0  0
   -1.0635    1.3696   -0.0198 H   0  0  0  0  0  0  0  0  0  0  0  0
    0.4812   -0.4068   -0.7403 H   0  0  0  0  0  0  0  0  0  0  0  0
    2.5505    1.0888   -0.7902 H   0  0  0  0  0  0  0  0  0  0  0  0
    1.7073    2.1981    0.2878 H   0  0  0  0  0  0  0  0  0  0  0  0
    1.5945    0.5382   -3.0721 H   0  0  0  0  0  0  0  0  0  0  0  0
    0.0026    3.6877   -0.5958 H   0  0  0  0  0  0  0  0  0  0  0  0
    0.4369    1.5033   -5.0349 H   0  0  0  0  0  0  0  0  0  0  0  0
   -1.1580    4.6429   -2.5634 H   0  0  0  0  0  0  0  0  0  0  0  0
   -0.9479    3.5510   -4.7852 H   0  0  0  0  0  0  0  0  0  0  0  0
    1.6598   -1.9611    0.8931 N   0  0  0  0  0  0  0  0  0  0  0  0
    2.5263   -2.8527    1.6792 C   0  0  2  0  0  0  0  0  0  0  0  0
    3.9572   -2.9491    1.0968 C   0  0  0  0  0  0  0  0  0  0  0  0
    4.4191   -4.0073    0.6852 O   0  0  0  0  0  0  0  0  0  0  0  0
    1.8242   -4.2134    1.7649 C   0  0  0  0  0  0  0  0  0  0  0  0
    0.9150   -2.3815    0.3462 H   0  0  0  0  0  0  0  0  0  0  0  0
    2.6201   -2.4626    2.6988 H   0  0  0  0  0  0  0  0  0  0  0  0
    1.7061   -4.6499    0.7681 H   0  0  0  0  0  0  0  0  0  0  0  0
    2.4119   -4.9047    2.3771 H   0  0  0  0  0  0  0  0  0  0  0  0
    0.8355   -4.1052    2.2211 H   0  0  0  0  0  0  0  0  0  0  0  0
    4.7300   -1.8074    1.0289 N   0  0  0  0  0  0  0  0  0  0  0  0
    6.0754   -1.7600    0.4752 C   0  0  0  0  0  0  0  0  0  0  0  0
    4.2787   -0.9423    1.3405 H   0  0  0  0  0  0  0  0  0  0  0  0
    6.7384   -2.4377    1.0231 H   0  0  0  0  0  0  0  0  0  0  0  0
    6.0655   -2.0511   -0.5803 H   0  0  0  0  0  0  0  0  0  0  0  0
    6.4779   -0.7456    0.5520 H   0  0  0  0  0  0  0  0  0  0  0  0
  1  2  2  0  0  0  0
  1  3  1  0  0  0  0
  1  7  1  0  0  0  0
  3  4  1  0  0  0  0
  3  5  1  0  0  0  0
  3  6  1  0  0  0  0
  7  8  1  0  0  0  0
  7 12  1  0  0  0  0
  8  9  1  0  0  0  0
  8 11  1  0  0  0  0
  8 13  1  0  0  0  0
  9 10  2  0  0  0  0
  9 17  1  0  0  0  0
 11 14  1  0  0  0  0
 11 15  1  0  0  0  0
 11 16  1  0  0  0  0
 17 18  1  0  0  0  0
 17 28  1  0  0  0  0
 18 19  1  0  0  0  0
 18 21  1  0  0  0  0
 18 29  1  0  0  0  0
 19 20  2  0  0  0  0
 19 37  1  0  0  0  0
 21 22  1  0  0  0  0
 21 30  1  0  0  0  0
 21 31  1  0  0  0  0
 22 23  1  0  0  0  0
 22 24  2  0  0  0  0
 23 25  2  0  0  0  0
 23 32  1  0  0  0  0
 24 26  1  0  0  0  0
 24 33  1  0  0  0  0
 25 27  1  0  0  0  0
 25 34  1  0  0  0  0
 26 27  2  0  0  0  0
 26 35  1  0  0  0  0
 27 36  1  0  0  0  0
 37 38  1  0  0  0  0
 37 42  1  0  0  0  0
 38 39  1  0  0  0  0
 38 41  1  0  0  0  0
 38 43  1  0  0  0  0
 39 40  2  0  0  0  0
 39 47  1  0  0  0  0
 41 44  1  0  0  0  0
 41 45  1  0  0  0  0
 41 46  1  0  0  0  0
 47 48  1  0  0  0  0
 47 49  1  0  0  0  0
 48 50  1  0  0  0  0
 48 51  1  0  0  0  0
 48 52  1  0  0  0  0
M  END
$$$$

  -OEChem-05262217163D

 52 52  0     1  0  0  0  0  0999 V2000
   -4.1235    0.8894    3.5498 C   0  0  0  0  0  0  0  0  0  0  0  0
   -4.8239    1.1114    2.5745 O   0  0  0  0  0  0  0  0  0  0  0  0
   -4.7044    0.1696    4.7524 C   0  0  0  0  0  0  0  0  0  0  0  0
   -5.7339   -0.1378    4.5479 H   0  0  0  0  0  0  0  0  0  0  0  0
   -4.1105   -0.7195    4.9788 H   0  0  0  0  0  0  0  0  0  0  0  0
   -4.7002    0.8331    5.6206 H   0  0  0  0  0  0  0  0  0  0  0  0
   -2.7999    1.2779    3.5636 N   0  0  0  0  0  0  0  0  0  0  0  0
   -2.0694    1.7345    2.3724 C   0  0  2  0  0  0  0  0  0  0  0  0
   -0.9523    0.7477    1.9716 C   0  0  0  0  0  0  0  0  0  0  0  0
   -0.4900   -0.0067    2.8164 O   0  0  0  0  0  0  0  0  0  0  0  0
   -1.4777    3.1098    2.6872 C   0  0  0  0  0  0  0  0  0  0  0  0
   -2.2317    0.8774    4.3081 H   0  0  0  0  0  0  0  0  0  0  0  0
   -2.7466    1.8341    1.5180 H   0  0  0  0  0  0  0  0  0  0  0  0
   -0.7778    3.0436    3.5268 H   0  0  0  0  0  0  0  0  0  0  0  0
   -0.9421    3.5053    1.8195 H   0  0  0  0  0  0  0  0  0  0  0  0
   -2.2747    3.8121    2.9513 H   0  0  0  0  0  0  0  0  0  0  0  0
   -0.5524    0.6770    0.6462 N   0  0  0  0  0  0  0  0  0  0  0  0
    0.7202    0.1507    0.1042 C   0  0  2  0  0  0  0  0  0  0  0  0
    1.6209   -0.7115    1.0266 C   0  0  0  0  0  0  0  0  0  0  0  0
    2.3671   -0.1766    1.8422 O   0  0  0  0  0  0  0  0  0  0  0  0
    1.5343    1.3525   -0.4139 C   0  0  0  0  0  0  0  0  0  0  0  0
    0.8618    1.9853   -1.6087 C   0  0  0  0  0  0  0  0  0  0  0  0
    1.0149    1.4283   -2.8871 C   0  0  0  0  0  0  0  0  0  0  0  0
    0.0784    3.1396   -1.4565 C   0  0  0  0  0  0  0  0  0  0  0  0
    0.3816    2.0056   -3.9930 C   0  0  0  0  0  0  0  0  0  0  0  0
   -0.5560    3.7171   -2.5612 C   0  0  0  0  0  0  0  0  0  0  0  0
   -0.4067    3.1486   -3.8297 C   0  0  0  0  0  0  0  0  0  0  0  0
   -1.0508    1.3117    0.0267 H   0  0  0  0  0  0  0  0  0  0  0  0
    0.4699   -0.4890   -0.7466 H   0  0  0  0  0  0  0  0  0  0  0  0
    2.5363    1.0210   -0.7081 H   0  0  0  0  0  0  0  0  0  0  0  0
    1.6632    2.0877    0.3878 H   0  0  0  0  0  0  0  0  0  0  0  0
    1.6284    0.5432   -3.0277 H   0  0  0  0  0  0  0  0  0  0  0  0
   -0.0337    3.5997   -0.4795 H   0  0  0  0  0  0  0  0  0  0  0  0
    0.5045    1.5680   -4.9798 H   0  0  0  0  0  0  0  0  0  0  0  0
   -1.1602    4.6112   -2.4358 H   0  0  0  0  0  0  0  0  0  0  0  0
   -0.8974    3.5978   -4.6886 H   0  0  0  0  0  0  0  0  0  0  0  0
    1.9175   -2.0140    0.6614 N   0  0  0  0  0  0  0  0  0  0  0  0
    2.9038   -2.8618    1.3492 C   0  0  2  0  0  0  0  0  0  0  0  0
    4.3481   -2.5871    0.8666 C   0  0  0  0  0  0  0  0  0  0  0  0
    5.0027   -3.4339    0.2693 O   0  0  0  0  0  0  0  0  0  0  0  0
    2.4774   -4.3218    1.1539 C   0  0  0  0  0  0  0  0  0  0  0  0
    1.3541   -2.4337   -0.0713 H   0  0  0  0  0  0  0  0  0  0  0  0
    2.8784   -2.6513    2.4241 H   0  0  0  0  0  0  0  0  0  0  0  0
    2.4839   -4.5881    0.0922 H   0  0  0  0  0  0  0  0  0  0  0  0
    3.1656   -4.9902    1.6816 H   0  0  0  0  0  0  0  0  0  0  0  0
    1.4701   -4.4811    1.5508 H   0  0  0  0  0  0  0  0  0  0  0  0
    4.9034   -1.3441    1.0944 N   0  0  0  0  0  0  0  0  0  0  0  0
    6.2232   -0.9417    0.6297 C   0  0  0  0  0  0  0  0  0  0  0  0
    4.2852   -0.6511    1.5262 H   0  0  0  0  0  0  0  0  0  0  0  0
    6.9863   -1.6379    0.9930 H   0  0  0  0  0  0  0  0  0  0  0  0
    6.2547   -0.9236   -0.4644 H   0  0  0  0  0  0  0  0  0  0  0  0
    6.4650    0.0582    1.0019 H   0  0  0  0  0  0  0  0  0  0  0  0
  1  2  2  0  0  0  0
  1  3  1  0  0  0  0
  1  7  1  0  0  0  0
  3  4  1  0  0  0  0
  3  5  1  0  0  0  0
  3  6  1  0  0  0  0
  7  8  1  0  0  0  0
  7 12  1  0  0  0  0
  8  9  1  0  0  0  0
  8 11  1  0  0  0  0
  8 13  1  0  0  0  0
  9 10  2  0  0  0  0
  9 17  1  0  0  0  0
 11 14  1  0  0  0  0
 11 15  1  0  0  0  0
 11 16  1  0  0  0  0
 17 18  1  0  0  0  0
 17 28  1  0  0  0  0
 18 19  1  0  0  0  0
 18 21  1  0  0  0  0
 18 29  1  0  0  0  0
 19 20  2  0  0  0  0
 19 37  1  0  0  0  0
 21 22  1  0  0  0  0
 21 30  1  0  0  0  0
 21 31  1  0  0  0  0
 22 23  1  0  0  0  0
 22 24  2  0  0  0  0
 23 25  2  0  0  0  0
 23 32  1  0  0  0  0
 24 26  1  0  0  0  0
 24 33  1  0  0  0  0
 25 27  1  0  0  0  0
 25 34  1  0  0  0  0
 26 27  2  0  0  0  0
 26 35  1  0  0  0  0
 27 36  1  0  0  0  0
 37 38  1  0  0  0  0
 37 42  1  0  0  0  0
 38 39  1  0  0  0  0
 38 41  1  0  0  0  0
 38 43  1  0  0  0  0
 39 40  2  0  0  0  0
 39 47  1  0  0  0  0
 41 44  1  0  0  0  0
 41 45  1  0  0  0  0
 41 46  1  0  0  0  0
 47 48  1  0  0  0  0
 47 49  1  0  0  0  0
 48 50  1  0  0  0  0
 48 51  1  0  0  0  0
 48 52  1  0  0  0  0
M  END
$$$$

  -OEChem-05262217163D

 52 52  0     1  0  0  0  0  0999 V2000
   -4.1329    0.8789    3.2231 C   0  0  0  0  0  0  0  0  0  0  0  0
   -4.6090    1.0367    2.1094 O   0  0  0  0  0  0  0  0  0  0  0  0
   -4.9072    0.1115    4.2780 C   0  0  0  0  0  0  0  0  0  0  0  0
   -5.8955   -0.1601    3.8972 H   0  0  0  0  0  0  0  0  0  0  0  0
   -4.3693   -0.8021    4.5433 H   0  0  0  0  0  0  0  0  0  0  0  0
   -5.0319    0.7268    5.1723 H   0  0  0  0  0  0  0  0  0  0  0  0
   -2.8759    1.3651    3.5182 N   0  0  0  0  0  0  0  0  0  0  0  0
   -1.9429    1.8341    2.4844 C   0  0  2  0  0  0  0  0  0  0  0  0
   -0.9407    0.7336    2.0797 C   0  0  0  0  0  0  0  0  0  0  0  0
   -0.5594   -0.0662    2.9229 O   0  0  0  0  0  0  0  0  0  0  0  0
   -1.1975    3.0505    3.0366 C   0  0  0  0  0  0  0  0  0  0  0  0
   -2.4553    0.9952    4.3679 H   0  0  0  0  0  0  0  0  0  0  0  0
   -2.4887    2.1475    1.5884 H   0  0  0  0  0  0  0  0  0  0  0  0
   -0.6298    2.7787    3.9328 H   0  0  0  0  0  0  0  0  0  0  0  0
   -0.4999    3.4418    2.2898 H   0  0  0  0  0  0  0  0  0  0  0  0
   -1.9058    3.8429    3.2978 H   0  0  0  0  0  0  0  0  0  0  0  0
   -0.5658    0.6098    0.7521 N   0  0  0  0  0  0  0  0  0  0  0  0
    0.6924    0.0493    0.2137 C   0  0  2  0  0  0  0  0  0  0  0  0
    1.6081   -0.7873    1.1436 C   0  0  0  0  0  0  0  0  0  0  0  0
    2.2385   -0.2377    2.0426 O   0  0  0  0  0  0  0  0  0  0  0  0
    1.5170    1.2295   -0.3382 C   0  0  0  0  0  0  0  0  0  0  0  0
    0.8458    1.8469   -1.5415 C   0  0  0  0  0  0  0  0  0  0  0  0
    0.9830    1.2622   -2.8094 C   0  0  0  0  0  0  0  0  0  0  0  0
    0.0721    3.0099   -1.4057 C   0  0  0  0  0  0  0  0  0  0  0  0
    0.3474    1.8240   -3.9218 C   0  0  0  0  0  0  0  0  0  0  0  0
   -0.5660    3.5706   -2.5170 C   0  0  0  0  0  0  0  0  0  0  0  0
   -0.4297    2.9769   -3.7753 C   0  0  0  0  0  0  0  0  0  0  0  0
   -1.0421    1.2572    0.1286 H   0  0  0  0  0  0  0  0  0  0  0  0
    0.4217   -0.6109   -0.6149 H   0  0  0  0  0  0  0  0  0  0  0  0
    2.5124    0.8791   -0.6328 H   0  0  0  0  0  0  0  0  0  0  0  0
    1.6621    1.9806    0.4462 H   0  0  0  0  0  0  0  0  0  0  0  0
    1.5872    0.3688   -2.9377 H   0  0  0  0  0  0  0  0  0  0  0  0
   -0.0327    3.4870   -0.4359 H   0  0  0  0  0  0  0  0  0  0  0  0
    0.4590    1.3662   -4.9006 H   0  0  0  0  0  0  0  0  0  0  0  0
   -1.1638    4.4707   -2.4053 H   0  0  0  0  0  0  0  0  0  0  0  0
   -0.9235    3.4130   -4.6392 H   0  0  0  0  0  0  0  0  0  0  0  0
    2.1314   -1.9762    0.6625 N   0  0  0  0  0  0  0  0  0  0  0  0
    3.2809   -2.6801    1.2510 C   0  0  2  0  0  0  0  0  0  0  0  0
    4.6255   -2.0683    0.7907 C   0  0  0  0  0  0  0  0  0  0  0  0
    5.4024   -2.6825    0.0690 O   0  0  0  0  0  0  0  0  0  0  0  0
    3.1436   -4.1650    0.8930 C   0  0  0  0  0  0  0  0  0  0  0  0
    1.7126   -2.3659   -0.1760 H   0  0  0  0  0  0  0  0  0  0  0  0
    3.2445   -2.5969    2.3429 H   0  0  0  0  0  0  0  0  0  0  0  0
    3.1643   -4.3043   -0.1926 H   0  0  0  0  0  0  0  0  0  0  0  0
    3.9670   -4.7384    1.3308 H   0  0  0  0  0  0  0  0  0  0  0  0
    2.2012   -4.5642    1.2804 H   0  0  0  0  0  0  0  0  0  0  0  0
    4.9326   -0.7759    1.1654 N   0  0  0  0  0  0  0  0  0  0  0  0
    6.1182   -0.0563    0.7229 C   0  0  0  0  0  0  0  0  0  0  0  0
    4.2056   -0.2792    1.6889 H   0  0  0  0  0  0  0  0  0  0  0  0
    7.0246   -0.6020    1.0049 H   0  0  0  0  0  0  0  0  0  0  0  0
    6.1059    0.0703   -0.3645 H   0  0  0  0  0  0  0  0  0  0  0  0
    6.1532    0.9335    1.1880 H   0  0  0  0  0  0  0  0  0  0  0  0
  1  2  2  0  0  0  0
  1  3  1  0  0  0  0
  1  7  1  0  0  0  0
  3  4  1  0  0  0  0
  3  5  1  0  0  0  0
  3  6  1  0  0  0  0
  7  8  1  0  0  0  0
  7 12  1  0  0  0  0
  8  9  1  0  0  0  0
  8 11  1  0  0  0  0
  8 13  1  0  0  0  0
  9 10  2  0  0  0  0
  9 17  1  0  0  0  0
 11 14  1  0  0  0  0
 11 15  1  0  0  0  0
 11 16  1  0  0  0  0
 17 18  1  0  0  0  0
 17 28  1  0  0  0  0
 18 19  1  0  0  0  0
 18 21  1  0  0  0  0
 18 29  1  0  0  0  0
 19 20  2  0  0  0  0
 19 37  1  0  0  0  0
 21 22  1  0  0  0  0
 21 30  1  0  0  0  0
 21 31  1  0  0  0  0
 22 23  1  0  0  0  0
 22 24  2  0  0  0  0
 23 25  2  0  0  0  0
 23 32  1  0  0  0  0
 24 26  1  0  0  0  0
 24 33  1  0  0  0  0
 25 27  1  0  0  0  0
 25 34  1  0  0  0  0
 26 27  2  0  0  0  0
 26 35  1  0  0  0  0
 27 36  1  0  0  0  0
 37 38  1  0  0  0  0
 37 42  1  0  0  0  0
 38 39  1  0  0  0  0
 38 41  1  0  0  0  0
 38 43  1  0  0  0  0
 39 40  2  0  0  0  0
 39 47  1  0  0  0  0
 41 44  1  0  0  0  0
 41 45  1  0  0  0  0
 41 46  1  0  0  0  0
 47 48  1  0  0  0  0
 47 49  1  0  0  0  0
 48 50  1  0  0  0  0
 48 51  1  0  0  0  0
 48 52  1  0  0  0  0
M  END
$$$$

  -OEChem-05262217163D

 52 52  0     1  0  0  0  0  0999 V2000
   -2.0171   -0.3372    2.4470 C   0  0  0  0  0  0  0  0  0  0  0  0
   -2.4829   -0.1766    1.3270 O   0  0  0  0  0  0  0  0  0  0  0  0
   -1.6827   -1.7317    2.9400 C   0  0  0  0  0  0  0  0  0  0  0  0
   -1.9746   -2.4769    2.1950 H   0  0  0  0  0  0  0  0  0  0  0  0
   -0.6082   -1.8144    3.1207 H   0  0  0  0  0  0  0  0  0  0  0  0
   -2.2174   -1.9362    3.8707 H   0  0  0  0  0  0  0  0  0  0  0  0
   -1.7034    0.7570    3.2255 N   0  0  0  0  0  0  0  0  0  0  0  0
   -1.7452    2.1342    2.7162 C   0  0  2  0  0  0  0  0  0  0  0  0
   -0.5373    2.4088    1.7922 C   0  0  0  0  0  0  0  0  0  0  0  0
    0.4082    3.1035    2.1427 O   0  0  0  0  0  0  0  0  0  0  0  0
   -1.7971    3.0742    3.9261 C   0  0  0  0  0  0  0  0  0  0  0  0
   -1.0814    0.5739    4.0097 H   0  0  0  0  0  0  0  0  0  0  0  0
   -2.6577    2.2907    2.1315 H   0  0  0  0  0  0  0  0  0  0  0  0
   -0.9088    2.9456    4.5535 H   0  0  0  0  0  0  0  0  0  0  0  0
   -1.8378    4.1164    3.5945 H   0  0  0  0  0  0  0  0  0  0  0  0
   -2.6858    2.8686    4.5304 H   0  0  0  0  0  0  0  0  0  0  0  0
   -0.5214    1.9012    0.5080 N   0  0  0  0  0  0  0  0  0  0  0  0
    0.4612    0.8874    0.0609 C   0  0  2  0  0  0  0  0  0  0  0  0
    1.2961    0.0789    1.0949 C   0  0  0  0  0  0  0  0  0  0  0  0
    1.4258    0.3645    2.2792 O   0  0  0  0  0  0  0  0  0  0  0  0
    1.4465    1.5919   -0.8891 C   0  0  0  0  0  0  0  0  0  0  0  0
    0.7647    2.0227   -2.1665 C   0  0  0  0  0  0  0  0  0  0  0  0
    0.5504    1.1045   -3.2060 C   0  0  0  0  0  0  0  0  0  0  0  0
    0.3160    3.3426   -2.3197 C   0  0  0  0  0  0  0  0  0  0  0  0
   -0.0964    1.5019   -4.3815 C   0  0  0  0  0  0  0  0  0  0  0  0
   -0.3325    3.7410   -3.4937 C   0  0  0  0  0  0  0  0  0  0  0  0
   -0.5380    2.8206   -4.5260 C   0  0  0  0  0  0  0  0  0  0  0  0
   -1.4655    1.6166    0.2485 H   0  0  0  0  0  0  0  0  0  0  0  0
   -0.1015    0.1402   -0.5066 H   0  0  0  0  0  0  0  0  0  0  0  0
    2.2712    0.9187   -1.1452 H   0  0  0  0  0  0  0  0  0  0  0  0
    1.8859    2.4582   -0.3818 H   0  0  0  0  0  0  0  0  0  0  0  0
    0.8895    0.0782   -3.1084 H   0  0  0  0  0  0  0  0  0  0  0  0
    0.4643    4.0599   -1.5166 H   0  0  0  0  0  0  0  0  0  0  0  0
   -0.2548    0.7871   -5.1837 H   0  0  0  0  0  0  0  0  0  0  0  0
   -0.6778    4.7653   -3.6004 H   0  0  0  0  0  0  0  0  0  0  0  0
   -1.0403    3.1301   -5.4380 H   0  0  0  0  0  0  0  0  0  0  0  0
    1.6887   -1.2017    0.7422 N   0  0  0  0  0  0  0  0  0  0  0  0
    2.3650   -2.1475    1.6450 C   0  0  2  0  0  0  0  0  0  0  0  0
    3.8536   -1.7885    1.8768 C   0  0  0  0  0  0  0  0  0  0  0  0
    4.7557   -2.5468    1.5430 O   0  0  0  0  0  0  0  0  0  0  0  0
    2.1718   -3.5511    1.0576 C   0  0  0  0  0  0  0  0  0  0  0  0
    1.6036   -1.4585   -0.2371 H   0  0  0  0  0  0  0  0  0  0  0  0
    1.8790   -2.1305    2.6258 H   0  0  0  0  0  0  0  0  0  0  0  0
    2.6551   -3.6297    0.0784 H   0  0  0  0  0  0  0  0  0  0  0  0
    2.6122   -4.3028    1.7207 H   0  0  0  0  0  0  0  0  0  0  0  0
    1.1066   -3.7741    0.9429 H   0  0  0  0  0  0  0  0  0  0  0  0
    4.1710   -0.5865    2.4779 N   0  0  0  0  0  0  0  0  0  0  0  0
    5.5322   -0.1319    2.7254 C   0  0  0  0  0  0  0  0  0  0  0  0
    3.3869    0.0385    2.6856 H   0  0  0  0  0  0  0  0  0  0  0  0
    6.0667   -0.8501    3.3559 H   0  0  0  0  0  0  0  0  0  0  0  0
    6.0756   -0.0173    1.7819 H   0  0  0  0  0  0  0  0  0  0  0  0
    5.5195    0.8348    3.2383 H   0  0  0  0  0  0  0  0  0  0  0  0
  1  2  2  0  0  0  0
  1  3  1  0  0  0  0
  1  7  1  0  0  0  0
  3  4  1  0  0  0  0
  3  5  1  0  0  0  0
  3  6  1  0  0  0  0
  7  8  1  0  0  0  0
  7 12  1  0  0  0  0
  8  9  1  0  0  0  0
  8 11  1  0  0  0  0
  8 13  1  0  0  0  0
  9 10  2  0  0  0  0
  9 17  1  0  0  0  0
 11 14  1  0  0  0  0
 11 15  1  0  0  0  0
 11 16  1  0  0  0  0
 17 18  1  0  0  0  0
 17 28  1  0  0  0  0
 18 19  1  0  0  0  0
 18 21  1  0  0  0  0
 18 29  1  0  0  0  0
 19 20  2  0  0  0  0
 19 37  1  0  0  0  0
 21 22  1  0  0  0  0
 21 30  1  0  0  0  0
 21 31  1  0  0  0  0
 22 23  1  0  0  0  0
 22 24  2  0  0  0  0
 23 25  2  0  0  0  0
 23 32  1  0  0  0  0
 24 26  1  0  0  0  0
 24 33  1  0  0  0  0
 25 27  1  0  0  0  0
 25 34  1  0  0  0  0
 26 27  2  0  0  0  0
 26 35  1  0  0  0  0
 27 36  1  0  0  0  0
 37 38  1  0  0  0  0
 37 42  1  0  0  0  0
 38 39  1  0  0  0  0
 38 41  1  0  0  0  0
 38 43  1  0  0  0  0
 39 40  2  0  0  0  0
 39 47  1  0  0  0  0
 41 44  1  0  0  0  0
 41 45  1  0  0  0  0
 41 46  1  0  0  0  0
 47 48  1  0  0  0  0
 47 49  1  0  0  0  0
 48 50  1  0  0  0  0
 48 51  1  0  0  0  0
 48 52  1  0  0  0  0
M  END
$$$$

  -OEChem-05262217163D

 52 52  0     1  0  0  0  0  0999 V2000
   -2.9644    0.1078    4.3228 C   0  0  0  0  0  0  0  0  0  0  0  0
   -3.9096   -0.3630    3.7090 O   0  0  0  0  0  0  0  0  0  0  0  0
   -2.7263   -0.2786    5.7701 C   0  0  0  0  0  0  0  0  0  0  0  0
   -3.4905   -0.9866    6.1026 H   0  0  0  0  0  0  0  0  0  0  0  0
   -1.7441   -0.7462    5.8738 H   0  0  0  0  0  0  0  0  0  0  0  0
   -2.7682    0.6096    6.4051 H   0  0  0  0  0  0  0  0  0  0  0  0
   -2.1050    0.9879    3.7017 N   0  0  0  0  0  0  0  0  0  0  0  0
   -2.1071    1.2627    2.2603 C   0  0  2  0  0  0  0  0  0  0  0  0
   -0.6674    1.3803    1.7236 C   0  0  0  0  0  0  0  0  0  0  0  0
    0.2255    1.7840    2.4610 O   0  0  0  0  0  0  0  0  0  0  0  0
   -2.8886    2.5566    2.0189 C   0  0  0  0  0  0  0  0  0  0  0  0
   -1.2567    1.2411    4.2082 H   0  0  0  0  0  0  0  0  0  0  0  0
   -2.5907    0.4411    1.7213 H   0  0  0  0  0  0  0  0  0  0  0  0
   -2.4146    3.3927    2.5433 H   0  0  0  0  0  0  0  0  0  0  0  0
   -2.9258    2.7908    0.9509 H   0  0  0  0  0  0  0  0  0  0  0  0
   -3.9146    2.4514    2.3857 H   0  0  0  0  0  0  0  0  0  0  0  0
   -0.4076    1.2497    0.3710 N   0  0  0  0  0  0  0  0  0  0  0  0
    0.7773    0.5800   -0.2183 C   0  0  2  0  0  0  0  0  0  0  0  0
    1.6729   -0.3558    0.6445 C   0  0  0  0  0  0  0  0  0  0  0  0
    1.4047   -0.6853    1.7924 O   0  0  0  0  0  0  0  0  0  0  0  0
    1.6628    1.6973   -0.8038 C   0  0  0  0  0  0  0  0  0  0  0  0
    0.9822    2.3636   -1.9766 C   0  0  0  0  0  0  0  0  0  0  0  0
    1.0150    1.7778   -3.2516 C   0  0  0  0  0  0  0  0  0  0  0  0
    0.2928    3.5722   -1.7989 C   0  0  0  0  0  0  0  0  0  0  0  0
    0.3640    2.3884   -4.3294 C   0  0  0  0  0  0  0  0  0  0  0  0
   -0.3586    4.1836   -2.8752 C   0  0  0  0  0  0  0  0  0  0  0  0
   -0.3243    3.5909   -4.1410 C   0  0  0  0  0  0  0  0  0  0  0  0
   -1.2530    1.1627   -0.1853 H   0  0  0  0  0  0  0  0  0  0  0  0
    0.4172   -0.0517   -1.0357 H   0  0  0  0  0  0  0  0  0  0  0  0
    2.6207    1.2907   -1.1437 H   0  0  0  0  0  0  0  0  0  0  0  0
    1.8872    2.4334   -0.0233 H   0  0  0  0  0  0  0  0  0  0  0  0
    1.5469    0.8454   -3.4131 H   0  0  0  0  0  0  0  0  0  0  0  0
    0.2594    4.0371   -0.8173 H   0  0  0  0  0  0  0  0  0  0  0  0
    0.3938    1.9303   -5.3140 H   0  0  0  0  0  0  0  0  0  0  0  0
   -0.8897    5.1195   -2.7268 H   0  0  0  0  0  0  0  0  0  0  0  0
   -0.8290    4.0662   -4.9773 H   0  0  0  0  0  0  0  0  0  0  0  0
    2.5660   -1.1888   -0.0114 N   0  0  0  0  0  0  0  0  0  0  0  0
    3.3359   -2.2609    0.6432 C   0  0  2  0  0  0  0  0  0  0  0  0
    4.4834   -1.7114    1.5267 C   0  0  0  0  0  0  0  0  0  0  0  0
    5.6589   -1.9413    1.2687 O   0  0  0  0  0  0  0  0  0  0  0  0
    3.8320   -3.2053   -0.4589 C   0  0  0  0  0  0  0  0  0  0  0  0
    2.8196   -0.9375   -0.9619 H   0  0  0  0  0  0  0  0  0  0  0  0
    2.6761   -2.8383    1.2997 H   0  0  0  0  0  0  0  0  0  0  0  0
    4.5041   -2.6796   -1.1449 H   0  0  0  0  0  0  0  0  0  0  0  0
    4.3770   -4.0464   -0.0184 H   0  0  0  0  0  0  0  0  0  0  0  0
    2.9875   -3.6035   -1.0294 H   0  0  0  0  0  0  0  0  0  0  0  0
    4.1759   -0.9274    2.6211 N   0  0  0  0  0  0  0  0  0  0  0  0
    5.1691   -0.3097    3.4884 C   0  0  0  0  0  0  0  0  0  0  0  0
    3.1852   -0.7022    2.7518 H   0  0  0  0  0  0  0  0  0  0  0  0
    5.7951   -1.0754    3.9581 H   0  0  0  0  0  0  0  0  0  0  0  0
    5.8099    0.3685    2.9158 H   0  0  0  0  0  0  0  0  0  0  0  0
    4.6747    0.2647    4.2777 H   0  0  0  0  0  0  0  0  0  0  0  0
  1  2  2  0  0  0  0
  1  3  1  0  0  0  0
  1  7  1  0  0  0  0
  3  4  1  0  0  0  0
  3  5  1  0  0  0  0
  3  6  1  0  0  0  0
  7  8  1  0  0  0  0
  7 12  1  0  0  0  0
  8  9  1  0  0  0  0
  8 11  1  0  0  0  0
  8 13  1  0  0  0  0
  9 10  2  0  0  0  0
  9 17  1  0  0  0  0
 11 14  1  0  0  0  0
 11 15  1  0  0  0  0
 11 16  1  0  0  0  0
 17 18  1  0  0  0  0
 17 28  1  0  0  0  0
 18 19  1  0  0  0  0
 18 21  1  0  0  0  0
 18 29  1  0  0  0  0
 19 20  2  0  0  0  0
 19 37  1  0  0  0  0
 21 22  1  0  0  0  0
 21 30  1  0  0  0  0
 21 31  1  0  0  0  0
 22 23  1  0  0  0  0
 22 24  2  0  0  0  0
 23 25  2  0  0  0  0
 23 32  1  0  0  0  0
 24 26  1  0  0  0  0
 24 33  1  0  0  0  0
 25 27  1  0  0  0  0
 25 34  1  0  0  0  0
 26 27  2  0  0  0  0
 26 35  1  0  0  0  0
 27 36  1  0  0  0  0
 37 38  1  0  0  0  0
 37 42  1  0  0  0  0
 38 39  1  0  0  0  0
 38 41  1  0  0  0  0
 38 43  1  0  0  0  0
 39 40  2  0  0  0  0
 39 47  1  0  0  0  0
 41 44  1  0  0  0  0
 41 45  1  0  0  0  0
 41 46  1  0  0  0  0
 47 48  1  0  0  0  0
 47 49  1  0  0  0  0
 48 50  1  0  0  0  0
 48 51  1  0  0  0  0
 48 52  1  0  0  0  0
M  END
$$$$

  -OEChem-05262217163D

 52 52  0     1  0  0  0  0  0999 V2000
   -3.0517    0.2629    4.3830 C   0  0  0  0  0  0  0  0  0  0  0  0
   -4.1049    0.0368    3.8080 O   0  0  0  0  0  0  0  0  0  0  0  0
   -2.8711   -0.1459    5.8329 C   0  0  0  0  0  0  0  0  0  0  0  0
   -3.7886   -0.6042    6.2123 H   0  0  0  0  0  0  0  0  0  0  0  0
   -2.0557   -0.8683    5.9184 H   0  0  0  0  0  0  0  0  0  0  0  0
   -2.6376    0.7310    6.4414 H   0  0  0  0  0  0  0  0  0  0  0  0
   -2.0209    0.8867    3.7137 N   0  0  0  0  0  0  0  0  0  0  0  0
   -2.0162    1.1545    2.2703 C   0  0  2  0  0  0  0  0  0  0  0  0
   -0.5886    1.0782    1.6924 C   0  0  0  0  0  0  0  0  0  0  0  0
    0.3800    1.1870    2.4398 O   0  0  0  0  0  0  0  0  0  0  0  0
   -2.6227    2.5407    2.0296 C   0  0  0  0  0  0  0  0  0  0  0  0
   -1.1198    0.9379    4.1883 H   0  0  0  0  0  0  0  0  0  0  0  0
   -2.6186    0.3993    1.7537 H   0  0  0  0  0  0  0  0  0  0  0  0
   -2.0244    3.3107    2.5269 H   0  0  0  0  0  0  0  0  0  0  0  0
   -2.6598    2.7651    0.9594 H   0  0  0  0  0  0  0  0  0  0  0  0
   -3.6425    2.5817    2.4256 H   0  0  0  0  0  0  0  0  0  0  0  0
   -0.3872    1.0433    0.3217 N   0  0  0  0  0  0  0  0  0  0  0  0
    0.8065    0.4652   -0.3379 C   0  0  2  0  0  0  0  0  0  0  0  0
    1.5122   -0.7194    0.3790 C   0  0  0  0  0  0  0  0  0  0  0  0
    0.9269   -1.4002    1.2144 O   0  0  0  0  0  0  0  0  0  0  0  0
    1.8056    1.6204   -0.5616 C   0  0  0  0  0  0  0  0  0  0  0  0
    1.2656    2.6072   -1.5695 C   0  0  0  0  0  0  0  0  0  0  0  0
    1.3705    2.3518   -2.9455 C   0  0  0  0  0  0  0  0  0  0  0  0
    0.6362    3.7851   -1.1401 C   0  0  0  0  0  0  0  0  0  0  0  0
    0.8486    3.2566   -3.8764 C   0  0  0  0  0  0  0  0  0  0  0  0
    0.1149    4.6909   -2.0699 C   0  0  0  0  0  0  0  0  0  0  0  0
    0.2194    4.4257   -3.4387 C   0  0  0  0  0  0  0  0  0  0  0  0
   -1.2436    1.0324   -0.2244 H   0  0  0  0  0  0  0  0  0  0  0  0
    0.4993    0.0727   -1.3117 H   0  0  0  0  0  0  0  0  0  0  0  0
    2.7607    1.2388   -0.9332 H   0  0  0  0  0  0  0  0  0  0  0  0
    2.0110    2.1218    0.3907 H   0  0  0  0  0  0  0  0  0  0  0  0
    1.8577    1.4485   -3.2995 H   0  0  0  0  0  0  0  0  0  0  0  0
    0.5474    3.9955   -0.0778 H   0  0  0  0  0  0  0  0  0  0  0  0
    0.9326    3.0524   -4.9398 H   0  0  0  0  0  0  0  0  0  0  0  0
   -0.3711    5.6002   -1.7280 H   0  0  0  0  0  0  0  0  0  0  0  0
   -0.1861    5.1286   -4.1608 H   0  0  0  0  0  0  0  0  0  0  0  0
    2.6367   -1.2975   -0.1878 N   0  0  0  0  0  0  0  0  0  0  0  0
    3.2877   -2.5133    0.3303 C   0  0  2  0  0  0  0  0  0  0  0  0
    4.0524   -2.2588    1.6543 C   0  0  0  0  0  0  0  0  0  0  0  0
    5.2598   -2.4468    1.7444 O   0  0  0  0  0  0  0  0  0  0  0  0
    4.1904   -3.0563   -0.7850 C   0  0  0  0  0  0  0  0  0  0  0  0
    3.1475   -0.7407   -0.8657 H   0  0  0  0  0  0  0  0  0  0  0  0
    2.5286   -3.2746    0.5406 H   0  0  0  0  0  0  0  0  0  0  0  0
    4.9775   -2.3361   -1.0299 H   0  0  0  0  0  0  0  0  0  0  0  0
    4.6640   -3.9906   -0.4670 H   0  0  0  0  0  0  0  0  0  0  0  0
    3.6043   -3.2575   -1.6867 H   0  0  0  0  0  0  0  0  0  0  0  0
    3.3627   -1.7867    2.7538 N   0  0  0  0  0  0  0  0  0  0  0  0
    3.9842   -1.4435    4.0246 C   0  0  0  0  0  0  0  0  0  0  0  0
    2.3679   -1.5880    2.6131 H   0  0  0  0  0  0  0  0  0  0  0  0
    4.4474   -2.3277    4.4744 H   0  0  0  0  0  0  0  0  0  0  0  0
    4.7512   -0.6753    3.8818 H   0  0  0  0  0  0  0  0  0  0  0  0
    3.2316   -1.0557    4.7179 H   0  0  0  0  0  0  0  0  0  0  0  0
  1  2  2  0  0  0  0
  1  3  1  0  0  0  0
  1  7  1  0  0  0  0
  3  4  1  0  0  0  0
  3  5  1  0  0  0  0
  3  6  1  0  0  0  0
  7  8  1  0  0  0  0
  7 12  1  0  0  0  0
  8  9  1  0  0  0  0
  8 11  1  0  0  0  0
  8 13  1  0  0  0  0
  9 10  2  0  0  0  0
  9 17  1  0  0  0  0
 11 14  1  0  0  0  0
 11 15  1  0  0  0  0
 11 16  1  0  0  0  0
 17 18  1  0  0  0  0
 17 28  1  0  0  0  0
 18 19  1  0  0  0  0
 18 21  1  0  0  0  0
 18 29  1  0  0  0  0
 19 20  2  0  0  0  0
 19 37  1  0  0  0  0
 21 22  1  0  0  0  0
 21 30  1  0  0  0  0
 21 31  1  0  0  0  0
 22 23  1  0  0  0  0
 22 24  2  0  0  0  0
 23 25  2  0  0  0  0
 23 32  1  0  0  0  0
 24 26  1  0  0  0  0
 24 33  1  0  0  0  0
 25 27  1  0  0  0  0
 25 34  1  0  0  0  0
 26 27  2  0  0  0  0
 26 35  1  0  0  0  0
 27 36  1  0  0  0  0
 37 38  1  0  0  0  0
 37 42  1  0  0  0  0
 38 39  1  0  0  0  0
 38 41  1  0  0  0  0
 38 43  1  0  0  0  0
 39 40  2  0  0  0  0
 39 47  1  0  0  0  0
 41 44  1  0  0  0  0
 41 45  1  0  0  0  0
 41 46  1  0  0  0  0
 47 48  1  0  0  0  0
 47 49  1  0  0  0  0
 48 50  1  0  0  0  0
 48 51  1  0  0  0  0
 48 52  1  0  0  0  0
M  END
$$$$

  -OEChem-05262217163D

 52 52  0     1  0  0  0  0  0999 V2000
   -3.0596    0.2324    4.3627 C   0  0  0  0  0  0  0  0  0  0  0  0
   -4.1229    0.0700    3.7847 O   0  0  0  0  0  0  0  0  0  0  0  0
   -2.9060   -0.1945    5.8104 C   0  0  0  0  0  0  0  0  0  0  0  0
   -3.8421   -0.6243    6.1778 H   0  0  0  0  0  0  0  0  0  0  0  0
   -2.1166   -0.9454    5.8958 H   0  0  0  0  0  0  0  0  0  0  0  0
   -2.6481    0.6686    6.4288 H   0  0  0  0  0  0  0  0  0  0  0  0
   -1.9926    0.7981    3.6979 N   0  0  0  0  0  0  0  0  0  0  0  0
   -1.9739    1.0826    2.2576 C   0  0  2  0  0  0  0  0  0  0  0  0
   -0.5497    0.9699    1.6764 C   0  0  0  0  0  0  0  0  0  0  0  0
    0.4215    0.9952    2.4285 O   0  0  0  0  0  0  0  0  0  0  0  0
   -2.5370    2.4896    2.0313 C   0  0  0  0  0  0  0  0  0  0  0  0
   -1.0927    0.8056    4.1770 H   0  0  0  0  0  0  0  0  0  0  0  0
   -2.5982    0.3519    1.7320 H   0  0  0  0  0  0  0  0  0  0  0  0
   -1.9203    3.2345    2.5444 H   0  0  0  0  0  0  0  0  0  0  0  0
   -2.5586    2.7296    0.9640 H   0  0  0  0  0  0  0  0  0  0  0  0
   -3.5587    2.5558    2.4188 H   0  0  0  0  0  0  0  0  0  0  0  0
   -0.3549    0.9778    0.3036 N   0  0  0  0  0  0  0  0  0  0  0  0
    0.8477    0.4528   -0.3829 C   0  0  2  0  0  0  0  0  0  0  0  0
    1.5695   -0.7301    0.3202 C   0  0  0  0  0  0  0  0  0  0  0  0
    0.9286   -1.5375    0.9853 O   0  0  0  0  0  0  0  0  0  0  0  0
    1.8039    1.6469   -0.5929 C   0  0  0  0  0  0  0  0  0  0  0  0
    1.2194    2.6377   -1.5715 C   0  0  0  0  0  0  0  0  0  0  0  0
    1.3164    2.4169   -2.9541 C   0  0  0  0  0  0  0  0  0  0  0  0
    0.5613    3.7867   -1.1086 C   0  0  0  0  0  0  0  0  0  0  0  0
    0.7624    3.3293   -3.8587 C   0  0  0  0  0  0  0  0  0  0  0  0
    0.0066    4.6995   -2.0121 C   0  0  0  0  0  0  0  0  0  0  0  0
    0.1069    4.4707   -3.3878 C   0  0  0  0  0  0  0  0  0  0  0  0
   -1.2097    1.0028   -0.2452 H   0  0  0  0  0  0  0  0  0  0  0  0
    0.5472    0.0678   -1.3616 H   0  0  0  0  0  0  0  0  0  0  0  0
    2.7640    1.3088   -0.9913 H   0  0  0  0  0  0  0  0  0  0  0  0
    2.0064    2.1325    0.3683 H   0  0  0  0  0  0  0  0  0  0  0  0
    1.8253    1.5362   -3.3341 H   0  0  0  0  0  0  0  0  0  0  0  0
    0.4786    3.9706   -0.0410 H   0  0  0  0  0  0  0  0  0  0  0  0
    0.8430    3.1527   -4.9275 H   0  0  0  0  0  0  0  0  0  0  0  0
   -0.5001    5.5874   -1.6452 H   0  0  0  0  0  0  0  0  0  0  0  0
   -0.3207    5.1803   -4.0902 H   0  0  0  0  0  0  0  0  0  0  0  0
    2.8545   -1.1065   -0.0358 N   0  0  0  0  0  0  0  0  0  0  0  0
    3.5633   -2.2517    0.5601 C   0  0  2  0  0  0  0  0  0  0  0  0
    4.0230   -1.9690    2.0131 C   0  0  0  0  0  0  0  0  0  0  0  0
    5.2059   -2.0073    2.3307 O   0  0  0  0  0  0  0  0  0  0  0  0
    4.7257   -2.6038   -0.3767 C   0  0  0  0  0  0  0  0  0  0  0  0
    3.4084   -0.4221   -0.5410 H   0  0  0  0  0  0  0  0  0  0  0  0
    2.8947   -3.1186    0.5987 H   0  0  0  0  0  0  0  0  0  0  0  0
    5.4300   -1.7688   -0.4491 H   0  0  0  0  0  0  0  0  0  0  0  0
    5.2647   -3.4788    0.0007 H   0  0  0  0  0  0  0  0  0  0  0  0
    4.3511   -2.8358   -1.3782 H   0  0  0  0  0  0  0  0  0  0  0  0
    3.0818   -1.6357    2.9674 N   0  0  0  0  0  0  0  0  0  0  0  0
    3.4064   -1.2429    4.3309 C   0  0  0  0  0  0  0  0  0  0  0  0
    2.1184   -1.5342    2.6354 H   0  0  0  0  0  0  0  0  0  0  0  0
    3.9241   -2.0554    4.8511 H   0  0  0  0  0  0  0  0  0  0  0  0
    4.0486   -0.3563    4.3319 H   0  0  0  0  0  0  0  0  0  0  0  0
    2.4905   -1.0074    4.8813 H   0  0  0  0  0  0  0  0  0  0  0  0
  1  2  2  0  0  0  0
  1  3  1  0  0  0  0
  1  7  1  0  0  0  0
  3  4  1  0  0  0  0
  3  5  1  0  0  0  0
  3  6  1  0  0  0  0
  7  8  1  0  0  0  0
  7 12  1  0  0  0  0
  8  9  1  0  0  0  0
  8 11  1  0  0  0  0
  8 13  1  0  0  0  0
  9 10  2  0  0  0  0
  9 17  1  0  0  0  0
 11 14  1  0  0  0  0
 11 15  1  0  0  0  0
 11 16  1  0  0  0  0
 17 18  1  0  0  0  0
 17 28  1  0  0  0  0
 18 19  1  0  0  0  0
 18 21  1  0  0  0  0
 18 29  1  0  0  0  0
 19 20  2  0  0  0  0
 19 37  1  0  0  0  0
 21 22  1  0  0  0  0
 21 30  1  0  0  0  0
 21 31  1  0  0  0  0
 22 23  1  0  0  0  0
 22 24  2  0  0  0  0
 23 25  2  0  0  0  0
 23 32  1  0  0  0  0
 24 26  1  0  0  0  0
 24 33  1  0  0  0  0
 25 27  1  0  0  0  0
 25 34  1  0  0  0  0
 26 27  2  0  0  0  0
 26 35  1  0  0  0  0
 27 36  1  0  0  0  0
 37 38  1  0  0  0  0
 37 42  1  0  0  0  0
 38 39  1  0  0  0  0
 38 41  1  0  0  0  0
 38 43  1  0  0  0  0
 39 40  2  0  0  0  0
 39 47  1  0  0  0  0
 41 44  1  0  0  0  0
 41 45  1  0  0  0  0
 41 46  1  0  0  0  0
 47 48  1  0  0  0  0
 47 49  1  0  0  0  0
 48 50  1  0  0  0  0
 48 51  1  0  0  0  0
 48 52  1  0  0  0  0
M  END
$$$$

  -OEChem-05262217163D

 52 52  0     1  0  0  0  0  0999 V2000
   -3.0990    0.1663    4.3154 C   0  0  0  0  0  0  0  0  0  0  0  0
   -4.1623    0.0406    3.7288 O   0  0  0  0  0  0  0  0  0  0  0  0
   -2.9816   -0.2264    5.7761 C   0  0  0  0  0  0  0  0  0  0  0  0
   -3.9569   -0.5350    6.1628 H   0  0  0  0  0  0  0  0  0  0  0  0
   -2.2804   -1.0577    5.8842 H   0  0  0  0  0  0  0  0  0  0  0  0
   -2.6236    0.6229    6.3632 H   0  0  0  0  0  0  0  0  0  0  0  0
   -2.0013    0.6702    3.6510 N   0  0  0  0  0  0  0  0  0  0  0  0
   -1.9607    0.9540    2.2107 C   0  0  2  0  0  0  0  0  0  0  0  0
   -0.5332    0.8092    1.6429 C   0  0  0  0  0  0  0  0  0  0  0  0
    0.4260    0.7588    2.4093 O   0  0  0  0  0  0  0  0  0  0  0  0
   -2.4893    2.3744    1.9798 C   0  0  0  0  0  0  0  0  0  0  0  0
   -1.1078    0.6541    4.1411 H   0  0  0  0  0  0  0  0  0  0  0  0
   -2.5970    0.2387    1.6781 H   0  0  0  0  0  0  0  0  0  0  0  0
   -1.8601    3.1053    2.4979 H   0  0  0  0  0  0  0  0  0  0  0  0
   -2.4973    2.6151    0.9125 H   0  0  0  0  0  0  0  0  0  0  0  0
   -3.5124    2.4646    2.3587 H   0  0  0  0  0  0  0  0  0  0  0  0
   -0.3220    0.8714    0.2737 N   0  0  0  0  0  0  0  0  0  0  0  0
    0.9015    0.4209   -0.4271 C   0  0  2  0  0  0  0  0  0  0  0  0
    1.6476   -0.7577    0.2545 C   0  0  0  0  0  0  0  0  0  0  0  0
    1.0006   -1.6755    0.7460 O   0  0  0  0  0  0  0  0  0  0  0  0
    1.8092    1.6581   -0.5932 C   0  0  0  0  0  0  0  0  0  0  0  0
    1.1841    2.6570   -1.5379 C   0  0  0  0  0  0  0  0  0  0  0  0
    1.2883    2.4899   -2.9271 C   0  0  0  0  0  0  0  0  0  0  0  0
    0.4801    3.7610   -1.0342 C   0  0  0  0  0  0  0  0  0  0  0  0
    0.6962    3.4110   -3.7982 C   0  0  0  0  0  0  0  0  0  0  0  0
   -0.1135    4.6818   -1.9038 C   0  0  0  0  0  0  0  0  0  0  0  0
   -0.0058    4.5068   -3.2867 C   0  0  0  0  0  0  0  0  0  0  0  0
   -1.1655    0.9429   -0.2886 H   0  0  0  0  0  0  0  0  0  0  0  0
    0.6230    0.0536   -1.4193 H   0  0  0  0  0  0  0  0  0  0  0  0
    2.7792    1.3706   -1.0077 H   0  0  0  0  0  0  0  0  0  0  0  0
    1.9950    2.1169    0.3845 H   0  0  0  0  0  0  0  0  0  0  0  0
    1.8310    1.6437   -3.3373 H   0  0  0  0  0  0  0  0  0  0  0  0
    0.3916    3.9038    0.0392 H   0  0  0  0  0  0  0  0  0  0  0  0
    0.7825    3.2761   -4.8725 H   0  0  0  0  0  0  0  0  0  0  0  0
   -0.6560    5.5337   -1.5043 H   0  0  0  0  0  0  0  0  0  0  0  0
   -0.4649    5.2226   -3.9628 H   0  0  0  0  0  0  0  0  0  0  0  0
    3.0190   -0.9284    0.1629 N   0  0  0  0  0  0  0  0  0  0  0  0
    3.7454   -2.0041    0.8591 C   0  0  2  0  0  0  0  0  0  0  0  0
    3.9104   -1.7179    2.3740 C   0  0  0  0  0  0  0  0  0  0  0  0
    5.0095   -1.7573    2.9147 O   0  0  0  0  0  0  0  0  0  0  0  0
    5.0858   -2.1877    0.1359 C   0  0  0  0  0  0  0  0  0  0  0  0
    3.5569   -0.1255   -0.1477 H   0  0  0  0  0  0  0  0  0  0  0  0
    3.1892   -2.9436    0.7700 H   0  0  0  0  0  0  0  0  0  0  0  0
    5.6973   -1.2838    0.2213 H   0  0  0  0  0  0  0  0  0  0  0  0
    5.6411   -3.0231    0.5743 H   0  0  0  0  0  0  0  0  0  0  0  0
    4.9221   -2.4029   -0.9243 H   0  0  0  0  0  0  0  0  0  0  0  0
    2.8072   -1.3714    3.1302 N   0  0  0  0  0  0  0  0  0  0  0  0
    2.8715   -0.9620    4.5254 C   0  0  0  0  0  0  0  0  0  0  0  0
    1.9192   -1.2810    2.6296 H   0  0  0  0  0  0  0  0  0  0  0  0
    3.2709   -1.7719    5.1443 H   0  0  0  0  0  0  0  0  0  0  0  0
    3.5118   -0.0809    4.6372 H   0  0  0  0  0  0  0  0  0  0  0  0
    1.8703   -0.7096    4.8877 H   0  0  0  0  0  0  0  0  0  0  0  0
  1  2  2  0  0  0  0
  1  3  1  0  0  0  0
  1  7  1  0  0  0  0
  3  4  1  0  0  0  0
  3  5  1  0  0  0  0
  3  6  1  0  0  0  0
  7  8  1  0  0  0  0
  7 12  1  0  0  0  0
  8  9  1  0  0  0  0
  8 11  1  0  0  0  0
  8 13  1  0  0  0  0
  9 10  2  0  0  0  0
  9 17  1  0  0  0  0
 11 14  1  0  0  0  0
 11 15  1  0  0  0  0
 11 16  1  0  0  0  0
 17 18  1  0  0  0  0
 17 28  1  0  0  0  0
 18 19  1  0  0  0  0
 18 21  1  0  0  0  0
 18 29  1  0  0  0  0
 19 20  2  0  0  0  0
 19 37  1  0  0  0  0
 21 22  1  0  0  0  0
 21 30  1  0  0  0  0
 21 31  1  0  0  0  0
 22 23  1  0  0  0  0
 22 24  2  0  0  0  0
 23 25  2  0  0  0  0
 23 32  1  0  0  0  0
 24 26  1  0  0  0  0
 24 33  1  0  0  0  0
 25 27  1  0  0  0  0
 25 34  1  0  0  0  0
 26 27  2  0  0  0  0
 26 35  1  0  0  0  0
 27 36  1  0  0  0  0
 37 38  1  0  0  0  0
 37 42  1  0  0  0  0
 38 39  1  0  0  0  0
 38 41  1  0  0  0  0
 38 43  1  0  0  0  0
 39 40  2  0  0  0  0
 39 47  1  0  0  0  0
 41 44  1  0  0  0  0
 41 45  1  0  0  0  0
 41 46  1  0  0  0  0
 47 48  1  0  0  0  0
 47 49  1  0  0  0  0
 48 50  1  0  0  0  0
 48 51  1  0  0  0  0
 48 52  1  0  0  0  0
M  END
$$$$

  -OEChem-05262217163D

 52 52  0     1  0  0  0  0  0999 V2000
   -3.0333    0.1145    4.3150 C   0  0  0  0  0  0  0  0  0  0  0  0
   -4.0852   -0.0763    3.7257 O   0  0  0  0  0  0  0  0  0  0  0  0
   -2.8896   -0.2891    5.7704 C   0  0  0  0  0  0  0  0  0  0  0  0
   -3.8254   -0.7219    6.1354 H   0  0  0  0  0  0  0  0  0  0  0  0
   -2.0937   -1.0305    5.8753 H   0  0  0  0  0  0  0  0  0  0  0  0
   -2.6460    0.5858    6.3779 H   0  0  0  0  0  0  0  0  0  0  0  0
   -1.9693    0.6927    3.6563 N   0  0  0  0  0  0  0  0  0  0  0  0
   -1.9398    0.9696    2.2143 C   0  0  2  0  0  0  0  0  0  0  0  0
   -0.5084    0.8646    1.6490 C   0  0  0  0  0  0  0  0  0  0  0  0
    0.4492    0.8397    2.4168 O   0  0  0  0  0  0  0  0  0  0  0  0
   -2.5132    2.3710    1.9771 C   0  0  0  0  0  0  0  0  0  0  0  0
   -1.0761    0.7241    4.1468 H   0  0  0  0  0  0  0  0  0  0  0  0
   -2.5540    0.2328    1.6853 H   0  0  0  0  0  0  0  0  0  0  0  0
   -1.9063    3.1246    2.4892 H   0  0  0  0  0  0  0  0  0  0  0  0
   -2.5317    2.6054    0.9084 H   0  0  0  0  0  0  0  0  0  0  0  0
   -3.5375    2.4308    2.3591 H   0  0  0  0  0  0  0  0  0  0  0  0
   -0.2948    0.9043    0.2802 N   0  0  0  0  0  0  0  0  0  0  0  0
    0.9487    0.4880   -0.4044 C   0  0  2  0  0  0  0  0  0  0  0  0
    1.7309   -0.6422    0.3161 C   0  0  0  0  0  0  0  0  0  0  0  0
    1.1313   -1.6619    0.6384 O   0  0  0  0  0  0  0  0  0  0  0  0
    1.8087    1.7506   -0.6189 C   0  0  0  0  0  0  0  0  0  0  0  0
    1.1486    2.6900   -1.5999 C   0  0  0  0  0  0  0  0  0  0  0  0
    1.2615    2.4724   -2.9815 C   0  0  0  0  0  0  0  0  0  0  0  0
    0.4079    3.7896   -1.1407 C   0  0  0  0  0  0  0  0  0  0  0  0
    0.6421    3.3390   -3.8885 C   0  0  0  0  0  0  0  0  0  0  0  0
   -0.2114    4.6573   -2.0468 C   0  0  0  0  0  0  0  0  0  0  0  0
   -0.0945    4.4317   -3.4217 C   0  0  0  0  0  0  0  0  0  0  0  0
   -1.1360    0.9430   -0.2889 H   0  0  0  0  0  0  0  0  0  0  0  0
    0.6868    0.0764   -1.3839 H   0  0  0  0  0  0  0  0  0  0  0  0
    2.7880    1.4784   -1.0239 H   0  0  0  0  0  0  0  0  0  0  0  0
    1.9768    2.2532    0.3401 H   0  0  0  0  0  0  0  0  0  0  0  0
    1.8318    1.6285   -3.3582 H   0  0  0  0  0  0  0  0  0  0  0  0
    0.3122    3.9717   -0.0741 H   0  0  0  0  0  0  0  0  0  0  0  0
    0.7345    3.1648   -4.9566 H   0  0  0  0  0  0  0  0  0  0  0  0
   -0.7805    5.5080   -1.6828 H   0  0  0  0  0  0  0  0  0  0  0  0
   -0.5726    5.1061   -4.1265 H   0  0  0  0  0  0  0  0  0  0  0  0
    3.1030   -0.6100    0.5018 N   0  0  0  0  0  0  0  0  0  0  0  0
    3.8506   -1.6566    1.2181 C   0  0  2  0  0  0  0  0  0  0  0  0
    3.6844   -1.5527    2.7547 C   0  0  0  0  0  0  0  0  0  0  0  0
    4.6472   -1.3792    3.4933 O   0  0  0  0  0  0  0  0  0  0  0  0
    5.3136   -1.5595    0.7688 C   0  0  0  0  0  0  0  0  0  0  0  0
    3.5504    0.2952    0.3938 H   0  0  0  0  0  0  0  0  0  0  0  0
    3.4781   -2.6433    0.9224 H   0  0  0  0  0  0  0  0  0  0  0  0
    5.7422   -0.5944    1.0574 H   0  0  0  0  0  0  0  0  0  0  0  0
    5.9055   -2.3537    1.2350 H   0  0  0  0  0  0  0  0  0  0  0  0
    5.3874   -1.6666   -0.3174 H   0  0  0  0  0  0  0  0  0  0  0  0
    2.4201   -1.6321    3.3033 N   0  0  0  0  0  0  0  0  0  0  0  0
    2.1322   -1.3468    4.7008 C   0  0  0  0  0  0  0  0  0  0  0  0
    1.6476   -1.6361    2.6323 H   0  0  0  0  0  0  0  0  0  0  0  0
    2.7167   -2.0023    5.3547 H   0  0  0  0  0  0  0  0  0  0  0  0
    2.3750   -0.3049    4.9339 H   0  0  0  0  0  0  0  0  0  0  0  0
    1.0705   -1.5116    4.9065 H   0  0  0  0  0  0  0  0  0  0  0  0
  1  2  2  0  0  0  0
  1  3  1  0  0  0  0
  1  7  1  0  0  0  0
  3  4  1  0  0  0  0
  3  5  1  0  0  0  0
  3  6  1  0  0  0  0
  7  8  1  0  0  0  0
  7 12  1  0  0  0  0
  8  9  1  0  0  0  0
  8 11  1  0  0  0  0
  8 13  1  0  0  0  0
  9 10  2  0  0  0  0
  9 17  1  0  0  0  0
 11 14  1  0  0  0  0
 11 15  1  0  0  0  0
 11 16  1  0  0  0  0
 17 18  1  0  0  0  0
 17 28  1  0  0  0  0
 18 19  1  0  0  0  0
 18 21  1  0  0  0  0
 18 29  1  0  0  0  0
 19 20  2  0  0  0  0
 19 37  1  0  0  0  0
 21 22  1  0  0  0  0
 21 30  1  0  0  0  0
 21 31  1  0  0  0  0
 22 23  1  0  0  0  0
 22 24  2  0  0  0  0
 23 25  2  0  0  0  0
 23 32  1  0  0  0  0
 24 26  1  0  0  0  0
 24 33  1  0  0  0  0
 25 27  1  0  0  0  0
 25 34  1  0  0  0  0
 26 27  2  0  0  0  0
 26 35  1  0  0  0  0
 27 36  1  0  0  0  0
 37 38  1  0  0  0  0
 37 42  1  0  0  0  0
 38 39  1  0  0  0  0
 38 41  1  0  0  0  0
 38 43  1  0  0  0  0
 39 40  2  0  0  0  0
 39 47  1  0  0  0  0
 41 44  1  0  0  0  0
 41 45  1  0  0  0  0
 41 46  1  0  0  0  0
 47 48  1  0  0  0  0
 47 49  1  0  0  0  0
 48 50  1  0  0  0  0
 48 51  1  0  0  0  0
 48 52  1  0  0  0  0
M  END
$$$$

  -OEChem-05262217163D

 52 52  0     1  0  0  0  0  0999 V2000
   -2.9220    0.0113    4.3118 C   0  0  0  0  0  0  0  0  0  0  0  0
   -3.9462   -0.2894    3.7198 O   0  0  0  0  0  0  0  0  0  0  0  0
   -2.7349   -0.3863    5.7636 C   0  0  0  0  0  0  0  0  0  0  0  0
   -3.6228   -0.9106    6.1280 H   0  0  0  0  0  0  0  0  0  0  0  0
   -1.8708   -1.0481    5.8611 H   0  0  0  0  0  0  0  0  0  0  0  0
   -2.5754    0.5040    6.3769 H   0  0  0  0  0  0  0  0  0  0  0  0
   -1.9254    0.7033    3.6580 N   0  0  0  0  0  0  0  0  0  0  0  0
   -1.9171    0.9759    2.2149 C   0  0  2  0  0  0  0  0  0  0  0  0
   -0.4841    0.9336    1.6465 C   0  0  0  0  0  0  0  0  0  0  0  0
    0.4747    0.9692    2.4112 O   0  0  0  0  0  0  0  0  0  0  0  0
   -2.5552    2.3484    1.9798 C   0  0  0  0  0  0  0  0  0  0  0  0
   -1.0402    0.8222    4.1498 H   0  0  0  0  0  0  0  0  0  0  0  0
   -2.4990    0.2115    1.6884 H   0  0  0  0  0  0  0  0  0  0  0  0
   -1.9837    3.1287    2.4924 H   0  0  0  0  0  0  0  0  0  0  0  0
   -2.5852    2.5827    0.9115 H   0  0  0  0  0  0  0  0  0  0  0  0
   -3.5810    2.3594    2.3626 H   0  0  0  0  0  0  0  0  0  0  0  0
   -0.2688    0.9484    0.2781 N   0  0  0  0  0  0  0  0  0  0  0  0
    0.9904    0.5473   -0.3863 C   0  0  2  0  0  0  0  0  0  0  0  0
    1.7908   -0.5434    0.3700 C   0  0  0  0  0  0  0  0  0  0  0  0
    1.2737   -1.6446    0.5206 O   0  0  0  0  0  0  0  0  0  0  0  0
    1.8262    1.8193   -0.6329 C   0  0  0  0  0  0  0  0  0  0  0  0
    1.1488    2.7101   -1.6468 C   0  0  0  0  0  0  0  0  0  0  0  0
    1.2750    2.4486   -3.0197 C   0  0  0  0  0  0  0  0  0  0  0  0
    0.3675    3.7977   -1.2276 C   0  0  0  0  0  0  0  0  0  0  0  0
    0.6256    3.2579   -3.9582 C   0  0  0  0  0  0  0  0  0  0  0  0
   -0.2818    4.6079   -2.1651 C   0  0  0  0  0  0  0  0  0  0  0  0
   -0.1544    4.3367   -3.5308 C   0  0  0  0  0  0  0  0  0  0  0  0
   -1.1088    0.9336   -0.2942 H   0  0  0  0  0  0  0  0  0  0  0  0
    0.7455    0.1027   -1.3557 H   0  0  0  0  0  0  0  0  0  0  0  0
    2.8151    1.5499   -1.0176 H   0  0  0  0  0  0  0  0  0  0  0  0
    1.9750    2.3583    0.3094 H   0  0  0  0  0  0  0  0  0  0  0  0
    1.8772    1.6129   -3.3640 H   0  0  0  0  0  0  0  0  0  0  0  0
    0.2597    4.0134   -0.1684 H   0  0  0  0  0  0  0  0  0  0  0  0
    0.7276    3.0489   -5.0194 H   0  0  0  0  0  0  0  0  0  0  0  0
   -0.8847    5.4480   -1.8325 H   0  0  0  0  0  0  0  0  0  0  0  0
   -0.6594    4.9647   -4.2591 H   0  0  0  0  0  0  0  0  0  0  0  0
    3.0814   -0.3510    0.8336 N   0  0  0  0  0  0  0  0  0  0  0  0
    3.8125   -1.3527    1.6264 C   0  0  2  0  0  0  0  0  0  0  0  0
    3.3233   -1.4157    3.0948 C   0  0  0  0  0  0  0  0  0  0  0  0
    4.0631   -1.1408    4.0328 O   0  0  0  0  0  0  0  0  0  0  0  0
    5.3061   -1.0261    1.5078 C   0  0  0  0  0  0  0  0  0  0  0  0
    3.3802    0.6166    0.9150 H   0  0  0  0  0  0  0  0  0  0  0  0
    3.6558   -2.3474    1.1955 H   0  0  0  0  0  0  0  0  0  0  0  0
    5.5216   -0.0415    1.9354 H   0  0  0  0  0  0  0  0  0  0  0  0
    5.9003   -1.7733    2.0433 H   0  0  0  0  0  0  0  0  0  0  0  0
    5.6151   -1.0282    0.4581 H   0  0  0  0  0  0  0  0  0  0  0  0
    2.0185   -1.7871    3.3500 N   0  0  0  0  0  0  0  0  0  0  0  0
    1.3968   -1.6830    4.6614 C   0  0  0  0  0  0  0  0  0  0  0  0
    1.4196   -1.8661    2.5246 H   0  0  0  0  0  0  0  0  0  0  0  0
    1.9663   -2.2522    5.4035 H   0  0  0  0  0  0  0  0  0  0  0  0
    1.3506   -0.6360    4.9779 H   0  0  0  0  0  0  0  0  0  0  0  0
    0.3790   -2.0827    4.6272 H   0  0  0  0  0  0  0  0  0  0  0  0
  1  2  2  0  0  0  0
  1  3  1  0  0  0  0
  1  7  1  0  0  0  0
  3  4  1  0  0  0  0
  3  5  1  0  0  0  0
  3  6  1  0  0  0  0
  7  8  1  0  0  0  0
  7 12  1  0  0  0  0
  8  9  1  0  0  0  0
  8 11  1  0  0  0  0
  8 13  1  0  0  0  0
  9 10  2  0  0  0  0
  9 17  1  0  0  0  0
 11 14  1  0  0  0  0
 11 15  1  0  0  0  0
 11 16  1  0  0  0  0
 17 18  1  0  0  0  0
 17 28  1  0  0  0  0
 18 19  1  0  0  0  0
 18 21  1  0  0  0  0
 18 29  1  0  0  0  0
 19 20  2  0  0  0  0
 19 37  1  0  0  0  0
 21 22  1  0  0  0  0
 21 30  1  0  0  0  0
 21 31  1  0  0  0  0
 22 23  1  0  0  0  0
 22 24  2  0  0  0  0
 23 25  2  0  0  0  0
 23 32  1  0  0  0  0
 24 26  1  0  0  0  0
 24 33  1  0  0  0  0
 25 27  1  0  0  0  0
 25 34  1  0  0  0  0
 26 27  2  0  0  0  0
 26 35  1  0  0  0  0
 27 36  1  0  0  0  0
 37 38  1  0  0  0  0
 37 42  1  0  0  0  0
 38 39  1  0  0  0  0
 38 41  1  0  0  0  0
 38 43  1  0  0  0  0
 39 40  2  0  0  0  0
 39 47  1  0  0  0  0
 41 44  1  0  0  0  0
 41 45  1  0  0  0  0
 41 46  1  0  0  0  0
 47 48  1  0  0  0  0
 47 49  1  0  0  0  0
 48 50  1  0  0  0  0
 48 51  1  0  0  0  0
 48 52  1  0  0  0  0
M  END
$$$$

  -OEChem-05262217163D

 52 52  0     1  0  0  0  0  0999 V2000
   -2.8558   -0.0554    4.3400 C   0  0  0  0  0  0  0  0  0  0  0  0
   -3.8482   -0.4476    3.7474 O   0  0  0  0  0  0  0  0  0  0  0  0
   -2.6666   -0.3849    5.8088 C   0  0  0  0  0  0  0  0  0  0  0  0
   -3.5155   -0.9685    6.1762 H   0  0  0  0  0  0  0  0  0  0  0  0
   -1.7537   -0.9684    5.9478 H   0  0  0  0  0  0  0  0  0  0  0  0
   -2.5946    0.5362    6.3923 H   0  0  0  0  0  0  0  0  0  0  0  0
   -1.9004    0.6780    3.6692 N   0  0  0  0  0  0  0  0  0  0  0  0
   -1.9109    0.9246    2.2207 C   0  0  2  0  0  0  0  0  0  0  0  0
   -0.4802    0.9747    1.6471 C   0  0  0  0  0  0  0  0  0  0  0  0
    0.4762    1.1052    2.4041 O   0  0  0  0  0  0  0  0  0  0  0  0
   -2.6458    2.2428    1.9606 C   0  0  0  0  0  0  0  0  0  0  0  0
   -1.0322    0.8817    4.1642 H   0  0  0  0  0  0  0  0  0  0  0  0
   -2.4368    0.1106    1.7099 H   0  0  0  0  0  0  0  0  0  0  0  0
   -2.1278    3.0724    2.4521 H   0  0  0  0  0  0  0  0  0  0  0  0
   -2.6986    2.4505    0.8877 H   0  0  0  0  0  0  0  0  0  0  0  0
   -3.6672    2.1892    2.3510 H   0  0  0  0  0  0  0  0  0  0  0  0
   -0.2643    0.9548    0.2788 N   0  0  0  0  0  0  0  0  0  0  0  0
    1.0095    0.5691   -0.3666 C   0  0  2  0  0  0  0  0  0  0  0  0
    1.8352   -0.4734    0.4270 C   0  0  0  0  0  0  0  0  0  0  0  0
    1.4601   -1.6403    0.4180 O   0  0  0  0  0  0  0  0  0  0  0  0
    1.8255    1.8463   -0.6441 C   0  0  0  0  0  0  0  0  0  0  0  0
    1.1482    2.7031   -1.6869 C   0  0  0  0  0  0  0  0  0  0  0  0
    1.2902    2.4100   -3.0517 C   0  0  0  0  0  0  0  0  0  0  0  0
    0.3598    3.7981   -1.3023 C   0  0  0  0  0  0  0  0  0  0  0  0
    0.6534    3.1988   -4.0160 C   0  0  0  0  0  0  0  0  0  0  0  0
   -0.2766    4.5880   -2.2656 C   0  0  0  0  0  0  0  0  0  0  0  0
   -0.1301    4.2881   -3.6233 C   0  0  0  0  0  0  0  0  0  0  0  0
   -1.1024    0.8720   -0.2909 H   0  0  0  0  0  0  0  0  0  0  0  0
    0.7826    0.0913   -1.3249 H   0  0  0  0  0  0  0  0  0  0  0  0
    2.8233    1.5772   -1.0071 H   0  0  0  0  0  0  0  0  0  0  0  0
    1.9560    2.4149    0.2830 H   0  0  0  0  0  0  0  0  0  0  0  0
    1.8980    1.5680   -3.3698 H   0  0  0  0  0  0  0  0  0  0  0  0
    0.2396    4.0379   -0.2497 H   0  0  0  0  0  0  0  0  0  0  0  0
    0.7694    2.9669   -5.0708 H   0  0  0  0  0  0  0  0  0  0  0  0
   -0.8828    5.4356   -1.9593 H   0  0  0  0  0  0  0  0  0  0  0  0
   -0.6228    4.9018   -4.3720 H   0  0  0  0  0  0  0  0  0  0  0  0
    2.9728   -0.1410    1.1426 N   0  0  0  0  0  0  0  0  0  0  0  0
    3.6803   -1.0947    2.0124 C   0  0  2  0  0  0  0  0  0  0  0  0
    2.9321   -1.3491    3.3460 C   0  0  0  0  0  0  0  0  0  0  0  0
    3.4314   -1.0734    4.4314 O   0  0  0  0  0  0  0  0  0  0  0  0
    5.1003   -0.5540    2.2197 C   0  0  0  0  0  0  0  0  0  0  0  0
    3.0464    0.8443    1.3855 H   0  0  0  0  0  0  0  0  0  0  0  0
    3.7643   -2.0609    1.5036 H   0  0  0  0  0  0  0  0  0  0  0  0
    5.0739    0.4096    2.7386 H   0  0  0  0  0  0  0  0  0  0  0  0
    5.6881   -1.2547    2.8211 H   0  0  0  0  0  0  0  0  0  0  0  0
    5.6029   -0.4203    1.2569 H   0  0  0  0  0  0  0  0  0  0  0  0
    1.6722   -1.9136    3.3122 N   0  0  0  0  0  0  0  0  0  0  0  0
    0.8235   -2.0687    4.4837 C   0  0  0  0  0  0  0  0  0  0  0  0
    1.2706   -2.0442    2.3805 H   0  0  0  0  0  0  0  0  0  0  0  0
    1.2979   -2.7324    5.2141 H   0  0  0  0  0  0  0  0  0  0  0  0
    0.6428   -1.0967    4.9538 H   0  0  0  0  0  0  0  0  0  0  0  0
   -0.1398   -2.5005    4.1960 H   0  0  0  0  0  0  0  0  0  0  0  0
  1  2  2  0  0  0  0
  1  3  1  0  0  0  0
  1  7  1  0  0  0  0
  3  4  1  0  0  0  0
  3  5  1  0  0  0  0
  3  6  1  0  0  0  0
  7  8  1  0  0  0  0
  7 12  1  0  0  0  0
  8  9  1  0  0  0  0
  8 11  1  0  0  0  0
  8 13  1  0  0  0  0
  9 10  2  0  0  0  0
  9 17  1  0  0  0  0
 11 14  1  0  0  0  0
 11 15  1  0  0  0  0
 11 16  1  0  0  0  0
 17 18  1  0  0  0  0
 17 28  1  0  0  0  0
 18 19  1  0  0  0  0
 18 21  1  0  0  0  0
 18 29  1  0  0  0  0
 19 20  2  0  0  0  0
 19 37  1  0  0  0  0
 21 22  1  0  0  0  0
 21 30  1  0  0  0  0
 21 31  1  0  0  0  0
 22 23  1  0  0  0  0
 22 24  2  0  0  0  0
 23 25  2  0  0  0  0
 23 32  1  0  0  0  0
 24 26  1  0  0  0  0
 24 33  1  0  0  0  0
 25 27  1  0  0  0  0
 25 34  1  0  0  0  0
 26 27  2  0  0  0  0
 26 35  1  0  0  0  0
 27 36  1  0  0  0  0
 37 38  1  0  0  0  0
 37 42  1  0  0  0  0
 38 39  1  0  0  0  0
 38 41  1  0  0  0  0
 38 43  1  0  0  0  0
 39 40  2  0  0  0  0
 39 47  1  0  0  0  0
 41 44  1  0  0  0  0
 41 45  1  0  0  0  0
 41 46  1  0  0  0  0
 47 48  1  0  0  0  0
 47 49  1  0  0  0  0
 48 50  1  0  0  0  0
 48 51  1  0  0  0  0
 48 52  1  0  0  0  0
M  END
$$$$

  -OEChem-05262217163D

 52 52  0     1  0  0  0  0  0999 V2000
   -2.2044   -0.1238    4.5954 C   0  0  0  0  0  0  0  0  0  0  0  0
   -3.2605   -0.5680    4.1710 O   0  0  0  0  0  0  0  0  0  0  0  0
   -1.7498   -0.4540    6.0047 C   0  0  0  0  0  0  0  0  0  0  0  0
   -2.3824   -1.2364    6.4324 H   0  0  0  0  0  0  0  0  0  0  0  0
   -0.7152   -0.8052    5.9937 H   0  0  0  0  0  0  0  0  0  0  0  0
   -1.8137    0.4371    6.6336 H   0  0  0  0  0  0  0  0  0  0  0  0
   -1.4194    0.6676    3.7866 N   0  0  0  0  0  0  0  0  0  0  0  0
   -1.7127    0.9738    2.3786 C   0  0  2  0  0  0  0  0  0  0  0  0
   -0.4184    1.3228    1.6206 C   0  0  0  0  0  0  0  0  0  0  0  0
    0.5487    1.7615    2.2363 O   0  0  0  0  0  0  0  0  0  0  0  0
   -2.6979    2.1446    2.3129 C   0  0  0  0  0  0  0  0  0  0  0  0
   -0.4672    0.8509    4.1154 H   0  0  0  0  0  0  0  0  0  0  0  0
   -2.1570    0.0955    1.8982 H   0  0  0  0  0  0  0  0  0  0  0  0
   -2.2717    3.0299    2.7956 H   0  0  0  0  0  0  0  0  0  0  0  0
   -2.9305    2.3924    1.2730 H   0  0  0  0  0  0  0  0  0  0  0  0
   -3.6313    1.8856    2.8227 H   0  0  0  0  0  0  0  0  0  0  0  0
   -0.2983    1.1968    0.2447 N   0  0  0  0  0  0  0  0  0  0  0  0
    0.9503    0.6974   -0.3788 C   0  0  2  0  0  0  0  0  0  0  0  0
    1.7175   -0.3059    0.5169 C   0  0  0  0  0  0  0  0  0  0  0  0
    1.4951   -1.5024    0.3684 O   0  0  0  0  0  0  0  0  0  0  0  0
    1.8440    1.8871   -0.7758 C   0  0  0  0  0  0  0  0  0  0  0  0
    1.2081    2.6888   -1.8853 C   0  0  0  0  0  0  0  0  0  0  0  0
    1.3098    2.2667   -3.2193 C   0  0  0  0  0  0  0  0  0  0  0  0
    0.4957    3.8609   -1.5920 C   0  0  0  0  0  0  0  0  0  0  0  0
    0.7075    3.0049   -4.2441 C   0  0  0  0  0  0  0  0  0  0  0  0
   -0.1060    4.6007   -2.6155 C   0  0  0  0  0  0  0  0  0  0  0  0
   -0.0009    4.1723   -3.9423 C   0  0  0  0  0  0  0  0  0  0  0  0
   -1.1574    0.9199   -0.2234 H   0  0  0  0  0  0  0  0  0  0  0  0
    0.6893    0.1496   -1.2902 H   0  0  0  0  0  0  0  0  0  0  0  0
    2.8166    1.5175   -1.1175 H   0  0  0  0  0  0  0  0  0  0  0  0
    2.0268    2.5293    0.0920 H   0  0  0  0  0  0  0  0  0  0  0  0
    1.8583    1.3622   -3.4651 H   0  0  0  0  0  0  0  0  0  0  0  0
    0.4070    4.1973   -0.5626 H   0  0  0  0  0  0  0  0  0  0  0  0
    0.7917    2.6721   -5.2747 H   0  0  0  0  0  0  0  0  0  0  0  0
   -0.6540    5.5081   -2.3786 H   0  0  0  0  0  0  0  0  0  0  0  0
   -0.4672    4.7467   -4.7375 H   0  0  0  0  0  0  0  0  0  0  0  0
    2.6734    0.0937    1.4331 N   0  0  0  0  0  0  0  0  0  0  0  0
    3.0830   -0.7972    2.5299 C   0  0  2  0  0  0  0  0  0  0  0  0
    1.8902   -1.2628    3.4118 C   0  0  0  0  0  0  0  0  0  0  0  0
    1.5134   -0.6296    4.3940 O   0  0  0  0  0  0  0  0  0  0  0  0
    4.1347   -0.0481    3.3549 C   0  0  0  0  0  0  0  0  0  0  0  0
    2.5583    1.0743    1.6953 H   0  0  0  0  0  0  0  0  0  0  0  0
    3.5548   -1.6919    2.1106 H   0  0  0  0  0  0  0  0  0  0  0  0
    3.7131    0.8721    3.7727 H   0  0  0  0  0  0  0  0  0  0  0  0
    4.4856   -0.6740    4.1813 H   0  0  0  0  0  0  0  0  0  0  0  0
    4.9931    0.2140    2.7291 H   0  0  0  0  0  0  0  0  0  0  0  0
    1.2187   -2.4178    3.0582 N   0  0  0  0  0  0  0  0  0  0  0  0
    0.0123   -2.8930    3.7219 C   0  0  0  0  0  0  0  0  0  0  0  0
    1.3727   -2.7078    2.0899 H   0  0  0  0  0  0  0  0  0  0  0  0
    0.1252   -2.8562    4.8103 H   0  0  0  0  0  0  0  0  0  0  0  0
   -0.8478   -2.2832    3.4316 H   0  0  0  0  0  0  0  0  0  0  0  0
   -0.1872   -3.9302    3.4368 H   0  0  0  0  0  0  0  0  0  0  0  0
  1  2  2  0  0  0  0
  1  3  1  0  0  0  0
  1  7  1  0  0  0  0
  3  4  1  0  0  0  0
  3  5  1  0  0  0  0
  3  6  1  0  0  0  0
  7  8  1  0  0  0  0
  7 12  1  0  0  0  0
  8  9  1  0  0  0  0
  8 11  1  0  0  0  0
  8 13  1  0  0  0  0
  9 10  2  0  0  0  0
  9 17  1  0  0  0  0
 11 14  1  0  0  0  0
 11 15  1  0  0  0  0
 11 16  1  0  0  0  0
 17 18  1  0  0  0  0
 17 28  1  0  0  0  0
 18 19  1  0  0  0  0
 18 21  1  0  0  0  0
 18 29  1  0  0  0  0
 19 20  2  0  0  0  0
 19 37  1  0  0  0  0
 21 22  1  0  0  0  0
 21 30  1  0  0  0  0
 21 31  1  0  0  0  0
 22 23  1  0  0  0  0
 22 24  2  0  0  0  0
 23 25  2  0  0  0  0
 23 32  1  0  0  0  0
 24 26  1  0  0  0  0
 24 33  1  0  0  0  0
 25 27  1  0  0  0  0
 25 34  1  0  0  0  0
 26 27  2  0  0  0  0
 26 35  1  0  0  0  0
 27 36  1  0  0  0  0
 37 38  1  0  0  0  0
 37 42  1  0  0  0  0
 38 39  1  0  0  0  0
 38 41  1  0  0  0  0
 38 43  1  0  0  0  0
 39 40  2  0  0  0  0
 39 47  1  0  0  0  0
 41 44  1  0  0  0  0
 41 45  1  0  0  0  0
 41 46  1  0  0  0  0
 47 48  1  0  0  0  0
 47 49  1  0  0  0  0
 48 50  1  0  0  0  0
 48 51  1  0  0  0  0
 48 52  1  0  0  0  0
M  END
$$$$

  -OEChem-05262217163D

 52 52  0     1  0  0  0  0  0999 V2000
   -2.4343   -0.1844    4.4760 C   0  0  0  0  0  0  0  0  0  0  0  0
   -3.5018   -0.5017    3.9728 O   0  0  0  0  0  0  0  0  0  0  0  0
   -2.0932   -0.6345    5.8841 C   0  0  0  0  0  0  0  0  0  0  0  0
   -2.8770   -1.2911    6.2711 H   0  0  0  0  0  0  0  0  0  0  0  0
   -1.1455   -1.1774    5.8870 H   0  0  0  0  0  0  0  0  0  0  0  0
   -2.0044    0.2351    6.5395 H   0  0  0  0  0  0  0  0  0  0  0  0
   -1.5418    0.5822    3.7591 N   0  0  0  0  0  0  0  0  0  0  0  0
   -1.7571    1.0337    2.3762 C   0  0  2  0  0  0  0  0  0  0  0  0
   -0.4186    1.3303    1.6754 C   0  0  0  0  0  0  0  0  0  0  0  0
    0.5142    1.8005    2.3175 O   0  0  0  0  0  0  0  0  0  0  0  0
   -2.6331    2.2903    2.3897 C   0  0  0  0  0  0  0  0  0  0  0  0
   -0.5927    0.6504    4.1402 H   0  0  0  0  0  0  0  0  0  0  0  0
   -2.2638    0.2447    1.8107 H   0  0  0  0  0  0  0  0  0  0  0  0
   -2.1475    3.0880    2.9611 H   0  0  0  0  0  0  0  0  0  0  0  0
   -2.8068    2.6473    1.3701 H   0  0  0  0  0  0  0  0  0  0  0  0
   -3.6027    2.0742    2.8491 H   0  0  0  0  0  0  0  0  0  0  0  0
   -0.2476    1.1484    0.3120 N   0  0  0  0  0  0  0  0  0  0  0  0
    1.0129    0.6575   -0.2973 C   0  0  2  0  0  0  0  0  0  0  0  0
    1.8401   -0.3032    0.5916 C   0  0  0  0  0  0  0  0  0  0  0  0
    1.7916   -1.5051    0.3545 O   0  0  0  0  0  0  0  0  0  0  0  0
    1.8740    1.8617   -0.7203 C   0  0  0  0  0  0  0  0  0  0  0  0
    1.2176    2.6194   -1.8490 C   0  0  0  0  0  0  0  0  0  0  0  0
    1.3355    2.1670   -3.1718 C   0  0  0  0  0  0  0  0  0  0  0  0
    0.4639    3.7730   -1.5864 C   0  0  0  0  0  0  0  0  0  0  0  0
    0.7113    2.8583   -4.2158 C   0  0  0  0  0  0  0  0  0  0  0  0
   -0.1610    4.4649   -2.6295 C   0  0  0  0  0  0  0  0  0  0  0  0
   -0.0374    4.0077   -3.9450 C   0  0  0  0  0  0  0  0  0  0  0  0
   -1.0962    0.8747   -0.1766 H   0  0  0  0  0  0  0  0  0  0  0  0
    0.7588    0.0881   -1.1973 H   0  0  0  0  0  0  0  0  0  0  0  0
    2.8579    1.5127   -1.0513 H   0  0  0  0  0  0  0  0  0  0  0  0
    2.0373    2.5274    0.1338 H   0  0  0  0  0  0  0  0  0  0  0  0
    1.9146    1.2755   -3.3944 H   0  0  0  0  0  0  0  0  0  0  0  0
    0.3595    4.1319   -0.5661 H   0  0  0  0  0  0  0  0  0  0  0  0
    0.8091    2.5021   -5.2372 H   0  0  0  0  0  0  0  0  0  0  0  0
   -0.7412    5.3579   -2.4164 H   0  0  0  0  0  0  0  0  0  0  0  0
   -0.5211    4.5456   -4.7553 H   0  0  0  0  0  0  0  0  0  0  0  0
    2.5796    0.1358    1.6740 N   0  0  0  0  0  0  0  0  0  0  0  0
    2.9108   -0.7703    2.7827 C   0  0  2  0  0  0  0  0  0  0  0  0
    1.6390   -1.3201    3.4830 C   0  0  0  0  0  0  0  0  0  0  0  0
    1.1278   -0.7577    4.4475 O   0  0  0  0  0  0  0  0  0  0  0  0
    3.8093    0.0045    3.7523 C   0  0  0  0  0  0  0  0  0  0  0  0
    2.3166    1.0840    1.9568 H   0  0  0  0  0  0  0  0  0  0  0  0
    3.4796   -1.6250    2.4013 H   0  0  0  0  0  0  0  0  0  0  0  0
    3.2878    0.8853    4.1413 H   0  0  0  0  0  0  0  0  0  0  0  0
    4.0938   -0.6307    4.5968 H   0  0  0  0  0  0  0  0  0  0  0  0
    4.7204    0.3353    3.2444 H   0  0  0  0  0  0  0  0  0  0  0  0
    1.0229   -2.4376    2.9534 N   0  0  0  0  0  0  0  0  0  0  0  0
   -0.2616   -2.9531    3.4083 C   0  0  0  0  0  0  0  0  0  0  0  0
    1.3289   -2.6796    2.0075 H   0  0  0  0  0  0  0  0  0  0  0  0
   -0.2783   -3.0473    4.4990 H   0  0  0  0  0  0  0  0  0  0  0  0
   -1.0729   -2.2891    3.0953 H   0  0  0  0  0  0  0  0  0  0  0  0
   -0.4400   -3.9442    2.9800 H   0  0  0  0  0  0  0  0  0  0  0  0
  1  2  2  0  0  0  0
  1  3  1  0  0  0  0
  1  7  1  0  0  0  0
  3  4  1  0  0  0  0
  3  5  1  0  0  0  0
  3  6  1  0  0  0  0
  7  8  1  0  0  0  0
  7 12  1  0  0  0  0
  8  9  1  0  0  0  0
  8 11  1  0  0  0  0
  8 13  1  0  0  0  0
  9 10  2  0  0  0  0
  9 17  1  0  0  0  0
 11 14  1  0  0  0  0
 11 15  1  0  0  0  0
 11 16  1  0  0  0  0
 17 18  1  0  0  0  0
 17 28  1  0  0  0  0
 18 19  1  0  0  0  0
 18 21  1  0  0  0  0
 18 29  1  0  0  0  0
 19 20  2  0  0  0  0
 19 37  1  0  0  0  0
 21 22  1  0  0  0  0
 21 30  1  0  0  0  0
 21 31  1  0  0  0  0
 22 23  1  0  0  0  0
 22 24  2  0  0  0  0
 23 25  2  0  0  0  0
 23 32  1  0  0  0  0
 24 26  1  0  0  0  0
 24 33  1  0  0  0  0
 25 27  1  0  0  0  0
 25 34  1  0  0  0  0
 26 27  2  0  0  0  0
 26 35  1  0  0  0  0
 27 36  1  0  0  0  0
 37 38  1  0  0  0  0
 37 42  1  0  0  0  0
 38 39  1  0  0  0  0
 38 41  1  0  0  0  0
 38 43  1  0  0  0  0
 39 40  2  0  0  0  0
 39 47  1  0  0  0  0
 41 44  1  0  0  0  0
 41 45  1  0  0  0  0
 41 46  1  0  0  0  0
 47 48  1  0  0  0  0
 47 49  1  0  0  0  0
 48 50  1  0  0  0  0
 48 51  1  0  0  0  0
 48 52  1  0  0  0  0
M  END
$$$$

  -OEChem-05262217163D

 52 52  0     1  0  0  0  0  0999 V2000
   -2.6690   -0.2575    4.2888 C   0  0  0  0  0  0  0  0  0  0  0  0
   -3.7195   -0.4742    3.7029 O   0  0  0  0  0  0  0  0  0  0  0  0
   -2.4302   -0.8470    5.6664 C   0  0  0  0  0  0  0  0  0  0  0  0
   -3.3096   -1.4072    5.9954 H   0  0  0  0  0  0  0  0  0  0  0  0
   -1.5711   -1.5212    5.6437 H   0  0  0  0  0  0  0  0  0  0  0  0
   -2.2327   -0.0464    6.3834 H   0  0  0  0  0  0  0  0  0  0  0  0
   -1.7016    0.5224    3.6931 N   0  0  0  0  0  0  0  0  0  0  0  0
   -1.8175    1.0997    2.3460 C   0  0  2  0  0  0  0  0  0  0  0  0
   -0.4321    1.3494    1.7211 C   0  0  0  0  0  0  0  0  0  0  0  0
    0.4598    1.8508    2.3946 O   0  0  0  0  0  0  0  0  0  0  0  0
   -2.6051    2.4113    2.4304 C   0  0  0  0  0  0  0  0  0  0  0  0
   -0.7755    0.5069    4.1325 H   0  0  0  0  0  0  0  0  0  0  0  0
   -2.3551    0.4004    1.6970 H   0  0  0  0  0  0  0  0  0  0  0  0
   -2.0906    3.1254    3.0816 H   0  0  0  0  0  0  0  0  0  0  0  0
   -2.7106    2.8587    1.4375 H   0  0  0  0  0  0  0  0  0  0  0  0
   -3.6060    2.2298    2.8348 H   0  0  0  0  0  0  0  0  0  0  0  0
   -0.1961    1.0973    0.3798 N   0  0  0  0  0  0  0  0  0  0  0  0
    1.0808    0.6201   -0.2097 C   0  0  2  0  0  0  0  0  0  0  0  0
    1.9750   -0.2779    0.6824 C   0  0  0  0  0  0  0  0  0  0  0  0
    2.0913   -1.4603    0.3797 O   0  0  0  0  0  0  0  0  0  0  0  0
    1.8970    1.8451   -0.6582 C   0  0  0  0  0  0  0  0  0  0  0  0
    1.2159    2.5495   -1.8068 C   0  0  0  0  0  0  0  0  0  0  0  0
    1.3536    2.0731   -3.1189 C   0  0  0  0  0  0  0  0  0  0  0  0
    0.4163    3.6773   -1.5696 C   0  0  0  0  0  0  0  0  0  0  0  0
    0.6999    2.7135   -4.1773 C   0  0  0  0  0  0  0  0  0  0  0  0
   -0.2385    4.3182   -2.6266 C   0  0  0  0  0  0  0  0  0  0  0  0
   -0.0971    3.8359   -3.9313 C   0  0  0  0  0  0  0  0  0  0  0  0
   -1.0289    0.8250   -0.1361 H   0  0  0  0  0  0  0  0  0  0  0  0
    0.8434    0.0206   -1.0949 H   0  0  0  0  0  0  0  0  0  0  0  0
    2.8940    1.5257   -0.9807 H   0  0  0  0  0  0  0  0  0  0  0  0
    2.0345    2.5348    0.1815 H   0  0  0  0  0  0  0  0  0  0  0  0
    1.9700    1.2020   -3.3210 H   0  0  0  0  0  0  0  0  0  0  0  0
    0.2982    4.0545   -0.5574 H   0  0  0  0  0  0  0  0  0  0  0  0
    0.8125    2.3395   -5.1908 H   0  0  0  0  0  0  0  0  0  0  0  0
   -0.8557    5.1908   -2.4327 H   0  0  0  0  0  0  0  0  0  0  0  0
   -0.6048    4.3332   -4.7527 H   0  0  0  0  0  0  0  0  0  0  0  0
    2.4874    0.1407    1.8956 N   0  0  0  0  0  0  0  0  0  0  0  0
    2.7435   -0.8022    2.9911 C   0  0  2  0  0  0  0  0  0  0  0  0
    1.4209   -1.4212    3.5086 C   0  0  0  0  0  0  0  0  0  0  0  0
    0.7989   -0.9349    4.4491 O   0  0  0  0  0  0  0  0  0  0  0  0
    3.4976   -0.0426    4.0874 C   0  0  0  0  0  0  0  0  0  0  0  0
    2.1257    1.0551    2.1840 H   0  0  0  0  0  0  0  0  0  0  0  0
    3.3854   -1.6172    2.6405 H   0  0  0  0  0  0  0  0  0  0  0  0
    2.9022    0.8007    4.4530 H   0  0  0  0  0  0  0  0  0  0  0  0
    3.7122   -0.7073    4.9300 H   0  0  0  0  0  0  0  0  0  0  0  0
    4.4453    0.3427    3.6991 H   0  0  0  0  0  0  0  0  0  0  0  0
    0.8705   -2.4816    2.8154 N   0  0  0  0  0  0  0  0  0  0  0  0
   -0.4549   -3.0257    3.0784 C   0  0  0  0  0  0  0  0  0  0  0  0
    1.3019   -2.6720    1.9074 H   0  0  0  0  0  0  0  0  0  0  0  0
   -0.5738   -3.2566    4.1420 H   0  0  0  0  0  0  0  0  0  0  0  0
   -1.2289   -2.3116    2.7810 H   0  0  0  0  0  0  0  0  0  0  0  0
   -0.5993   -3.9502    2.5112 H   0  0  0  0  0  0  0  0  0  0  0  0
  1  2  2  0  0  0  0
  1  3  1  0  0  0  0
  1  7  1  0  0  0  0
  3  4  1  0  0  0  0
  3  5  1  0  0  0  0
  3  6  1  0  0  0  0
  7  8  1  0  0  0  0
  7 12  1  0  0  0  0
  8  9  1  0  0  0  0
  8 11  1  0  0  0  0
  8 13  1  0  0  0  0
  9 10  2  0  0  0  0
  9 17  1  0  0  0  0
 11 14  1  0  0  0  0
 11 15  1  0  0  0  0
 11 16  1  0  0  0  0
 17 18  1  0  0  0  0
 17 28  1  0  0  0  0
 18 19  1  0  0  0  0
 18 21  1  0  0  0  0
 18 29  1  0  0  0  0
 19 20  2  0  0  0  0
 19 37  1  0  0  0  0
 21 22  1  0  0  0  0
 21 30  1  0  0  0  0
 21 31  1  0  0  0  0
 22 23  1  0  0  0  0
 22 24  2  0  0  0  0
 23 25  2  0  0  0  0
 23 32  1  0  0  0  0
 24 26  1  0  0  0  0
 24 33  1  0  0  0  0
 25 27  1  0  0  0  0
 25 34  1  0  0  0  0
 26 27  2  0  0  0  0
 26 35  1  0  0  0  0
 27 36  1  0  0  0  0
 37 38  1  0  0  0  0
 37 42  1  0  0  0  0
 38 39  1  0  0  0  0
 38 41  1  0  0  0  0
 38 43  1  0  0  0  0
 39 40  2  0  0  0  0
 39 47  1  0  0  0  0
 41 44  1  0  0  0  0
 41 45  1  0  0  0  0
 41 46  1  0  0  0  0
 47 48  1  0  0  0  0
 47 49  1  0  0  0  0
 48 50  1  0  0  0  0
 48 51  1  0  0  0  0
 48 52  1  0  0  0  0
M  END
$$$$

  -OEChem-05262217163D

 52 52  0     1  0  0  0  0  0999 V2000
   -2.3894   -0.4215    3.5342 C   0  0  0  0  0  0  0  0  0  0  0  0
   -2.4859   -1.0006    2.4616 O   0  0  0  0  0  0  0  0  0  0  0  0
   -2.3748   -1.1960    4.8381 C   0  0  0  0  0  0  0  0  0  0  0  0
   -2.2833   -2.2674    4.6422 H   0  0  0  0  0  0  0  0  0  0  0  0
   -1.5266   -0.8817    5.4516 H   0  0  0  0  0  0  0  0  0  0  0  0
   -3.2998   -1.0151    5.3902 H   0  0  0  0  0  0  0  0  0  0  0  0
   -2.3161    0.9567    3.5514 N   0  0  0  0  0  0  0  0  0  0  0  0
   -2.1630    1.7470    2.3236 C   0  0  2  0  0  0  0  0  0  0  0  0
   -0.7142    1.6830    1.7990 C   0  0  0  0  0  0  0  0  0  0  0  0
    0.2011    2.0933    2.5028 O   0  0  0  0  0  0  0  0  0  0  0  0
   -2.5834    3.1886    2.6221 C   0  0  0  0  0  0  0  0  0  0  0  0
   -2.0314    1.3784    4.4315 H   0  0  0  0  0  0  0  0  0  0  0  0
   -2.8301    1.3544    1.5486 H   0  0  0  0  0  0  0  0  0  0  0  0
   -1.9432    3.6262    3.3950 H   0  0  0  0  0  0  0  0  0  0  0  0
   -2.5040    3.8012    1.7187 H   0  0  0  0  0  0  0  0  0  0  0  0
   -3.6204    3.2175    2.9701 H   0  0  0  0  0  0  0  0  0  0  0  0
   -0.4582    1.2769    0.5014 N   0  0  0  0  0  0  0  0  0  0  0  0
    0.7683    0.6194   -0.0168 C   0  0  2  0  0  0  0  0  0  0  0  0
    1.5987   -0.2966    0.9209 C   0  0  0  0  0  0  0  0  0  0  0  0
    1.9446   -1.3936    0.4964 O   0  0  0  0  0  0  0  0  0  0  0  0
    1.7089    1.7198   -0.5396 C   0  0  0  0  0  0  0  0  0  0  0  0
    1.1301    2.4033   -1.7551 C   0  0  0  0  0  0  0  0  0  0  0  0
    1.2460    1.8160   -3.0235 C   0  0  0  0  0  0  0  0  0  0  0  0
    0.4647    3.6320   -1.6287 C   0  0  0  0  0  0  0  0  0  0  0  0
    0.7054    2.4478   -4.1486 C   0  0  0  0  0  0  0  0  0  0  0  0
   -0.0766    4.2650   -2.7527 C   0  0  0  0  0  0  0  0  0  0  0  0
    0.0438    3.6725   -4.0134 C   0  0  0  0  0  0  0  0  0  0  0  0
   -1.3042    1.0314   -0.0071 H   0  0  0  0  0  0  0  0  0  0  0  0
    0.4715   -0.0154   -0.8583 H   0  0  0  0  0  0  0  0  0  0  0  0
    2.6743    1.2799   -0.8134 H   0  0  0  0  0  0  0  0  0  0  0  0
    1.9025    2.4523    0.2515 H   0  0  0  0  0  0  0  0  0  0  0  0
    1.7597    0.8658   -3.1387 H   0  0  0  0  0  0  0  0  0  0  0  0
    0.3677    4.0965   -0.6515 H   0  0  0  0  0  0  0  0  0  0  0  0
    0.8017    1.9875   -5.1277 H   0  0  0  0  0  0  0  0  0  0  0  0
   -0.5873    5.2175   -2.6465 H   0  0  0  0  0  0  0  0  0  0  0  0
   -0.3740    4.1636   -4.8874 H   0  0  0  0  0  0  0  0  0  0  0  0
    1.9339    0.0196    2.2222 N   0  0  0  0  0  0  0  0  0  0  0  0
    2.4715   -0.9365    3.1976 C   0  0  2  0  0  0  0  0  0  0  0  0
    1.4001   -1.9554    3.6565 C   0  0  0  0  0  0  0  0  0  0  0  0
    0.8861   -1.8973    4.7689 O   0  0  0  0  0  0  0  0  0  0  0  0
    3.0529   -0.1229    4.3596 C   0  0  0  0  0  0  0  0  0  0  0  0
    1.5242    0.8861    2.5800 H   0  0  0  0  0  0  0  0  0  0  0  0
    3.2900   -1.5033    2.7420 H   0  0  0  0  0  0  0  0  0  0  0  0
    2.2711    0.4706    4.8452 H   0  0  0  0  0  0  0  0  0  0  0  0
    3.4951   -0.7905    5.1058 H   0  0  0  0  0  0  0  0  0  0  0  0
    3.8311    0.5554    3.9966 H   0  0  0  0  0  0  0  0  0  0  0  0
    0.9993   -2.9369    2.7715 N   0  0  0  0  0  0  0  0  0  0  0  0
   -0.1129   -3.8463    3.0113 C   0  0  0  0  0  0  0  0  0  0  0  0
    1.3257   -2.8095    1.8099 H   0  0  0  0  0  0  0  0  0  0  0  0
   -0.0963   -4.2229    4.0395 H   0  0  0  0  0  0  0  0  0  0  0  0
   -1.0651   -3.3372    2.8368 H   0  0  0  0  0  0  0  0  0  0  0  0
   -0.0478   -4.7038    2.3348 H   0  0  0  0  0  0  0  0  0  0  0  0
  1  2  2  0  0  0  0
  1  3  1  0  0  0  0
  1  7  1  0  0  0  0
  3  4  1  0  0  0  0
  3  5  1  0  0  0  0
  3  6  1  0  0  0  0
  7  8  1  0  0  0  0
  7 12  1  0  0  0  0
  8  9  1  0  0  0  0
  8 11  1  0  0  0  0
  8 13  1  0  0  0  0
  9 10  2  0  0  0  0
  9 17  1  0  0  0  0
 11 14  1  0  0  0  0
 11 15  1  0  0  0  0
 11 16  1  0  0  0  0
 17 18  1  0  0  0  0
 17 28  1  0  0  0  0
 18 19  1  0  0  0  0
 18 21  1  0  0  0  0
 18 29  1  0  0  0  0
 19 20  2  0  0  0  0
 19 37  1  0  0  0  0
 21 22  1  0  0  0  0
 21 30  1  0  0  0  0
 21 31  1  0  0  0  0
 22 23  1  0  0  0  0
 22 24  2  0  0  0  0
 23 25  2  0  0  0  0
 23 32  1  0  0  0  0
 24 26  1  0  0  0  0
 24 33  1  0  0  0  0
 25 27  1  0  0  0  0
 25 34  1  0  0  0  0
 26 27  2  0  0  0  0
 26 35  1  0  0  0  0
 27 36  1  0  0  0  0
 37 38  1  0  0  0  0
 37 42  1  0  0  0  0
 38 39  1  0  0  0  0
 38 41  1  0  0  0  0
 38 43  1  0  0  0  0
 39 40  2  0  0  0  0
 39 47  1  0  0  0  0
 41 44  1  0  0  0  0
 41 45  1  0  0  0  0
 41 46  1  0  0  0  0
 47 48  1  0  0  0  0
 47 49  1  0  0  0  0
 48 50  1  0  0  0  0
 48 51  1  0  0  0  0
 48 52  1  0  0  0  0
M  END
$$$$

  -OEChem-05262217163D

 52 52  0     1  0  0  0  0  0999 V2000
   -2.6836   -0.1712    2.2085 C   0  0  0  0  0  0  0  0  0  0  0  0
   -3.0282    0.3596    1.1623 O   0  0  0  0  0  0  0  0  0  0  0  0
   -3.0103   -1.6299    2.4588 C   0  0  0  0  0  0  0  0  0  0  0  0
   -2.6757   -2.2352    1.6130 H   0  0  0  0  0  0  0  0  0  0  0  0
   -2.5134   -1.9827    3.3659 H   0  0  0  0  0  0  0  0  0  0  0  0
   -4.0895   -1.7502    2.5811 H   0  0  0  0  0  0  0  0  0  0  0  0
   -1.9522    0.5580    3.1211 N   0  0  0  0  0  0  0  0  0  0  0  0
   -1.5801    1.9685    2.9263 C   0  0  2  0  0  0  0  0  0  0  0  0
   -0.3545    2.1116    1.9948 C   0  0  0  0  0  0  0  0  0  0  0  0
    0.6733    2.6649    2.3707 O   0  0  0  0  0  0  0  0  0  0  0  0
   -1.3519    2.5687    4.3193 C   0  0  0  0  0  0  0  0  0  0  0  0
   -1.4496    0.0138    3.8307 H   0  0  0  0  0  0  0  0  0  0  0  0
   -2.4098    2.5101    2.4595 H   0  0  0  0  0  0  0  0  0  0  0  0
   -0.5287    2.0578    4.8295 H   0  0  0  0  0  0  0  0  0  0  0  0
   -1.1051    3.6322    4.2403 H   0  0  0  0  0  0  0  0  0  0  0  0
   -2.2551    2.4690    4.9291 H   0  0  0  0  0  0  0  0  0  0  0  0
   -0.3794    1.5273    0.7418 N   0  0  0  0  0  0  0  0  0  0  0  0
    0.7012    0.7164    0.1233 C   0  0  2  0  0  0  0  0  0  0  0  0
    1.6297   -0.1180    1.0464 C   0  0  0  0  0  0  0  0  0  0  0  0
    1.9320   -1.2532    0.6945 O   0  0  0  0  0  0  0  0  0  0  0  0
    1.5930    1.6525   -0.7116 C   0  0  0  0  0  0  0  0  0  0  0  0
    0.8462    2.2052   -1.9019 C   0  0  0  0  0  0  0  0  0  0  0  0
    0.6999    1.4404   -3.0689 C   0  0  0  0  0  0  0  0  0  0  0  0
    0.2796    3.4871   -1.8502 C   0  0  0  0  0  0  0  0  0  0  0  0
    0.0010    1.9514   -4.1683 C   0  0  0  0  0  0  0  0  0  0  0  0
   -0.4190    3.9997   -2.9485 C   0  0  0  0  0  0  0  0  0  0  0  0
   -0.5573    3.2320   -4.1089 C   0  0  0  0  0  0  0  0  0  0  0  0
   -1.3220    1.1984    0.5100 H   0  0  0  0  0  0  0  0  0  0  0  0
    0.2266   -0.0047   -0.5504 H   0  0  0  0  0  0  0  0  0  0  0  0
    2.4674    1.1012   -1.0741 H   0  0  0  0  0  0  0  0  0  0  0  0
    1.9656    2.4697   -0.0849 H   0  0  0  0  0  0  0  0  0  0  0  0
    1.1297    0.4445   -3.1243 H   0  0  0  0  0  0  0  0  0  0  0  0
    0.3782    4.0850   -0.9484 H   0  0  0  0  0  0  0  0  0  0  0  0
   -0.1089    1.3529   -5.0677 H   0  0  0  0  0  0  0  0  0  0  0  0
   -0.8557    4.9925   -2.8970 H   0  0  0  0  0  0  0  0  0  0  0  0
   -1.0992    3.6291   -4.9620 H   0  0  0  0  0  0  0  0  0  0  0  0
    1.9506    0.2419    2.3400 N   0  0  0  0  0  0  0  0  0  0  0  0
    2.2368   -0.7260    3.4000 C   0  0  2  0  0  0  0  0  0  0  0  0
    1.0279   -1.6556    3.6591 C   0  0  0  0  0  0  0  0  0  0  0  0
    0.0311   -1.2588    4.2610 O   0  0  0  0  0  0  0  0  0  0  0  0
    2.6202    0.0627    4.6554 C   0  0  0  0  0  0  0  0  0  0  0  0
    1.6503    1.1787    2.6183 H   0  0  0  0  0  0  0  0  0  0  0  0
    3.0918   -1.3448    3.1085 H   0  0  0  0  0  0  0  0  0  0  0  0
    1.8036    0.7248    4.9610 H   0  0  0  0  0  0  0  0  0  0  0  0
    2.8417   -0.6204    5.4810 H   0  0  0  0  0  0  0  0  0  0  0  0
    3.5078    0.6731    4.4633 H   0  0  0  0  0  0  0  0  0  0  0  0
    1.0514   -2.9350    3.1387 N   0  0  0  0  0  0  0  0  0  0  0  0
   -0.0672   -3.8648    3.2138 C   0  0  0  0  0  0  0  0  0  0  0  0
    1.7472   -3.0859    2.4083 H   0  0  0  0  0  0  0  0  0  0  0  0
   -0.5386   -3.8321    4.2015 H   0  0  0  0  0  0  0  0  0  0  0  0
   -0.8159   -3.6212    2.4548 H   0  0  0  0  0  0  0  0  0  0  0  0
    0.2841   -4.8866    3.0407 H   0  0  0  0  0  0  0  0  0  0  0  0
  1  2  2  0  0  0  0
  1  3  1  0  0  0  0
  1  7  1  0  0  0  0
  3  4  1  0  0  0  0
  3  5  1  0  0  0  0
  3  6  1  0  0  0  0
  7  8  1  0  0  0  0
  7 12  1  0  0  0  0
  8  9  1  0  0  0  0
  8 11  1  0  0  0  0
  8 13  1  0  0  0  0
  9 10  2  0  0  0  0
  9 17  1  0  0  0  0
 11 14  1  0  0  0  0
 11 15  1  0  0  0  0
 11 16  1  0  0  0  0
 17 18  1  0  0  0  0
 17 28  1  0  0  0  0
 18 19  1  0  0  0  0
 18 21  1  0  0  0  0
 18 29  1  0  0  0  0
 19 20  2  0  0  0  0
 19 37  1  0  0  0  0
 21 22  1  0  0  0  0
 21 30  1  0  0  0  0
 21 31  1  0  0  0  0
 22 23  1  0  0  0  0
 22 24  2  0  0  0  0
 23 25  2  0  0  0  0
 23 32  1  0  0  0  0
 24 26  1  0  0  0  0
 24 33  1  0  0  0  0
 25 27  1  0  0  0  0
 25 34  1  0  0  0  0
 26 27  2  0  0  0  0
 26 35  1  0  0  0  0
 27 36  1  0  0  0  0
 37 38  1  0  0  0  0
 37 42  1  0  0  0  0
 38 39  1  0  0  0  0
 38 41  1  0  0  0  0
 38 43  1  0  0  0  0
 39 40  2  0  0  0  0
 39 47  1  0  0  0  0
 41 44  1  0  0  0  0
 41 45  1  0  0  0  0
 41 46  1  0  0  0  0
 47 48  1  0  0  0  0
 47 49  1  0  0  0  0
 48 50  1  0  0  0  0
 48 51  1  0  0  0  0
 48 52  1  0  0  0  0
M  END
$$$$

  -OEChem-05262217163D

 52 52  0     1  0  0  0  0  0999 V2000
   -2.7764   -0.0653    1.9917 C   0  0  0  0  0  0  0  0  0  0  0  0
   -3.0736    0.5739    0.9932 O   0  0  0  0  0  0  0  0  0  0  0  0
   -3.1314   -1.5362    2.0758 C   0  0  0  0  0  0  0  0  0  0  0  0
   -2.5789   -2.0918    1.3149 H   0  0  0  0  0  0  0  0  0  0  0  0
   -2.8781   -1.9362    3.0610 H   0  0  0  0  0  0  0  0  0  0  0  0
   -4.2034   -1.6690    1.9081 H   0  0  0  0  0  0  0  0  0  0  0  0
   -2.0328    0.5443    2.9795 N   0  0  0  0  0  0  0  0  0  0  0  0
   -1.5885    1.9480    2.9174 C   0  0  2  0  0  0  0  0  0  0  0  0
   -0.3255    2.1092    2.0379 C   0  0  0  0  0  0  0  0  0  0  0  0
    0.7036    2.6039    2.4835 O   0  0  0  0  0  0  0  0  0  0  0  0
   -1.3780    2.4138    4.3635 C   0  0  0  0  0  0  0  0  0  0  0  0
   -1.5712   -0.0879    3.6424 H   0  0  0  0  0  0  0  0  0  0  0  0
   -2.3762    2.5682    2.4756 H   0  0  0  0  0  0  0  0  0  0  0  0
   -0.5974    1.8200    4.8500 H   0  0  0  0  0  0  0  0  0  0  0  0
   -1.0786    3.4664    4.3856 H   0  0  0  0  0  0  0  0  0  0  0  0
   -2.3046    2.3074    4.9357 H   0  0  0  0  0  0  0  0  0  0  0  0
   -0.3044    1.5249    0.7856 N   0  0  0  0  0  0  0  0  0  0  0  0
    0.7990    0.7358    0.1800 C   0  0  2  0  0  0  0  0  0  0  0  0
    1.7368   -0.0908    1.1025 C   0  0  0  0  0  0  0  0  0  0  0  0
    2.1916   -1.1413    0.6627 O   0  0  0  0  0  0  0  0  0  0  0  0
    1.6770    1.6924   -0.6459 C   0  0  0  0  0  0  0  0  0  0  0  0
    0.9267    2.2259   -1.8430 C   0  0  0  0  0  0  0  0  0  0  0  0
    0.8108    1.4545   -3.0092 C   0  0  0  0  0  0  0  0  0  0  0  0
    0.3272    3.4930   -1.8006 C   0  0  0  0  0  0  0  0  0  0  0  0
    0.1078    1.9427   -4.1161 C   0  0  0  0  0  0  0  0  0  0  0  0
   -0.3760    3.9831   -2.9063 C   0  0  0  0  0  0  0  0  0  0  0  0
   -0.4860    3.2076   -4.0648 C   0  0  0  0  0  0  0  0  0  0  0  0
   -1.2413    1.2300    0.4940 H   0  0  0  0  0  0  0  0  0  0  0  0
    0.3434    0.0085   -0.4997 H   0  0  0  0  0  0  0  0  0  0  0  0
    2.5679    1.1629   -1.0007 H   0  0  0  0  0  0  0  0  0  0  0  0
    2.0230    2.5178   -0.0144 H   0  0  0  0  0  0  0  0  0  0  0  0
    1.2687    0.4709   -3.0580 H   0  0  0  0  0  0  0  0  0  0  0  0
    0.4047    4.0975   -0.9014 H   0  0  0  0  0  0  0  0  0  0  0  0
    0.0233    1.3394   -5.0151 H   0  0  0  0  0  0  0  0  0  0  0  0
   -0.8371    4.9654   -2.8638 H   0  0  0  0  0  0  0  0  0  0  0  0
   -1.0324    3.5873   -4.9234 H   0  0  0  0  0  0  0  0  0  0  0  0
    1.8104    0.0873    2.4695 N   0  0  0  0  0  0  0  0  0  0  0  0
    2.0295   -0.9961    3.4265 C   0  0  2  0  0  0  0  0  0  0  0  0
    0.7981   -1.9261    3.4764 C   0  0  0  0  0  0  0  0  0  0  0  0
   -0.2577   -1.5526    3.9856 O   0  0  0  0  0  0  0  0  0  0  0  0
    2.3223   -0.3673    4.7919 C   0  0  0  0  0  0  0  0  0  0  0  0
    1.4301    0.9689    2.8179 H   0  0  0  0  0  0  0  0  0  0  0  0
    2.9030   -1.5853    3.1275 H   0  0  0  0  0  0  0  0  0  0  0  0
    1.4821    0.2520    5.1218 H   0  0  0  0  0  0  0  0  0  0  0  0
    2.4939   -1.1468    5.5404 H   0  0  0  0  0  0  0  0  0  0  0  0
    3.2157    0.2621    4.7349 H   0  0  0  0  0  0  0  0  0  0  0  0
    0.8645   -3.1580    2.8555 N   0  0  0  0  0  0  0  0  0  0  0  0
   -0.2761   -4.0523    2.7069 C   0  0  0  0  0  0  0  0  0  0  0  0
    1.6596   -3.2877    2.2310 H   0  0  0  0  0  0  0  0  0  0  0  0
   -0.8424   -4.1225    3.6417 H   0  0  0  0  0  0  0  0  0  0  0  0
   -0.9408   -3.6932    1.9162 H   0  0  0  0  0  0  0  0  0  0  0  0
    0.0673   -5.0571    2.4423 H   0  0  0  0  0  0  0  0  0  0  0  0
  1  2  2  0  0  0  0
  1  3  1  0  0  0  0
  1  7  1  0  0  0  0
  3  4  1  0  0  0  0
  3  5  1  0  0  0  0
  3  6  1  0  0  0  0
  7  8  1  0  0  0  0
  7 12  1  0  0  0  0
  8  9  1  0  0  0  0
  8 11  1  0  0  0  0
  8 13  1  0  0  0  0
  9 10  2  0  0  0  0
  9 17  1  0  0  0  0
 11 14  1  0  0  0  0
 11 15  1  0  0  0  0
 11 16  1  0  0  0  0
 17 18  1  0  0  0  0
 17 28  1  0  0  0  0
 18 19  1  0  0  0  0
 18 21  1  0  0  0  0
 18 29  1  0  0  0  0
 19 20  2  0  0  0  0
 19 37  1  0  0  0  0
 21 22  1  0  0  0  0
 21 30  1  0  0  0  0
 21 31  1  0  0  0  0
 22 23  1  0  0  0  0
 22 24  2  0  0  0  0
 23 25  2  0  0  0  0
 23 32  1  0  0  0  0
 24 26  1  0  0  0  0
 24 33  1  0  0  0  0
 25 27  1  0  0  0  0
 25 34  1  0  0  0  0
 26 27  2  0  0  0  0
 26 35  1  0  0  0  0
 27 36  1  0  0  0  0
 37 38  1  0  0  0  0
 37 42  1  0  0  0  0
 38 39  1  0  0  0  0
 38 41  1  0  0  0  0
 38 43  1  0  0  0  0
 39 40  2  0  0  0  0
 39 47  1  0  0  0  0
 41 44  1  0  0  0  0
 41 45  1  0  0  0  0
 41 46  1  0  0  0  0
 47 48  1  0  0  0  0
 47 49  1  0  0  0  0
 48 50  1  0  0  0  0
 48 51  1  0  0  0  0
 48 52  1  0  0  0  0
M  END
$$$$

  -OEChem-05262217163D

 52 52  0     1  0  0  0  0  0999 V2000
   -3.6240    0.3659    3.3900 C   0  0  0  0  0  0  0  0  0  0  0  0
   -3.8613   -0.2913    2.3890 O   0  0  0  0  0  0  0  0  0  0  0  0
   -3.9827   -0.1696    4.7627 C   0  0  0  0  0  0  0  0  0  0  0  0
   -4.4930   -1.1323    4.6697 H   0  0  0  0  0  0  0  0  0  0  0  0
   -3.0766   -0.3088    5.3575 H   0  0  0  0  0  0  0  0  0  0  0  0
   -4.6442    0.5318    5.2766 H   0  0  0  0  0  0  0  0  0  0  0  0
   -2.9811    1.5808    3.2723 N   0  0  0  0  0  0  0  0  0  0  0  0
   -2.3706    2.0222    2.0113 C   0  0  2  0  0  0  0  0  0  0  0  0
   -0.9569    1.4335    1.8206 C   0  0  0  0  0  0  0  0  0  0  0  0
   -0.1965    1.3799    2.7784 O   0  0  0  0  0  0  0  0  0  0  0  0
   -2.3216    3.5517    2.0191 C   0  0  0  0  0  0  0  0  0  0  0  0
   -2.6133    1.9739    4.1346 H   0  0  0  0  0  0  0  0  0  0  0  0
   -2.9925    1.7062    1.1663 H   0  0  0  0  0  0  0  0  0  0  0  0
   -1.7001    3.9126    2.8449 H   0  0  0  0  0  0  0  0  0  0  0  0
   -1.9022    3.9244    1.0795 H   0  0  0  0  0  0  0  0  0  0  0  0
   -3.3293    3.9628    2.1348 H   0  0  0  0  0  0  0  0  0  0  0  0
   -0.5205    1.0986    0.5507 N   0  0  0  0  0  0  0  0  0  0  0  0
    0.7275    0.4244    0.1089 C   0  0  2  0  0  0  0  0  0  0  0  0
    1.4528   -0.6172    1.0081 C   0  0  0  0  0  0  0  0  0  0  0  0
    2.3923   -1.2405    0.5248 O   0  0  0  0  0  0  0  0  0  0  0  0
    1.7271    1.5546   -0.2154 C   0  0  0  0  0  0  0  0  0  0  0  0
    1.2757    2.3505   -1.4171 C   0  0  0  0  0  0  0  0  0  0  0  0
    1.5147    1.8729   -2.7138 C   0  0  0  0  0  0  0  0  0  0  0  0
    0.6174    3.5783   -1.2513 C   0  0  0  0  0  0  0  0  0  0  0  0
    1.0896    2.6044   -3.8282 C   0  0  0  0  0  0  0  0  0  0  0  0
    0.1932    4.3121   -2.3643 C   0  0  0  0  0  0  0  0  0  0  0  0
    0.4271    3.8236   -3.6535 C   0  0  0  0  0  0  0  0  0  0  0  0
   -1.2117    1.2488   -0.1803 H   0  0  0  0  0  0  0  0  0  0  0  0
    0.4970   -0.1231   -0.8105 H   0  0  0  0  0  0  0  0  0  0  0  0
    2.7152    1.1360   -0.4345 H   0  0  0  0  0  0  0  0  0  0  0  0
    1.8442    2.2072    0.6566 H   0  0  0  0  0  0  0  0  0  0  0  0
    2.0326    0.9288   -2.8584 H   0  0  0  0  0  0  0  0  0  0  0  0
    0.4383    3.9669   -0.2533 H   0  0  0  0  0  0  0  0  0  0  0  0
    1.2776    2.2260   -4.8290 H   0  0  0  0  0  0  0  0  0  0  0  0
   -0.3127    5.2636   -2.2282 H   0  0  0  0  0  0  0  0  0  0  0  0
    0.0998    4.3927   -4.5190 H   0  0  0  0  0  0  0  0  0  0  0  0
    1.0228   -1.0035    2.2620 N   0  0  0  0  0  0  0  0  0  0  0  0
    1.7584   -1.9126    3.1544 C   0  0  2  0  0  0  0  0  0  0  0  0
    1.5093   -3.4071    2.8354 C   0  0  0  0  0  0  0  0  0  0  0  0
    1.1196   -4.1951    3.6899 O   0  0  0  0  0  0  0  0  0  0  0  0
    1.3644   -1.5386    4.5888 C   0  0  0  0  0  0  0  0  0  0  0  0
    0.3532   -0.3659    2.6952 H   0  0  0  0  0  0  0  0  0  0  0  0
    2.8339   -1.7377    3.0472 H   0  0  0  0  0  0  0  0  0  0  0  0
    0.2972   -1.7202    4.7527 H   0  0  0  0  0  0  0  0  0  0  0  0
    1.9329   -2.1376    5.3074 H   0  0  0  0  0  0  0  0  0  0  0  0
    1.5737   -0.4813    4.7793 H   0  0  0  0  0  0  0  0  0  0  0  0
    1.7687   -3.8766    1.5632 N   0  0  0  0  0  0  0  0  0  0  0  0
    1.5941   -5.2618    1.1504 C   0  0  0  0  0  0  0  0  0  0  0  0
    2.1060   -3.1843    0.8897 H   0  0  0  0  0  0  0  0  0  0  0  0
    2.2429   -5.9201    1.7371 H   0  0  0  0  0  0  0  0  0  0  0  0
    0.5543   -5.5745    1.2909 H   0  0  0  0  0  0  0  0  0  0  0  0
    1.8501   -5.3758    0.0928 H   0  0  0  0  0  0  0  0  0  0  0  0
  1  2  2  0  0  0  0
  1  3  1  0  0  0  0
  1  7  1  0  0  0  0
  3  4  1  0  0  0  0
  3  5  1  0  0  0  0
  3  6  1  0  0  0  0
  7  8  1  0  0  0  0
  7 12  1  0  0  0  0
  8  9  1  0  0  0  0
  8 11  1  0  0  0  0
  8 13  1  0  0  0  0
  9 10  2  0  0  0  0
  9 17  1  0  0  0  0
 11 14  1  0  0  0  0
 11 15  1  0  0  0  0
 11 16  1  0  0  0  0
 17 18  1  0  0  0  0
 17 28  1  0  0  0  0
 18 19  1  0  0  0  0
 18 21  1  0  0  0  0
 18 29  1  0  0  0  0
 19 20  2  0  0  0  0
 19 37  1  0  0  0  0
 21 22  1  0  0  0  0
 21 30  1  0  0  0  0
 21 31  1  0  0  0  0
 22 23  1  0  0  0  0
 22 24  2  0  0  0  0
 23 25  2  0  0  0  0
 23 32  1  0  0  0  0
 24 26  1  0  0  0  0
 24 33  1  0  0  0  0
 25 27  1  0  0  0  0
 25 34  1  0  0  0  0
 26 27  2  0  0  0  0
 26 35  1  0  0  0  0
 27 36  1  0  0  0  0
 37 38  1  0  0  0  0
 37 42  1  0  0  0  0
 38 39  1  0  0  0  0
 38 41  1  0  0  0  0
 38 43  1  0  0  0  0
 39 40  2  0  0  0  0
 39 47  1  0  0  0  0
 41 44  1  0  0  0  0
 41 45  1  0  0  0  0
 41 46  1  0  0  0  0
 47 48  1  0  0  0  0
 47 49  1  0  0  0  0
 48 50  1  0  0  0  0
 48 51  1  0  0  0  0
 48 52  1  0  0  0  0
M  END
$$$$

  -OEChem-05262217163D

 52 52  0     1  0  0  0  0  0999 V2000
   -2.2763    3.0415    3.6077 C   0  0  0  0  0  0  0  0  0  0  0  0
   -1.5794    3.5511    2.7452 O   0  0  0  0  0  0  0  0  0  0  0  0
   -2.3541    3.6752    4.9837 C   0  0  0  0  0  0  0  0  0  0  0  0
   -3.3801    3.9861    5.1943 H   0  0  0  0  0  0  0  0  0  0  0  0
   -2.0329    2.9592    5.7443 H   0  0  0  0  0  0  0  0  0  0  0  0
   -1.7031    4.5527    5.0322 H   0  0  0  0  0  0  0  0  0  0  0  0
   -2.9860    1.8837    3.3504 N   0  0  0  0  0  0  0  0  0  0  0  0
   -2.8264    1.0631    2.1359 C   0  0  2  0  0  0  0  0  0  0  0  0
   -1.3849    0.5157    1.9727 C   0  0  0  0  0  0  0  0  0  0  0  0
   -0.8514   -0.0014    2.9438 O   0  0  0  0  0  0  0  0  0  0  0  0
   -3.3496    1.8196    0.9007 C   0  0  0  0  0  0  0  0  0  0  0  0
   -3.3984    1.4381    4.1649 H   0  0  0  0  0  0  0  0  0  0  0  0
   -3.4638    0.1814    2.2531 H   0  0  0  0  0  0  0  0  0  0  0  0
   -2.6976    2.6580    0.6381 H   0  0  0  0  0  0  0  0  0  0  0  0
   -3.4106    1.1478    0.0389 H   0  0  0  0  0  0  0  0  0  0  0  0
   -4.3515    2.2129    1.0982 H   0  0  0  0  0  0  0  0  0  0  0  0
   -0.7423    0.5566    0.7447 N   0  0  0  0  0  0  0  0  0  0  0  0
    0.6224    0.1221    0.3500 C   0  0  2  0  0  0  0  0  0  0  0  0
    1.3452   -1.0559    1.0649 C   0  0  0  0  0  0  0  0  0  0  0  0
    2.4907   -1.3354    0.7256 O   0  0  0  0  0  0  0  0  0  0  0  0
    1.5027    1.3899    0.4093 C   0  0  0  0  0  0  0  0  0  0  0  0
    1.0851    2.3761   -0.6574 C   0  0  0  0  0  0  0  0  0  0  0  0
    1.5247    2.2196   -1.9804 C   0  0  0  0  0  0  0  0  0  0  0  0
    0.2551    3.4607   -0.3388 C   0  0  0  0  0  0  0  0  0  0  0  0
    1.1252    3.1221   -2.9722 C   0  0  0  0  0  0  0  0  0  0  0  0
   -0.1457    4.3637   -1.3283 C   0  0  0  0  0  0  0  0  0  0  0  0
    0.2870    4.1932   -2.6469 C   0  0  0  0  0  0  0  0  0  0  0  0
   -1.2150    1.1433    0.0606 H   0  0  0  0  0  0  0  0  0  0  0  0
    0.5617   -0.2092   -0.6910 H   0  0  0  0  0  0  0  0  0  0  0  0
    2.5559    1.1376    0.2483 H   0  0  0  0  0  0  0  0  0  0  0  0
    1.4312    1.8446    1.4037 H   0  0  0  0  0  0  0  0  0  0  0  0
    2.1786    1.3922   -2.2409 H   0  0  0  0  0  0  0  0  0  0  0  0
   -0.0776    3.6095    0.6847 H   0  0  0  0  0  0  0  0  0  0  0  0
    1.4694    2.9927   -3.9941 H   0  0  0  0  0  0  0  0  0  0  0  0
   -0.7868    5.2006   -1.0663 H   0  0  0  0  0  0  0  0  0  0  0  0
   -0.0209    4.8967   -3.4150 H   0  0  0  0  0  0  0  0  0  0  0  0
    0.6992   -1.9621    1.8830 N   0  0  0  0  0  0  0  0  0  0  0  0
    1.3723   -3.0585    2.5976 C   0  0  2  0  0  0  0  0  0  0  0  0
    1.5677   -4.3189    1.7198 C   0  0  0  0  0  0  0  0  0  0  0  0
    1.1510   -5.4200    2.0623 O   0  0  0  0  0  0  0  0  0  0  0  0
    0.5488   -3.3347    3.8616 C   0  0  0  0  0  0  0  0  0  0  0  0
   -0.1548   -1.5943    2.3048 H   0  0  0  0  0  0  0  0  0  0  0  0
    2.3685   -2.7317    2.9141 H   0  0  0  0  0  0  0  0  0  0  0  0
   -0.4551   -3.6830    3.5983 H   0  0  0  0  0  0  0  0  0  0  0  0
    0.4572   -2.4244    4.4626 H   0  0  0  0  0  0  0  0  0  0  0  0
    1.0339   -4.1038    4.4710 H   0  0  0  0  0  0  0  0  0  0  0  0
    2.2535   -4.2058    0.5270 N   0  0  0  0  0  0  0  0  0  0  0  0
    2.5259   -5.3168   -0.3734 C   0  0  0  0  0  0  0  0  0  0  0  0
    2.5899   -3.2680    0.2929 H   0  0  0  0  0  0  0  0  0  0  0  0
    3.1326   -6.0769    0.1294 H   0  0  0  0  0  0  0  0  0  0  0  0
    1.5902   -5.7761   -0.7085 H   0  0  0  0  0  0  0  0  0  0  0  0
    3.0727   -4.9635   -1.2528 H   0  0  0  0  0  0  0  0  0  0  0  0
  1  2  2  0  0  0  0
  1  3  1  0  0  0  0
  1  7  1  0  0  0  0
  3  4  1  0  0  0  0
  3  5  1  0  0  0  0
  3  6  1  0  0  0  0
  7  8  1  0  0  0  0
  7 12  1  0  0  0  0
  8  9  1  0  0  0  0
  8 11  1  0  0  0  0
  8 13  1  0  0  0  0
  9 10  2  0  0  0  0
  9 17  1  0  0  0  0
 11 14  1  0  0  0  0
 11 15  1  0  0  0  0
 11 16  1  0  0  0  0
 17 18  1  0  0  0  0
 17 28  1  0  0  0  0
 18 19  1  0  0  0  0
 18 21  1  0  0  0  0
 18 29  1  0  0  0  0
 19 20  2  0  0  0  0
 19 37  1  0  0  0  0
 21 22  1  0  0  0  0
 21 30  1  0  0  0  0
 21 31  1  0  0  0  0
 22 23  1  0  0  0  0
 22 24  2  0  0  0  0
 23 25  2  0  0  0  0
 23 32  1  0  0  0  0
 24 26  1  0  0  0  0
 24 33  1  0  0  0  0
 25 27  1  0  0  0  0
 25 34  1  0  0  0  0
 26 27  2  0  0  0  0
 26 35  1  0  0  0  0
 27 36  1  0  0  0  0
 37 38  1  0  0  0  0
 37 42  1  0  0  0  0
 38 39  1  0  0  0  0
 38 41  1  0  0  0  0
 38 43  1  0  0  0  0
 39 40  2  0  0  0  0
 39 47  1  0  0  0  0
 41 44  1  0  0  0  0
 41 45  1  0  0  0  0
 41 46  1  0  0  0  0
 47 48  1  0  0  0  0
 47 49  1  0  0  0  0
 48 50  1  0  0  0  0
 48 51  1  0  0  0  0
 48 52  1  0  0  0  0
M  END
$$$$

  -OEChem-05262217163D

 52 52  0     1  0  0  0  0  0999 V2000
   -2.7787   -0.1619    3.3262 C   0  0  0  0  0  0  0  0  0  0  0  0
   -2.4864   -0.7532    2.2954 O   0  0  0  0  0  0  0  0  0  0  0  0
   -3.1908   -0.9327    4.5660 C   0  0  0  0  0  0  0  0  0  0  0  0
   -3.2553   -2.0011    4.3414 H   0  0  0  0  0  0  0  0  0  0  0  0
   -2.4559   -0.7837    5.3609 H   0  0  0  0  0  0  0  0  0  0  0  0
   -4.1678   -0.5886    4.9137 H   0  0  0  0  0  0  0  0  0  0  0  0
   -2.6912    1.2151    3.3635 N   0  0  0  0  0  0  0  0  0  0  0  0
   -2.1918    2.0041    2.2293 C   0  0  2  0  0  0  0  0  0  0  0  0
   -0.7524    1.6138    1.8268 C   0  0  0  0  0  0  0  0  0  0  0  0
    0.1406    1.6174    2.6633 O   0  0  0  0  0  0  0  0  0  0  0  0
   -2.2582    3.4858    2.6069 C   0  0  0  0  0  0  0  0  0  0  0  0
   -2.7348    1.6537    4.2790 H   0  0  0  0  0  0  0  0  0  0  0  0
   -2.8463    1.8357    1.3678 H   0  0  0  0  0  0  0  0  0  0  0  0
   -1.6267    3.6893    3.4781 H   0  0  0  0  0  0  0  0  0  0  0  0
   -1.9089    4.1054    1.7749 H   0  0  0  0  0  0  0  0  0  0  0  0
   -3.2869    3.7736    2.8444 H   0  0  0  0  0  0  0  0  0  0  0  0
   -0.4793    1.2839    0.5106 N   0  0  0  0  0  0  0  0  0  0  0  0
    0.6943    0.5318    0.0126 C   0  0  2  0  0  0  0  0  0  0  0  0
    1.3224   -0.5269    0.9621 C   0  0  0  0  0  0  0  0  0  0  0  0
    2.4811   -0.8972    0.7979 O   0  0  0  0  0  0  0  0  0  0  0  0
    1.7410    1.5795   -0.4268 C   0  0  0  0  0  0  0  0  0  0  0  0
    1.2534    2.3542   -1.6294 C   0  0  0  0  0  0  0  0  0  0  0  0
    1.3677    1.8099   -2.9170 C   0  0  0  0  0  0  0  0  0  0  0  0
    0.6757    3.6229   -1.4730 C   0  0  0  0  0  0  0  0  0  0  0  0
    0.9046    2.5191   -4.0304 C   0  0  0  0  0  0  0  0  0  0  0  0
    0.2126    4.3339   -2.5855 C   0  0  0  0  0  0  0  0  0  0  0  0
    0.3259    3.7813   -3.8650 C   0  0  0  0  0  0  0  0  0  0  0  0
   -1.2809    1.3176   -0.1132 H   0  0  0  0  0  0  0  0  0  0  0  0
    0.3817   -0.0377   -0.8673 H   0  0  0  0  0  0  0  0  0  0  0  0
    2.6830    1.0913   -0.6970 H   0  0  0  0  0  0  0  0  0  0  0  0
    1.9596    2.2553    0.4070 H   0  0  0  0  0  0  0  0  0  0  0  0
    1.8195    0.8317   -3.0547 H   0  0  0  0  0  0  0  0  0  0  0  0
    0.5879    4.0577   -0.4817 H   0  0  0  0  0  0  0  0  0  0  0  0
    0.9978    2.0897   -5.0236 H   0  0  0  0  0  0  0  0  0  0  0  0
   -0.2312    5.3165   -2.4558 H   0  0  0  0  0  0  0  0  0  0  0  0
   -0.0312    4.3329   -4.7298 H   0  0  0  0  0  0  0  0  0  0  0  0
    0.5617   -1.2141    1.8943 N   0  0  0  0  0  0  0  0  0  0  0  0
    1.1073   -2.1902    2.8516 C   0  0  2  0  0  0  0  0  0  0  0  0
    1.2957   -3.5989    2.2368 C   0  0  0  0  0  0  0  0  0  0  0  0
    0.8192   -4.6031    2.7549 O   0  0  0  0  0  0  0  0  0  0  0  0
    0.1870   -2.1968    4.0760 C   0  0  0  0  0  0  0  0  0  0  0  0
   -0.4183   -0.9396    1.9887 H   0  0  0  0  0  0  0  0  0  0  0  0
    2.0947   -1.8528    3.1836 H   0  0  0  0  0  0  0  0  0  0  0  0
   -0.8023   -2.5788    3.8062 H   0  0  0  0  0  0  0  0  0  0  0  0
    0.6033   -2.8377    4.8597 H   0  0  0  0  0  0  0  0  0  0  0  0
    0.0807   -1.1842    4.4771 H   0  0  0  0  0  0  0  0  0  0  0  0
    2.0573   -3.7357    1.0934 N   0  0  0  0  0  0  0  0  0  0  0  0
    2.3573   -5.0081    0.4533 C   0  0  0  0  0  0  0  0  0  0  0  0
    2.4695   -2.8735    0.7270 H   0  0  0  0  0  0  0  0  0  0  0  0
    1.4328   -5.5278    0.1816 H   0  0  0  0  0  0  0  0  0  0  0  0
    2.9410   -4.8429   -0.4575 H   0  0  0  0  0  0  0  0  0  0  0  0
    2.9373   -5.6472    1.1268 H   0  0  0  0  0  0  0  0  0  0  0  0
  1  2  2  0  0  0  0
  1  3  1  0  0  0  0
  1  7  1  0  0  0  0
  3  4  1  0  0  0  0
  3  5  1  0  0  0  0
  3  6  1  0  0  0  0
  7  8  1  0  0  0  0
  7 12  1  0  0  0  0
  8  9  1  0  0  0  0
  8 11  1  0  0  0  0
  8 13  1  0  0  0  0
  9 10  2  0  0  0  0
  9 17  1  0  0  0  0
 11 14  1  0  0  0  0
 11 15  1  0  0  0  0
 11 16  1  0  0  0  0
 17 18  1  0  0  0  0
 17 28  1  0  0  0  0
 18 19  1  0  0  0  0
 18 21  1  0  0  0  0
 18 29  1  0  0  0  0
 19 20  2  0  0  0  0
 19 37  1  0  0  0  0
 21 22  1  0  0  0  0
 21 30  1  0  0  0  0
 21 31  1  0  0  0  0
 22 23  1  0  0  0  0
 22 24  2  0  0  0  0
 23 25  2  0  0  0  0
 23 32  1  0  0  0  0
 24 26  1  0  0  0  0
 24 33  1  0  0  0  0
 25 27  1  0  0  0  0
 25 34  1  0  0  0  0
 26 27  2  0  0  0  0
 26 35  1  0  0  0  0
 27 36  1  0  0  0  0
 37 38  1  0  0  0  0
 37 42  1  0  0  0  0
 38 39  1  0  0  0  0
 38 41  1  0  0  0  0
 38 43  1  0  0  0  0
 39 40  2  0  0  0  0
 39 47  1  0  0  0  0
 41 44  1  0  0  0  0
 41 45  1  0  0  0  0
 41 46  1  0  0  0  0
 47 48  1  0  0  0  0
 47 49  1  0  0  0  0
 48 50  1  0  0  0  0
 48 51  1  0  0  0  0
 48 52  1  0  0  0  0
M  END
$$$$

  -OEChem-05262217163D

 52 52  0     1  0  0  0  0  0999 V2000
   -2.7864   -0.2495    3.0533 C   0  0  0  0  0  0  0  0  0  0  0  0
   -2.4570   -0.7150    1.9703 O   0  0  0  0  0  0  0  0  0  0  0  0
   -3.3222   -1.1524    4.1482 C   0  0  0  0  0  0  0  0  0  0  0  0
   -3.3971   -2.1818    3.7859 H   0  0  0  0  0  0  0  0  0  0  0  0
   -2.6547   -1.1307    5.0132 H   0  0  0  0  0  0  0  0  0  0  0  0
   -4.3151   -0.8162    4.4565 H   0  0  0  0  0  0  0  0  0  0  0  0
   -2.6450    1.1036    3.2843 N   0  0  0  0  0  0  0  0  0  0  0  0
   -2.0916    2.0347    2.2922 C   0  0  2  0  0  0  0  0  0  0  0  0
   -0.6546    1.6597    1.8648 C   0  0  0  0  0  0  0  0  0  0  0  0
    0.2536    1.6591    2.6845 O   0  0  0  0  0  0  0  0  0  0  0  0
   -2.1356    3.4453    2.8866 C   0  0  0  0  0  0  0  0  0  0  0  0
   -2.7610    1.4247    4.2412 H   0  0  0  0  0  0  0  0  0  0  0  0
   -2.7272    2.0185    1.4010 H   0  0  0  0  0  0  0  0  0  0  0  0
   -1.5235    3.5016    3.7930 H   0  0  0  0  0  0  0  0  0  0  0  0
   -1.7516    4.1734    2.1650 H   0  0  0  0  0  0  0  0  0  0  0  0
   -3.1640    3.7203    3.1410 H   0  0  0  0  0  0  0  0  0  0  0  0
   -0.4193    1.3074    0.5466 N   0  0  0  0  0  0  0  0  0  0  0  0
    0.7430    0.5508    0.0342 C   0  0  2  0  0  0  0  0  0  0  0  0
    1.3685   -0.4714    1.0198 C   0  0  0  0  0  0  0  0  0  0  0  0
    2.5721   -0.7130    1.0107 O   0  0  0  0  0  0  0  0  0  0  0  0
    1.7825    1.5805   -0.4573 C   0  0  0  0  0  0  0  0  0  0  0  0
    1.2683    2.3282   -1.6652 C   0  0  0  0  0  0  0  0  0  0  0  0
    1.3463    1.7526   -2.9419 C   0  0  0  0  0  0  0  0  0  0  0  0
    0.7027    3.6042   -1.5248 C   0  0  0  0  0  0  0  0  0  0  0  0
    0.8614    2.4388   -4.0604 C   0  0  0  0  0  0  0  0  0  0  0  0
    0.2180    4.2927   -2.6421 C   0  0  0  0  0  0  0  0  0  0  0  0
    0.2963    3.7091   -3.9106 C   0  0  0  0  0  0  0  0  0  0  0  0
   -1.2462    1.3019   -0.0443 H   0  0  0  0  0  0  0  0  0  0  0  0
    0.4139   -0.0453   -0.8217 H   0  0  0  0  0  0  0  0  0  0  0  0
    2.7126    1.0768   -0.7400 H   0  0  0  0  0  0  0  0  0  0  0  0
    2.0276    2.2746    0.3536 H   0  0  0  0  0  0  0  0  0  0  0  0
    1.7879    0.7681   -3.0675 H   0  0  0  0  0  0  0  0  0  0  0  0
    0.6415    4.0627   -0.5421 H   0  0  0  0  0  0  0  0  0  0  0  0
    0.9274    1.9858   -5.0453 H   0  0  0  0  0  0  0  0  0  0  0  0
   -0.2148    5.2818   -2.5247 H   0  0  0  0  0  0  0  0  0  0  0  0
   -0.0771    4.2436   -4.7793 H   0  0  0  0  0  0  0  0  0  0  0  0
    0.5495   -1.3153    1.7516 N   0  0  0  0  0  0  0  0  0  0  0  0
    1.0468   -2.3335    2.6903 C   0  0  2  0  0  0  0  0  0  0  0  0
    1.4602   -3.6467    1.9828 C   0  0  0  0  0  0  0  0  0  0  0  0
    0.9666   -4.7288    2.2812 O   0  0  0  0  0  0  0  0  0  0  0  0
   -0.0314   -2.5457    3.7566 C   0  0  0  0  0  0  0  0  0  0  0  0
   -0.4548   -1.1229    1.7269 H   0  0  0  0  0  0  0  0  0  0  0  0
    1.9389   -1.9505    3.1972 H   0  0  0  0  0  0  0  0  0  0  0  0
   -0.9476   -2.9362    3.3025 H   0  0  0  0  0  0  0  0  0  0  0  0
    0.3145   -3.2611    4.5095 H   0  0  0  0  0  0  0  0  0  0  0  0
   -0.2567   -1.5999    4.2576 H   0  0  0  0  0  0  0  0  0  0  0  0
    2.4307   -3.6021    1.0019 N   0  0  0  0  0  0  0  0  0  0  0  0
    2.9050   -4.7628    0.2624 C   0  0  0  0  0  0  0  0  0  0  0  0
    2.8142   -2.6758    0.7947 H   0  0  0  0  0  0  0  0  0  0  0  0
    3.3646   -5.4878    0.9421 H   0  0  0  0  0  0  0  0  0  0  0  0
    2.0751   -5.2471   -0.2625 H   0  0  0  0  0  0  0  0  0  0  0  0
    3.6518   -4.4590   -0.4774 H   0  0  0  0  0  0  0  0  0  0  0  0
  1  2  2  0  0  0  0
  1  3  1  0  0  0  0
  1  7  1  0  0  0  0
  3  4  1  0  0  0  0
  3  5  1  0  0  0  0
  3  6  1  0  0  0  0
  7  8  1  0  0  0  0
  7 12  1  0  0  0  0
  8  9  1  0  0  0  0
  8 11  1  0  0  0  0
  8 13  1  0  0  0  0
  9 10  2  0  0  0  0
  9 17  1  0  0  0  0
 11 14  1  0  0  0  0
 11 15  1  0  0  0  0
 11 16  1  0  0  0  0
 17 18  1  0  0  0  0
 17 28  1  0  0  0  0
 18 19  1  0  0  0  0
 18 21  1  0  0  0  0
 18 29  1  0  0  0  0
 19 20  2  0  0  0  0
 19 37  1  0  0  0  0
 21 22  1  0  0  0  0
 21 30  1  0  0  0  0
 21 31  1  0  0  0  0
 22 23  1  0  0  0  0
 22 24  2  0  0  0  0
 23 25  2  0  0  0  0
 23 32  1  0  0  0  0
 24 26  1  0  0  0  0
 24 33  1  0  0  0  0
 25 27  1  0  0  0  0
 25 34  1  0  0  0  0
 26 27  2  0  0  0  0
 26 35  1  0  0  0  0
 27 36  1  0  0  0  0
 37 38  1  0  0  0  0
 37 42  1  0  0  0  0
 38 39  1  0  0  0  0
 38 41  1  0  0  0  0
 38 43  1  0  0  0  0
 39 40  2  0  0  0  0
 39 47  1  0  0  0  0
 41 44  1  0  0  0  0
 41 45  1  0  0  0  0
 41 46  1  0  0  0  0
 47 48  1  0  0  0  0
 47 49  1  0  0  0  0
 48 50  1  0  0  0  0
 48 51  1  0  0  0  0
 48 52  1  0  0  0  0
M  END
$$$$

  -OEChem-05262217163D

 52 52  0     1  0  0  0  0  0999 V2000
   -2.7428   -0.2991    2.9688 C   0  0  0  0  0  0  0  0  0  0  0  0
   -2.4090   -0.7214    1.8690 O   0  0  0  0  0  0  0  0  0  0  0  0
   -3.2691   -1.2501    4.0274 C   0  0  0  0  0  0  0  0  0  0  0  0
   -3.2566   -2.2777    3.6534 H   0  0  0  0  0  0  0  0  0  0  0  0
   -2.6467   -1.1950    4.9238 H   0  0  0  0  0  0  0  0  0  0  0  0
   -4.2961   -0.9850    4.2900 H   0  0  0  0  0  0  0  0  0  0  0  0
   -2.6290    1.0475    3.2510 N   0  0  0  0  0  0  0  0  0  0  0  0
   -2.0951    2.0297    2.2979 C   0  0  2  0  0  0  0  0  0  0  0  0
   -0.6427    1.7135    1.8764 C   0  0  0  0  0  0  0  0  0  0  0  0
    0.2624    1.7492    2.6983 O   0  0  0  0  0  0  0  0  0  0  0  0
   -2.1918    3.4177    2.9376 C   0  0  0  0  0  0  0  0  0  0  0  0
   -2.7540    1.3295    4.2192 H   0  0  0  0  0  0  0  0  0  0  0  0
   -2.7199    2.0239    1.3988 H   0  0  0  0  0  0  0  0  0  0  0  0
   -1.5935    3.4631    3.8538 H   0  0  0  0  0  0  0  0  0  0  0  0
   -1.8221    4.1810    2.2455 H   0  0  0  0  0  0  0  0  0  0  0  0
   -3.2317    3.6512    3.1862 H   0  0  0  0  0  0  0  0  0  0  0  0
   -0.4018    1.3343    0.5672 N   0  0  0  0  0  0  0  0  0  0  0  0
    0.7666    0.5729    0.0799 C   0  0  2  0  0  0  0  0  0  0  0  0
    1.3740   -0.4132    1.1099 C   0  0  0  0  0  0  0  0  0  0  0  0
    2.5876   -0.5250    1.2594 O   0  0  0  0  0  0  0  0  0  0  0  0
    1.8094    1.5896   -0.4300 C   0  0  0  0  0  0  0  0  0  0  0  0
    1.3047    2.3074   -1.6595 C   0  0  0  0  0  0  0  0  0  0  0  0
    1.3916    1.7011   -2.9214 C   0  0  0  0  0  0  0  0  0  0  0  0
    0.7314    3.5828   -1.5525 C   0  0  0  0  0  0  0  0  0  0  0  0
    0.9088    2.3581   -4.0584 C   0  0  0  0  0  0  0  0  0  0  0  0
    0.2469    4.2408   -2.6880 C   0  0  0  0  0  0  0  0  0  0  0  0
    0.3347    3.6278   -3.9417 C   0  0  0  0  0  0  0  0  0  0  0  0
   -1.2326    1.2877   -0.0165 H   0  0  0  0  0  0  0  0  0  0  0  0
    0.4495   -0.0478   -0.7629 H   0  0  0  0  0  0  0  0  0  0  0  0
    2.7400    1.0755   -0.6921 H   0  0  0  0  0  0  0  0  0  0  0  0
    2.0499    2.3040    0.3650 H   0  0  0  0  0  0  0  0  0  0  0  0
    1.8383    0.7160   -3.0217 H   0  0  0  0  0  0  0  0  0  0  0  0
    0.6623    4.0635   -0.5810 H   0  0  0  0  0  0  0  0  0  0  0  0
    0.9823    1.8817   -5.0317 H   0  0  0  0  0  0  0  0  0  0  0  0
   -0.1951    5.2285   -2.5961 H   0  0  0  0  0  0  0  0  0  0  0  0
   -0.0389    4.1384   -4.8243 H   0  0  0  0  0  0  0  0  0  0  0  0
    0.5710   -1.4242    1.6100 N   0  0  0  0  0  0  0  0  0  0  0  0
    1.0583   -2.5103    2.4751 C   0  0  2  0  0  0  0  0  0  0  0  0
    1.7018   -3.6639    1.6681 C   0  0  0  0  0  0  0  0  0  0  0  0
    1.2871   -4.8157    1.7366 O   0  0  0  0  0  0  0  0  0  0  0  0
   -0.1142   -2.9717    3.3455 C   0  0  0  0  0  0  0  0  0  0  0  0
   -0.4393   -1.3049    1.5010 H   0  0  0  0  0  0  0  0  0  0  0  0
    1.8318   -2.1206    3.1454 H   0  0  0  0  0  0  0  0  0  0  0  0
   -0.9336   -3.3445    2.7224 H   0  0  0  0  0  0  0  0  0  0  0  0
    0.2038   -3.7744    4.0183 H   0  0  0  0  0  0  0  0  0  0  0  0
   -0.4789   -2.1392    3.9526 H   0  0  0  0  0  0  0  0  0  0  0  0
    2.7881   -3.3905    0.8611 N   0  0  0  0  0  0  0  0  0  0  0  0
    3.4846   -4.3850    0.0580 C   0  0  0  0  0  0  0  0  0  0  0  0
    3.0913   -2.4131    0.8354 H   0  0  0  0  0  0  0  0  0  0  0  0
    3.8805   -5.1826    0.6951 H   0  0  0  0  0  0  0  0  0  0  0  0
    2.8051   -4.8260   -0.6784 H   0  0  0  0  0  0  0  0  0  0  0  0
    4.3199   -3.9208   -0.4747 H   0  0  0  0  0  0  0  0  0  0  0  0
  1  2  2  0  0  0  0
  1  3  1  0  0  0  0
  1  7  1  0  0  0  0
  3  4  1  0  0  0  0
  3  5  1  0  0  0  0
  3  6  1  0  0  0  0
  7  8  1  0  0  0  0
  7 12  1  0  0  0  0
  8  9  1  0  0  0  0
  8 11  1  0  0  0  0
  8 13  1  0  0  0  0
  9 10  2  0  0  0  0
  9 17  1  0  0  0  0
 11 14  1  0  0  0  0
 11 15  1  0  0  0  0
 11 16  1  0  0  0  0
 17 18  1  0  0  0  0
 17 28  1  0  0  0  0
 18 19  1  0  0  0  0
 18 21  1  0  0  0  0
 18 29  1  0  0  0  0
 19 20  2  0  0  0  0
 19 37  1  0  0  0  0
 21 22  1  0  0  0  0
 21 30  1  0  0  0  0
 21 31  1  0  0  0  0
 22 23  1  0  0  0  0
 22 24  2  0  0  0  0
 23 25  2  0  0  0  0
 23 32  1  0  0  0  0
 24 26  1  0  0  0  0
 24 33  1  0  0  0  0
 25 27  1  0  0  0  0
 25 34  1  0  0  0  0
 26 27  2  0  0  0  0
 26 35  1  0  0  0  0
 27 36  1  0  0  0  0
 37 38  1  0  0  0  0
 37 42  1  0  0  0  0
 38 39  1  0  0  0  0
 38 41  1  0  0  0  0
 38 43  1  0  0  0  0
 39 40  2  0  0  0  0
 39 47  1  0  0  0  0
 41 44  1  0  0  0  0
 41 45  1  0  0  0  0
 41 46  1  0  0  0  0
 47 48  1  0  0  0  0
 47 49  1  0  0  0  0
 48 50  1  0  0  0  0
 48 51  1  0  0  0  0
 48 52  1  0  0  0  0
M  END
$$$$

  -OEChem-05262217163D

 52 52  0     1  0  0  0  0  0999 V2000
   -2.6958   -0.3260    2.8894 C   0  0  0  0  0  0  0  0  0  0  0  0
   -2.3979   -0.6848    1.7567 O   0  0  0  0  0  0  0  0  0  0  0  0
   -3.1717   -1.3409    3.9120 C   0  0  0  0  0  0  0  0  0  0  0  0
   -3.2397   -2.3334    3.4575 H   0  0  0  0  0  0  0  0  0  0  0  0
   -2.4721   -1.3838    4.7506 H   0  0  0  0  0  0  0  0  0  0  0  0
   -4.1590   -1.0594    4.2863 H   0  0  0  0  0  0  0  0  0  0  0  0
   -2.5892    1.0035    3.2473 N   0  0  0  0  0  0  0  0  0  0  0  0
   -2.0799    2.0470    2.3472 C   0  0  2  0  0  0  0  0  0  0  0  0
   -0.6291    1.7702    1.8942 C   0  0  0  0  0  0  0  0  0  0  0  0
    0.2897    1.8178    2.6994 O   0  0  0  0  0  0  0  0  0  0  0  0
   -2.1853    3.3937    3.0694 C   0  0  0  0  0  0  0  0  0  0  0  0
   -2.6768    1.2216    4.2359 H   0  0  0  0  0  0  0  0  0  0  0  0
   -2.7146    2.0877    1.4561 H   0  0  0  0  0  0  0  0  0  0  0  0
   -1.5740    3.3942    3.9780 H   0  0  0  0  0  0  0  0  0  0  0  0
   -1.8355    4.2009    2.4181 H   0  0  0  0  0  0  0  0  0  0  0  0
   -3.2239    3.5985    3.3465 H   0  0  0  0  0  0  0  0  0  0  0  0
   -0.4122    1.3844    0.5834 N   0  0  0  0  0  0  0  0  0  0  0  0
    0.7302    0.5869    0.0954 C   0  0  2  0  0  0  0  0  0  0  0  0
    1.3064   -0.4112    1.1325 C   0  0  0  0  0  0  0  0  0  0  0  0
    2.4934   -0.4095    1.4469 O   0  0  0  0  0  0  0  0  0  0  0  0
    1.8082    1.5648   -0.4170 C   0  0  0  0  0  0  0  0  0  0  0  0
    1.3347    2.3013   -1.6481 C   0  0  0  0  0  0  0  0  0  0  0  0
    1.4017    1.6922   -2.9099 C   0  0  0  0  0  0  0  0  0  0  0  0
    0.8179    3.6010   -1.5440 C   0  0  0  0  0  0  0  0  0  0  0  0
    0.9584    2.3715   -4.0498 C   0  0  0  0  0  0  0  0  0  0  0  0
    0.3729    4.2814   -2.6825 C   0  0  0  0  0  0  0  0  0  0  0  0
    0.4433    3.6666   -3.9365 C   0  0  0  0  0  0  0  0  0  0  0  0
   -1.2612    1.3140    0.0291 H   0  0  0  0  0  0  0  0  0  0  0  0
    0.3950   -0.0236   -0.7481 H   0  0  0  0  0  0  0  0  0  0  0  0
    2.7195    1.0148   -0.6739 H   0  0  0  0  0  0  0  0  0  0  0  0
    2.0731    2.2717    0.3770 H   0  0  0  0  0  0  0  0  0  0  0  0
    1.8048    0.6886   -3.0084 H   0  0  0  0  0  0  0  0  0  0  0  0
    0.7636    4.0838   -0.5726 H   0  0  0  0  0  0  0  0  0  0  0  0
    1.0186    1.8942   -5.0235 H   0  0  0  0  0  0  0  0  0  0  0  0
   -0.0231    5.2886   -2.5929 H   0  0  0  0  0  0  0  0  0  0  0  0
    0.1019    4.1952   -4.8218 H   0  0  0  0  0  0  0  0  0  0  0  0
    0.5806   -1.5607    1.3931 N   0  0  0  0  0  0  0  0  0  0  0  0
    1.0810   -2.6863    2.1985 C   0  0  2  0  0  0  0  0  0  0  0  0
    1.9813   -3.6461    1.3821 C   0  0  0  0  0  0  0  0  0  0  0  0
    1.7218   -4.8389    1.2676 O   0  0  0  0  0  0  0  0  0  0  0  0
   -0.1330   -3.3905    2.8131 C   0  0  0  0  0  0  0  0  0  0  0  0
   -0.4228   -1.5098    1.2058 H   0  0  0  0  0  0  0  0  0  0  0  0
    1.6914   -2.3004    3.0220 H   0  0  0  0  0  0  0  0  0  0  0  0
   -0.7956   -3.7719    2.0294 H   0  0  0  0  0  0  0  0  0  0  0  0
    0.1895   -4.2313    3.4354 H   0  0  0  0  0  0  0  0  0  0  0  0
   -0.6923   -2.6942    3.4417 H   0  0  0  0  0  0  0  0  0  0  0  0
    3.1225   -3.1504    0.7840 N   0  0  0  0  0  0  0  0  0  0  0  0
    4.0649   -3.9562    0.0210 C   0  0  0  0  0  0  0  0  0  0  0  0
    3.2986   -2.1503    0.9157 H   0  0  0  0  0  0  0  0  0  0  0  0
    4.5169   -4.7222    0.6596 H   0  0  0  0  0  0  0  0  0  0  0  0
    3.5588   -4.4479   -0.8162 H   0  0  0  0  0  0  0  0  0  0  0  0
    4.8624   -3.3239   -0.3807 H   0  0  0  0  0  0  0  0  0  0  0  0
  1  2  2  0  0  0  0
  1  3  1  0  0  0  0
  1  7  1  0  0  0  0
  3  4  1  0  0  0  0
  3  5  1  0  0  0  0
  3  6  1  0  0  0  0
  7  8  1  0  0  0  0
  7 12  1  0  0  0  0
  8  9  1  0  0  0  0
  8 11  1  0  0  0  0
  8 13  1  0  0  0  0
  9 10  2  0  0  0  0
  9 17  1  0  0  0  0
 11 14  1  0  0  0  0
 11 15  1  0  0  0  0
 11 16  1  0  0  0  0
 17 18  1  0  0  0  0
 17 28  1  0  0  0  0
 18 19  1  0  0  0  0
 18 21  1  0  0  0  0
 18 29  1  0  0  0  0
 19 20  2  0  0  0  0
 19 37  1  0  0  0  0
 21 22  1  0  0  0  0
 21 30  1  0  0  0  0
 21 31  1  0  0  0  0
 22 23  1  0  0  0  0
 22 24  2  0  0  0  0
 23 25  2  0  0  0  0
 23 32  1  0  0  0  0
 24 26  1  0  0  0  0
 24 33  1  0  0  0  0
 25 27  1  0  0  0  0
 25 34  1  0  0  0  0
 26 27  2  0  0  0  0
 26 35  1  0  0  0  0
 27 36  1  0  0  0  0
 37 38  1  0  0  0  0
 37 42  1  0  0  0  0
 38 39  1  0  0  0  0
 38 41  1  0  0  0  0
 38 43  1  0  0  0  0
 39 40  2  0  0  0  0
 39 47  1  0  0  0  0
 41 44  1  0  0  0  0
 41 45  1  0  0  0  0
 41 46  1  0  0  0  0
 47 48  1  0  0  0  0
 47 49  1  0  0  0  0
 48 50  1  0  0  0  0
 48 51  1  0  0  0  0
 48 52  1  0  0  0  0
M  END
$$$$

  -OEChem-05262217163D

 52 52  0     1  0  0  0  0  0999 V2000
   -3.5230    0.3054    3.3456 C   0  0  0  0  0  0  0  0  0  0  0  0
   -3.8557   -0.0975    2.2408 O   0  0  0  0  0  0  0  0  0  0  0  0
   -3.9247   -0.4609    4.5914 C   0  0  0  0  0  0  0  0  0  0  0  0
   -4.5578   -1.3111    4.3234 H   0  0  0  0  0  0  0  0  0  0  0  0
   -3.0335   -0.8330    5.1029 H   0  0  0  0  0  0  0  0  0  0  0  0
   -4.4800    0.1917    5.2694 H   0  0  0  0  0  0  0  0  0  0  0  0
   -2.7368    1.4334    3.4590 N   0  0  0  0  0  0  0  0  0  0  0  0
   -2.0694    2.0275    2.2939 C   0  0  2  0  0  0  0  0  0  0  0  0
   -0.7771    1.2651    1.9339 C   0  0  0  0  0  0  0  0  0  0  0  0
   -0.0302    0.9051    2.8320 O   0  0  0  0  0  0  0  0  0  0  0  0
   -1.7621    3.4914    2.6158 C   0  0  0  0  0  0  0  0  0  0  0  0
   -2.2853    1.5603    4.3613 H   0  0  0  0  0  0  0  0  0  0  0  0
   -2.7406    2.0020    1.4287 H   0  0  0  0  0  0  0  0  0  0  0  0
   -1.0817    3.5617    3.4706 H   0  0  0  0  0  0  0  0  0  0  0  0
   -1.2918    3.9799    1.7570 H   0  0  0  0  0  0  0  0  0  0  0  0
   -2.6845    4.0286    2.8582 H   0  0  0  0  0  0  0  0  0  0  0  0
   -0.4799    1.0151    0.6041 N   0  0  0  0  0  0  0  0  0  0  0  0
    0.7077    0.3316    0.0479 C   0  0  2  0  0  0  0  0  0  0  0  0
    1.3538   -0.7562    0.9461 C   0  0  0  0  0  0  0  0  0  0  0  0
    2.4300   -0.5790    1.5098 O   0  0  0  0  0  0  0  0  0  0  0  0
    1.7352    1.4201   -0.3236 C   0  0  0  0  0  0  0  0  0  0  0  0
    1.2315    2.2691   -1.4673 C   0  0  0  0  0  0  0  0  0  0  0  0
    1.3453    1.8187   -2.7910 C   0  0  0  0  0  0  0  0  0  0  0  0
    0.6387    3.5163   -1.2188 C   0  0  0  0  0  0  0  0  0  0  0  0
    0.8670    2.5993   -3.8490 C   0  0  0  0  0  0  0  0  0  0  0  0
    0.1605    4.2981   -2.2760 C   0  0  0  0  0  0  0  0  0  0  0  0
    0.2735    3.8389   -3.5917 C   0  0  0  0  0  0  0  0  0  0  0  0
   -1.1438    1.3907   -0.0683 H   0  0  0  0  0  0  0  0  0  0  0  0
    0.4096   -0.1824   -0.8705 H   0  0  0  0  0  0  0  0  0  0  0  0
    2.6784    0.9520   -0.6251 H   0  0  0  0  0  0  0  0  0  0  0  0
    1.9514    2.0414    0.5526 H   0  0  0  0  0  0  0  0  0  0  0  0
    1.8090    0.8597   -3.0030 H   0  0  0  0  0  0  0  0  0  0  0  0
    0.5530    3.8825   -0.1999 H   0  0  0  0  0  0  0  0  0  0  0  0
    0.9604    2.2441   -4.8714 H   0  0  0  0  0  0  0  0  0  0  0  0
   -0.2940    5.2641   -2.0765 H   0  0  0  0  0  0  0  0  0  0  0  0
   -0.0937    4.4465   -4.4139 H   0  0  0  0  0  0  0  0  0  0  0  0
    0.9047   -2.0600    0.8286 N   0  0  0  0  0  0  0  0  0  0  0  0
    1.4696   -3.1969    1.5717 C   0  0  2  0  0  0  0  0  0  0  0  0
    2.7395   -3.7738    0.8997 C   0  0  0  0  0  0  0  0  0  0  0  0
    2.7795   -4.9201    0.4673 O   0  0  0  0  0  0  0  0  0  0  0  0
    0.3534   -4.2367    1.7279 C   0  0  0  0  0  0  0  0  0  0  0  0
    0.0154   -2.1954    0.3572 H   0  0  0  0  0  0  0  0  0  0  0  0
    1.7596   -2.8676    2.5756 H   0  0  0  0  0  0  0  0  0  0  0  0
    0.0267   -4.6020    0.7489 H   0  0  0  0  0  0  0  0  0  0  0  0
    0.7104   -5.0898    2.3137 H   0  0  0  0  0  0  0  0  0  0  0  0
   -0.5058   -3.7989    2.2450 H   0  0  0  0  0  0  0  0  0  0  0  0
    3.8569   -2.9723    0.7803 N   0  0  0  0  0  0  0  0  0  0  0  0
    5.0901   -3.3790    0.1220 C   0  0  0  0  0  0  0  0  0  0  0  0
    3.7460   -2.0036    1.0940 H   0  0  0  0  0  0  0  0  0  0  0  0
    5.4735   -4.3051    0.5634 H   0  0  0  0  0  0  0  0  0  0  0  0
    4.9170   -3.5422   -0.9466 H   0  0  0  0  0  0  0  0  0  0  0  0
    5.8515   -2.6017    0.2371 H   0  0  0  0  0  0  0  0  0  0  0  0
  1  2  2  0  0  0  0
  1  3  1  0  0  0  0
  1  7  1  0  0  0  0
  3  4  1  0  0  0  0
  3  5  1  0  0  0  0
  3  6  1  0  0  0  0
  7  8  1  0  0  0  0
  7 12  1  0  0  0  0
  8  9  1  0  0  0  0
  8 11  1  0  0  0  0
  8 13  1  0  0  0  0
  9 10  2  0  0  0  0
  9 17  1  0  0  0  0
 11 14  1  0  0  0  0
 11 15  1  0  0  0  0
 11 16  1  0  0  0  0
 17 18  1  0  0  0  0
 17 28  1  0  0  0  0
 18 19  1  0  0  0  0
 18 21  1  0  0  0  0
 18 29  1  0  0  0  0
 19 20  2  0  0  0  0
 19 37  1  0  0  0  0
 21 22  1  0  0  0  0
 21 30  1  0  0  0  0
 21 31  1  0  0  0  0
 22 23  1  0  0  0  0
 22 24  2  0  0  0  0
 23 25  2  0  0  0  0
 23 32  1  0  0  0  0
 24 26  1  0  0  0  0
 24 33  1  0  0  0  0
 25 27  1  0  0  0  0
 25 34  1  0  0  0  0
 26 27  2  0  0  0  0
 26 35  1  0  0  0  0
 27 36  1  0  0  0  0
 37 38  1  0  0  0  0
 37 42  1  0  0  0  0
 38 39  1  0  0  0  0
 38 41  1  0  0  0  0
 38 43  1  0  0  0  0
 39 40  2  0  0  0  0
 39 47  1  0  0  0  0
 41 44  1  0  0  0  0
 41 45  1  0  0  0  0
 41 46  1  0  0  0  0
 47 48  1  0  0  0  0
 47 49  1  0  0  0  0
 48 50  1  0  0  0  0
 48 51  1  0  0  0  0
 48 52  1  0  0  0  0
M  END
$$$$

  -OEChem-05262217163D

 52 52  0     1  0  0  0  0  0999 V2000
   -3.7327    0.4852    3.4322 C   0  0  0  0  0  0  0  0  0  0  0  0
   -4.2033    0.1723    2.3491 O   0  0  0  0  0  0  0  0  0  0  0  0
   -4.1624   -0.2479    4.6888 C   0  0  0  0  0  0  0  0  0  0  0  0
   -4.9327   -0.9866    4.4498 H   0  0  0  0  0  0  0  0  0  0  0  0
   -3.3055   -0.7631    5.1308 H   0  0  0  0  0  0  0  0  0  0  0  0
   -4.5675    0.4608    5.4153 H   0  0  0  0  0  0  0  0  0  0  0  0
   -2.7756    1.4757    3.5117 N   0  0  0  0  0  0  0  0  0  0  0  0
   -2.0870    1.9934    2.3217 C   0  0  2  0  0  0  0  0  0  0  0  0
   -0.8382    1.1542    1.9785 C   0  0  0  0  0  0  0  0  0  0  0  0
   -0.1548    0.7115    2.8891 O   0  0  0  0  0  0  0  0  0  0  0  0
   -1.7001    3.4480    2.5958 C   0  0  0  0  0  0  0  0  0  0  0  0
   -2.2552    1.5053    4.3853 H   0  0  0  0  0  0  0  0  0  0  0  0
   -2.7609    1.9777    1.4586 H   0  0  0  0  0  0  0  0  0  0  0  0
   -1.0138    3.5096    3.4468 H   0  0  0  0  0  0  0  0  0  0  0  0
   -1.2081    3.8831    1.7209 H   0  0  0  0  0  0  0  0  0  0  0  0
   -2.5916    4.0412    2.8220 H   0  0  0  0  0  0  0  0  0  0  0  0
   -0.5144    0.9279    0.6505 N   0  0  0  0  0  0  0  0  0  0  0  0
    0.6769    0.2469    0.0972 C   0  0  2  0  0  0  0  0  0  0  0  0
    1.3224   -0.8711    0.9589 C   0  0  0  0  0  0  0  0  0  0  0  0
    2.2790   -0.6457    1.6941 O   0  0  0  0  0  0  0  0  0  0  0  0
    1.7221    1.3315   -0.2297 C   0  0  0  0  0  0  0  0  0  0  0  0
    1.2472    2.2133   -1.3602 C   0  0  0  0  0  0  0  0  0  0  0  0
    1.3783    1.7938   -2.6922 C   0  0  0  0  0  0  0  0  0  0  0  0
    0.6685    3.4626   -1.0914 C   0  0  0  0  0  0  0  0  0  0  0  0
    0.9251    2.6042   -3.7384 C   0  0  0  0  0  0  0  0  0  0  0  0
    0.2139    4.2740   -2.1364 C   0  0  0  0  0  0  0  0  0  0  0  0
    0.3403    3.8436   -3.4608 C   0  0  0  0  0  0  0  0  0  0  0  0
   -1.1252    1.3825   -0.0236 H   0  0  0  0  0  0  0  0  0  0  0  0
    0.3828   -0.2345   -0.8397 H   0  0  0  0  0  0  0  0  0  0  0  0
    2.6657    0.8598   -0.5244 H   0  0  0  0  0  0  0  0  0  0  0  0
    1.9283    1.9296    0.6647 H   0  0  0  0  0  0  0  0  0  0  0  0
    1.8355    0.8352   -2.9193 H   0  0  0  0  0  0  0  0  0  0  0  0
    0.5774    3.8079   -0.0660 H   0  0  0  0  0  0  0  0  0  0  0  0
    1.0314    2.2723   -4.7672 H   0  0  0  0  0  0  0  0  0  0  0  0
   -0.2312    5.2410   -1.9206 H   0  0  0  0  0  0  0  0  0  0  0  0
   -0.0087    4.4740   -4.2739 H   0  0  0  0  0  0  0  0  0  0  0  0
    1.1173   -2.1908    0.5928 N   0  0  0  0  0  0  0  0  0  0  0  0
    1.7986   -3.3395    1.2108 C   0  0  2  0  0  0  0  0  0  0  0  0
    3.2097   -3.5762    0.6199 C   0  0  0  0  0  0  0  0  0  0  0  0
    3.4833   -4.5878   -0.0159 O   0  0  0  0  0  0  0  0  0  0  0  0
    0.8769   -4.5559    1.0579 C   0  0  0  0  0  0  0  0  0  0  0  0
    0.3678   -2.3784   -0.0658 H   0  0  0  0  0  0  0  0  0  0  0  0
    1.9269   -3.1540    2.2828 H   0  0  0  0  0  0  0  0  0  0  0  0
    0.7144   -4.7872    0.0003 H   0  0  0  0  0  0  0  0  0  0  0  0
    1.3244   -5.4320    1.5383 H   0  0  0  0  0  0  0  0  0  0  0  0
   -0.0919   -4.3623    1.5285 H   0  0  0  0  0  0  0  0  0  0  0  0
    4.1817   -2.6130    0.8013 N   0  0  0  0  0  0  0  0  0  0  0  0
    5.5224   -2.6874    0.2382 C   0  0  0  0  0  0  0  0  0  0  0  0
    3.8748   -1.7518    1.2636 H   0  0  0  0  0  0  0  0  0  0  0  0
    6.0219   -3.6081    0.5577 H   0  0  0  0  0  0  0  0  0  0  0  0
    5.4791   -2.6699   -0.8557 H   0  0  0  0  0  0  0  0  0  0  0  0
    6.1208   -1.8361    0.5769 H   0  0  0  0  0  0  0  0  0  0  0  0
  1  2  2  0  0  0  0
  1  3  1  0  0  0  0
  1  7  1  0  0  0  0
  3  4  1  0  0  0  0
  3  5  1  0  0  0  0
  3  6  1  0  0  0  0
  7  8  1  0  0  0  0
  7 12  1  0  0  0  0
  8  9  1  0  0  0  0
  8 11  1  0  0  0  0
  8 13  1  0  0  0  0
  9 10  2  0  0  0  0
  9 17  1  0  0  0  0
 11 14  1  0  0  0  0
 11 15  1  0  0  0  0
 11 16  1  0  0  0  0
 17 18  1  0  0  0  0
 17 28  1  0  0  0  0
 18 19  1  0  0  0  0
 18 21  1  0  0  0  0
 18 29  1  0  0  0  0
 19 20  2  0  0  0  0
 19 37  1  0  0  0  0
 21 22  1  0  0  0  0
 21 30  1  0  0  0  0
 21 31  1  0  0  0  0
 22 23  1  0  0  0  0
 22 24  2  0  0  0  0
 23 25  2  0  0  0  0
 23 32  1  0  0  0  0
 24 26  1  0  0  0  0
 24 33  1  0  0  0  0
 25 27  1  0  0  0  0
 25 34  1  0  0  0  0
 26 27  2  0  0  0  0
 26 35  1  0  0  0  0
 27 36  1  0  0  0  0
 37 38  1  0  0  0  0
 37 42  1  0  0  0  0
 38 39  1  0  0  0  0
 38 41  1  0  0  0  0
 38 43  1  0  0  0  0
 39 40  2  0  0  0  0
 39 47  1  0  0  0  0
 41 44  1  0  0  0  0
 41 45  1  0  0  0  0
 41 46  1  0  0  0  0
 47 48  1  0  0  0  0
 47 49  1  0  0  0  0
 48 50  1  0  0  0  0
 48 51  1  0  0  0  0
 48 52  1  0  0  0  0
M  END
$$$$

  -OEChem-05262217163D

 52 52  0     1  0  0  0  0  0999 V2000
   -3.8537    0.5851    3.1388 C   0  0  0  0  0  0  0  0  0  0  0  0
   -4.1695    0.4348    1.9681 O   0  0  0  0  0  0  0  0  0  0  0  0
   -4.5200   -0.2435    4.2207 C   0  0  0  0  0  0  0  0  0  0  0  0
   -5.3219   -0.8502    3.7910 H   0  0  0  0  0  0  0  0  0  0  0  0
   -3.7864   -0.9073    4.6850 H   0  0  0  0  0  0  0  0  0  0  0  0
   -4.9457    0.4106    4.9856 H   0  0  0  0  0  0  0  0  0  0  0  0
   -2.8559    1.4771    3.4738 N   0  0  0  0  0  0  0  0  0  0  0  0
   -1.9781    2.0784    2.4620 C   0  0  2  0  0  0  0  0  0  0  0  0
   -0.7958    1.1479    2.1206 C   0  0  0  0  0  0  0  0  0  0  0  0
   -0.1475    0.6639    3.0345 O   0  0  0  0  0  0  0  0  0  0  0  0
   -1.4766    3.4197    3.0014 C   0  0  0  0  0  0  0  0  0  0  0  0
   -2.4750    1.3794    4.4119 H   0  0  0  0  0  0  0  0  0  0  0  0
   -2.5422    2.2754    1.5442 H   0  0  0  0  0  0  0  0  0  0  0  0
   -0.8992    3.2740    3.9203 H   0  0  0  0  0  0  0  0  0  0  0  0
   -0.8349    3.9102    2.2632 H   0  0  0  0  0  0  0  0  0  0  0  0
   -2.3217    4.0798    3.2203 H   0  0  0  0  0  0  0  0  0  0  0  0
   -0.5141    0.8724    0.7928 N   0  0  0  0  0  0  0  0  0  0  0  0
    0.6458    0.1597    0.2129 C   0  0  2  0  0  0  0  0  0  0  0  0
    1.3315   -0.9471    1.0584 C   0  0  0  0  0  0  0  0  0  0  0  0
    2.1926   -0.6748    1.8891 O   0  0  0  0  0  0  0  0  0  0  0  0
    1.6968    1.2194   -0.1718 C   0  0  0  0  0  0  0  0  0  0  0  0
    1.2038    2.0905   -1.3029 C   0  0  0  0  0  0  0  0  0  0  0  0
    1.2831    1.6475   -2.6316 C   0  0  0  0  0  0  0  0  0  0  0  0
    0.6607    3.3562   -1.0363 C   0  0  0  0  0  0  0  0  0  0  0  0
    0.8195    2.4546   -3.6764 C   0  0  0  0  0  0  0  0  0  0  0  0
    0.1971    4.1643   -2.0797 C   0  0  0  0  0  0  0  0  0  0  0  0
    0.2758    3.7131   -3.4007 C   0  0  0  0  0  0  0  0  0  0  0  0
   -1.1286    1.3347    0.1271 H   0  0  0  0  0  0  0  0  0  0  0  0
    0.3030   -0.3322   -0.7014 H   0  0  0  0  0  0  0  0  0  0  0  0
    2.6213    0.7238   -0.4884 H   0  0  0  0  0  0  0  0  0  0  0  0
    1.9447    1.8303    0.7033 H   0  0  0  0  0  0  0  0  0  0  0  0
    1.7097    0.6747   -2.8585 H   0  0  0  0  0  0  0  0  0  0  0  0
    0.6043    3.7173   -0.0137 H   0  0  0  0  0  0  0  0  0  0  0  0
    0.8859    2.1058   -4.7030 H   0  0  0  0  0  0  0  0  0  0  0  0
   -0.2183    5.1448   -1.8654 H   0  0  0  0  0  0  0  0  0  0  0  0
   -0.0799    4.3412   -4.2126 H   0  0  0  0  0  0  0  0  0  0  0  0
    1.3645   -2.2362    0.5518 N   0  0  0  0  0  0  0  0  0  0  0  0
    2.2277   -3.3115    1.0650 C   0  0  2  0  0  0  0  0  0  0  0  0
    3.6715   -3.2100    0.5163 C   0  0  0  0  0  0  0  0  0  0  0  0
    4.1270   -4.0432   -0.2587 O   0  0  0  0  0  0  0  0  0  0  0  0
    1.5520   -4.6459    0.7262 C   0  0  0  0  0  0  0  0  0  0  0  0
    0.7507   -2.4478   -0.2286 H   0  0  0  0  0  0  0  0  0  0  0  0
    2.2922   -3.2405    2.1563 H   0  0  0  0  0  0  0  0  0  0  0  0
    1.4643   -4.7701   -0.3579 H   0  0  0  0  0  0  0  0  0  0  0  0
    2.1406   -5.4794    1.1229 H   0  0  0  0  0  0  0  0  0  0  0  0
    0.5513   -4.6896    1.1671 H   0  0  0  0  0  0  0  0  0  0  0  0
    4.4517   -2.1310    0.8801 N   0  0  0  0  0  0  0  0  0  0  0  0
    5.7825   -1.8698    0.3501 C   0  0  0  0  0  0  0  0  0  0  0  0
    3.9815   -1.4121    1.4387 H   0  0  0  0  0  0  0  0  0  0  0  0
    6.4416   -2.7263    0.5270 H   0  0  0  0  0  0  0  0  0  0  0  0
    5.7345   -1.6772   -0.7266 H   0  0  0  0  0  0  0  0  0  0  0  0
    6.2180   -0.9945    0.8411 H   0  0  0  0  0  0  0  0  0  0  0  0
  1  2  2  0  0  0  0
  1  3  1  0  0  0  0
  1  7  1  0  0  0  0
  3  4  1  0  0  0  0
  3  5  1  0  0  0  0
  3  6  1  0  0  0  0
  7  8  1  0  0  0  0
  7 12  1  0  0  0  0
  8  9  1  0  0  0  0
  8 11  1  0  0  0  0
  8 13  1  0  0  0  0
  9 10  2  0  0  0  0
  9 17  1  0  0  0  0
 11 14  1  0  0  0  0
 11 15  1  0  0  0  0
 11 16  1  0  0  0  0
 17 18  1  0  0  0  0
 17 28  1  0  0  0  0
 18 19  1  0  0  0  0
 18 21  1  0  0  0  0
 18 29  1  0  0  0  0
 19 20  2  0  0  0  0
 19 37  1  0  0  0  0
 21 22  1  0  0  0  0
 21 30  1  0  0  0  0
 21 31  1  0  0  0  0
 22 23  1  0  0  0  0
 22 24  2  0  0  0  0
 23 25  2  0  0  0  0
 23 32  1  0  0  0  0
 24 26  1  0  0  0  0
 24 33  1  0  0  0  0
 25 27  1  0  0  0  0
 25 34  1  0  0  0  0
 26 27  2  0  0  0  0
 26 35  1  0  0  0  0
 27 36  1  0  0  0  0
 37 38  1  0  0  0  0
 37 42  1  0  0  0  0
 38 39  1  0  0  0  0
 38 41  1  0  0  0  0
 38 43  1  0  0  0  0
 39 40  2  0  0  0  0
 39 47  1  0  0  0  0
 41 44  1  0  0  0  0
 41 45  1  0  0  0  0
 41 46  1  0  0  0  0
 47 48  1  0  0  0  0
 47 49  1  0  0  0  0
 48 50  1  0  0  0  0
 48 51  1  0  0  0  0
 48 52  1  0  0  0  0
M  END
$$$$

  -OEChem-05262217163D

 52 52  0     1  0  0  0  0  0999 V2000
   -3.4934    0.9312    2.0442 C   0  0  0  0  0  0  0  0  0  0  0  0
   -3.1516    1.2414    0.9127 O   0  0  0  0  0  0  0  0  0  0  0  0
   -4.6771    0.0078    2.2615 C   0  0  0  0  0  0  0  0  0  0  0  0
   -5.1006   -0.2957    1.2998 H   0  0  0  0  0  0  0  0  0  0  0  0
   -4.3598   -0.8866    2.8033 H   0  0  0  0  0  0  0  0  0  0  0  0
   -5.4494    0.5210    2.8399 H   0  0  0  0  0  0  0  0  0  0  0  0
   -2.7642    1.3862    3.1233 N   0  0  0  0  0  0  0  0  0  0  0  0
   -1.5901    2.2655    3.0132 C   0  0  2  0  0  0  0  0  0  0  0  0
   -0.3210    1.5050    2.5532 C   0  0  0  0  0  0  0  0  0  0  0  0
    0.6279    1.3782    3.3074 O   0  0  0  0  0  0  0  0  0  0  0  0
   -1.4152    2.9642    4.3681 C   0  0  0  0  0  0  0  0  0  0  0  0
   -3.0236    1.0399    4.0428 H   0  0  0  0  0  0  0  0  0  0  0  0
   -1.7864    3.0418    2.2656 H   0  0  0  0  0  0  0  0  0  0  0  0
   -1.2159    2.2323    5.1576 H   0  0  0  0  0  0  0  0  0  0  0  0
   -0.5751    3.6649    4.3268 H   0  0  0  0  0  0  0  0  0  0  0  0
   -2.3177    3.5248    4.6290 H   0  0  0  0  0  0  0  0  0  0  0  0
   -0.2980    1.0220    1.2561 N   0  0  0  0  0  0  0  0  0  0  0  0
    0.7032    0.1853    0.5565 C   0  0  2  0  0  0  0  0  0  0  0  0
    1.5541   -0.8400    1.3526 C   0  0  0  0  0  0  0  0  0  0  0  0
    2.4088   -0.5144    2.1666 O   0  0  0  0  0  0  0  0  0  0  0  0
    1.6740    1.1380   -0.1665 C   0  0  0  0  0  0  0  0  0  0  0  0
    0.9840    1.8838   -1.2836 C   0  0  0  0  0  0  0  0  0  0  0  0
    0.7872    1.2724   -2.5309 C   0  0  0  0  0  0  0  0  0  0  0  0
    0.5177    3.1913   -1.0829 C   0  0  0  0  0  0  0  0  0  0  0  0
    0.1365    1.9586   -3.5619 C   0  0  0  0  0  0  0  0  0  0  0  0
   -0.1352    3.8777   -2.1122 C   0  0  0  0  0  0  0  0  0  0  0  0
   -0.3259    3.2614   -3.3525 C   0  0  0  0  0  0  0  0  0  0  0  0
   -1.1694    1.1998    0.7478 H   0  0  0  0  0  0  0  0  0  0  0  0
    0.1605   -0.3941   -0.1953 H   0  0  0  0  0  0  0  0  0  0  0  0
    2.5077    0.5675   -0.5901 H   0  0  0  0  0  0  0  0  0  0  0  0
    2.1025    1.8420    0.5555 H   0  0  0  0  0  0  0  0  0  0  0  0
    1.1448    0.2623   -2.7060 H   0  0  0  0  0  0  0  0  0  0  0  0
    0.6604    3.6761   -0.1215 H   0  0  0  0  0  0  0  0  0  0  0  0
   -0.0086    1.4799   -4.5258 H   0  0  0  0  0  0  0  0  0  0  0  0
   -0.4931    4.8897   -1.9479 H   0  0  0  0  0  0  0  0  0  0  0  0
   -0.8313    3.7950   -4.1521 H   0  0  0  0  0  0  0  0  0  0  0  0
    1.6985   -2.1080    0.8108 N   0  0  0  0  0  0  0  0  0  0  0  0
    2.7203   -3.0811    1.2286 C   0  0  2  0  0  0  0  0  0  0  0  0
    4.0986   -2.7855    0.5894 C   0  0  0  0  0  0  0  0  0  0  0  0
    4.6001   -3.5391   -0.2368 O   0  0  0  0  0  0  0  0  0  0  0  0
    2.1900   -4.4795    0.8886 C   0  0  0  0  0  0  0  0  0  0  0  0
    1.1421   -2.3284   -0.0091 H   0  0  0  0  0  0  0  0  0  0  0  0
    2.8521   -3.0323    2.3151 H   0  0  0  0  0  0  0  0  0  0  0  0
    2.0401   -4.5841   -0.1907 H   0  0  0  0  0  0  0  0  0  0  0  0
    2.9034   -5.2434    1.2140 H   0  0  0  0  0  0  0  0  0  0  0  0
    1.2368   -4.6592    1.3949 H   0  0  0  0  0  0  0  0  0  0  0  0
    4.7598   -1.6228    0.9303 N   0  0  0  0  0  0  0  0  0  0  0  0
    6.0162   -1.1916    0.3345 C   0  0  0  0  0  0  0  0  0  0  0  0
    4.2495   -0.9842    1.5486 H   0  0  0  0  0  0  0  0  0  0  0  0
    6.7889   -1.9545    0.4751 H   0  0  0  0  0  0  0  0  0  0  0  0
    5.8888   -1.0111   -0.7377 H   0  0  0  0  0  0  0  0  0  0  0  0
    6.3581   -0.2649    0.8058 H   0  0  0  0  0  0  0  0  0  0  0  0
  1  2  2  0  0  0  0
  1  3  1  0  0  0  0
  1  7  1  0  0  0  0
  3  4  1  0  0  0  0
  3  5  1  0  0  0  0
  3  6  1  0  0  0  0
  7  8  1  0  0  0  0
  7 12  1  0  0  0  0
  8  9  1  0  0  0  0
  8 11  1  0  0  0  0
  8 13  1  0  0  0  0
  9 10  2  0  0  0  0
  9 17  1  0  0  0  0
 11 14  1  0  0  0  0
 11 15  1  0  0  0  0
 11 16  1  0  0  0  0
 17 18  1  0  0  0  0
 17 28  1  0  0  0  0
 18 19  1  0  0  0  0
 18 21  1  0  0  0  0
 18 29  1  0  0  0  0
 19 20  2  0  0  0  0
 19 37  1  0  0  0  0
 21 22  1  0  0  0  0
 21 30  1  0  0  0  0
 21 31  1  0  0  0  0
 22 23  1  0  0  0  0
 22 24  2  0  0  0  0
 23 25  2  0  0  0  0
 23 32  1  0  0  0  0
 24 26  1  0  0  0  0
 24 33  1  0  0  0  0
 25 27  1  0  0  0  0
 25 34  1  0  0  0  0
 26 27  2  0  0  0  0
 26 35  1  0  0  0  0
 27 36  1  0  0  0  0
 37 38  1  0  0  0  0
 37 42  1  0  0  0  0
 38 39  1  0  0  0  0
 38 41  1  0  0  0  0
 38 43  1  0  0  0  0
 39 40  2  0  0  0  0
 39 47  1  0  0  0  0
 41 44  1  0  0  0  0
 41 45  1  0  0  0  0
 41 46  1  0  0  0  0
 47 48  1  0  0  0  0
 47 49  1  0  0  0  0
 48 50  1  0  0  0  0
 48 51  1  0  0  0  0
 48 52  1  0  0  0  0
M  END
$$$$

  -OEChem-05262217163D

 52 52  0     1  0  0  0  0  0999 V2000
   -3.0405    0.1291    4.3024 C   0  0  0  0  0  0  0  0  0  0  0  0
   -4.0174   -0.2545    3.6778 O   0  0  0  0  0  0  0  0  0  0  0  0
   -2.8253   -0.3245    5.7339 C   0  0  0  0  0  0  0  0  0  0  0  0
   -3.6438   -0.9768    6.0506 H   0  0  0  0  0  0  0  0  0  0  0  0
   -1.8848   -0.8753    5.8129 H   0  0  0  0  0  0  0  0  0  0  0  0
   -2.7890    0.5428    6.3972 H   0  0  0  0  0  0  0  0  0  0  0  0
   -2.1280    0.9748    3.7089 N   0  0  0  0  0  0  0  0  0  0  0  0
   -2.1183    1.3017    2.2780 C   0  0  2  0  0  0  0  0  0  0  0  0
   -0.6801    1.3052    1.7243 C   0  0  0  0  0  0  0  0  0  0  0  0
    0.2557    1.5808    2.4673 O   0  0  0  0  0  0  0  0  0  0  0  0
   -2.7788    2.6700    2.0931 C   0  0  0  0  0  0  0  0  0  0  0  0
   -1.2590    1.1431    4.2155 H   0  0  0  0  0  0  0  0  0  0  0  0
   -2.6820    0.5496    1.7160 H   0  0  0  0  0  0  0  0  0  0  0  0
   -2.2249    3.4395    2.6406 H   0  0  0  0  0  0  0  0  0  0  0  0
   -2.8045    2.9450    1.0343 H   0  0  0  0  0  0  0  0  0  0  0  0
   -3.8065    2.6464    2.4695 H   0  0  0  0  0  0  0  0  0  0  0  0
   -0.4509    1.1869    0.3639 N   0  0  0  0  0  0  0  0  0  0  0  0
    0.7038    0.4851   -0.2463 C   0  0  2  0  0  0  0  0  0  0  0  0
    1.3397   -0.7272    0.4919 C   0  0  0  0  0  0  0  0  0  0  0  0
    1.1412   -1.0050    1.6669 O   0  0  0  0  0  0  0  0  0  0  0  0
    1.8123    1.5255   -0.4939 C   0  0  0  0  0  0  0  0  0  0  0  0
    1.3937    2.5181   -1.5523 C   0  0  0  0  0  0  0  0  0  0  0  0
    1.4988    2.2014   -2.9155 C   0  0  0  0  0  0  0  0  0  0  0  0
    0.8706    3.7649   -1.1793 C   0  0  0  0  0  0  0  0  0  0  0  0
    1.0881    3.1188   -3.8892 C   0  0  0  0  0  0  0  0  0  0  0  0
    0.4589    4.6824   -2.1513 C   0  0  0  0  0  0  0  0  0  0  0  0
    0.5671    4.3589   -3.5071 C   0  0  0  0  0  0  0  0  0  0  0  0
   -1.3061    1.1536   -0.1827 H   0  0  0  0  0  0  0  0  0  0  0  0
    0.3677    0.0976   -1.2122 H   0  0  0  0  0  0  0  0  0  0  0  0
    2.7292    1.0272   -0.8252 H   0  0  0  0  0  0  0  0  0  0  0  0
    2.0515    2.0434    0.4416 H   0  0  0  0  0  0  0  0  0  0  0  0
    1.9038    1.2434   -3.2263 H   0  0  0  0  0  0  0  0  0  0  0  0
    0.7804    4.0196   -0.1266 H   0  0  0  0  0  0  0  0  0  0  0  0
    1.1762    2.8702   -4.9429 H   0  0  0  0  0  0  0  0  0  0  0  0
    0.0570    5.6460   -1.8515 H   0  0  0  0  0  0  0  0  0  0  0  0
    0.2494    5.0717   -4.2624 H   0  0  0  0  0  0  0  0  0  0  0  0
    1.9303   -1.7199   -0.2733 N   0  0  0  0  0  0  0  0  0  0  0  0
    2.4538   -2.9845    0.2712 C   0  0  2  0  0  0  0  0  0  0  0  0
    3.7852   -2.7930    1.0391 C   0  0  0  0  0  0  0  0  0  0  0  0
    4.8350   -3.2800    0.6366 O   0  0  0  0  0  0  0  0  0  0  0  0
    2.5766   -3.9697   -0.8976 C   0  0  0  0  0  0  0  0  0  0  0  0
    2.1376   -1.4992   -1.2426 H   0  0  0  0  0  0  0  0  0  0  0  0
    1.7325   -3.4035    0.9813 H   0  0  0  0  0  0  0  0  0  0  0  0
    3.2897   -3.6003   -1.6416 H   0  0  0  0  0  0  0  0  0  0  0  0
    2.9273   -4.9421   -0.5366 H   0  0  0  0  0  0  0  0  0  0  0  0
    1.6050   -4.1115   -1.3807 H   0  0  0  0  0  0  0  0  0  0  0  0
    3.7921   -2.0365    2.1939 N   0  0  0  0  0  0  0  0  0  0  0  0
    4.9902   -1.7315    2.9629 C   0  0  0  0  0  0  0  0  0  0  0  0
    2.9087   -1.5783    2.4371 H   0  0  0  0  0  0  0  0  0  0  0  0
    5.4732   -2.6540    3.3015 H   0  0  0  0  0  0  0  0  0  0  0  0
    5.7016   -1.1635    2.3547 H   0  0  0  0  0  0  0  0  0  0  0  0
    4.7308   -1.1344    3.8426 H   0  0  0  0  0  0  0  0  0  0  0  0
  1  2  2  0  0  0  0
  1  3  1  0  0  0  0
  1  7  1  0  0  0  0
  3  4  1  0  0  0  0
  3  5  1  0  0  0  0
  3  6  1  0  0  0  0
  7  8  1  0  0  0  0
  7 12  1  0  0  0  0
  8  9  1  0  0  0  0
  8 11  1  0  0  0  0
  8 13  1  0  0  0  0
  9 10  2  0  0  0  0
  9 17  1  0  0  0  0
 11 14  1  0  0  0  0
 11 15  1  0  0  0  0
 11 16  1  0  0  0  0
 17 18  1  0  0  0  0
 17 28  1  0  0  0  0
 18 19  1  0  0  0  0
 18 21  1  0  0  0  0
 18 29  1  0  0  0  0
 19 20  2  0  0  0  0
 19 37  1  0  0  0  0
 21 22  1  0  0  0  0
 21 30  1  0  0  0  0
 21 31  1  0  0  0  0
 22 23  1  0  0  0  0
 22 24  2  0  0  0  0
 23 25  2  0  0  0  0
 23 32  1  0  0  0  0
 24 26  1  0  0  0  0
 24 33  1  0  0  0  0
 25 27  1  0  0  0  0
 25 34  1  0  0  0  0
 26 27  2  0  0  0  0
 26 35  1  0  0  0  0
 27 36  1  0  0  0  0
 37 38  1  0  0  0  0
 37 42  1  0  0  0  0
 38 39  1  0  0  0  0
 38 41  1  0  0  0  0
 38 43  1  0  0  0  0
 39 40  2  0  0  0  0
 39 47  1  0  0  0  0
 41 44  1  0  0  0  0
 41 45  1  0  0  0  0
 41 46  1  0  0  0  0
 47 48  1  0  0  0  0
 47 49  1  0  0  0  0
 48 50  1  0  0  0  0
 48 51  1  0  0  0  0
 48 52  1  0  0  0  0
M  END
$$$$

  -OEChem-05262217163D

 52 52  0     1  0  0  0  0  0999 V2000
   -3.0539    0.2298    4.3708 C   0  0  0  0  0  0  0  0  0  0  0  0
   -4.0872   -0.0480    3.7820 O   0  0  0  0  0  0  0  0  0  0  0  0
   -2.8602   -0.1960    5.8139 C   0  0  0  0  0  0  0  0  0  0  0  0
   -3.7453   -0.7291    6.1719 H   0  0  0  0  0  0  0  0  0  0  0  0
   -1.9943   -0.8577    5.8939 H   0  0  0  0  0  0  0  0  0  0  0  0
   -2.6987    0.6822    6.4437 H   0  0  0  0  0  0  0  0  0  0  0  0
   -2.0580    0.9290    3.7236 N   0  0  0  0  0  0  0  0  0  0  0  0
   -2.0560    1.2194    2.2850 C   0  0  2  0  0  0  0  0  0  0  0  0
   -0.6245    1.1937    1.7137 C   0  0  0  0  0  0  0  0  0  0  0  0
    0.3332    1.3917    2.4557 O   0  0  0  0  0  0  0  0  0  0  0  0
   -2.7030    2.5901    2.0669 C   0  0  0  0  0  0  0  0  0  0  0  0
   -1.1660    1.0265    4.2079 H   0  0  0  0  0  0  0  0  0  0  0  0
   -2.6336    0.4562    1.7523 H   0  0  0  0  0  0  0  0  0  0  0  0
   -2.1343    3.3678    2.5868 H   0  0  0  0  0  0  0  0  0  0  0  0
   -2.7366    2.8354    1.0013 H   0  0  0  0  0  0  0  0  0  0  0  0
   -3.7273    2.5898    2.4531 H   0  0  0  0  0  0  0  0  0  0  0  0
   -0.4162    1.1149    0.3462 N   0  0  0  0  0  0  0  0  0  0  0  0
    0.7611    0.4793   -0.2911 C   0  0  2  0  0  0  0  0  0  0  0  0
    1.4471   -0.7132    0.4337 C   0  0  0  0  0  0  0  0  0  0  0  0
    0.9974   -1.2211    1.4540 O   0  0  0  0  0  0  0  0  0  0  0  0
    1.8087    1.5839   -0.5350 C   0  0  0  0  0  0  0  0  0  0  0  0
    1.3219    2.5703   -1.5704 C   0  0  0  0  0  0  0  0  0  0  0  0
    1.4257    2.2811   -2.9399 C   0  0  0  0  0  0  0  0  0  0  0  0
    0.7387    3.7821   -1.1719 C   0  0  0  0  0  0  0  0  0  0  0  0
    0.9545    3.1896   -3.8942 C   0  0  0  0  0  0  0  0  0  0  0  0
    0.2655    4.6905   -2.1246 C   0  0  0  0  0  0  0  0  0  0  0  0
    0.3735    4.3942   -3.4867 C   0  0  0  0  0  0  0  0  0  0  0  0
   -1.2752    1.0775   -0.1941 H   0  0  0  0  0  0  0  0  0  0  0  0
    0.4369    0.0838   -1.2581 H   0  0  0  0  0  0  0  0  0  0  0  0
    2.7486    1.1470   -0.8867 H   0  0  0  0  0  0  0  0  0  0  0  0
    2.0297    2.0990    0.4067 H   0  0  0  0  0  0  0  0  0  0  0  0
    1.8769    1.3510   -3.2711 H   0  0  0  0  0  0  0  0  0  0  0  0
    0.6485    4.0167   -0.1147 H   0  0  0  0  0  0  0  0  0  0  0  0
    1.0411    2.9616   -4.9527 H   0  0  0  0  0  0  0  0  0  0  0  0
   -0.1844    5.6262   -1.8053 H   0  0  0  0  0  0  0  0  0  0  0  0
    0.0084    5.1004   -4.2270 H   0  0  0  0  0  0  0  0  0  0  0  0
    2.3348   -1.5011   -0.2817 N   0  0  0  0  0  0  0  0  0  0  0  0
    2.9132   -2.7610    0.2176 C   0  0  2  0  0  0  0  0  0  0  0  0
    3.9778   -2.5305    1.3193 C   0  0  0  0  0  0  0  0  0  0  0  0
    5.1487   -2.8533    1.1585 O   0  0  0  0  0  0  0  0  0  0  0  0
    3.4644   -3.5213   -0.9953 C   0  0  0  0  0  0  0  0  0  0  0  0
    2.7282   -1.1024   -1.1286 H   0  0  0  0  0  0  0  0  0  0  0  0
    2.1231   -3.3764    0.6613 H   0  0  0  0  0  0  0  0  0  0  0  0
    4.2727   -2.9564   -1.4708 H   0  0  0  0  0  0  0  0  0  0  0  0
    3.8594   -4.4939   -0.6844 H   0  0  0  0  0  0  0  0  0  0  0  0
    2.6730   -3.6909   -1.7318 H   0  0  0  0  0  0  0  0  0  0  0  0
    3.6019   -1.9319    2.5054 N   0  0  0  0  0  0  0  0  0  0  0  0
    4.5223   -1.6096    3.5865 C   0  0  0  0  0  0  0  0  0  0  0  0
    2.6296   -1.6143    2.5627 H   0  0  0  0  0  0  0  0  0  0  0  0
    4.9946   -2.5196    3.9707 H   0  0  0  0  0  0  0  0  0  0  0  0
    5.3027   -0.9269    3.2350 H   0  0  0  0  0  0  0  0  0  0  0  0
    3.9831   -1.1264    4.4072 H   0  0  0  0  0  0  0  0  0  0  0  0
  1  2  2  0  0  0  0
  1  3  1  0  0  0  0
  1  7  1  0  0  0  0
  3  4  1  0  0  0  0
  3  5  1  0  0  0  0
  3  6  1  0  0  0  0
  7  8  1  0  0  0  0
  7 12  1  0  0  0  0
  8  9  1  0  0  0  0
  8 11  1  0  0  0  0
  8 13  1  0  0  0  0
  9 10  2  0  0  0  0
  9 17  1  0  0  0  0
 11 14  1  0  0  0  0
 11 15  1  0  0  0  0
 11 16  1  0  0  0  0
 17 18  1  0  0  0  0
 17 28  1  0  0  0  0
 18 19  1  0  0  0  0
 18 21  1  0  0  0  0
 18 29  1  0  0  0  0
 19 20  2  0  0  0  0
 19 37  1  0  0  0  0
 21 22  1  0  0  0  0
 21 30  1  0  0  0  0
 21 31  1  0  0  0  0
 22 23  1  0  0  0  0
 22 24  2  0  0  0  0
 23 25  2  0  0  0  0
 23 32  1  0  0  0  0
 24 26  1  0  0  0  0
 24 33  1  0  0  0  0
 25 27  1  0  0  0  0
 25 34  1  0  0  0  0
 26 27  2  0  0  0  0
 26 35  1  0  0  0  0
 27 36  1  0  0  0  0
 37 38  1  0  0  0  0
 37 42  1  0  0  0  0
 38 39  1  0  0  0  0
 38 41  1  0  0  0  0
 38 43  1  0  0  0  0
 39 40  2  0  0  0  0
 39 47  1  0  0  0  0
 41 44  1  0  0  0  0
 41 45  1  0  0  0  0
 41 46  1  0  0  0  0
 47 48  1  0  0  0  0
 47 49  1  0  0  0  0
 48 50  1  0  0  0  0
 48 51  1  0  0  0  0
 48 52  1  0  0  0  0
M  END
$$$$

  -OEChem-05262217163D

 52 52  0     1  0  0  0  0  0999 V2000
   -3.1882    0.3332    4.3432 C   0  0  0  0  0  0  0  0  0  0  0  0
   -4.2614    0.3236    3.7608 O   0  0  0  0  0  0  0  0  0  0  0  0
   -3.0917   -0.1680    5.7721 C   0  0  0  0  0  0  0  0  0  0  0  0
   -4.0777   -0.4774    6.1303 H   0  0  0  0  0  0  0  0  0  0  0  0
   -2.4142   -1.0239    5.8221 H   0  0  0  0  0  0  0  0  0  0  0  0
   -2.7139    0.6252    6.4219 H   0  0  0  0  0  0  0  0  0  0  0  0
   -2.0598    0.7977    3.7019 N   0  0  0  0  0  0  0  0  0  0  0  0
   -2.0028    1.1440    2.2760 C   0  0  2  0  0  0  0  0  0  0  0  0
   -0.5980    0.8978    1.6883 C   0  0  0  0  0  0  0  0  0  0  0  0
    0.3626    0.7617    2.4417 O   0  0  0  0  0  0  0  0  0  0  0  0
   -2.4015    2.6149    2.1147 C   0  0  0  0  0  0  0  0  0  0  0  0
   -1.1663    0.6717    4.1767 H   0  0  0  0  0  0  0  0  0  0  0  0
   -2.7039    0.5139    1.7181 H   0  0  0  0  0  0  0  0  0  0  0  0
   -1.7084    3.2615    2.6625 H   0  0  0  0  0  0  0  0  0  0  0  0
   -2.3887    2.9045    1.0597 H   0  0  0  0  0  0  0  0  0  0  0  0
   -3.4117    2.7785    2.5033 H   0  0  0  0  0  0  0  0  0  0  0  0
   -0.4076    0.9255    0.3146 N   0  0  0  0  0  0  0  0  0  0  0  0
    0.7809    0.3861   -0.3822 C   0  0  2  0  0  0  0  0  0  0  0  0
    1.2476   -1.0150    0.0930 C   0  0  0  0  0  0  0  0  0  0  0  0
    0.5228   -1.7355    0.7712 O   0  0  0  0  0  0  0  0  0  0  0  0
    1.9317    1.4114   -0.2813 C   0  0  0  0  0  0  0  0  0  0  0  0
    1.6029    2.6592   -1.0649 C   0  0  0  0  0  0  0  0  0  0  0  0
    1.7895    2.7002   -2.4549 C   0  0  0  0  0  0  0  0  0  0  0  0
    1.0894    3.7890   -0.4109 C   0  0  0  0  0  0  0  0  0  0  0  0
    1.4671    3.8528   -3.1793 C   0  0  0  0  0  0  0  0  0  0  0  0
    0.7663    4.9418   -1.1341 C   0  0  0  0  0  0  0  0  0  0  0  0
    0.9543    4.9738   -2.5192 C   0  0  0  0  0  0  0  0  0  0  0  0
   -1.2551    1.0290   -0.2357 H   0  0  0  0  0  0  0  0  0  0  0  0
    0.5242    0.2630   -1.4384 H   0  0  0  0  0  0  0  0  0  0  0  0
    2.8565    0.9884   -0.6834 H   0  0  0  0  0  0  0  0  0  0  0  0
    2.1289    1.6609    0.7663 H   0  0  0  0  0  0  0  0  0  0  0  0
    2.1873    1.8374   -2.9798 H   0  0  0  0  0  0  0  0  0  0  0  0
    0.9376    3.7696    0.6649 H   0  0  0  0  0  0  0  0  0  0  0  0
    1.6168    3.8782   -4.2549 H   0  0  0  0  0  0  0  0  0  0  0  0
    0.3707    5.8121   -0.6188 H   0  0  0  0  0  0  0  0  0  0  0  0
    0.7046    5.8694   -3.0808 H   0  0  0  0  0  0  0  0  0  0  0  0
    2.3529   -1.6154   -0.4872 N   0  0  0  0  0  0  0  0  0  0  0  0
    2.8335   -2.9603   -0.1293 C   0  0  2  0  0  0  0  0  0  0  0  0
    3.5137   -2.9875    1.2625 C   0  0  0  0  0  0  0  0  0  0  0  0
    4.6976   -3.2755    1.3922 O   0  0  0  0  0  0  0  0  0  0  0  0
    3.7621   -3.4289   -1.2569 C   0  0  0  0  0  0  0  0  0  0  0  0
    2.9814   -1.0134   -1.0102 H   0  0  0  0  0  0  0  0  0  0  0  0
    1.9869   -3.6541   -0.0866 H   0  0  0  0  0  0  0  0  0  0  0  0
    4.6326   -2.7701   -1.3394 H   0  0  0  0  0  0  0  0  0  0  0  0
    4.1165   -4.4453   -1.0573 H   0  0  0  0  0  0  0  0  0  0  0  0
    3.2311   -3.4313   -2.2136 H   0  0  0  0  0  0  0  0  0  0  0  0
    2.7783   -2.6439    2.3798 N   0  0  0  0  0  0  0  0  0  0  0  0
    3.3401   -2.5178    3.7168 C   0  0  0  0  0  0  0  0  0  0  0  0
    1.8213   -2.3219    2.2080 H   0  0  0  0  0  0  0  0  0  0  0  0
    3.7787   -3.4679    4.0389 H   0  0  0  0  0  0  0  0  0  0  0  0
    4.1160   -1.7458    3.7341 H   0  0  0  0  0  0  0  0  0  0  0  0
    2.5577   -2.2391    4.4291 H   0  0  0  0  0  0  0  0  0  0  0  0
  1  2  2  0  0  0  0
  1  3  1  0  0  0  0
  1  7  1  0  0  0  0
  3  4  1  0  0  0  0
  3  5  1  0  0  0  0
  3  6  1  0  0  0  0
  7  8  1  0  0  0  0
  7 12  1  0  0  0  0
  8  9  1  0  0  0  0
  8 11  1  0  0  0  0
  8 13  1  0  0  0  0
  9 10  2  0  0  0  0
  9 17  1  0  0  0  0
 11 14  1  0  0  0  0
 11 15  1  0  0  0  0
 11 16  1  0  0  0  0
 17 18  1  0  0  0  0
 17 28  1  0  0  0  0
 18 19  1  0  0  0  0
 18 21  1  0  0  0  0
 18 29  1  0  0  0  0
 19 20  2  0  0  0  0
 19 37  1  0  0  0  0
 21 22  1  0  0  0  0
 21 30  1  0  0  0  0
 21 31  1  0  0  0  0
 22 23  1  0  0  0  0
 22 24  2  0  0  0  0
 23 25  2  0  0  0  0
 23 32  1  0  0  0  0
 24 26  1  0  0  0  0
 24 33  1  0  0  0  0
 25 27  1  0  0  0  0
 25 34  1  0  0  0  0
 26 27  2  0  0  0  0
 26 35  1  0  0  0  0
 27 36  1  0  0  0  0
 37 38  1  0  0  0  0
 37 42  1  0  0  0  0
 38 39  1  0  0  0  0
 38 41  1  0  0  0  0
 38 43  1  0  0  0  0
 39 40  2  0  0  0  0
 39 47  1  0  0  0  0
 41 44  1  0  0  0  0
 41 45  1  0  0  0  0
 41 46  1  0  0  0  0
 47 48  1  0  0  0  0
 47 49  1  0  0  0  0
 48 50  1  0  0  0  0
 48 51  1  0  0  0  0
 48 52  1  0  0  0  0
M  END
$$$$

  -OEChem-05262217163D

 52 52  0     1  0  0  0  0  0999 V2000
   -3.1681    0.2822    4.3133 C   0  0  0  0  0  0  0  0  0  0  0  0
   -4.2450    0.2972    3.7383 O   0  0  0  0  0  0  0  0  0  0  0  0
   -3.0758   -0.2109    5.7453 C   0  0  0  0  0  0  0  0  0  0  0  0
   -4.0683   -0.4841    6.1147 H   0  0  0  0  0  0  0  0  0  0  0  0
   -2.4271   -1.0888    5.7963 H   0  0  0  0  0  0  0  0  0  0  0  0
   -2.6659    0.5742    6.3852 H   0  0  0  0  0  0  0  0  0  0  0  0
   -2.0314    0.7100    3.6610 N   0  0  0  0  0  0  0  0  0  0  0  0
   -1.9752    1.0551    2.2347 C   0  0  2  0  0  0  0  0  0  0  0  0
   -0.5729    0.7995    1.6442 C   0  0  0  0  0  0  0  0  0  0  0  0
    0.3809    0.6102    2.3954 O   0  0  0  0  0  0  0  0  0  0  0  0
   -2.3652    2.5287    2.0741 C   0  0  0  0  0  0  0  0  0  0  0  0
   -1.1388    0.5708    4.1335 H   0  0  0  0  0  0  0  0  0  0  0  0
   -2.6815    0.4290    1.6786 H   0  0  0  0  0  0  0  0  0  0  0  0
   -1.6648    3.1709    2.6174 H   0  0  0  0  0  0  0  0  0  0  0  0
   -2.3574    2.8179    1.0190 H   0  0  0  0  0  0  0  0  0  0  0  0
   -3.3720    2.6997    2.4680 H   0  0  0  0  0  0  0  0  0  0  0  0
   -0.3757    0.8651    0.2730 N   0  0  0  0  0  0  0  0  0  0  0  0
    0.8359    0.3860   -0.4271 C   0  0  2  0  0  0  0  0  0  0  0  0
    1.3281   -1.0087    0.0423 C   0  0  0  0  0  0  0  0  0  0  0  0
    0.5387   -1.8158    0.5219 O   0  0  0  0  0  0  0  0  0  0  0  0
    1.9397    1.4590   -0.2959 C   0  0  0  0  0  0  0  0  0  0  0  0
    1.5610    2.7071   -1.0561 C   0  0  0  0  0  0  0  0  0  0  0  0
    1.7551    2.7850   -2.4434 C   0  0  0  0  0  0  0  0  0  0  0  0
    0.9951    3.8001   -0.3831 C   0  0  0  0  0  0  0  0  0  0  0  0
    1.3906    3.9387   -3.1461 C   0  0  0  0  0  0  0  0  0  0  0  0
    0.6288    4.9536   -1.0845 C   0  0  0  0  0  0  0  0  0  0  0  0
    0.8274    5.0234   -2.4667 C   0  0  0  0  0  0  0  0  0  0  0  0
   -1.2160    0.9888   -0.2843 H   0  0  0  0  0  0  0  0  0  0  0  0
    0.5966    0.2691   -1.4880 H   0  0  0  0  0  0  0  0  0  0  0  0
    2.8839    1.0893   -0.7046 H   0  0  0  0  0  0  0  0  0  0  0  0
    2.1192    1.6938    0.7585 H   0  0  0  0  0  0  0  0  0  0  0  0
    2.1921    1.9500   -2.9826 H   0  0  0  0  0  0  0  0  0  0  0  0
    0.8366    3.7519    0.6907 H   0  0  0  0  0  0  0  0  0  0  0  0
    1.5463    3.9930   -4.2198 H   0  0  0  0  0  0  0  0  0  0  0  0
    0.1912    5.7947   -0.5548 H   0  0  0  0  0  0  0  0  0  0  0  0
    0.5460    5.9198   -3.0119 H   0  0  0  0  0  0  0  0  0  0  0  0
    2.5954   -1.4740   -0.2684 N   0  0  0  0  0  0  0  0  0  0  0  0
    3.1118   -2.7807    0.1729 C   0  0  2  0  0  0  0  0  0  0  0  0
    3.4660   -2.7912    1.6818 C   0  0  0  0  0  0  0  0  0  0  0  0
    4.6011   -3.0371    2.0725 O   0  0  0  0  0  0  0  0  0  0  0  0
    4.3069   -3.1253   -0.7250 C   0  0  0  0  0  0  0  0  0  0  0  0
    3.2698   -0.7857   -0.5880 H   0  0  0  0  0  0  0  0  0  0  0  0
    2.3478   -3.5500    0.0175 H   0  0  0  0  0  0  0  0  0  0  0  0
    5.1095   -2.3915   -0.5983 H   0  0  0  0  0  0  0  0  0  0  0  0
    4.6998   -4.1145   -0.4688 H   0  0  0  0  0  0  0  0  0  0  0  0
    4.0038   -3.1373   -1.7764 H   0  0  0  0  0  0  0  0  0  0  0  0
    2.4898   -2.4783    2.6076 N   0  0  0  0  0  0  0  0  0  0  0  0
    2.7374   -2.3223    4.0334 C   0  0  0  0  0  0  0  0  0  0  0  0
    1.5801   -2.2014    2.2281 H   0  0  0  0  0  0  0  0  0  0  0  0
    3.1043   -3.2596    4.4638 H   0  0  0  0  0  0  0  0  0  0  0  0
    3.4793   -1.5369    4.2100 H   0  0  0  0  0  0  0  0  0  0  0  0
    1.8116   -2.0444    4.5462 H   0  0  0  0  0  0  0  0  0  0  0  0
  1  2  2  0  0  0  0
  1  3  1  0  0  0  0
  1  7  1  0  0  0  0
  3  4  1  0  0  0  0
  3  5  1  0  0  0  0
  3  6  1  0  0  0  0
  7  8  1  0  0  0  0
  7 12  1  0  0  0  0
  8  9  1  0  0  0  0
  8 11  1  0  0  0  0
  8 13  1  0  0  0  0
  9 10  2  0  0  0  0
  9 17  1  0  0  0  0
 11 14  1  0  0  0  0
 11 15  1  0  0  0  0
 11 16  1  0  0  0  0
 17 18  1  0  0  0  0
 17 28  1  0  0  0  0
 18 19  1  0  0  0  0
 18 21  1  0  0  0  0
 18 29  1  0  0  0  0
 19 20  2  0  0  0  0
 19 37  1  0  0  0  0
 21 22  1  0  0  0  0
 21 30  1  0  0  0  0
 21 31  1  0  0  0  0
 22 23  1  0  0  0  0
 22 24  2  0  0  0  0
 23 25  2  0  0  0  0
 23 32  1  0  0  0  0
 24 26  1  0  0  0  0
 24 33  1  0  0  0  0
 25 27  1  0  0  0  0
 25 34  1  0  0  0  0
 26 27  2  0  0  0  0
 26 35  1  0  0  0  0
 27 36  1  0  0  0  0
 37 38  1  0  0  0  0
 37 42  1  0  0  0  0
 38 39  1  0  0  0  0
 38 41  1  0  0  0  0
 38 43  1  0  0  0  0
 39 40  2  0  0  0  0
 39 47  1  0  0  0  0
 41 44  1  0  0  0  0
 41 45  1  0  0  0  0
 41 46  1  0  0  0  0
 47 48  1  0  0  0  0
 47 49  1  0  0  0  0
 48 50  1  0  0  0  0
 48 51  1  0  0  0  0
 48 52  1  0  0  0  0
M  END
$$$$

  -OEChem-05262217163D

 52 52  0     1  0  0  0  0  0999 V2000
   -3.1404    0.2255    4.2834 C   0  0  0  0  0  0  0  0  0  0  0  0
   -4.2166    0.2328    3.7074 O   0  0  0  0  0  0  0  0  0  0  0  0
   -3.0474   -0.2505    5.7210 C   0  0  0  0  0  0  0  0  0  0  0  0
   -4.0376   -0.5348    6.0884 H   0  0  0  0  0  0  0  0  0  0  0  0
   -2.3855   -1.1176    5.7854 H   0  0  0  0  0  0  0  0  0  0  0  0
   -2.6532    0.5481    6.3542 H   0  0  0  0  0  0  0  0  0  0  0  0
   -2.0044    0.6468    3.6259 N   0  0  0  0  0  0  0  0  0  0  0  0
   -1.9488    0.9815    2.1969 C   0  0  2  0  0  0  0  0  0  0  0  0
   -0.5440    0.7293    1.6105 C   0  0  0  0  0  0  0  0  0  0  0  0
    0.4026    0.5145    2.3635 O   0  0  0  0  0  0  0  0  0  0  0  0
   -2.3472    2.4519    2.0247 C   0  0  0  0  0  0  0  0  0  0  0  0
   -1.1119    0.5156    4.1003 H   0  0  0  0  0  0  0  0  0  0  0  0
   -2.6513    0.3475    1.6444 H   0  0  0  0  0  0  0  0  0  0  0  0
   -1.6505    3.1029    2.5622 H   0  0  0  0  0  0  0  0  0  0  0  0
   -2.3417    2.7325    0.9671 H   0  0  0  0  0  0  0  0  0  0  0  0
   -3.3546    2.6201    2.4186 H   0  0  0  0  0  0  0  0  0  0  0  0
   -0.3353    0.8152    0.2427 N   0  0  0  0  0  0  0  0  0  0  0  0
    0.9005    0.3929   -0.4502 C   0  0  2  0  0  0  0  0  0  0  0  0
    1.4259   -0.9863    0.0280 C   0  0  0  0  0  0  0  0  0  0  0  0
    0.6269   -1.8727    0.3113 O   0  0  0  0  0  0  0  0  0  0  0  0
    1.9559    1.5115   -0.3058 C   0  0  0  0  0  0  0  0  0  0  0  0
    1.5281    2.7458   -1.0626 C   0  0  0  0  0  0  0  0  0  0  0  0
    1.7273    2.8401   -2.4483 C   0  0  0  0  0  0  0  0  0  0  0  0
    0.9080    3.8082   -0.3880 C   0  0  0  0  0  0  0  0  0  0  0  0
    1.3111    3.9779   -3.1483 C   0  0  0  0  0  0  0  0  0  0  0  0
    0.4911    4.9461   -1.0866 C   0  0  0  0  0  0  0  0  0  0  0  0
    0.6918    5.0307   -2.4676 C   0  0  0  0  0  0  0  0  0  0  0  0
   -1.1657    0.9579   -0.3251 H   0  0  0  0  0  0  0  0  0  0  0  0
    0.6786    0.2674   -1.5140 H   0  0  0  0  0  0  0  0  0  0  0  0
    2.9155    1.1839   -0.7155 H   0  0  0  0  0  0  0  0  0  0  0  0
    2.1191    1.7466    0.7511 H   0  0  0  0  0  0  0  0  0  0  0  0
    2.2070    2.0296   -2.9888 H   0  0  0  0  0  0  0  0  0  0  0  0
    0.7456    3.7485    0.6846 H   0  0  0  0  0  0  0  0  0  0  0  0
    1.4699    4.0443   -4.2209 H   0  0  0  0  0  0  0  0  0  0  0  0
    0.0125    5.7644   -0.5562 H   0  0  0  0  0  0  0  0  0  0  0  0
    0.3690    5.9143   -3.0107 H   0  0  0  0  0  0  0  0  0  0  0  0
    2.7719   -1.3125    0.0211 N   0  0  0  0  0  0  0  0  0  0  0  0
    3.2980   -2.5824    0.5487 C   0  0  2  0  0  0  0  0  0  0  0  0
    3.3172   -2.6075    2.0980 C   0  0  0  0  0  0  0  0  0  0  0  0
    4.3592   -2.7651    2.7236 O   0  0  0  0  0  0  0  0  0  0  0  0
    4.6849   -2.7938   -0.0721 C   0  0  0  0  0  0  0  0  0  0  0  0
    3.4241   -0.5402   -0.0742 H   0  0  0  0  0  0  0  0  0  0  0  0
    2.6590   -3.4104    0.2231 H   0  0  0  0  0  0  0  0  0  0  0  0
    5.3713   -1.9992    0.2370 H   0  0  0  0  0  0  0  0  0  0  0  0
    5.1013   -3.7539    0.2488 H   0  0  0  0  0  0  0  0  0  0  0  0
    4.6187   -2.7955   -1.1642 H   0  0  0  0  0  0  0  0  0  0  0  0
    2.1391   -2.4100    2.7909 N   0  0  0  0  0  0  0  0  0  0  0  0
    2.0678   -2.2396    4.2344 C   0  0  0  0  0  0  0  0  0  0  0  0
    1.3223   -2.1676    2.2240 H   0  0  0  0  0  0  0  0  0  0  0  0
    2.5044   -3.1042    4.7452 H   0  0  0  0  0  0  0  0  0  0  0  0
    2.6080   -1.3374    4.5390 H   0  0  0  0  0  0  0  0  0  0  0  0
    1.0246   -2.1431    4.5497 H   0  0  0  0  0  0  0  0  0  0  0  0
  1  2  2  0  0  0  0
  1  3  1  0  0  0  0
  1  7  1  0  0  0  0
  3  4  1  0  0  0  0
  3  5  1  0  0  0  0
  3  6  1  0  0  0  0
  7  8  1  0  0  0  0
  7 12  1  0  0  0  0
  8  9  1  0  0  0  0
  8 11  1  0  0  0  0
  8 13  1  0  0  0  0
  9 10  2  0  0  0  0
  9 17  1  0  0  0  0
 11 14  1  0  0  0  0
 11 15  1  0  0  0  0
 11 16  1  0  0  0  0
 17 18  1  0  0  0  0
 17 28  1  0  0  0  0
 18 19  1  0  0  0  0
 18 21  1  0  0  0  0
 18 29  1  0  0  0  0
 19 20  2  0  0  0  0
 19 37  1  0  0  0  0
 21 22  1  0  0  0  0
 21 30  1  0  0  0  0
 21 31  1  0  0  0  0
 22 23  1  0  0  0  0
 22 24  2  0  0  0  0
 23 25  2  0  0  0  0
 23 32  1  0  0  0  0
 24 26  1  0  0  0  0
 24 33  1  0  0  0  0
 25 27  1  0  0  0  0
 25 34  1  0  0  0  0
 26 27  2  0  0  0  0
 26 35  1  0  0  0  0
 27 36  1  0  0  0  0
 37 38  1  0  0  0  0
 37 42  1  0  0  0  0
 38 39  1  0  0  0  0
 38 41  1  0  0  0  0
 38 43  1  0  0  0  0
 39 40  2  0  0  0  0
 39 47  1  0  0  0  0
 41 44  1  0  0  0  0
 41 45  1  0  0  0  0
 41 46  1  0  0  0  0
 47 48  1  0  0  0  0
 47 49  1  0  0  0  0
 48 50  1  0  0  0  0
 48 51  1  0  0  0  0
 48 52  1  0  0  0  0
M  END
$$$$

  -OEChem-05262217163D

 52 52  0     1  0  0  0  0  0999 V2000
   -3.0658    0.1048    4.2711 C   0  0  0  0  0  0  0  0  0  0  0  0
   -4.1293    0.0096    3.6798 O   0  0  0  0  0  0  0  0  0  0  0  0
   -2.9480   -0.3643    5.7092 C   0  0  0  0  0  0  0  0  0  0  0  0
   -3.9169   -0.7217    6.0697 H   0  0  0  0  0  0  0  0  0  0  0  0
   -2.2241   -1.1800    5.7784 H   0  0  0  0  0  0  0  0  0  0  0  0
   -2.6192    0.4611    6.3455 H   0  0  0  0  0  0  0  0  0  0  0  0
   -1.9659    0.6326    3.6292 N   0  0  0  0  0  0  0  0  0  0  0  0
   -1.9216    0.9657    2.1992 C   0  0  2  0  0  0  0  0  0  0  0  0
   -0.5056    0.7754    1.6174 C   0  0  0  0  0  0  0  0  0  0  0  0
    0.4480    0.6152    2.3739 O   0  0  0  0  0  0  0  0  0  0  0  0
   -2.3837    2.4158    2.0231 C   0  0  0  0  0  0  0  0  0  0  0  0
   -1.0714    0.5817    4.1153 H   0  0  0  0  0  0  0  0  0  0  0  0
   -2.5931    0.3009    1.6448 H   0  0  0  0  0  0  0  0  0  0  0  0
   -1.7185    3.0976    2.5624 H   0  0  0  0  0  0  0  0  0  0  0  0
   -2.3851    2.6939    0.9649 H   0  0  0  0  0  0  0  0  0  0  0  0
   -3.3995    2.5396    2.4120 H   0  0  0  0  0  0  0  0  0  0  0  0
   -0.2956    0.8397    0.2491 N   0  0  0  0  0  0  0  0  0  0  0  0
    0.9592    0.4458   -0.4246 C   0  0  2  0  0  0  0  0  0  0  0  0
    1.5168   -0.9021    0.0984 C   0  0  0  0  0  0  0  0  0  0  0  0
    0.7598   -1.8634    0.1817 O   0  0  0  0  0  0  0  0  0  0  0  0
    1.9789    1.6003   -0.3153 C   0  0  0  0  0  0  0  0  0  0  0  0
    1.5152    2.7953   -1.1129 C   0  0  0  0  0  0  0  0  0  0  0  0
    1.7167    2.8472   -2.5007 C   0  0  0  0  0  0  0  0  0  0  0  0
    0.8591    3.8605   -0.4782 C   0  0  0  0  0  0  0  0  0  0  0  0
    1.2676    3.9453   -3.2421 C   0  0  0  0  0  0  0  0  0  0  0  0
    0.4071    4.9581   -1.2189 C   0  0  0  0  0  0  0  0  0  0  0  0
    0.6107    5.0002   -2.6016 C   0  0  0  0  0  0  0  0  0  0  0  0
   -1.1295    0.9225   -0.3257 H   0  0  0  0  0  0  0  0  0  0  0  0
    0.7477    0.2807   -1.4853 H   0  0  0  0  0  0  0  0  0  0  0  0
    2.9481    1.2842   -0.7130 H   0  0  0  0  0  0  0  0  0  0  0  0
    2.1313    1.8762    0.7336 H   0  0  0  0  0  0  0  0  0  0  0  0
    2.2249    2.0344   -3.0111 H   0  0  0  0  0  0  0  0  0  0  0  0
    0.6959    3.8350    0.5955 H   0  0  0  0  0  0  0  0  0  0  0  0
    1.4294    3.9792   -4.3157 H   0  0  0  0  0  0  0  0  0  0  0  0
   -0.1011    5.7784   -0.7200 H   0  0  0  0  0  0  0  0  0  0  0  0
    0.2610    5.8523   -3.1774 H   0  0  0  0  0  0  0  0  0  0  0  0
    2.8538   -1.0925    0.4045 N   0  0  0  0  0  0  0  0  0  0  0  0
    3.3831   -2.3382    0.9827 C   0  0  2  0  0  0  0  0  0  0  0  0
    3.0398   -2.4802    2.4869 C   0  0  0  0  0  0  0  0  0  0  0  0
    3.9145   -2.5412    3.3432 O   0  0  0  0  0  0  0  0  0  0  0  0
    4.8918   -2.3607    0.7097 C   0  0  0  0  0  0  0  0  0  0  0  0
    3.4087   -0.2498    0.5223 H   0  0  0  0  0  0  0  0  0  0  0  0
    2.9400   -3.1983    0.4698 H   0  0  0  0  0  0  0  0  0  0  0  0
    5.3881   -1.5270    1.2168 H   0  0  0  0  0  0  0  0  0  0  0  0
    5.3283   -3.2959    1.0746 H   0  0  0  0  0  0  0  0  0  0  0  0
    5.0871   -2.2847   -0.3642 H   0  0  0  0  0  0  0  0  0  0  0  0
    1.7147   -2.5132    2.8732 N   0  0  0  0  0  0  0  0  0  0  0  0
    1.2772   -2.4356    4.2588 C   0  0  0  0  0  0  0  0  0  0  0  0
    1.0354   -2.3339    2.1295 H   0  0  0  0  0  0  0  0  0  0  0  0
    1.6945   -3.2643    4.8400 H   0  0  0  0  0  0  0  0  0  0  0  0
    1.5995   -1.4902    4.7070 H   0  0  0  0  0  0  0  0  0  0  0  0
    0.1859   -2.4917    4.3118 H   0  0  0  0  0  0  0  0  0  0  0  0
  1  2  2  0  0  0  0
  1  3  1  0  0  0  0
  1  7  1  0  0  0  0
  3  4  1  0  0  0  0
  3  5  1  0  0  0  0
  3  6  1  0  0  0  0
  7  8  1  0  0  0  0
  7 12  1  0  0  0  0
  8  9  1  0  0  0  0
  8 11  1  0  0  0  0
  8 13  1  0  0  0  0
  9 10  2  0  0  0  0
  9 17  1  0  0  0  0
 11 14  1  0  0  0  0
 11 15  1  0  0  0  0
 11 16  1  0  0  0  0
 17 18  1  0  0  0  0
 17 28  1  0  0  0  0
 18 19  1  0  0  0  0
 18 21  1  0  0  0  0
 18 29  1  0  0  0  0
 19 20  2  0  0  0  0
 19 37  1  0  0  0  0
 21 22  1  0  0  0  0
 21 30  1  0  0  0  0
 21 31  1  0  0  0  0
 22 23  1  0  0  0  0
 22 24  2  0  0  0  0
 23 25  2  0  0  0  0
 23 32  1  0  0  0  0
 24 26  1  0  0  0  0
 24 33  1  0  0  0  0
 25 27  1  0  0  0  0
 25 34  1  0  0  0  0
 26 27  2  0  0  0  0
 26 35  1  0  0  0  0
 27 36  1  0  0  0  0
 37 38  1  0  0  0  0
 37 42  1  0  0  0  0
 38 39  1  0  0  0  0
 38 41  1  0  0  0  0
 38 43  1  0  0  0  0
 39 40  2  0  0  0  0
 39 47  1  0  0  0  0
 41 44  1  0  0  0  0
 41 45  1  0  0  0  0
 41 46  1  0  0  0  0
 47 48  1  0  0  0  0
 47 49  1  0  0  0  0
 48 50  1  0  0  0  0
 48 51  1  0  0  0  0
 48 52  1  0  0  0  0
M  END
$$$$

  -OEChem-05262217163D

 52 52  0     1  0  0  0  0  0999 V2000
   -2.9671   -0.0273    4.2645 C   0  0  0  0  0  0  0  0  0  0  0  0
   -4.0150   -0.2111    3.6663 O   0  0  0  0  0  0  0  0  0  0  0  0
   -2.8148   -0.4974    5.6988 C   0  0  0  0  0  0  0  0  0  0  0  0
   -3.7365   -0.9787    6.0380 H   0  0  0  0  0  0  0  0  0  0  0  0
   -1.9951   -1.2162    5.7717 H   0  0  0  0  0  0  0  0  0  0  0  0
   -2.6022    0.3540    6.3499 H   0  0  0  0  0  0  0  0  0  0  0  0
   -1.9138    0.5974    3.6321 N   0  0  0  0  0  0  0  0  0  0  0  0
   -1.8925    0.9466    2.2053 C   0  0  2  0  0  0  0  0  0  0  0  0
   -0.4693    0.8384    1.6214 C   0  0  0  0  0  0  0  0  0  0  0  0
    0.4957    0.7609    2.3761 O   0  0  0  0  0  0  0  0  0  0  0  0
   -2.4347    2.3704    2.0462 C   0  0  0  0  0  0  0  0  0  0  0  0
   -1.0208    0.6220    4.1239 H   0  0  0  0  0  0  0  0  0  0  0  0
   -2.5283    0.2525    1.6446 H   0  0  0  0  0  0  0  0  0  0  0  0
   -1.8088    3.0818    2.5943 H   0  0  0  0  0  0  0  0  0  0  0  0
   -2.4517    2.6611    0.9915 H   0  0  0  0  0  0  0  0  0  0  0  0
   -3.4558    2.4319    2.4362 H   0  0  0  0  0  0  0  0  0  0  0  0
   -0.2654    0.8637    0.2512 N   0  0  0  0  0  0  0  0  0  0  0  0
    1.0019    0.4827   -0.4052 C   0  0  2  0  0  0  0  0  0  0  0  0
    1.5860   -0.8294    0.1734 C   0  0  0  0  0  0  0  0  0  0  0  0
    0.9235   -1.8567    0.0783 O   0  0  0  0  0  0  0  0  0  0  0  0
    1.9984    1.6590   -0.3426 C   0  0  0  0  0  0  0  0  0  0  0  0
    1.5128    2.8135   -1.1846 C   0  0  0  0  0  0  0  0  0  0  0  0
    1.7112    2.8179   -2.5736 C   0  0  0  0  0  0  0  0  0  0  0  0
    0.8465    3.8931   -0.5860 C   0  0  0  0  0  0  0  0  0  0  0  0
    1.2492    3.8849   -3.3516 C   0  0  0  0  0  0  0  0  0  0  0  0
    0.3846    4.9607   -1.3627 C   0  0  0  0  0  0  0  0  0  0  0  0
    0.5854    4.9564   -2.7464 C   0  0  0  0  0  0  0  0  0  0  0  0
   -1.1033    0.8783   -0.3240 H   0  0  0  0  0  0  0  0  0  0  0  0
    0.7967    0.2708   -1.4590 H   0  0  0  0  0  0  0  0  0  0  0  0
    2.9732    1.3400   -0.7260 H   0  0  0  0  0  0  0  0  0  0  0  0
    2.1448    1.9818    0.6933 H   0  0  0  0  0  0  0  0  0  0  0  0
    2.2261    1.9918   -3.0552 H   0  0  0  0  0  0  0  0  0  0  0  0
    0.6858    3.9035    0.4883 H   0  0  0  0  0  0  0  0  0  0  0  0
    1.4076    3.8823   -4.4261 H   0  0  0  0  0  0  0  0  0  0  0  0
   -0.1276    5.7939   -0.8901 H   0  0  0  0  0  0  0  0  0  0  0  0
    0.2286    5.7859   -3.3501 H   0  0  0  0  0  0  0  0  0  0  0  0
    2.8319   -0.8951    0.7736 N   0  0  0  0  0  0  0  0  0  0  0  0
    3.3319   -2.0981    1.4587 C   0  0  2  0  0  0  0  0  0  0  0  0
    2.6464   -2.3267    2.8302 C   0  0  0  0  0  0  0  0  0  0  0  0
    3.2783   -2.3002    3.8802 O   0  0  0  0  0  0  0  0  0  0  0  0
    4.8549   -1.9576    1.5709 C   0  0  0  0  0  0  0  0  0  0  0  0
    3.2180   -0.0019    1.0677 H   0  0  0  0  0  0  0  0  0  0  0  0
    3.1250   -2.9817    0.8454 H   0  0  0  0  0  0  0  0  0  0  0  0
    5.1185   -1.0902    2.1849 H   0  0  0  0  0  0  0  0  0  0  0  0
    5.2844   -2.8520    2.0336 H   0  0  0  0  0  0  0  0  0  0  0  0
    5.3008   -1.8342    0.5793 H   0  0  0  0  0  0  0  0  0  0  0  0
    1.2878   -2.5705    2.8700 N   0  0  0  0  0  0  0  0  0  0  0  0
    0.5156   -2.6503    4.1006 C   0  0  0  0  0  0  0  0  0  0  0  0
    0.7967   -2.4799    1.9773 H   0  0  0  0  0  0  0  0  0  0  0  0
    0.8924   -3.4575    4.7372 H   0  0  0  0  0  0  0  0  0  0  0  0
    0.5783   -1.7061    4.6511 H   0  0  0  0  0  0  0  0  0  0  0  0
   -0.5355   -2.8516    3.8729 H   0  0  0  0  0  0  0  0  0  0  0  0
  1  2  2  0  0  0  0
  1  3  1  0  0  0  0
  1  7  1  0  0  0  0
  3  4  1  0  0  0  0
  3  5  1  0  0  0  0
  3  6  1  0  0  0  0
  7  8  1  0  0  0  0
  7 12  1  0  0  0  0
  8  9  1  0  0  0  0
  8 11  1  0  0  0  0
  8 13  1  0  0  0  0
  9 10  2  0  0  0  0
  9 17  1  0  0  0  0
 11 14  1  0  0  0  0
 11 15  1  0  0  0  0
 11 16  1  0  0  0  0
 17 18  1  0  0  0  0
 17 28  1  0  0  0  0
 18 19  1  0  0  0  0
 18 21  1  0  0  0  0
 18 29  1  0  0  0  0
 19 20  2  0  0  0  0
 19 37  1  0  0  0  0
 21 22  1  0  0  0  0
 21 30  1  0  0  0  0
 21 31  1  0  0  0  0
 22 23  1  0  0  0  0
 22 24  2  0  0  0  0
 23 25  2  0  0  0  0
 23 32  1  0  0  0  0
 24 26  1  0  0  0  0
 24 33  1  0  0  0  0
 25 27  1  0  0  0  0
 25 34  1  0  0  0  0
 26 27  2  0  0  0  0
 26 35  1  0  0  0  0
 27 36  1  0  0  0  0
 37 38  1  0  0  0  0
 37 42  1  0  0  0  0
 38 39  1  0  0  0  0
 38 41  1  0  0  0  0
 38 43  1  0  0  0  0
 39 40  2  0  0  0  0
 39 47  1  0  0  0  0
 41 44  1  0  0  0  0
 41 45  1  0  0  0  0
 41 46  1  0  0  0  0
 47 48  1  0  0  0  0
 47 49  1  0  0  0  0
 48 50  1  0  0  0  0
 48 51  1  0  0  0  0
 48 52  1  0  0  0  0
M  END
$$$$

  -OEChem-05262217163D

 52 52  0     1  0  0  0  0  0999 V2000
   -2.9370   -0.0719    4.2634 C   0  0  0  0  0  0  0  0  0  0  0  0
   -3.9544   -0.3362    3.6430 O   0  0  0  0  0  0  0  0  0  0  0  0
   -2.8096   -0.4706    5.7220 C   0  0  0  0  0  0  0  0  0  0  0  0
   -3.6912   -1.0367    6.0358 H   0  0  0  0  0  0  0  0  0  0  0  0
   -1.9233   -1.0926    5.8672 H   0  0  0  0  0  0  0  0  0  0  0  0
   -2.7241    0.4228    6.3453 H   0  0  0  0  0  0  0  0  0  0  0  0
   -1.9033    0.5911    3.6368 N   0  0  0  0  0  0  0  0  0  0  0  0
   -1.8759    0.9205    2.2050 C   0  0  2  0  0  0  0  0  0  0  0  0
   -0.4470    0.8432    1.6316 C   0  0  0  0  0  0  0  0  0  0  0  0
    0.5164    0.8306    2.3919 O   0  0  0  0  0  0  0  0  0  0  0  0
   -2.4514    2.3283    2.0238 C   0  0  0  0  0  0  0  0  0  0  0  0
   -1.0242    0.6759    4.1470 H   0  0  0  0  0  0  0  0  0  0  0  0
   -2.4892    0.2042    1.6477 H   0  0  0  0  0  0  0  0  0  0  0  0
   -1.8465    3.0621    2.5664 H   0  0  0  0  0  0  0  0  0  0  0  0
   -2.4685    2.6045    0.9651 H   0  0  0  0  0  0  0  0  0  0  0  0
   -3.4761    2.3700    2.4070 H   0  0  0  0  0  0  0  0  0  0  0  0
   -0.2347    0.8368    0.2623 N   0  0  0  0  0  0  0  0  0  0  0  0
    1.0451    0.4719   -0.3788 C   0  0  2  0  0  0  0  0  0  0  0  0
    1.6599   -0.8069    0.2352 C   0  0  0  0  0  0  0  0  0  0  0  0
    1.1450   -1.8880   -0.0264 O   0  0  0  0  0  0  0  0  0  0  0  0
    2.0187    1.6675   -0.3345 C   0  0  0  0  0  0  0  0  0  0  0  0
    1.5178    2.7967   -1.2015 C   0  0  0  0  0  0  0  0  0  0  0  0
    1.7245    2.7790   -2.5890 C   0  0  0  0  0  0  0  0  0  0  0  0
    0.8225    3.8718   -0.6279 C   0  0  0  0  0  0  0  0  0  0  0  0
    1.2434    3.8203   -3.3901 C   0  0  0  0  0  0  0  0  0  0  0  0
    0.3409    4.9133   -1.4278 C   0  0  0  0  0  0  0  0  0  0  0  0
    0.5516    4.8879   -2.8096 C   0  0  0  0  0  0  0  0  0  0  0  0
   -1.0689    0.8165   -0.3183 H   0  0  0  0  0  0  0  0  0  0  0  0
    0.8531    0.2327   -1.4295 H   0  0  0  0  0  0  0  0  0  0  0  0
    3.0020    1.3542   -0.7007 H   0  0  0  0  0  0  0  0  0  0  0  0
    2.1521    2.0164    0.6944 H   0  0  0  0  0  0  0  0  0  0  0  0
    2.2617    1.9559   -3.0508 H   0  0  0  0  0  0  0  0  0  0  0  0
    0.6531    3.8977    0.4449 H   0  0  0  0  0  0  0  0  0  0  0  0
    1.4087    3.8008   -4.4634 H   0  0  0  0  0  0  0  0  0  0  0  0
   -0.1947    5.7426   -0.9749 H   0  0  0  0  0  0  0  0  0  0  0  0
    0.1794    5.6973   -3.4311 H   0  0  0  0  0  0  0  0  0  0  0  0
    2.7437   -0.7673    1.0947 N   0  0  0  0  0  0  0  0  0  0  0  0
    3.1962   -1.9398    1.8599 C   0  0  2  0  0  0  0  0  0  0  0  0
    2.2457   -2.2769    3.0376 C   0  0  0  0  0  0  0  0  0  0  0  0
    2.6202   -2.2392    4.2043 O   0  0  0  0  0  0  0  0  0  0  0  0
    4.6324   -1.6559    2.3167 C   0  0  0  0  0  0  0  0  0  0  0  0
    2.8961    0.1422    1.5262 H   0  0  0  0  0  0  0  0  0  0  0  0
    3.2218   -2.8175    1.2053 H   0  0  0  0  0  0  0  0  0  0  0  0
    4.6607   -0.7867    2.9818 H   0  0  0  0  0  0  0  0  0  0  0  0
    5.0355   -2.5180    2.8575 H   0  0  0  0  0  0  0  0  0  0  0  0
    5.2752   -1.4578    1.4536 H   0  0  0  0  0  0  0  0  0  0  0  0
    0.9386   -2.6321    2.7667 N   0  0  0  0  0  0  0  0  0  0  0  0
   -0.0733   -2.8509    3.7888 C   0  0  0  0  0  0  0  0  0  0  0  0
    0.6589   -2.5870    1.7838 H   0  0  0  0  0  0  0  0  0  0  0  0
    0.1708   -3.7359    4.3854 H   0  0  0  0  0  0  0  0  0  0  0  0
   -0.1355   -1.9828    4.4523 H   0  0  0  0  0  0  0  0  0  0  0  0
   -1.0526   -3.0029    3.3248 H   0  0  0  0  0  0  0  0  0  0  0  0
  1  2  2  0  0  0  0
  1  3  1  0  0  0  0
  1  7  1  0  0  0  0
  3  4  1  0  0  0  0
  3  5  1  0  0  0  0
  3  6  1  0  0  0  0
  7  8  1  0  0  0  0
  7 12  1  0  0  0  0
  8  9  1  0  0  0  0
  8 11  1  0  0  0  0
  8 13  1  0  0  0  0
  9 10  2  0  0  0  0
  9 17  1  0  0  0  0
 11 14  1  0  0  0  0
 11 15  1  0  0  0  0
 11 16  1  0  0  0  0
 17 18  1  0  0  0  0
 17 28  1  0  0  0  0
 18 19  1  0  0  0  0
 18 21  1  0  0  0  0
 18 29  1  0  0  0  0
 19 20  2  0  0  0  0
 19 37  1  0  0  0  0
 21 22  1  0  0  0  0
 21 30  1  0  0  0  0
 21 31  1  0  0  0  0
 22 23  1  0  0  0  0
 22 24  2  0  0  0  0
 23 25  2  0  0  0  0
 23 32  1  0  0  0  0
 24 26  1  0  0  0  0
 24 33  1  0  0  0  0
 25 27  1  0  0  0  0
 25 34  1  0  0  0  0
 26 27  2  0  0  0  0
 26 35  1  0  0  0  0
 27 36  1  0  0  0  0
 37 38  1  0  0  0  0
 37 42  1  0  0  0  0
 38 39  1  0  0  0  0
 38 41  1  0  0  0  0
 38 43  1  0  0  0  0
 39 40  2  0  0  0  0
 39 47  1  0  0  0  0
 41 44  1  0  0  0  0
 41 45  1  0  0  0  0
 41 46  1  0  0  0  0
 47 48  1  0  0  0  0
 47 49  1  0  0  0  0
 48 50  1  0  0  0  0
 48 51  1  0  0  0  0
 48 52  1  0  0  0  0
M  END
$$$$

  -OEChem-05262217163D

 52 52  0     1  0  0  0  0  0999 V2000
   -2.6052   -0.2194    4.3538 C   0  0  0  0  0  0  0  0  0  0  0  0
   -3.5276   -0.7609    3.7644 O   0  0  0  0  0  0  0  0  0  0  0  0
   -2.2907   -0.5945    5.7898 C   0  0  0  0  0  0  0  0  0  0  0  0
   -2.9862   -1.3617    6.1416 H   0  0  0  0  0  0  0  0  0  0  0  0
   -1.2713   -0.9842    5.8596 H   0  0  0  0  0  0  0  0  0  0  0  0
   -2.3805    0.2845    6.4325 H   0  0  0  0  0  0  0  0  0  0  0  0
   -1.8291    0.7211    3.7114 N   0  0  0  0  0  0  0  0  0  0  0  0
   -1.8827    0.9881    2.2669 C   0  0  2  0  0  0  0  0  0  0  0  0
   -0.4652    1.0576    1.6649 C   0  0  0  0  0  0  0  0  0  0  0  0
    0.5031    1.2025    2.4065 O   0  0  0  0  0  0  0  0  0  0  0  0
   -2.6327    2.3037    2.0496 C   0  0  0  0  0  0  0  0  0  0  0  0
   -0.9651    0.9823    4.1865 H   0  0  0  0  0  0  0  0  0  0  0  0
   -2.4153    0.1819    1.7510 H   0  0  0  0  0  0  0  0  0  0  0  0
   -2.1092    3.1293    2.5424 H   0  0  0  0  0  0  0  0  0  0  0  0
   -2.7135    2.5289    0.9819 H   0  0  0  0  0  0  0  0  0  0  0  0
   -3.6432    2.2334    2.4648 H   0  0  0  0  0  0  0  0  0  0  0  0
   -0.2621    0.9738    0.2956 N   0  0  0  0  0  0  0  0  0  0  0  0
    1.0147    0.5450   -0.3162 C   0  0  2  0  0  0  0  0  0  0  0  0
    1.5975   -0.7099    0.3723 C   0  0  0  0  0  0  0  0  0  0  0  0
    1.2588   -1.8149   -0.0354 O   0  0  0  0  0  0  0  0  0  0  0  0
    2.0301    1.7055   -0.3470 C   0  0  0  0  0  0  0  0  0  0  0  0
    1.5703    2.7946   -1.2861 C   0  0  0  0  0  0  0  0  0  0  0  0
    1.7771    2.6795   -2.6692 C   0  0  0  0  0  0  0  0  0  0  0  0
    0.9144    3.9292   -0.7864 C   0  0  0  0  0  0  0  0  0  0  0  0
    1.3381    3.6845   -3.5381 C   0  0  0  0  0  0  0  0  0  0  0  0
    0.4753    4.9352   -1.6539 C   0  0  0  0  0  0  0  0  0  0  0  0
    0.6873    4.8132   -3.0306 C   0  0  0  0  0  0  0  0  0  0  0  0
   -1.1021    0.8359   -0.2604 H   0  0  0  0  0  0  0  0  0  0  0  0
    0.8169    0.2510   -1.3522 H   0  0  0  0  0  0  0  0  0  0  0  0
    3.0005    1.3305   -0.6898 H   0  0  0  0  0  0  0  0  0  0  0  0
    2.1818    2.1156    0.6562 H   0  0  0  0  0  0  0  0  0  0  0  0
    2.2826    1.8080   -3.0745 H   0  0  0  0  0  0  0  0  0  0  0  0
    0.7425    4.0295    0.2816 H   0  0  0  0  0  0  0  0  0  0  0  0
    1.5041    3.5892   -4.6073 H   0  0  0  0  0  0  0  0  0  0  0  0
   -0.0292    5.8117   -1.2578 H   0  0  0  0  0  0  0  0  0  0  0  0
    0.3484    5.5947   -3.7046 H   0  0  0  0  0  0  0  0  0  0  0  0
    2.4586   -0.6187    1.4504 N   0  0  0  0  0  0  0  0  0  0  0  0
    2.7801   -1.7751    2.3005 C   0  0  2  0  0  0  0  0  0  0  0  0
    1.5738   -2.2276    3.1667 C   0  0  0  0  0  0  0  0  0  0  0  0
    1.5661   -2.1118    4.3873 O   0  0  0  0  0  0  0  0  0  0  0  0
    4.0015   -1.3885    3.1431 C   0  0  0  0  0  0  0  0  0  0  0  0
    2.3936    0.2816    1.9297 H   0  0  0  0  0  0  0  0  0  0  0  0
    3.0637   -2.6250    1.6706 H   0  0  0  0  0  0  0  0  0  0  0  0
    3.7676   -0.5391    3.7930 H   0  0  0  0  0  0  0  0  0  0  0  0
    4.3117   -2.2298    3.7709 H   0  0  0  0  0  0  0  0  0  0  0  0
    4.8392   -1.1128    2.4953 H   0  0  0  0  0  0  0  0  0  0  0  0
    0.4783   -2.7950    2.5452 N   0  0  0  0  0  0  0  0  0  0  0  0
   -0.6920   -3.3137    3.2395 C   0  0  0  0  0  0  0  0  0  0  0  0
    0.5063   -2.8195    1.5227 H   0  0  0  0  0  0  0  0  0  0  0  0
   -0.4384   -4.2300    3.7819 H   0  0  0  0  0  0  0  0  0  0  0  0
   -1.0760   -2.5792    3.9517 H   0  0  0  0  0  0  0  0  0  0  0  0
   -1.4861   -3.5414    2.5219 H   0  0  0  0  0  0  0  0  0  0  0  0
  1  2  2  0  0  0  0
  1  3  1  0  0  0  0
  1  7  1  0  0  0  0
  3  4  1  0  0  0  0
  3  5  1  0  0  0  0
  3  6  1  0  0  0  0
  7  8  1  0  0  0  0
  7 12  1  0  0  0  0
  8  9  1  0  0  0  0
  8 11  1  0  0  0  0
  8 13  1  0  0  0  0
  9 10  2  0  0  0  0
  9 17  1  0  0  0  0
 11 14  1  0  0  0  0
 11 15  1  0  0  0  0
 11 16  1  0  0  0  0
 17 18  1  0  0  0  0
 17 28  1  0  0  0  0
 18 19  1  0  0  0  0
 18 21  1  0  0  0  0
 18 29  1  0  0  0  0
 19 20  2  0  0  0  0
 19 37  1  0  0  0  0
 21 22  1  0  0  0  0
 21 30  1  0  0  0  0
 21 31  1  0  0  0  0
 22 23  1  0  0  0  0
 22 24  2  0  0  0  0
 23 25  2  0  0  0  0
 23 32  1  0  0  0  0
 24 26  1  0  0  0  0
 24 33  1  0  0  0  0
 25 27  1  0  0  0  0
 25 34  1  0  0  0  0
 26 27  2  0  0  0  0
 26 35  1  0  0  0  0
 27 36  1  0  0  0  0
 37 38  1  0  0  0  0
 37 42  1  0  0  0  0
 38 39  1  0  0  0  0
 38 41  1  0  0  0  0
 38 43  1  0  0  0  0
 39 40  2  0  0  0  0
 39 47  1  0  0  0  0
 41 44  1  0  0  0  0
 41 45  1  0  0  0  0
 41 46  1  0  0  0  0
 47 48  1  0  0  0  0
 47 49  1  0  0  0  0
 48 50  1  0  0  0  0
 48 51  1  0  0  0  0
 48 52  1  0  0  0  0
M  END
$$$$

  -OEChem-05262217163D

 52 52  0     1  0  0  0  0  0999 V2000
   -2.7001   -0.3363    4.2863 C   0  0  0  0  0  0  0  0  0  0  0  0
   -3.7901   -0.3898    3.7361 O   0  0  0  0  0  0  0  0  0  0  0  0
   -2.4867   -1.0286    5.6197 C   0  0  0  0  0  0  0  0  0  0  0  0
   -3.4046   -1.5309    5.9370 H   0  0  0  0  0  0  0  0  0  0  0  0
   -1.6904   -1.7713    5.5353 H   0  0  0  0  0  0  0  0  0  0  0  0
   -2.2054   -0.2938    6.3778 H   0  0  0  0  0  0  0  0  0  0  0  0
   -1.6655    0.3503    3.6886 N   0  0  0  0  0  0  0  0  0  0  0  0
   -1.7522    0.9971    2.3709 C   0  0  2  0  0  0  0  0  0  0  0  0
   -0.3631    1.1376    1.7204 C   0  0  0  0  0  0  0  0  0  0  0  0
    0.6090    1.4135    2.4154 O   0  0  0  0  0  0  0  0  0  0  0  0
   -2.3981    2.3768    2.5302 C   0  0  0  0  0  0  0  0  0  0  0  0
   -0.7323    0.1900    4.0804 H   0  0  0  0  0  0  0  0  0  0  0  0
   -2.3716    0.3843    1.7077 H   0  0  0  0  0  0  0  0  0  0  0  0
   -1.8028    3.0015    3.2039 H   0  0  0  0  0  0  0  0  0  0  0  0
   -2.4712    2.8792    1.5610 H   0  0  0  0  0  0  0  0  0  0  0  0
   -3.4064    2.2805    2.9449 H   0  0  0  0  0  0  0  0  0  0  0  0
   -0.1917    0.9633    0.3551 N   0  0  0  0  0  0  0  0  0  0  0  0
    1.0688    0.5161   -0.2844 C   0  0  2  0  0  0  0  0  0  0  0  0
    1.7229   -0.6841    0.4384 C   0  0  0  0  0  0  0  0  0  0  0  0
    1.5252   -1.8142    0.0059 O   0  0  0  0  0  0  0  0  0  0  0  0
    2.0653    1.6851   -0.4118 C   0  0  0  0  0  0  0  0  0  0  0  0
    1.5544    2.7184   -1.3855 C   0  0  0  0  0  0  0  0  0  0  0  0
    1.7097    2.5365   -2.7677 C   0  0  0  0  0  0  0  0  0  0  0  0
    0.8977    3.8657   -0.9165 C   0  0  0  0  0  0  0  0  0  0  0  0
    1.2198    3.4898   -3.6670 C   0  0  0  0  0  0  0  0  0  0  0  0
    0.4064    4.8193   -1.8142 C   0  0  0  0  0  0  0  0  0  0  0  0
    0.5676    4.6314   -3.1904 C   0  0  0  0  0  0  0  0  0  0  0  0
   -1.0465    0.7636   -0.1581 H   0  0  0  0  0  0  0  0  0  0  0  0
    0.8336    0.1668   -1.2952 H   0  0  0  0  0  0  0  0  0  0  0  0
    3.0269    1.3055   -0.7725 H   0  0  0  0  0  0  0  0  0  0  0  0
    2.2498    2.1472    0.5627 H   0  0  0  0  0  0  0  0  0  0  0  0
    2.2152    1.6539   -3.1483 H   0  0  0  0  0  0  0  0  0  0  0  0
    0.7650    4.0151    0.1515 H   0  0  0  0  0  0  0  0  0  0  0  0
    1.3468    3.3438   -4.7357 H   0  0  0  0  0  0  0  0  0  0  0  0
   -0.0995    5.7048   -1.4409 H   0  0  0  0  0  0  0  0  0  0  0  0
    0.1871    5.3717   -3.8882 H   0  0  0  0  0  0  0  0  0  0  0  0
    2.3891   -0.5321    1.6400 N   0  0  0  0  0  0  0  0  0  0  0  0
    2.4887   -1.6381    2.6006 C   0  0  2  0  0  0  0  0  0  0  0  0
    1.0937   -2.0316    3.1505 C   0  0  0  0  0  0  0  0  0  0  0  0
    0.6355   -1.5378    4.1770 O   0  0  0  0  0  0  0  0  0  0  0  0
    3.4479   -1.1982    3.7112 C   0  0  0  0  0  0  0  0  0  0  0  0
    2.2319    0.3908    2.0562 H   0  0  0  0  0  0  0  0  0  0  0  0
    2.9184   -2.5187    2.1113 H   0  0  0  0  0  0  0  0  0  0  0  0
    3.0713   -0.3016    4.2145 H   0  0  0  0  0  0  0  0  0  0  0  0
    3.5575   -1.9934    4.4550 H   0  0  0  0  0  0  0  0  0  0  0  0
    4.4344   -0.9750    3.2936 H   0  0  0  0  0  0  0  0  0  0  0  0
    0.3071   -2.8893    2.4060 N   0  0  0  0  0  0  0  0  0  0  0  0
   -1.0843   -3.1940    2.7121 C   0  0  0  0  0  0  0  0  0  0  0  0
    0.6372   -3.0499    1.4511 H   0  0  0  0  0  0  0  0  0  0  0  0
   -1.2054   -3.4352    3.7731 H   0  0  0  0  0  0  0  0  0  0  0  0
   -1.7254   -2.3426    2.4651 H   0  0  0  0  0  0  0  0  0  0  0  0
   -1.4153   -4.0583    2.1284 H   0  0  0  0  0  0  0  0  0  0  0  0
  1  2  2  0  0  0  0
  1  3  1  0  0  0  0
  1  7  1  0  0  0  0
  3  4  1  0  0  0  0
  3  5  1  0  0  0  0
  3  6  1  0  0  0  0
  7  8  1  0  0  0  0
  7 12  1  0  0  0  0
  8  9  1  0  0  0  0
  8 11  1  0  0  0  0
  8 13  1  0  0  0  0
  9 10  2  0  0  0  0
  9 17  1  0  0  0  0
 11 14  1  0  0  0  0
 11 15  1  0  0  0  0
 11 16  1  0  0  0  0
 17 18  1  0  0  0  0
 17 28  1  0  0  0  0
 18 19  1  0  0  0  0
 18 21  1  0  0  0  0
 18 29  1  0  0  0  0
 19 20  2  0  0  0  0
 19 37  1  0  0  0  0
 21 22  1  0  0  0  0
 21 30  1  0  0  0  0
 21 31  1  0  0  0  0
 22 23  1  0  0  0  0
 22 24  2  0  0  0  0
 23 25  2  0  0  0  0
 23 32  1  0  0  0  0
 24 26  1  0  0  0  0
 24 33  1  0  0  0  0
 25 27  1  0  0  0  0
 25 34  1  0  0  0  0
 26 27  2  0  0  0  0
 26 35  1  0  0  0  0
 27 36  1  0  0  0  0
 37 38  1  0  0  0  0
 37 42  1  0  0  0  0
 38 39  1  0  0  0  0
 38 41  1  0  0  0  0
 38 43  1  0  0  0  0
 39 40  2  0  0  0  0
 39 47  1  0  0  0  0
 41 44  1  0  0  0  0
 41 45  1  0  0  0  0
 41 46  1  0  0  0  0
 47 48  1  0  0  0  0
 47 49  1  0  0  0  0
 48 50  1  0  0  0  0
 48 51  1  0  0  0  0
 48 52  1  0  0  0  0
M  END
$$$$

  -OEChem-05262217163D

 52 52  0     1  0  0  0  0  0999 V2000
   -2.9980   -0.3238    3.9879 C   0  0  0  0  0  0  0  0  0  0  0  0
   -4.0504   -0.1246    3.3999 O   0  0  0  0  0  0  0  0  0  0  0  0
   -2.9606   -1.2522    5.1872 C   0  0  0  0  0  0  0  0  0  0  0  0
   -2.3521   -2.1309    4.9634 H   0  0  0  0  0  0  0  0  0  0  0  0
   -2.5281   -0.7328    6.0457 H   0  0  0  0  0  0  0  0  0  0  0  0
   -3.9718   -1.5781    5.4451 H   0  0  0  0  0  0  0  0  0  0  0  0
   -1.8457    0.2978    3.5576 N   0  0  0  0  0  0  0  0  0  0  0  0
   -1.7766    1.2152    2.4102 C   0  0  2  0  0  0  0  0  0  0  0  0
   -0.3640    1.2471    1.7951 C   0  0  0  0  0  0  0  0  0  0  0  0
    0.5975    1.5465    2.4933 O   0  0  0  0  0  0  0  0  0  0  0  0
   -2.1953    2.6164    2.8698 C   0  0  0  0  0  0  0  0  0  0  0  0
   -0.9701   -0.0279    3.9802 H   0  0  0  0  0  0  0  0  0  0  0  0
   -2.4704    0.8781    1.6333 H   0  0  0  0  0  0  0  0  0  0  0  0
   -1.5354    2.9718    3.6679 H   0  0  0  0  0  0  0  0  0  0  0  0
   -2.1458    3.3229    2.0358 H   0  0  0  0  0  0  0  0  0  0  0  0
   -3.2219    2.6018    3.2493 H   0  0  0  0  0  0  0  0  0  0  0  0
   -0.1731    0.9583    0.4523 N   0  0  0  0  0  0  0  0  0  0  0  0
    1.0771    0.4676   -0.1801 C   0  0  2  0  0  0  0  0  0  0  0  0
    1.7943   -0.6756    0.5779 C   0  0  0  0  0  0  0  0  0  0  0  0
    1.7707   -1.8026    0.0954 O   0  0  0  0  0  0  0  0  0  0  0  0
    2.0597    1.6339   -0.3946 C   0  0  0  0  0  0  0  0  0  0  0  0
    1.5270    2.6038   -1.4207 C   0  0  0  0  0  0  0  0  0  0  0  0
    1.6647    2.3378   -2.7912 C   0  0  0  0  0  0  0  0  0  0  0  0
    0.8801    3.7800   -1.0145 C   0  0  0  0  0  0  0  0  0  0  0  0
    1.1639    3.2346   -3.7411 C   0  0  0  0  0  0  0  0  0  0  0  0
    0.3805    4.6786   -1.9632 C   0  0  0  0  0  0  0  0  0  0  0  0
    0.5227    4.4063   -3.3273 C   0  0  0  0  0  0  0  0  0  0  0  0
   -1.0298    0.7675   -0.0613 H   0  0  0  0  0  0  0  0  0  0  0  0
    0.8195    0.0600   -1.1634 H   0  0  0  0  0  0  0  0  0  0  0  0
    3.0201    1.2421   -0.7467 H   0  0  0  0  0  0  0  0  0  0  0  0
    2.2529    2.1525    0.5497 H   0  0  0  0  0  0  0  0  0  0  0  0
    2.1642    1.4322   -3.1229 H   0  0  0  0  0  0  0  0  0  0  0  0
    0.7649    3.9972    0.0439 H   0  0  0  0  0  0  0  0  0  0  0  0
    1.2753    3.0220   -4.8004 H   0  0  0  0  0  0  0  0  0  0  0  0
   -0.1160    5.5885   -1.6392 H   0  0  0  0  0  0  0  0  0  0  0  0
    0.1374    5.1050   -4.0641 H   0  0  0  0  0  0  0  0  0  0  0  0
    2.2521   -0.5249    1.8728 N   0  0  0  0  0  0  0  0  0  0  0  0
    2.2969   -1.6464    2.8172 C   0  0  2  0  0  0  0  0  0  0  0  0
    0.8657   -2.1273    3.1604 C   0  0  0  0  0  0  0  0  0  0  0  0
    0.2518   -1.6978    4.1335 O   0  0  0  0  0  0  0  0  0  0  0  0
    3.0709   -1.1783    4.0542 C   0  0  0  0  0  0  0  0  0  0  0  0
    2.0181    0.3864    2.2789 H   0  0  0  0  0  0  0  0  0  0  0  0
    2.8413   -2.4875    2.3749 H   0  0  0  0  0  0  0  0  0  0  0  0
    2.5779   -0.3165    4.5163 H   0  0  0  0  0  0  0  0  0  0  0  0
    3.1279   -1.9833    4.7933 H   0  0  0  0  0  0  0  0  0  0  0  0
    4.0893   -0.8893    3.7771 H   0  0  0  0  0  0  0  0  0  0  0  0
    0.2166   -2.9601    2.2700 N   0  0  0  0  0  0  0  0  0  0  0  0
   -1.1917   -3.3181    2.3690 C   0  0  0  0  0  0  0  0  0  0  0  0
    0.6841   -3.0720    1.3666 H   0  0  0  0  0  0  0  0  0  0  0  0
   -1.4074   -3.7644    3.3453 H   0  0  0  0  0  0  0  0  0  0  0  0
   -1.8234   -2.4346    2.2332 H   0  0  0  0  0  0  0  0  0  0  0  0
   -1.4480   -4.0489    1.5959 H   0  0  0  0  0  0  0  0  0  0  0  0
  1  2  2  0  0  0  0
  1  3  1  0  0  0  0
  1  7  1  0  0  0  0
  3  4  1  0  0  0  0
  3  5  1  0  0  0  0
  3  6  1  0  0  0  0
  7  8  1  0  0  0  0
  7 12  1  0  0  0  0
  8  9  1  0  0  0  0
  8 11  1  0  0  0  0
  8 13  1  0  0  0  0
  9 10  2  0  0  0  0
  9 17  1  0  0  0  0
 11 14  1  0  0  0  0
 11 15  1  0  0  0  0
 11 16  1  0  0  0  0
 17 18  1  0  0  0  0
 17 28  1  0  0  0  0
 18 19  1  0  0  0  0
 18 21  1  0  0  0  0
 18 29  1  0  0  0  0
 19 20  2  0  0  0  0
 19 37  1  0  0  0  0
 21 22  1  0  0  0  0
 21 30  1  0  0  0  0
 21 31  1  0  0  0  0
 22 23  1  0  0  0  0
 22 24  2  0  0  0  0
 23 25  2  0  0  0  0
 23 32  1  0  0  0  0
 24 26  1  0  0  0  0
 24 33  1  0  0  0  0
 25 27  1  0  0  0  0
 25 34  1  0  0  0  0
 26 27  2  0  0  0  0
 26 35  1  0  0  0  0
 27 36  1  0  0  0  0
 37 38  1  0  0  0  0
 37 42  1  0  0  0  0
 38 39  1  0  0  0  0
 38 41  1  0  0  0  0
 38 43  1  0  0  0  0
 39 40  2  0  0  0  0
 39 47  1  0  0  0  0
 41 44  1  0  0  0  0
 41 45  1  0  0  0  0
 41 46  1  0  0  0  0
 47 48  1  0  0  0  0
 47 49  1  0  0  0  0
 48 50  1  0  0  0  0
 48 51  1  0  0  0  0
 48 52  1  0  0  0  0
M  END
$$$$

  -OEChem-05262217163D

 52 52  0     1  0  0  0  0  0999 V2000
   -2.8747   -0.0784    1.9751 C   0  0  0  0  0  0  0  0  0  0  0  0
   -3.1853    0.5766    0.9899 O   0  0  0  0  0  0  0  0  0  0  0  0
   -3.1441   -1.5695    2.0116 C   0  0  0  0  0  0  0  0  0  0  0  0
   -2.2395   -2.1124    1.7265 H   0  0  0  0  0  0  0  0  0  0  0  0
   -3.4390   -1.8736    3.0188 H   0  0  0  0  0  0  0  0  0  0  0  0
   -3.9478   -1.8259    1.3163 H   0  0  0  0  0  0  0  0  0  0  0  0
   -2.1497    0.5193    2.9836 N   0  0  0  0  0  0  0  0  0  0  0  0
   -1.6148    1.8865    2.8891 C   0  0  2  0  0  0  0  0  0  0  0  0
   -0.3347    1.9109    2.0228 C   0  0  0  0  0  0  0  0  0  0  0  0
    0.7582    2.1909    2.5043 O   0  0  0  0  0  0  0  0  0  0  0  0
   -1.3868    2.3863    4.3205 C   0  0  0  0  0  0  0  0  0  0  0  0
   -1.6648   -0.1348    3.6082 H   0  0  0  0  0  0  0  0  0  0  0  0
   -2.3490    2.5471    2.4154 H   0  0  0  0  0  0  0  0  0  0  0  0
   -0.6629    1.7500    4.8403 H   0  0  0  0  0  0  0  0  0  0  0  0
   -1.0042    3.4117    4.3090 H   0  0  0  0  0  0  0  0  0  0  0  0
   -2.3267    2.3746    4.8807 H   0  0  0  0  0  0  0  0  0  0  0  0
   -0.4139    1.4563    0.7182 N   0  0  0  0  0  0  0  0  0  0  0  0
    0.6155    0.6771   -0.0100 C   0  0  2  0  0  0  0  0  0  0  0  0
    1.2488   -0.5013    0.7709 C   0  0  0  0  0  0  0  0  0  0  0  0
    1.2723   -1.6116    0.2539 O   0  0  0  0  0  0  0  0  0  0  0  0
    1.7405    1.6024   -0.5098 C   0  0  0  0  0  0  0  0  0  0  0  0
    1.2317    2.5460   -1.5723 C   0  0  0  0  0  0  0  0  0  0  0  0
    1.1007    2.1179   -2.9016 C   0  0  0  0  0  0  0  0  0  0  0  0
    0.8700    3.8591   -1.2388 C   0  0  0  0  0  0  0  0  0  0  0  0
    0.6164    2.9900   -3.8828 C   0  0  0  0  0  0  0  0  0  0  0  0
    0.3860    4.7328   -2.2184 C   0  0  0  0  0  0  0  0  0  0  0  0
    0.2587    4.2981   -3.5413 C   0  0  0  0  0  0  0  0  0  0  0  0
   -1.3797    1.2554    0.4410 H   0  0  0  0  0  0  0  0  0  0  0  0
    0.1308    0.2316   -0.8851 H   0  0  0  0  0  0  0  0  0  0  0  0
    2.5475    0.9966   -0.9361 H   0  0  0  0  0  0  0  0  0  0  0  0
    2.1709    2.1667    0.3231 H   0  0  0  0  0  0  0  0  0  0  0  0
    1.3734    1.1030   -3.1758 H   0  0  0  0  0  0  0  0  0  0  0  0
    0.9605    4.1995   -0.2112 H   0  0  0  0  0  0  0  0  0  0  0  0
    0.5166    2.6504   -4.9095 H   0  0  0  0  0  0  0  0  0  0  0  0
    0.1072    5.7473   -1.9496 H   0  0  0  0  0  0  0  0  0  0  0  0
   -0.1192    4.9748   -4.3020 H   0  0  0  0  0  0  0  0  0  0  0  0
    1.6688   -0.3944    2.0818 N   0  0  0  0  0  0  0  0  0  0  0  0
    1.8972   -1.5479    2.9563 C   0  0  2  0  0  0  0  0  0  0  0  0
    0.5800   -2.1951    3.4413 C   0  0  0  0  0  0  0  0  0  0  0  0
   -0.3380   -1.5099    3.8882 O   0  0  0  0  0  0  0  0  0  0  0  0
    2.7284   -1.0679    4.1477 C   0  0  0  0  0  0  0  0  0  0  0  0
    1.5244    0.5217    2.5146 H   0  0  0  0  0  0  0  0  0  0  0  0
    2.4751   -2.3041    2.4148 H   0  0  0  0  0  0  0  0  0  0  0  0
    2.1862   -0.2997    4.7091 H   0  0  0  0  0  0  0  0  0  0  0  0
    2.9462   -1.9022    4.8213 H   0  0  0  0  0  0  0  0  0  0  0  0
    3.6765   -0.6435    3.8030 H   0  0  0  0  0  0  0  0  0  0  0  0
    0.4400   -3.5700    3.4162 N   0  0  0  0  0  0  0  0  0  0  0  0
   -0.7671   -4.2680    3.8406 C   0  0  0  0  0  0  0  0  0  0  0  0
    1.1608   -4.0958    2.9287 H   0  0  0  0  0  0  0  0  0  0  0  0
   -1.0280   -3.9949    4.8686 H   0  0  0  0  0  0  0  0  0  0  0  0
   -1.6067   -4.0189    3.1845 H   0  0  0  0  0  0  0  0  0  0  0  0
   -0.6089   -5.3502    3.8025 H   0  0  0  0  0  0  0  0  0  0  0  0
  1  2  2  0  0  0  0
  1  3  1  0  0  0  0
  1  7  1  0  0  0  0
  3  4  1  0  0  0  0
  3  5  1  0  0  0  0
  3  6  1  0  0  0  0
  7  8  1  0  0  0  0
  7 12  1  0  0  0  0
  8  9  1  0  0  0  0
  8 11  1  0  0  0  0
  8 13  1  0  0  0  0
  9 10  2  0  0  0  0
  9 17  1  0  0  0  0
 11 14  1  0  0  0  0
 11 15  1  0  0  0  0
 11 16  1  0  0  0  0
 17 18  1  0  0  0  0
 17 28  1  0  0  0  0
 18 19  1  0  0  0  0
 18 21  1  0  0  0  0
 18 29  1  0  0  0  0
 19 20  2  0  0  0  0
 19 37  1  0  0  0  0
 21 22  1  0  0  0  0
 21 30  1  0  0  0  0
 21 31  1  0  0  0  0
 22 23  1  0  0  0  0
 22 24  2  0  0  0  0
 23 25  2  0  0  0  0
 23 32  1  0  0  0  0
 24 26  1  0  0  0  0
 24 33  1  0  0  0  0
 25 27  1  0  0  0  0
 25 34  1  0  0  0  0
 26 27  2  0  0  0  0
 26 35  1  0  0  0  0
 27 36  1  0  0  0  0
 37 38  1  0  0  0  0
 37 42  1  0  0  0  0
 38 39  1  0  0  0  0
 38 41  1  0  0  0  0
 38 43  1  0  0  0  0
 39 40  2  0  0  0  0
 39 47  1  0  0  0  0
 41 44  1  0  0  0  0
 41 45  1  0  0  0  0
 41 46  1  0  0  0  0
 47 48  1  0  0  0  0
 47 49  1  0  0  0  0
 48 50  1  0  0  0  0
 48 51  1  0  0  0  0
 48 52  1  0  0  0  0
M  END
$$$$

  -OEChem-05262217163D

 52 52  0     1  0  0  0  0  0999 V2000
   -3.7259    1.0161    4.1724 C   0  0  0  0  0  0  0  0  0  0  0  0
   -4.6887    0.9288    3.4272 O   0  0  0  0  0  0  0  0  0  0  0  0
   -3.8667    0.6839    5.6460 C   0  0  0  0  0  0  0  0  0  0  0  0
   -4.8984    0.3995    5.8718 H   0  0  0  0  0  0  0  0  0  0  0  0
   -3.2075   -0.1482    5.9058 H   0  0  0  0  0  0  0  0  0  0  0  0
   -3.6012    1.5534    6.2522 H   0  0  0  0  0  0  0  0  0  0  0  0
   -2.5028    1.4100    3.6715 N   0  0  0  0  0  0  0  0  0  0  0  0
   -2.2169    1.6011    2.2430 C   0  0  2  0  0  0  0  0  0  0  0  0
   -0.7886    1.1485    1.8780 C   0  0  0  0  0  0  0  0  0  0  0  0
    0.0679    1.0833    2.7525 O   0  0  0  0  0  0  0  0  0  0  0  0
   -2.4148    3.0816    1.9041 C   0  0  0  0  0  0  0  0  0  0  0  0
   -1.7058    1.3712    4.3050 H   0  0  0  0  0  0  0  0  0  0  0  0
   -2.9100    1.0004    1.6438 H   0  0  0  0  0  0  0  0  0  0  0  0
   -1.7290    3.7038    2.4882 H   0  0  0  0  0  0  0  0  0  0  0  0
   -2.2301    3.2622    0.8409 H   0  0  0  0  0  0  0  0  0  0  0  0
   -3.4413    3.3863    2.1315 H   0  0  0  0  0  0  0  0  0  0  0  0
   -0.4723    0.8868    0.5556 N   0  0  0  0  0  0  0  0  0  0  0  0
    0.7727    0.3242   -0.0236 C   0  0  2  0  0  0  0  0  0  0  0  0
    1.4298   -0.9147    0.6389 C   0  0  0  0  0  0  0  0  0  0  0  0
    1.9923   -1.7250   -0.0883 O   0  0  0  0  0  0  0  0  0  0  0  0
    1.8269    1.4453   -0.0766 C   0  0  0  0  0  0  0  0  0  0  0  0
    1.4261    2.5161   -1.0627 C   0  0  0  0  0  0  0  0  0  0  0  0
    1.6569    2.3390   -2.4348 C   0  0  0  0  0  0  0  0  0  0  0  0
    0.8161    3.6990   -0.6192 C   0  0  0  0  0  0  0  0  0  0  0  0
    1.2811    3.3277   -3.3504 C   0  0  0  0  0  0  0  0  0  0  0  0
    0.4395    4.6888   -1.5335 C   0  0  0  0  0  0  0  0  0  0  0  0
    0.6718    4.5030   -2.9000 C   0  0  0  0  0  0  0  0  0  0  0  0
   -1.2295    1.0538   -0.1027 H   0  0  0  0  0  0  0  0  0  0  0  0
    0.5453    0.0128   -1.0488 H   0  0  0  0  0  0  0  0  0  0  0  0
    2.7919    1.0291   -0.3863 H   0  0  0  0  0  0  0  0  0  0  0  0
    1.9699    1.8772    0.9196 H   0  0  0  0  0  0  0  0  0  0  0  0
    2.1322    1.4305   -2.7941 H   0  0  0  0  0  0  0  0  0  0  0  0
    0.6364    3.8523    0.4409 H   0  0  0  0  0  0  0  0  0  0  0  0
    1.4664    3.1836   -4.4110 H   0  0  0  0  0  0  0  0  0  0  0  0
   -0.0284    5.6039   -1.1819 H   0  0  0  0  0  0  0  0  0  0  0  0
    0.3841    5.2727   -3.6106 H   0  0  0  0  0  0  0  0  0  0  0  0
    1.3561   -1.2090    1.9851 N   0  0  0  0  0  0  0  0  0  0  0  0
    1.9754   -2.3706    2.6382 C   0  0  2  0  0  0  0  0  0  0  0  0
    1.1438   -3.6618    2.4488 C   0  0  0  0  0  0  0  0  0  0  0  0
    0.6971   -4.2916    3.4006 O   0  0  0  0  0  0  0  0  0  0  0  0
    2.1811   -2.0008    4.1128 C   0  0  0  0  0  0  0  0  0  0  0  0
    0.9228   -0.4957    2.5753 H   0  0  0  0  0  0  0  0  0  0  0  0
    2.9613   -2.5554    2.1991 H   0  0  0  0  0  0  0  0  0  0  0  0
    1.2193   -1.8112    4.6001 H   0  0  0  0  0  0  0  0  0  0  0  0
    2.6831   -2.8166    4.6426 H   0  0  0  0  0  0  0  0  0  0  0  0
    2.7995   -1.1021    4.1978 H   0  0  0  0  0  0  0  0  0  0  0  0
    0.9009   -4.1179    1.1683 N   0  0  0  0  0  0  0  0  0  0  0  0
    0.1056   -5.2970    0.8569 C   0  0  0  0  0  0  0  0  0  0  0  0
    1.2677   -3.5390    0.4084 H   0  0  0  0  0  0  0  0  0  0  0  0
    0.5407   -6.1861    1.3250 H   0  0  0  0  0  0  0  0  0  0  0  0
   -0.9205   -5.1727    1.2183 H   0  0  0  0  0  0  0  0  0  0  0  0
    0.0753   -5.4565   -0.2252 H   0  0  0  0  0  0  0  0  0  0  0  0
  1  2  2  0  0  0  0
  1  3  1  0  0  0  0
  1  7  1  0  0  0  0
  3  4  1  0  0  0  0
  3  5  1  0  0  0  0
  3  6  1  0  0  0  0
  7  8  1  0  0  0  0
  7 12  1  0  0  0  0
  8  9  1  0  0  0  0
  8 11  1  0  0  0  0
  8 13  1  0  0  0  0
  9 10  2  0  0  0  0
  9 17  1  0  0  0  0
 11 14  1  0  0  0  0
 11 15  1  0  0  0  0
 11 16  1  0  0  0  0
 17 18  1  0  0  0  0
 17 28  1  0  0  0  0
 18 19  1  0  0  0  0
 18 21  1  0  0  0  0
 18 29  1  0  0  0  0
 19 20  2  0  0  0  0
 19 37  1  0  0  0  0
 21 22  1  0  0  0  0
 21 30  1  0  0  0  0
 21 31  1  0  0  0  0
 22 23  1  0  0  0  0
 22 24  2  0  0  0  0
 23 25  2  0  0  0  0
 23 32  1  0  0  0  0
 24 26  1  0  0  0  0
 24 33  1  0  0  0  0
 25 27  1  0  0  0  0
 25 34  1  0  0  0  0
 26 27  2  0  0  0  0
 26 35  1  0  0  0  0
 27 36  1  0  0  0  0
 37 38  1  0  0  0  0
 37 42  1  0  0  0  0
 38 39  1  0  0  0  0
 38 41  1  0  0  0  0
 38 43  1  0  0  0  0
 39 40  2  0  0  0  0
 39 47  1  0  0  0  0
 41 44  1  0  0  0  0
 41 45  1  0  0  0  0
 41 46  1  0  0  0  0
 47 48  1  0  0  0  0
 47 49  1  0  0  0  0
 48 50  1  0  0  0  0
 48 51  1  0  0  0  0
 48 52  1  0  0  0  0
M  END
$$$$

  -OEChem-05262217163D

 52 52  0     1  0  0  0  0  0999 V2000
   -3.3569    0.3034    1.9411 C   0  0  0  0  0  0  0  0  0  0  0  0
   -4.3164    0.0746    1.2307 O   0  0  0  0  0  0  0  0  0  0  0  0
   -2.6682   -0.8227    2.6979 C   0  0  0  0  0  0  0  0  0  0  0  0
   -1.5845   -0.7525    2.6033 H   0  0  0  0  0  0  0  0  0  0  0  0
   -2.9376   -0.7858    3.7557 H   0  0  0  0  0  0  0  0  0  0  0  0
   -2.9836   -1.7897    2.2963 H   0  0  0  0  0  0  0  0  0  0  0  0
   -2.9591    1.6231    1.9095 N   0  0  0  0  0  0  0  0  0  0  0  0
   -1.8207    2.2514    2.6054 C   0  0  2  0  0  0  0  0  0  0  0  0
   -0.4468    1.7471    2.1019 C   0  0  0  0  0  0  0  0  0  0  0  0
    0.5357    1.7774    2.8292 O   0  0  0  0  0  0  0  0  0  0  0  0
   -1.9837    2.1278    4.1288 C   0  0  0  0  0  0  0  0  0  0  0  0
   -3.6005    2.2171    1.3873 H   0  0  0  0  0  0  0  0  0  0  0  0
   -1.8491    3.3195    2.3678 H   0  0  0  0  0  0  0  0  0  0  0  0
   -1.7957    1.1058    4.4676 H   0  0  0  0  0  0  0  0  0  0  0  0
   -1.2725    2.7865    4.6374 H   0  0  0  0  0  0  0  0  0  0  0  0
   -2.9949    2.4188    4.4299 H   0  0  0  0  0  0  0  0  0  0  0  0
   -0.3448    1.2329    0.8205 N   0  0  0  0  0  0  0  0  0  0  0  0
    0.7584    0.4540    0.2050 C   0  0  2  0  0  0  0  0  0  0  0  0
    1.3834   -0.7071    1.0202 C   0  0  0  0  0  0  0  0  0  0  0  0
    1.8607   -1.6531    0.4041 O   0  0  0  0  0  0  0  0  0  0  0  0
    1.8879    1.4263   -0.1831 C   0  0  0  0  0  0  0  0  0  0  0  0
    1.4466    2.3499   -1.2928 C   0  0  0  0  0  0  0  0  0  0  0  0
    1.4649    1.9182   -2.6271 C   0  0  0  0  0  0  0  0  0  0  0  0
    1.0088    3.6504   -1.0013 C   0  0  0  0  0  0  0  0  0  0  0  0
    1.0465    2.7716   -3.6538 C   0  0  0  0  0  0  0  0  0  0  0  0
    0.5909    4.5055   -2.0267 C   0  0  0  0  0  0  0  0  0  0  0  0
    0.6090    4.0656   -3.3539 C   0  0  0  0  0  0  0  0  0  0  0  0
   -1.2118    1.2741    0.2878 H   0  0  0  0  0  0  0  0  0  0  0  0
    0.3689   -0.0091   -0.7074 H   0  0  0  0  0  0  0  0  0  0  0  0
    2.7602    0.8596   -0.5272 H   0  0  0  0  0  0  0  0  0  0  0  0
    2.2070    2.0044    0.6905 H   0  0  0  0  0  0  0  0  0  0  0  0
    1.8060    0.9158   -2.8701 H   0  0  0  0  0  0  0  0  0  0  0  0
    0.9948    3.9992    0.0272 H   0  0  0  0  0  0  0  0  0  0  0  0
    1.0647    2.4291   -4.6844 H   0  0  0  0  0  0  0  0  0  0  0  0
    0.2561    5.5119   -1.7927 H   0  0  0  0  0  0  0  0  0  0  0  0
    0.2875    4.7291   -4.1516 H   0  0  0  0  0  0  0  0  0  0  0  0
    1.1897   -0.8665    2.3770 N   0  0  0  0  0  0  0  0  0  0  0  0
    1.4864   -2.0815    3.1436 C   0  0  2  0  0  0  0  0  0  0  0  0
    0.3774   -3.1415    2.9528 C   0  0  0  0  0  0  0  0  0  0  0  0
   -0.4098   -3.4242    3.8486 O   0  0  0  0  0  0  0  0  0  0  0  0
    1.6714   -1.6632    4.6069 C   0  0  0  0  0  0  0  0  0  0  0  0
    0.8997   -0.0285    2.8847 H   0  0  0  0  0  0  0  0  0  0  0  0
    2.4275   -2.5217    2.7973 H   0  0  0  0  0  0  0  0  0  0  0  0
    2.4916   -0.9441    4.6960 H   0  0  0  0  0  0  0  0  0  0  0  0
    0.7578   -1.2010    4.9947 H   0  0  0  0  0  0  0  0  0  0  0  0
    1.9069   -2.5360    5.2239 H   0  0  0  0  0  0  0  0  0  0  0  0
    0.2224   -3.7225    1.7099 N   0  0  0  0  0  0  0  0  0  0  0  0
   -0.8675   -4.6250    1.3652 C   0  0  0  0  0  0  0  0  0  0  0  0
    0.8172   -3.3477    0.9664 H   0  0  0  0  0  0  0  0  0  0  0  0
   -0.9012   -5.4688    2.0622 H   0  0  0  0  0  0  0  0  0  0  0  0
   -1.8267   -4.0985    1.4016 H   0  0  0  0  0  0  0  0  0  0  0  0
   -0.7242   -5.0203    0.3550 H   0  0  0  0  0  0  0  0  0  0  0  0
  1  2  2  0  0  0  0
  1  3  1  0  0  0  0
  1  7  1  0  0  0  0
  3  4  1  0  0  0  0
  3  5  1  0  0  0  0
  3  6  1  0  0  0  0
  7  8  1  0  0  0  0
  7 12  1  0  0  0  0
  8  9  1  0  0  0  0
  8 11  1  0  0  0  0
  8 13  1  0  0  0  0
  9 10  2  0  0  0  0
  9 17  1  0  0  0  0
 11 14  1  0  0  0  0
 11 15  1  0  0  0  0
 11 16  1  0  0  0  0
 17 18  1  0  0  0  0
 17 28  1  0  0  0  0
 18 19  1  0  0  0  0
 18 21  1  0  0  0  0
 18 29  1  0  0  0  0
 19 20  2  0  0  0  0
 19 37  1  0  0  0  0
 21 22  1  0  0  0  0
 21 30  1  0  0  0  0
 21 31  1  0  0  0  0
 22 23  1  0  0  0  0
 22 24  2  0  0  0  0
 23 25  2  0  0  0  0
 23 32  1  0  0  0  0
 24 26  1  0  0  0  0
 24 33  1  0  0  0  0
 25 27  1  0  0  0  0
 25 34  1  0  0  0  0
 26 27  2  0  0  0  0
 26 35  1  0  0  0  0
 27 36  1  0  0  0  0
 37 38  1  0  0  0  0
 37 42  1  0  0  0  0
 38 39  1  0  0  0  0
 38 41  1  0  0  0  0
 38 43  1  0  0  0  0
 39 40  2  0  0  0  0
 39 47  1  0  0  0  0
 41 44  1  0  0  0  0
 41 45  1  0  0  0  0
 41 46  1  0  0  0  0
 47 48  1  0  0  0  0
 47 49  1  0  0  0  0
 48 50  1  0  0  0  0
 48 51  1  0  0  0  0
 48 52  1  0  0  0  0
M  END
$$$$

  -OEChem-05262217163D

 52 52  0     1  0  0  0  0  0999 V2000
   -2.9621   -0.0559    2.1077 C   0  0  0  0  0  0  0  0  0  0  0  0
   -3.0014    0.3327    0.9491 O   0  0  0  0  0  0  0  0  0  0  0  0
   -3.5159   -1.4170    2.4822 C   0  0  0  0  0  0  0  0  0  0  0  0
   -3.9268   -1.9139    1.5989 H   0  0  0  0  0  0  0  0  0  0  0  0
   -2.7223   -2.0428    2.8982 H   0  0  0  0  0  0  0  0  0  0  0  0
   -4.3091   -1.3077    3.2256 H   0  0  0  0  0  0  0  0  0  0  0  0
   -2.3542    0.7368    3.0614 N   0  0  0  0  0  0  0  0  0  0  0  0
   -1.7048    2.0255    2.7651 C   0  0  2  0  0  0  0  0  0  0  0  0
   -0.3344    1.8175    2.0785 C   0  0  0  0  0  0  0  0  0  0  0  0
    0.7074    1.8862    2.7188 O   0  0  0  0  0  0  0  0  0  0  0  0
   -1.6000    2.8073    4.0802 C   0  0  0  0  0  0  0  0  0  0  0  0
   -2.2649    0.3462    3.9961 H   0  0  0  0  0  0  0  0  0  0  0  0
   -2.3324    2.6068    2.0806 H   0  0  0  0  0  0  0  0  0  0  0  0
   -0.9971    2.2587    4.8112 H   0  0  0  0  0  0  0  0  0  0  0  0
   -1.1302    3.7807    3.9056 H   0  0  0  0  0  0  0  0  0  0  0  0
   -2.5951    2.9750    4.5039 H   0  0  0  0  0  0  0  0  0  0  0  0
   -0.3179    1.3097    0.7928 N   0  0  0  0  0  0  0  0  0  0  0  0
    0.7604    0.5289    0.1409 C   0  0  2  0  0  0  0  0  0  0  0  0
    1.3936   -0.6145    0.9731 C   0  0  0  0  0  0  0  0  0  0  0  0
    2.0311   -1.4852    0.3905 O   0  0  0  0  0  0  0  0  0  0  0  0
    1.8748    1.4861   -0.3240 C   0  0  0  0  0  0  0  0  0  0  0  0
    1.3898    2.3875   -1.4339 C   0  0  0  0  0  0  0  0  0  0  0  0
    1.3467    1.9216   -2.7564 C   0  0  0  0  0  0  0  0  0  0  0  0
    0.9710    3.6974   -1.1570 C   0  0  0  0  0  0  0  0  0  0  0  0
    0.8930    2.7527   -3.7865 C   0  0  0  0  0  0  0  0  0  0  0  0
    0.5168    4.5294   -2.1862 C   0  0  0  0  0  0  0  0  0  0  0  0
    0.4783    4.0573   -3.5018 C   0  0  0  0  0  0  0  0  0  0  0  0
   -1.2594    1.1478    0.4213 H   0  0  0  0  0  0  0  0  0  0  0  0
    0.3303    0.0448   -0.7414 H   0  0  0  0  0  0  0  0  0  0  0  0
    2.7274    0.9068   -0.6943 H   0  0  0  0  0  0  0  0  0  0  0  0
    2.2370    2.0821    0.5198 H   0  0  0  0  0  0  0  0  0  0  0  0
    1.6685    0.9101   -2.9872 H   0  0  0  0  0  0  0  0  0  0  0  0
    0.9969    4.0691   -0.1369 H   0  0  0  0  0  0  0  0  0  0  0  0
    0.8644    2.3840   -4.8075 H   0  0  0  0  0  0  0  0  0  0  0  0
    0.1950    5.5423   -1.9637 H   0  0  0  0  0  0  0  0  0  0  0  0
    0.1277    4.7025   -4.3020 H   0  0  0  0  0  0  0  0  0  0  0  0
    0.9765   -0.8891    2.2607 N   0  0  0  0  0  0  0  0  0  0  0  0
    1.2865   -2.1095    3.0111 C   0  0  2  0  0  0  0  0  0  0  0  0
    0.3175   -3.2468    2.6185 C   0  0  0  0  0  0  0  0  0  0  0  0
   -0.5614   -3.6382    3.3792 O   0  0  0  0  0  0  0  0  0  0  0  0
    1.2303   -1.7570    4.5020 C   0  0  0  0  0  0  0  0  0  0  0  0
    0.6400   -0.0771    2.7777 H   0  0  0  0  0  0  0  0  0  0  0  0
    2.3038   -2.4443    2.7817 H   0  0  0  0  0  0  0  0  0  0  0  0
    0.2317   -1.4040    4.7785 H   0  0  0  0  0  0  0  0  0  0  0  0
    1.4674   -2.6371    5.1081 H   0  0  0  0  0  0  0  0  0  0  0  0
    1.9559   -0.9711    4.7340 H   0  0  0  0  0  0  0  0  0  0  0  0
    0.3871   -3.7605    1.3392 N   0  0  0  0  0  0  0  0  0  0  0  0
   -0.5943   -4.6816    0.7837 C   0  0  0  0  0  0  0  0  0  0  0  0
    1.0322   -3.2792    0.7068 H   0  0  0  0  0  0  0  0  0  0  0  0
   -1.5742   -4.1982    0.7134 H   0  0  0  0  0  0  0  0  0  0  0  0
   -0.2888   -4.9972   -0.2186 H   0  0  0  0  0  0  0  0  0  0  0  0
   -0.6838   -5.5735    1.4127 H   0  0  0  0  0  0  0  0  0  0  0  0
  1  2  2  0  0  0  0
  1  3  1  0  0  0  0
  1  7  1  0  0  0  0
  3  4  1  0  0  0  0
  3  5  1  0  0  0  0
  3  6  1  0  0  0  0
  7  8  1  0  0  0  0
  7 12  1  0  0  0  0
  8  9  1  0  0  0  0
  8 11  1  0  0  0  0
  8 13  1  0  0  0  0
  9 10  2  0  0  0  0
  9 17  1  0  0  0  0
 11 14  1  0  0  0  0
 11 15  1  0  0  0  0
 11 16  1  0  0  0  0
 17 18  1  0  0  0  0
 17 28  1  0  0  0  0
 18 19  1  0  0  0  0
 18 21  1  0  0  0  0
 18 29  1  0  0  0  0
 19 20  2  0  0  0  0
 19 37  1  0  0  0  0
 21 22  1  0  0  0  0
 21 30  1  0  0  0  0
 21 31  1  0  0  0  0
 22 23  1  0  0  0  0
 22 24  2  0  0  0  0
 23 25  2  0  0  0  0
 23 32  1  0  0  0  0
 24 26  1  0  0  0  0
 24 33  1  0  0  0  0
 25 27  1  0  0  0  0
 25 34  1  0  0  0  0
 26 27  2  0  0  0  0
 26 35  1  0  0  0  0
 27 36  1  0  0  0  0
 37 38  1  0  0  0  0
 37 42  1  0  0  0  0
 38 39  1  0  0  0  0
 38 41  1  0  0  0  0
 38 43  1  0  0  0  0
 39 40  2  0  0  0  0
 39 47  1  0  0  0  0
 41 44  1  0  0  0  0
 41 45  1  0  0  0  0
 41 46  1  0  0  0  0
 47 48  1  0  0  0  0
 47 49  1  0  0  0  0
 48 50  1  0  0  0  0
 48 51  1  0  0  0  0
 48 52  1  0  0  0  0
M  END
$$$$

  -OEChem-05262217163D

 52 52  0     1  0  0  0  0  0999 V2000
   -2.9027   -0.0464    3.3898 C   0  0  0  0  0  0  0  0  0  0  0  0
   -2.7363   -0.6481    2.3376 O   0  0  0  0  0  0  0  0  0  0  0  0
   -3.3084   -0.7900    4.6480 C   0  0  0  0  0  0  0  0  0  0  0  0
   -3.5406   -1.8323    4.4114 H   0  0  0  0  0  0  0  0  0  0  0  0
   -2.4929   -0.7668    5.3750 H   0  0  0  0  0  0  0  0  0  0  0  0
   -4.1939   -0.3254    5.0886 H   0  0  0  0  0  0  0  0  0  0  0  0
   -2.6676    1.3127    3.4329 N   0  0  0  0  0  0  0  0  0  0  0  0
   -2.1255    2.0461    2.2813 C   0  0  2  0  0  0  0  0  0  0  0  0
   -0.7423    1.5144    1.8464 C   0  0  0  0  0  0  0  0  0  0  0  0
    0.1471    1.3689    2.6747 O   0  0  0  0  0  0  0  0  0  0  0  0
   -2.0378    3.5296    2.6469 C   0  0  0  0  0  0  0  0  0  0  0  0
   -2.5995    1.7360    4.3541 H   0  0  0  0  0  0  0  0  0  0  0  0
   -2.8158    1.9370    1.4383 H   0  0  0  0  0  0  0  0  0  0  0  0
   -1.3569    3.6784    3.4914 H   0  0  0  0  0  0  0  0  0  0  0  0
   -1.6643    4.1081    1.7959 H   0  0  0  0  0  0  0  0  0  0  0  0
   -3.0252    3.9143    2.9208 H   0  0  0  0  0  0  0  0  0  0  0  0
   -0.5186    1.1998    0.5173 N   0  0  0  0  0  0  0  0  0  0  0  0
    0.6334    0.4451   -0.0228 C   0  0  2  0  0  0  0  0  0  0  0  0
    1.0398   -0.8443    0.7409 C   0  0  0  0  0  0  0  0  0  0  0  0
    2.0770   -1.4238    0.4341 O   0  0  0  0  0  0  0  0  0  0  0  0
    1.8314    1.4144   -0.1364 C   0  0  0  0  0  0  0  0  0  0  0  0
    1.5672    2.4693   -1.1848 C   0  0  0  0  0  0  0  0  0  0  0  0
    1.7641    2.1842   -2.5438 C   0  0  0  0  0  0  0  0  0  0  0  0
    1.1145    3.7439   -0.8125 C   0  0  0  0  0  0  0  0  0  0  0  0
    1.5048    3.1553   -3.5168 C   0  0  0  0  0  0  0  0  0  0  0  0
    0.8540    4.7162   -1.7843 C   0  0  0  0  0  0  0  0  0  0  0  0
    1.0477    4.4213   -3.1375 C   0  0  0  0  0  0  0  0  0  0  0  0
   -1.3148    1.3233   -0.1019 H   0  0  0  0  0  0  0  0  0  0  0  0
    0.3710    0.1039   -1.0282 H   0  0  0  0  0  0  0  0  0  0  0  0
    2.7353    0.8670   -0.4232 H   0  0  0  0  0  0  0  0  0  0  0  0
    2.0365    1.8780    0.8341 H   0  0  0  0  0  0  0  0  0  0  0  0
    2.1219    1.2041   -2.8462 H   0  0  0  0  0  0  0  0  0  0  0  0
    0.9657    3.9786    0.2376 H   0  0  0  0  0  0  0  0  0  0  0  0
    1.6624    2.9261   -4.5666 H   0  0  0  0  0  0  0  0  0  0  0  0
    0.5056    5.7011   -1.4878 H   0  0  0  0  0  0  0  0  0  0  0  0
    0.8492    5.1760   -3.8930 H   0  0  0  0  0  0  0  0  0  0  0  0
    0.2173   -1.4571    1.6723 N   0  0  0  0  0  0  0  0  0  0  0  0
    0.6040   -2.6273    2.4775 C   0  0  2  0  0  0  0  0  0  0  0  0
    0.4508   -3.9683    1.7181 C   0  0  0  0  0  0  0  0  0  0  0  0
   -0.1879   -4.9079    2.1799 O   0  0  0  0  0  0  0  0  0  0  0  0
   -0.2148   -2.5855    3.7717 C   0  0  0  0  0  0  0  0  0  0  0  0
   -0.6750   -1.0037    1.8776 H   0  0  0  0  0  0  0  0  0  0  0  0
    1.6600   -2.5367    2.7530 H   0  0  0  0  0  0  0  0  0  0  0  0
   -1.2770   -2.7333    3.5554 H   0  0  0  0  0  0  0  0  0  0  0  0
    0.1125   -3.3774    4.4528 H   0  0  0  0  0  0  0  0  0  0  0  0
   -0.0849   -1.6216    4.2732 H   0  0  0  0  0  0  0  0  0  0  0  0
    1.0931   -4.1322    0.5070 N   0  0  0  0  0  0  0  0  0  0  0  0
    1.0691   -5.3593   -0.2756 C   0  0  0  0  0  0  0  0  0  0  0  0
    1.6477   -3.3349    0.1846 H   0  0  0  0  0  0  0  0  0  0  0  0
    0.0403   -5.6237   -0.5404 H   0  0  0  0  0  0  0  0  0  0  0  0
    1.6417   -5.2283   -1.1987 H   0  0  0  0  0  0  0  0  0  0  0  0
    1.5111   -6.1843    0.2925 H   0  0  0  0  0  0  0  0  0  0  0  0
  1  2  2  0  0  0  0
  1  3  1  0  0  0  0
  1  7  1  0  0  0  0
  3  4  1  0  0  0  0
  3  5  1  0  0  0  0
  3  6  1  0  0  0  0
  7  8  1  0  0  0  0
  7 12  1  0  0  0  0
  8  9  1  0  0  0  0
  8 11  1  0  0  0  0
  8 13  1  0  0  0  0
  9 10  2  0  0  0  0
  9 17  1  0  0  0  0
 11 14  1  0  0  0  0
 11 15  1  0  0  0  0
 11 16  1  0  0  0  0
 17 18  1  0  0  0  0
 17 28  1  0  0  0  0
 18 19  1  0  0  0  0
 18 21  1  0  0  0  0
 18 29  1  0  0  0  0
 19 20  2  0  0  0  0
 19 37  1  0  0  0  0
 21 22  1  0  0  0  0
 21 30  1  0  0  0  0
 21 31  1  0  0  0  0
 22 23  1  0  0  0  0
 22 24  2  0  0  0  0
 23 25  2  0  0  0  0
 23 32  1  0  0  0  0
 24 26  1  0  0  0  0
 24 33  1  0  0  0  0
 25 27  1  0  0  0  0
 25 34  1  0  0  0  0
 26 27  2  0  0  0  0
 26 35  1  0  0  0  0
 27 36  1  0  0  0  0
 37 38  1  0  0  0  0
 37 42  1  0  0  0  0
 38 39  1  0  0  0  0
 38 41  1  0  0  0  0
 38 43  1  0  0  0  0
 39 40  2  0  0  0  0
 39 47  1  0  0  0  0
 41 44  1  0  0  0  0
 41 45  1  0  0  0  0
 41 46  1  0  0  0  0
 47 48  1  0  0  0  0
 47 49  1  0  0  0  0
 48 50  1  0  0  0  0
 48 51  1  0  0  0  0
 48 52  1  0  0  0  0
M  END
$$$$

  -OEChem-05262217163D

 52 52  0     1  0  0  0  0  0999 V2000
   -2.9618   -0.1329    3.0105 C   0  0  0  0  0  0  0  0  0  0  0  0
   -2.7163   -0.5585    1.8899 O   0  0  0  0  0  0  0  0  0  0  0  0
   -3.6052   -1.0292    4.0515 C   0  0  0  0  0  0  0  0  0  0  0  0
   -3.8548   -1.9994    3.6125 H   0  0  0  0  0  0  0  0  0  0  0  0
   -2.9185   -1.1869    4.8867 H   0  0  0  0  0  0  0  0  0  0  0  0
   -4.5226   -0.5687    4.4263 H   0  0  0  0  0  0  0  0  0  0  0  0
   -2.6239    1.1665    3.3284 N   0  0  0  0  0  0  0  0  0  0  0  0
   -1.9701    2.0787    2.3802 C   0  0  2  0  0  0  0  0  0  0  0  0
   -0.5975    1.5529    1.9031 C   0  0  0  0  0  0  0  0  0  0  0  0
    0.3249    1.4222    2.6963 O   0  0  0  0  0  0  0  0  0  0  0  0
   -1.8279    3.4478    3.0516 C   0  0  0  0  0  0  0  0  0  0  0  0
   -2.6834    1.4375    4.3059 H   0  0  0  0  0  0  0  0  0  0  0  0
   -2.6132    2.1955    1.5020 H   0  0  0  0  0  0  0  0  0  0  0  0
   -1.1963    3.3776    3.9433 H   0  0  0  0  0  0  0  0  0  0  0  0
   -1.3705    4.1625    2.3601 H   0  0  0  0  0  0  0  0  0  0  0  0
   -2.8089    3.8321    3.3471 H   0  0  0  0  0  0  0  0  0  0  0  0
   -0.4330    1.2122    0.5709 N   0  0  0  0  0  0  0  0  0  0  0  0
    0.7038    0.4580    0.0022 C   0  0  2  0  0  0  0  0  0  0  0  0
    1.1231   -0.7961    0.8116 C   0  0  0  0  0  0  0  0  0  0  0  0
    2.2395   -1.2873    0.6730 O   0  0  0  0  0  0  0  0  0  0  0  0
    1.8895    1.4282   -0.1954 C   0  0  0  0  0  0  0  0  0  0  0  0
    1.5723    2.4494   -1.2620 C   0  0  0  0  0  0  0  0  0  0  0  0
    1.7084    2.1251   -2.6200 C   0  0  0  0  0  0  0  0  0  0  0  0
    1.1291    3.7318   -0.9069 C   0  0  0  0  0  0  0  0  0  0  0  0
    1.3994    3.0663   -3.6080 C   0  0  0  0  0  0  0  0  0  0  0  0
    0.8194    4.6741   -1.8935 C   0  0  0  0  0  0  0  0  0  0  0  0
    0.9531    4.3408   -3.2450 C   0  0  0  0  0  0  0  0  0  0  0  0
   -1.2745    1.2672    0.0032 H   0  0  0  0  0  0  0  0  0  0  0  0
    0.4041    0.0788   -0.9789 H   0  0  0  0  0  0  0  0  0  0  0  0
    2.7827    0.8765   -0.5063 H   0  0  0  0  0  0  0  0  0  0  0  0
    2.1345    1.9213    0.7510 H   0  0  0  0  0  0  0  0  0  0  0  0
    2.0572    1.1384   -2.9109 H   0  0  0  0  0  0  0  0  0  0  0  0
    1.0263    3.9960    0.1416 H   0  0  0  0  0  0  0  0  0  0  0  0
    1.5087    2.8074   -4.6570 H   0  0  0  0  0  0  0  0  0  0  0  0
    0.4787    5.6655   -1.6099 H   0  0  0  0  0  0  0  0  0  0  0  0
    0.7147    5.0719   -4.0119 H   0  0  0  0  0  0  0  0  0  0  0  0
    0.1940   -1.5094    1.5505 N   0  0  0  0  0  0  0  0  0  0  0  0
    0.5149   -2.7028    2.3485 C   0  0  2  0  0  0  0  0  0  0  0  0
    0.5630   -3.9948    1.4979 C   0  0  0  0  0  0  0  0  0  0  0  0
   -0.1260   -4.9740    1.7623 O   0  0  0  0  0  0  0  0  0  0  0  0
   -0.5002   -2.7800    3.4923 C   0  0  0  0  0  0  0  0  0  0  0  0
   -0.7551   -1.1319    1.5954 H   0  0  0  0  0  0  0  0  0  0  0  0
    1.5065   -2.5786    2.7966 H   0  0  0  0  0  0  0  0  0  0  0  0
   -1.5065   -2.9514    3.0980 H   0  0  0  0  0  0  0  0  0  0  0  0
   -0.2480   -3.6031    4.1682 H   0  0  0  0  0  0  0  0  0  0  0  0
   -0.4964   -1.8484    4.0659 H   0  0  0  0  0  0  0  0  0  0  0  0
    1.4273   -4.0557    0.4231 N   0  0  0  0  0  0  0  0  0  0  0  0
    1.5753   -5.2131   -0.4471 C   0  0  0  0  0  0  0  0  0  0  0  0
    1.9903   -3.2177    0.2541 H   0  0  0  0  0  0  0  0  0  0  0  0
    1.8930   -6.0873    0.1304 H   0  0  0  0  0  0  0  0  0  0  0  0
    0.6267   -5.4426   -0.9434 H   0  0  0  0  0  0  0  0  0  0  0  0
    2.3284   -5.0127   -1.2151 H   0  0  0  0  0  0  0  0  0  0  0  0
  1  2  2  0  0  0  0
  1  3  1  0  0  0  0
  1  7  1  0  0  0  0
  3  4  1  0  0  0  0
  3  5  1  0  0  0  0
  3  6  1  0  0  0  0
  7  8  1  0  0  0  0
  7 12  1  0  0  0  0
  8  9  1  0  0  0  0
  8 11  1  0  0  0  0
  8 13  1  0  0  0  0
  9 10  2  0  0  0  0
  9 17  1  0  0  0  0
 11 14  1  0  0  0  0
 11 15  1  0  0  0  0
 11 16  1  0  0  0  0
 17 18  1  0  0  0  0
 17 28  1  0  0  0  0
 18 19  1  0  0  0  0
 18 21  1  0  0  0  0
 18 29  1  0  0  0  0
 19 20  2  0  0  0  0
 19 37  1  0  0  0  0
 21 22  1  0  0  0  0
 21 30  1  0  0  0  0
 21 31  1  0  0  0  0
 22 23  1  0  0  0  0
 22 24  2  0  0  0  0
 23 25  2  0  0  0  0
 23 32  1  0  0  0  0
 24 26  1  0  0  0  0
 24 33  1  0  0  0  0
 25 27  1  0  0  0  0
 25 34  1  0  0  0  0
 26 27  2  0  0  0  0
 26 35  1  0  0  0  0
 27 36  1  0  0  0  0
 37 38  1  0  0  0  0
 37 42  1  0  0  0  0
 38 39  1  0  0  0  0
 38 41  1  0  0  0  0
 38 43  1  0  0  0  0
 39 40  2  0  0  0  0
 39 47  1  0  0  0  0
 41 44  1  0  0  0  0
 41 45  1  0  0  0  0
 41 46  1  0  0  0  0
 47 48  1  0  0  0  0
 47 49  1  0  0  0  0
 48 50  1  0  0  0  0
 48 51  1  0  0  0  0
 48 52  1  0  0  0  0
M  END
$$$$

  -OEChem-05262217163D

 52 52  0     1  0  0  0  0  0999 V2000
   -2.9569   -0.1630    2.7588 C   0  0  0  0  0  0  0  0  0  0  0  0
   -2.6652   -0.4704    1.6107 O   0  0  0  0  0  0  0  0  0  0  0  0
   -3.7156   -1.1337    3.6438 C   0  0  0  0  0  0  0  0  0  0  0  0
   -3.8857   -2.0756    3.1142 H   0  0  0  0  0  0  0  0  0  0  0  0
   -3.1447   -1.3390    4.5527 H   0  0  0  0  0  0  0  0  0  0  0  0
   -4.6831   -0.7071    3.9196 H   0  0  0  0  0  0  0  0  0  0  0  0
   -2.5820    1.0696    3.2534 N   0  0  0  0  0  0  0  0  0  0  0  0
   -1.8775    2.0898    2.4641 C   0  0  2  0  0  0  0  0  0  0  0  0
   -0.5047    1.6051    1.9442 C   0  0  0  0  0  0  0  0  0  0  0  0
    0.4563    1.5242    2.6970 O   0  0  0  0  0  0  0  0  0  0  0  0
   -1.7292    3.3406    3.3368 C   0  0  0  0  0  0  0  0  0  0  0  0
   -2.7360    1.2414    4.2431 H   0  0  0  0  0  0  0  0  0  0  0  0
   -2.4904    2.3538    1.5960 H   0  0  0  0  0  0  0  0  0  0  0  0
   -1.1481    3.1172    4.2379 H   0  0  0  0  0  0  0  0  0  0  0  0
   -1.2138    4.1305    2.7814 H   0  0  0  0  0  0  0  0  0  0  0  0
   -2.7120    3.7153    3.6381 H   0  0  0  0  0  0  0  0  0  0  0  0
   -0.3936    1.2335    0.6151 N   0  0  0  0  0  0  0  0  0  0  0  0
    0.7264    0.4733    0.0255 C   0  0  2  0  0  0  0  0  0  0  0  0
    1.1570   -0.7448    0.8799 C   0  0  0  0  0  0  0  0  0  0  0  0
    2.3221   -1.1294    0.9106 O   0  0  0  0  0  0  0  0  0  0  0  0
    1.9018    1.4371   -0.2474 C   0  0  0  0  0  0  0  0  0  0  0  0
    1.5461    2.4279   -1.3310 C   0  0  0  0  0  0  0  0  0  0  0  0
    1.6313    2.0653   -2.6834 C   0  0  0  0  0  0  0  0  0  0  0  0
    1.1232    3.7227   -0.9968 C   0  0  0  0  0  0  0  0  0  0  0  0
    1.2955    2.9816   -3.6858 C   0  0  0  0  0  0  0  0  0  0  0  0
    0.7880    4.6407   -1.9979 C   0  0  0  0  0  0  0  0  0  0  0  0
    0.8733    4.2697   -3.3432 C   0  0  0  0  0  0  0  0  0  0  0  0
   -1.2778    1.1994    0.1128 H   0  0  0  0  0  0  0  0  0  0  0  0
    0.3974    0.0586   -0.9314 H   0  0  0  0  0  0  0  0  0  0  0  0
    2.7809    0.8729   -0.5750 H   0  0  0  0  0  0  0  0  0  0  0  0
    2.1835    1.9575    0.6737 H   0  0  0  0  0  0  0  0  0  0  0  0
    1.9622    1.0683   -2.9585 H   0  0  0  0  0  0  0  0  0  0  0  0
    1.0571    4.0157    0.0470 H   0  0  0  0  0  0  0  0  0  0  0  0
    1.3660    2.6928   -4.7303 H   0  0  0  0  0  0  0  0  0  0  0  0
    0.4654    5.6422   -1.7299 H   0  0  0  0  0  0  0  0  0  0  0  0
    0.6157    4.9822   -4.1213 H   0  0  0  0  0  0  0  0  0  0  0  0
    0.1864   -1.5795    1.4081 N   0  0  0  0  0  0  0  0  0  0  0  0
    0.4754   -2.8090    2.1628 C   0  0  2  0  0  0  0  0  0  0  0  0
    0.7883   -4.0118    1.2401 C   0  0  0  0  0  0  0  0  0  0  0  0
    0.1284   -5.0446    1.2735 O   0  0  0  0  0  0  0  0  0  0  0  0
   -0.7094   -3.0707    3.0978 C   0  0  0  0  0  0  0  0  0  0  0  0
   -0.7830   -1.2604    1.3420 H   0  0  0  0  0  0  0  0  0  0  0  0
    1.3599   -2.6487    2.7887 H   0  0  0  0  0  0  0  0  0  0  0  0
   -1.6250   -3.2317    2.5202 H   0  0  0  0  0  0  0  0  0  0  0  0
   -0.5229   -3.9608    3.7071 H   0  0  0  0  0  0  0  0  0  0  0  0
   -0.8564   -2.2191    3.7677 H   0  0  0  0  0  0  0  0  0  0  0  0
    1.8571   -3.9283    0.3705 N   0  0  0  0  0  0  0  0  0  0  0  0
    2.2580   -4.9904   -0.5406 C   0  0  0  0  0  0  0  0  0  0  0  0
    2.3698   -3.0421    0.3749 H   0  0  0  0  0  0  0  0  0  0  0  0
    2.5062   -5.8990    0.0177 H   0  0  0  0  0  0  0  0  0  0  0  0
    1.4496   -5.2167   -1.2435 H   0  0  0  0  0  0  0  0  0  0  0  0
    3.1390   -4.6839   -1.1125 H   0  0  0  0  0  0  0  0  0  0  0  0
  1  2  2  0  0  0  0
  1  3  1  0  0  0  0
  1  7  1  0  0  0  0
  3  4  1  0  0  0  0
  3  5  1  0  0  0  0
  3  6  1  0  0  0  0
  7  8  1  0  0  0  0
  7 12  1  0  0  0  0
  8  9  1  0  0  0  0
  8 11  1  0  0  0  0
  8 13  1  0  0  0  0
  9 10  2  0  0  0  0
  9 17  1  0  0  0  0
 11 14  1  0  0  0  0
 11 15  1  0  0  0  0
 11 16  1  0  0  0  0
 17 18  1  0  0  0  0
 17 28  1  0  0  0  0
 18 19  1  0  0  0  0
 18 21  1  0  0  0  0
 18 29  1  0  0  0  0
 19 20  2  0  0  0  0
 19 37  1  0  0  0  0
 21 22  1  0  0  0  0
 21 30  1  0  0  0  0
 21 31  1  0  0  0  0
 22 23  1  0  0  0  0
 22 24  2  0  0  0  0
 23 25  2  0  0  0  0
 23 32  1  0  0  0  0
 24 26  1  0  0  0  0
 24 33  1  0  0  0  0
 25 27  1  0  0  0  0
 25 34  1  0  0  0  0
 26 27  2  0  0  0  0
 26 35  1  0  0  0  0
 27 36  1  0  0  0  0
 37 38  1  0  0  0  0
 37 42  1  0  0  0  0
 38 39  1  0  0  0  0
 38 41  1  0  0  0  0
 38 43  1  0  0  0  0
 39 40  2  0  0  0  0
 39 47  1  0  0  0  0
 41 44  1  0  0  0  0
 41 45  1  0  0  0  0
 41 46  1  0  0  0  0
 47 48  1  0  0  0  0
 47 49  1  0  0  0  0
 48 50  1  0  0  0  0
 48 51  1  0  0  0  0
 48 52  1  0  0  0  0
M  END
$$$$

  -OEChem-05262217163D

 52 52  0     1  0  0  0  0  0999 V2000
   -2.9250   -0.2003    2.6346 C   0  0  0  0  0  0  0  0  0  0  0  0
   -2.6433   -0.4306    1.4656 O   0  0  0  0  0  0  0  0  0  0  0  0
   -3.6660   -1.2348    3.4608 C   0  0  0  0  0  0  0  0  0  0  0  0
   -3.8330   -2.1408    2.8713 H   0  0  0  0  0  0  0  0  0  0  0  0
   -3.0842   -1.4944    4.3487 H   0  0  0  0  0  0  0  0  0  0  0  0
   -4.6341   -0.8367    3.7744 H   0  0  0  0  0  0  0  0  0  0  0  0
   -2.5626    1.0022    3.2076 N   0  0  0  0  0  0  0  0  0  0  0  0
   -1.8807    2.0876    2.4878 C   0  0  2  0  0  0  0  0  0  0  0  0
   -0.4854    1.6744    1.9661 C   0  0  0  0  0  0  0  0  0  0  0  0
    0.4808    1.6422    2.7151 O   0  0  0  0  0  0  0  0  0  0  0  0
   -1.7918    3.2925    3.4306 C   0  0  0  0  0  0  0  0  0  0  0  0
   -2.7094    1.1029    4.2080 H   0  0  0  0  0  0  0  0  0  0  0  0
   -2.4877    2.3799    1.6247 H   0  0  0  0  0  0  0  0  0  0  0  0
   -1.2136    3.0411    4.3260 H   0  0  0  0  0  0  0  0  0  0  0  0
   -1.3001    4.1314    2.9277 H   0  0  0  0  0  0  0  0  0  0  0  0
   -2.7922    3.6121    3.7380 H   0  0  0  0  0  0  0  0  0  0  0  0
   -0.3719    1.2782    0.6454 N   0  0  0  0  0  0  0  0  0  0  0  0
    0.7448    0.4976    0.0794 C   0  0  2  0  0  0  0  0  0  0  0  0
    1.1452   -0.7007    0.9734 C   0  0  0  0  0  0  0  0  0  0  0  0
    2.3186   -0.9910    1.1869 O   0  0  0  0  0  0  0  0  0  0  0  0
    1.9352    1.4385   -0.2082 C   0  0  0  0  0  0  0  0  0  0  0  0
    1.6018    2.4095   -1.3159 C   0  0  0  0  0  0  0  0  0  0  0  0
    1.6917    2.0134   -2.6586 C   0  0  0  0  0  0  0  0  0  0  0  0
    1.1891    3.7157   -1.0154 C   0  0  0  0  0  0  0  0  0  0  0  0
    1.3744    2.9093   -3.6853 C   0  0  0  0  0  0  0  0  0  0  0  0
    0.8704    4.6129   -2.0408 C   0  0  0  0  0  0  0  0  0  0  0  0
    0.9630    4.2095   -3.3765 C   0  0  0  0  0  0  0  0  0  0  0  0
   -1.2666    1.1867    0.1682 H   0  0  0  0  0  0  0  0  0  0  0  0
    0.4204    0.0653   -0.8713 H   0  0  0  0  0  0  0  0  0  0  0  0
    2.8071    0.8521   -0.5157 H   0  0  0  0  0  0  0  0  0  0  0  0
    2.2190    1.9768    0.7021 H   0  0  0  0  0  0  0  0  0  0  0  0
    2.0141    1.0067   -2.9077 H   0  0  0  0  0  0  0  0  0  0  0  0
    1.1164    4.0331    0.0209 H   0  0  0  0  0  0  0  0  0  0  0  0
    1.4509    2.5952   -4.7222 H   0  0  0  0  0  0  0  0  0  0  0  0
    0.5542    5.6232   -1.7990 H   0  0  0  0  0  0  0  0  0  0  0  0
    0.7189    4.9057   -4.1734 H   0  0  0  0  0  0  0  0  0  0  0  0
    0.1881   -1.6643    1.2405 N   0  0  0  0  0  0  0  0  0  0  0  0
    0.4675   -2.9415    1.9145 C   0  0  2  0  0  0  0  0  0  0  0  0
    1.0314   -4.0038    0.9414 C   0  0  0  0  0  0  0  0  0  0  0  0
    0.4451   -5.0572    0.7195 O   0  0  0  0  0  0  0  0  0  0  0  0
   -0.8201   -3.3918    2.6111 C   0  0  0  0  0  0  0  0  0  0  0  0
   -0.7854   -1.4046    1.0669 H   0  0  0  0  0  0  0  0  0  0  0  0
    1.2251   -2.7864    2.6903 H   0  0  0  0  0  0  0  0  0  0  0  0
   -1.6280   -3.5201    1.8834 H   0  0  0  0  0  0  0  0  0  0  0  0
   -0.6607   -4.3449    3.1251 H   0  0  0  0  0  0  0  0  0  0  0  0
   -1.1243   -2.6488    3.3526 H   0  0  0  0  0  0  0  0  0  0  0  0
    2.2352   -3.7584    0.3119 N   0  0  0  0  0  0  0  0  0  0  0  0
    2.8557   -4.6587   -0.6490 C   0  0  0  0  0  0  0  0  0  0  0  0
    2.6605   -2.8461    0.5002 H   0  0  0  0  0  0  0  0  0  0  0  0
    3.0224   -5.6430   -0.1993 H   0  0  0  0  0  0  0  0  0  0  0  0
    2.2167   -4.7762   -1.5302 H   0  0  0  0  0  0  0  0  0  0  0  0
    3.8218   -4.2580   -0.9705 H   0  0  0  0  0  0  0  0  0  0  0  0
  1  2  2  0  0  0  0
  1  3  1  0  0  0  0
  1  7  1  0  0  0  0
  3  4  1  0  0  0  0
  3  5  1  0  0  0  0
  3  6  1  0  0  0  0
  7  8  1  0  0  0  0
  7 12  1  0  0  0  0
  8  9  1  0  0  0  0
  8 11  1  0  0  0  0
  8 13  1  0  0  0  0
  9 10  2  0  0  0  0
  9 17  1  0  0  0  0
 11 14  1  0  0  0  0
 11 15  1  0  0  0  0
 11 16  1  0  0  0  0
 17 18  1  0  0  0  0
 17 28  1  0  0  0  0
 18 19  1  0  0  0  0
 18 21  1  0  0  0  0
 18 29  1  0  0  0  0
 19 20  2  0  0  0  0
 19 37  1  0  0  0  0
 21 22  1  0  0  0  0
 21 30  1  0  0  0  0
 21 31  1  0  0  0  0
 22 23  1  0  0  0  0
 22 24  2  0  0  0  0
 23 25  2  0  0  0  0
 23 32  1  0  0  0  0
 24 26  1  0  0  0  0
 24 33  1  0  0  0  0
 25 27  1  0  0  0  0
 25 34  1  0  0  0  0
 26 27  2  0  0  0  0
 26 35  1  0  0  0  0
 27 36  1  0  0  0  0
 37 38  1  0  0  0  0
 37 42  1  0  0  0  0
 38 39  1  0  0  0  0
 38 41  1  0  0  0  0
 38 43  1  0  0  0  0
 39 40  2  0  0  0  0
 39 47  1  0  0  0  0
 41 44  1  0  0  0  0
 41 45  1  0  0  0  0
 41 46  1  0  0  0  0
 47 48  1  0  0  0  0
 47 49  1  0  0  0  0
 48 50  1  0  0  0  0
 48 51  1  0  0  0  0
 48 52  1  0  0  0  0
M  END
$$$$

  -OEChem-05262217163D

 52 52  0     1  0  0  0  0  0999 V2000
   -2.8841   -0.1728    2.5523 C   0  0  0  0  0  0  0  0  0  0  0  0
   -2.6708   -0.2906    1.3523 O   0  0  0  0  0  0  0  0  0  0  0  0
   -3.5708   -1.2883    3.3176 C   0  0  0  0  0  0  0  0  0  0  0  0
   -3.7628   -2.1381    2.6563 H   0  0  0  0  0  0  0  0  0  0  0  0
   -2.9381   -1.6208    4.1444 H   0  0  0  0  0  0  0  0  0  0  0  0
   -4.5237   -0.9338    3.7184 H   0  0  0  0  0  0  0  0  0  0  0  0
   -2.4901    0.9706    3.2187 N   0  0  0  0  0  0  0  0  0  0  0  0
   -1.8180    2.1112    2.5798 C   0  0  2  0  0  0  0  0  0  0  0  0
   -0.4288    1.7367    2.0141 C   0  0  0  0  0  0  0  0  0  0  0  0
    0.5603    1.7183    2.7322 O   0  0  0  0  0  0  0  0  0  0  0  0
   -1.7261    3.2386    3.6138 C   0  0  0  0  0  0  0  0  0  0  0  0
   -2.5776    0.9696    4.2312 H   0  0  0  0  0  0  0  0  0  0  0  0
   -2.4323    2.4694    1.7467 H   0  0  0  0  0  0  0  0  0  0  0  0
   -1.1408    2.9206    4.4827 H   0  0  0  0  0  0  0  0  0  0  0  0
   -1.2411    4.1160    3.1745 H   0  0  0  0  0  0  0  0  0  0  0  0
   -2.7254    3.5286    3.9521 H   0  0  0  0  0  0  0  0  0  0  0  0
   -0.3586    1.3379    0.6922 N   0  0  0  0  0  0  0  0  0  0  0  0
    0.7121    0.5140    0.1026 C   0  0  2  0  0  0  0  0  0  0  0  0
    1.0788   -0.6996    0.9903 C   0  0  0  0  0  0  0  0  0  0  0  0
    2.2230   -0.9044    1.3833 O   0  0  0  0  0  0  0  0  0  0  0  0
    1.9386    1.3978   -0.2094 C   0  0  0  0  0  0  0  0  0  0  0  0
    1.6269    2.3845   -1.3093 C   0  0  0  0  0  0  0  0  0  0  0  0
    1.6684    1.9881   -2.6541 C   0  0  0  0  0  0  0  0  0  0  0  0
    1.2865    3.7087   -0.9975 C   0  0  0  0  0  0  0  0  0  0  0  0
    1.3697    2.9008   -3.6717 C   0  0  0  0  0  0  0  0  0  0  0  0
    0.9898    4.6234   -2.0137 C   0  0  0  0  0  0  0  0  0  0  0  0
    1.0307    4.2192   -3.3517 C   0  0  0  0  0  0  0  0  0  0  0  0
   -1.2770    1.2307    0.2637 H   0  0  0  0  0  0  0  0  0  0  0  0
    0.3512    0.1006   -0.8435 H   0  0  0  0  0  0  0  0  0  0  0  0
    2.7743    0.7689   -0.5336 H   0  0  0  0  0  0  0  0  0  0  0  0
    2.2663    1.9222    0.6940 H   0  0  0  0  0  0  0  0  0  0  0  0
    1.9354    0.9675   -2.9114 H   0  0  0  0  0  0  0  0  0  0  0  0
    1.2531    4.0260    0.0409 H   0  0  0  0  0  0  0  0  0  0  0  0
    1.4042    2.5857   -4.7104 H   0  0  0  0  0  0  0  0  0  0  0  0
    0.7305    5.6475   -1.7626 H   0  0  0  0  0  0  0  0  0  0  0  0
    0.8024    4.9288   -4.1414 H   0  0  0  0  0  0  0  0  0  0  0  0
    0.1970   -1.7658    1.0154 N   0  0  0  0  0  0  0  0  0  0  0  0
    0.4927   -3.0737    1.6218 C   0  0  2  0  0  0  0  0  0  0  0  0
    1.3271   -3.9797    0.6838 C   0  0  0  0  0  0  0  0  0  0  0  0
    0.9145   -5.0682    0.3000 O   0  0  0  0  0  0  0  0  0  0  0  0
   -0.8420   -3.7075    2.0290 C   0  0  0  0  0  0  0  0  0  0  0  0
   -0.7596   -1.5708    0.7196 H   0  0  0  0  0  0  0  0  0  0  0  0
    1.0827   -2.9283    2.5331 H   0  0  0  0  0  0  0  0  0  0  0  0
   -1.4802   -3.8598    1.1525 H   0  0  0  0  0  0  0  0  0  0  0  0
   -0.6718   -4.6776    2.5070 H   0  0  0  0  0  0  0  0  0  0  0  0
   -1.3648   -3.0626    2.7393 H   0  0  0  0  0  0  0  0  0  0  0  0
    2.5708   -3.5488    0.2675 N   0  0  0  0  0  0  0  0  0  0  0  0
    3.4360   -4.2928   -0.6364 C   0  0  0  0  0  0  0  0  0  0  0  0
    2.8586   -2.6232    0.5979 H   0  0  0  0  0  0  0  0  0  0  0  0
    3.7110   -5.2565   -0.1957 H   0  0  0  0  0  0  0  0  0  0  0  0
    2.9295   -4.4719   -1.5904 H   0  0  0  0  0  0  0  0  0  0  0  0
    4.3520   -3.7271   -0.8313 H   0  0  0  0  0  0  0  0  0  0  0  0
  1  2  2  0  0  0  0
  1  3  1  0  0  0  0
  1  7  1  0  0  0  0
  3  4  1  0  0  0  0
  3  5  1  0  0  0  0
  3  6  1  0  0  0  0
  7  8  1  0  0  0  0
  7 12  1  0  0  0  0
  8  9  1  0  0  0  0
  8 11  1  0  0  0  0
  8 13  1  0  0  0  0
  9 10  2  0  0  0  0
  9 17  1  0  0  0  0
 11 14  1  0  0  0  0
 11 15  1  0  0  0  0
 11 16  1  0  0  0  0
 17 18  1  0  0  0  0
 17 28  1  0  0  0  0
 18 19  1  0  0  0  0
 18 21  1  0  0  0  0
 18 29  1  0  0  0  0
 19 20  2  0  0  0  0
 19 37  1  0  0  0  0
 21 22  1  0  0  0  0
 21 30  1  0  0  0  0
 21 31  1  0  0  0  0
 22 23  1  0  0  0  0
 22 24  2  0  0  0  0
 23 25  2  0  0  0  0
 23 32  1  0  0  0  0
 24 26  1  0  0  0  0
 24 33  1  0  0  0  0
 25 27  1  0  0  0  0
 25 34  1  0  0  0  0
 26 27  2  0  0  0  0
 26 35  1  0  0  0  0
 27 36  1  0  0  0  0
 37 38  1  0  0  0  0
 37 42  1  0  0  0  0
 38 39  1  0  0  0  0
 38 41  1  0  0  0  0
 38 43  1  0  0  0  0
 39 40  2  0  0  0  0
 39 47  1  0  0  0  0
 41 44  1  0  0  0  0
 41 45  1  0  0  0  0
 41 46  1  0  0  0  0
 47 48  1  0  0  0  0
 47 49  1  0  0  0  0
 48 50  1  0  0  0  0
 48 51  1  0  0  0  0
 48 52  1  0  0  0  0
M  END
$$$$

  -OEChem-05262217163D

 52 52  0     1  0  0  0  0  0999 V2000
   -3.1707    0.3161    2.3556 C   0  0  0  0  0  0  0  0  0  0  0  0
   -3.0841    0.5307    1.1547 O   0  0  0  0  0  0  0  0  0  0  0  0
   -4.0021   -0.8448    2.8670 C   0  0  0  0  0  0  0  0  0  0  0  0
   -4.4185   -1.4094    2.0279 H   0  0  0  0  0  0  0  0  0  0  0  0
   -3.3819   -1.5145    3.4679 H   0  0  0  0  0  0  0  0  0  0  0  0
   -4.8246   -0.4718    3.4823 H   0  0  0  0  0  0  0  0  0  0  0  0
   -2.4619    1.1006    3.2421 N   0  0  0  0  0  0  0  0  0  0  0  0
   -1.5698    2.1957    2.8336 C   0  0  2  0  0  0  0  0  0  0  0  0
   -0.2698    1.6687    2.1822 C   0  0  0  0  0  0  0  0  0  0  0  0
    0.7658    1.5804    2.8243 O   0  0  0  0  0  0  0  0  0  0  0  0
   -1.3011    3.0645    4.0681 C   0  0  0  0  0  0  0  0  0  0  0  0
   -2.4536    0.8100    4.2161 H   0  0  0  0  0  0  0  0  0  0  0  0
   -2.0769    2.8222    2.0919 H   0  0  0  0  0  0  0  0  0  0  0  0
   -0.8124    2.4800    4.8545 H   0  0  0  0  0  0  0  0  0  0  0  0
   -0.6472    3.9021    3.8050 H   0  0  0  0  0  0  0  0  0  0  0  0
   -2.2384    3.4682    4.4625 H   0  0  0  0  0  0  0  0  0  0  0  0
   -0.3220    1.2695    0.8590 N   0  0  0  0  0  0  0  0  0  0  0  0
    0.6693    0.4304    0.1583 C   0  0  2  0  0  0  0  0  0  0  0  0
    1.1210   -0.8091    0.9695 C   0  0  0  0  0  0  0  0  0  0  0  0
    2.2265   -0.8949    1.4934 O   0  0  0  0  0  0  0  0  0  0  0  0
    1.8782    1.2968   -0.2529 C   0  0  0  0  0  0  0  0  0  0  0  0
    1.4908    2.3103   -1.3034 C   0  0  0  0  0  0  0  0  0  0  0  0
    1.4018    1.9373   -2.6527 C   0  0  0  0  0  0  0  0  0  0  0  0
    1.2115    3.6363   -0.9416 C   0  0  0  0  0  0  0  0  0  0  0  0
    1.0361    2.8744   -3.6252 C   0  0  0  0  0  0  0  0  0  0  0  0
    0.8471    4.5752   -1.9130 C   0  0  0  0  0  0  0  0  0  0  0  0
    0.7587    4.1941   -3.2555 C   0  0  0  0  0  0  0  0  0  0  0  0
   -1.2732    1.2587    0.4826 H   0  0  0  0  0  0  0  0  0  0  0  0
    0.2103    0.0495   -0.7582 H   0  0  0  0  0  0  0  0  0  0  0  0
    2.6680    0.6562   -0.6586 H   0  0  0  0  0  0  0  0  0  0  0  0
    2.2967    1.7990    0.6259 H   0  0  0  0  0  0  0  0  0  0  0  0
    1.6202    0.9162   -2.9505 H   0  0  0  0  0  0  0  0  0  0  0  0
    1.2782    3.9368    0.1003 H   0  0  0  0  0  0  0  0  0  0  0  0
    0.9706    2.5776   -4.6678 H   0  0  0  0  0  0  0  0  0  0  0  0
    0.6352    5.6002   -1.6238 H   0  0  0  0  0  0  0  0  0  0  0  0
    0.4779    4.9227   -4.0103 H   0  0  0  0  0  0  0  0  0  0  0  0
    0.4026   -1.9828    0.8167 N   0  0  0  0  0  0  0  0  0  0  0  0
    0.8157   -3.2885    1.3540 C   0  0  2  0  0  0  0  0  0  0  0  0
    1.8784   -3.9789    0.4646 C   0  0  0  0  0  0  0  0  0  0  0  0
    1.6633   -5.0547   -0.0814 O   0  0  0  0  0  0  0  0  0  0  0  0
   -0.4530   -4.1314    1.5350 C   0  0  0  0  0  0  0  0  0  0  0  0
   -0.4604   -1.9313    0.2830 H   0  0  0  0  0  0  0  0  0  0  0  0
    1.2668   -3.1493    2.3425 H   0  0  0  0  0  0  0  0  0  0  0  0
   -0.9367   -4.3128    0.5699 H   0  0  0  0  0  0  0  0  0  0  0  0
   -0.2033   -5.0984    1.9833 H   0  0  0  0  0  0  0  0  0  0  0  0
   -1.1618   -3.6192    2.1927 H   0  0  0  0  0  0  0  0  0  0  0  0
    3.0931   -3.3544    0.2658 N   0  0  0  0  0  0  0  0  0  0  0  0
    4.1542   -3.8740   -0.5845 C   0  0  0  0  0  0  0  0  0  0  0  0
    3.2037   -2.4374    0.7090 H   0  0  0  0  0  0  0  0  0  0  0  0
    4.5050   -4.8414   -0.2107 H   0  0  0  0  0  0  0  0  0  0  0  0
    3.7957   -4.0007   -1.6112 H   0  0  0  0  0  0  0  0  0  0  0  0
    4.9999   -3.1798   -0.5964 H   0  0  0  0  0  0  0  0  0  0  0  0
  1  2  2  0  0  0  0
  1  3  1  0  0  0  0
  1  7  1  0  0  0  0
  3  4  1  0  0  0  0
  3  5  1  0  0  0  0
  3  6  1  0  0  0  0
  7  8  1  0  0  0  0
  7 12  1  0  0  0  0
  8  9  1  0  0  0  0
  8 11  1  0  0  0  0
  8 13  1  0  0  0  0
  9 10  2  0  0  0  0
  9 17  1  0  0  0  0
 11 14  1  0  0  0  0
 11 15  1  0  0  0  0
 11 16  1  0  0  0  0
 17 18  1  0  0  0  0
 17 28  1  0  0  0  0
 18 19  1  0  0  0  0
 18 21  1  0  0  0  0
 18 29  1  0  0  0  0
 19 20  2  0  0  0  0
 19 37  1  0  0  0  0
 21 22  1  0  0  0  0
 21 30  1  0  0  0  0
 21 31  1  0  0  0  0
 22 23  1  0  0  0  0
 22 24  2  0  0  0  0
 23 25  2  0  0  0  0
 23 32  1  0  0  0  0
 24 26  1  0  0  0  0
 24 33  1  0  0  0  0
 25 27  1  0  0  0  0
 25 34  1  0  0  0  0
 26 27  2  0  0  0  0
 26 35  1  0  0  0  0
 27 36  1  0  0  0  0
 37 38  1  0  0  0  0
 37 42  1  0  0  0  0
 38 39  1  0  0  0  0
 38 41  1  0  0  0  0
 38 43  1  0  0  0  0
 39 40  2  0  0  0  0
 39 47  1  0  0  0  0
 41 44  1  0  0  0  0
 41 45  1  0  0  0  0
 41 46  1  0  0  0  0
 47 48  1  0  0  0  0
 47 49  1  0  0  0  0
 48 50  1  0  0  0  0
 48 51  1  0  0  0  0
 48 52  1  0  0  0  0
M  END
$$$$

  -OEChem-05262217163D

 52 52  0     1  0  0  0  0  0999 V2000
   -3.2901    0.5807    2.2489 C   0  0  0  0  0  0  0  0  0  0  0  0
   -3.1585    0.9232    1.0828 O   0  0  0  0  0  0  0  0  0  0  0  0
   -4.2709   -0.5161    2.6165 C   0  0  0  0  0  0  0  0  0  0  0  0
   -4.8094   -0.8542    1.7266 H   0  0  0  0  0  0  0  0  0  0  0  0
   -3.7371   -1.3660    3.0488 H   0  0  0  0  0  0  0  0  0  0  0  0
   -4.9953   -0.1411    3.3438 H   0  0  0  0  0  0  0  0  0  0  0  0
   -2.4973    1.1540    3.2218 N   0  0  0  0  0  0  0  0  0  0  0  0
   -1.4867    2.1900    2.9581 C   0  0  2  0  0  0  0  0  0  0  0  0
   -0.2180    1.6145    2.2829 C   0  0  0  0  0  0  0  0  0  0  0  0
    0.8378    1.5359    2.8912 O   0  0  0  0  0  0  0  0  0  0  0  0
   -1.1877    2.8878    4.2911 C   0  0  0  0  0  0  0  0  0  0  0  0
   -2.5634    0.7732    4.1618 H   0  0  0  0  0  0  0  0  0  0  0  0
   -1.9026    2.9405    2.2771 H   0  0  0  0  0  0  0  0  0  0  0  0
   -0.7750    2.1776    5.0151 H   0  0  0  0  0  0  0  0  0  0  0  0
   -0.4586    3.6908    4.1425 H   0  0  0  0  0  0  0  0  0  0  0  0
   -2.1005    3.3235    4.7082 H   0  0  0  0  0  0  0  0  0  0  0  0
   -0.3104    1.2086    0.9637 N   0  0  0  0  0  0  0  0  0  0  0  0
    0.6452    0.3668    0.2159 C   0  0  2  0  0  0  0  0  0  0  0  0
    1.1456   -0.8877    0.9756 C   0  0  0  0  0  0  0  0  0  0  0  0
    2.1620   -0.8914    1.6605 O   0  0  0  0  0  0  0  0  0  0  0  0
    1.8443    1.2265   -0.2327 C   0  0  0  0  0  0  0  0  0  0  0  0
    1.4258    2.2543   -1.2568 C   0  0  0  0  0  0  0  0  0  0  0  0
    1.2810    1.8982   -2.6061 C   0  0  0  0  0  0  0  0  0  0  0  0
    1.1662    3.5764   -0.8675 C   0  0  0  0  0  0  0  0  0  0  0  0
    0.8806    2.8491   -3.5513 C   0  0  0  0  0  0  0  0  0  0  0  0
    0.7651    4.5283   -1.8112 C   0  0  0  0  0  0  0  0  0  0  0  0
    0.6216    4.1646   -3.1538 C   0  0  0  0  0  0  0  0  0  0  0  0
   -1.2626    1.2623    0.5912 H   0  0  0  0  0  0  0  0  0  0  0  0
    0.1413    0.0064   -0.6849 H   0  0  0  0  0  0  0  0  0  0  0  0
    2.6130    0.5829   -0.6730 H   0  0  0  0  0  0  0  0  0  0  0  0
    2.2987    1.7172    0.6348 H   0  0  0  0  0  0  0  0  0  0  0  0
    1.4830    0.8804   -2.9256 H   0  0  0  0  0  0  0  0  0  0  0  0
    1.2754    3.8631    0.1747 H   0  0  0  0  0  0  0  0  0  0  0  0
    0.7728    2.5660   -4.5943 H   0  0  0  0  0  0  0  0  0  0  0  0
    0.5664    5.5496   -1.4999 H   0  0  0  0  0  0  0  0  0  0  0  0
    0.3120    4.9038   -3.8869 H   0  0  0  0  0  0  0  0  0  0  0  0
    0.6374   -2.1236    0.6110 N   0  0  0  0  0  0  0  0  0  0  0  0
    1.1574   -3.4117    1.0966 C   0  0  2  0  0  0  0  0  0  0  0  0
    2.4279   -3.8560    0.3317 C   0  0  0  0  0  0  0  0  0  0  0  0
    2.4406   -4.8626   -0.3672 O   0  0  0  0  0  0  0  0  0  0  0  0
    0.0159   -4.4319    1.0057 C   0  0  0  0  0  0  0  0  0  0  0  0
   -0.1159   -2.1357   -0.0701 H   0  0  0  0  0  0  0  0  0  0  0  0
    1.4355   -3.3191    2.1523 H   0  0  0  0  0  0  0  0  0  0  0  0
   -0.3035   -4.5617   -0.0334 H   0  0  0  0  0  0  0  0  0  0  0  0
    0.3448   -5.4029    1.3903 H   0  0  0  0  0  0  0  0  0  0  0  0
   -0.8416   -4.0990    1.5985 H   0  0  0  0  0  0  0  0  0  0  0  0
    3.5677   -3.0824    0.4190 N   0  0  0  0  0  0  0  0  0  0  0  0
    4.7989   -3.3543   -0.3086 C   0  0  0  0  0  0  0  0  0  0  0  0
    3.4796   -2.2135    0.9547 H   0  0  0  0  0  0  0  0  0  0  0  0
    5.1775   -4.3511   -0.0604 H   0  0  0  0  0  0  0  0  0  0  0  0
    4.6252   -3.3003   -1.3881 H   0  0  0  0  0  0  0  0  0  0  0  0
    5.5637   -2.6183   -0.0426 H   0  0  0  0  0  0  0  0  0  0  0  0
  1  2  2  0  0  0  0
  1  3  1  0  0  0  0
  1  7  1  0  0  0  0
  3  4  1  0  0  0  0
  3  5  1  0  0  0  0
  3  6  1  0  0  0  0
  7  8  1  0  0  0  0
  7 12  1  0  0  0  0
  8  9  1  0  0  0  0
  8 11  1  0  0  0  0
  8 13  1  0  0  0  0
  9 10  2  0  0  0  0
  9 17  1  0  0  0  0
 11 14  1  0  0  0  0
 11 15  1  0  0  0  0
 11 16  1  0  0  0  0
 17 18  1  0  0  0  0
 17 28  1  0  0  0  0
 18 19  1  0  0  0  0
 18 21  1  0  0  0  0
 18 29  1  0  0  0  0
 19 20  2  0  0  0  0
 19 37  1  0  0  0  0
 21 22  1  0  0  0  0
 21 30  1  0  0  0  0
 21 31  1  0  0  0  0
 22 23  1  0  0  0  0
 22 24  2  0  0  0  0
 23 25  2  0  0  0  0
 23 32  1  0  0  0  0
 24 26  1  0  0  0  0
 24 33  1  0  0  0  0
 25 27  1  0  0  0  0
 25 34  1  0  0  0  0
 26 27  2  0  0  0  0
 26 35  1  0  0  0  0
 27 36  1  0  0  0  0
 37 38  1  0  0  0  0
 37 42  1  0  0  0  0
 38 39  1  0  0  0  0
 38 41  1  0  0  0  0
 38 43  1  0  0  0  0
 39 40  2  0  0  0  0
 39 47  1  0  0  0  0
 41 44  1  0  0  0  0
 41 45  1  0  0  0  0
 41 46  1  0  0  0  0
 47 48  1  0  0  0  0
 47 49  1  0  0  0  0
 48 50  1  0  0  0  0
 48 51  1  0  0  0  0
 48 52  1  0  0  0  0
M  END
$$$$

  -OEChem-05262217163D

 52 52  0     1  0  0  0  0  0999 V2000
   -3.4569    0.2165    3.6090 C   0  0  0  0  0  0  0  0  0  0  0  0
   -3.9772   -0.1545    2.5675 O   0  0  0  0  0  0  0  0  0  0  0  0
   -3.6830   -0.5601    4.8922 C   0  0  0  0  0  0  0  0  0  0  0  0
   -4.3746   -1.3885    4.7148 H   0  0  0  0  0  0  0  0  0  0  0  0
   -2.7343   -0.9649    5.2536 H   0  0  0  0  0  0  0  0  0  0  0  0
   -4.1068    0.0954    5.6570 H   0  0  0  0  0  0  0  0  0  0  0  0
   -2.6272    1.3187    3.6139 N   0  0  0  0  0  0  0  0  0  0  0  0
   -2.1144    1.9150    2.3740 C   0  0  2  0  0  0  0  0  0  0  0  0
   -0.7949    1.2474    1.9367 C   0  0  0  0  0  0  0  0  0  0  0  0
    0.0596    1.0239    2.7803 O   0  0  0  0  0  0  0  0  0  0  0  0
   -1.9089    3.4120    2.6157 C   0  0  0  0  0  0  0  0  0  0  0  0
   -2.0417    1.4175    4.4401 H   0  0  0  0  0  0  0  0  0  0  0  0
   -2.8451    1.7996    1.5666 H   0  0  0  0  0  0  0  0  0  0  0  0
   -1.1751    3.5758    3.4116 H   0  0  0  0  0  0  0  0  0  0  0  0
   -1.5465    3.8984    1.7047 H   0  0  0  0  0  0  0  0  0  0  0  0
   -2.8530    3.8823    2.9082 H   0  0  0  0  0  0  0  0  0  0  0  0
   -0.5597    1.0217    0.5907 N   0  0  0  0  0  0  0  0  0  0  0  0
    0.5455    0.2508   -0.0209 C   0  0  2  0  0  0  0  0  0  0  0  0
    0.8809   -1.1239    0.6161 C   0  0  0  0  0  0  0  0  0  0  0  0
    1.5117   -1.2438    1.6585 O   0  0  0  0  0  0  0  0  0  0  0  0
    1.8159    1.1235   -0.0295 C   0  0  0  0  0  0  0  0  0  0  0  0
    1.6557    2.3013   -0.9608 C   0  0  0  0  0  0  0  0  0  0  0  0
    1.8462    2.1504   -2.3425 C   0  0  0  0  0  0  0  0  0  0  0  0
    1.3029    3.5603   -0.4533 C   0  0  0  0  0  0  0  0  0  0  0  0
    1.6813    3.2407   -3.2037 C   0  0  0  0  0  0  0  0  0  0  0  0
    1.1387    4.6517   -1.3130 C   0  0  0  0  0  0  0  0  0  0  0  0
    1.3270    4.4918   -2.6892 C   0  0  0  0  0  0  0  0  0  0  0  0
   -1.3178    1.2982   -0.0266 H   0  0  0  0  0  0  0  0  0  0  0  0
    0.2705    0.0480   -1.0594 H   0  0  0  0  0  0  0  0  0  0  0  0
    2.6716    0.5252   -0.3599 H   0  0  0  0  0  0  0  0  0  0  0  0
    2.0428    1.4677    0.9854 H   0  0  0  0  0  0  0  0  0  0  0  0
    2.1281    1.1851   -2.7524 H   0  0  0  0  0  0  0  0  0  0  0  0
    1.1575    3.6897    0.6156 H   0  0  0  0  0  0  0  0  0  0  0  0
    1.8329    3.1165   -4.2720 H   0  0  0  0  0  0  0  0  0  0  0  0
    0.8692    5.6237   -0.9105 H   0  0  0  0  0  0  0  0  0  0  0  0
    1.2036    5.3395   -3.3570 H   0  0  0  0  0  0  0  0  0  0  0  0
    0.7765   -2.2565   -0.1750 N   0  0  0  0  0  0  0  0  0  0  0  0
    1.2816   -3.5859    0.2034 C   0  0  2  0  0  0  0  0  0  0  0  0
    2.8108   -3.7106   -0.0041 C   0  0  0  0  0  0  0  0  0  0  0  0
    3.2873   -4.4564   -0.8519 O   0  0  0  0  0  0  0  0  0  0  0  0
    0.4858   -4.6228   -0.5994 C   0  0  0  0  0  0  0  0  0  0  0  0
    0.3831   -2.1447   -1.1039 H   0  0  0  0  0  0  0  0  0  0  0  0
    1.0841   -3.7647    1.2661 H   0  0  0  0  0  0  0  0  0  0  0  0
    0.6452   -4.4844   -1.6737 H   0  0  0  0  0  0  0  0  0  0  0  0
    0.8043   -5.6353   -0.3310 H   0  0  0  0  0  0  0  0  0  0  0  0
   -0.5839   -4.5309   -0.3882 H   0  0  0  0  0  0  0  0  0  0  0  0
    3.6575   -2.9338    0.7605 N   0  0  0  0  0  0  0  0  0  0  0  0
    5.1036   -2.8968    0.5959 C   0  0  0  0  0  0  0  0  0  0  0  0
    3.2038   -2.2574    1.3823 H   0  0  0  0  0  0  0  0  0  0  0  0
    5.5317   -3.8933    0.7463 H   0  0  0  0  0  0  0  0  0  0  0  0
    5.3662   -2.5472   -0.4078 H   0  0  0  0  0  0  0  0  0  0  0  0
    5.5483   -2.2161    1.3282 H   0  0  0  0  0  0  0  0  0  0  0  0
  1  2  2  0  0  0  0
  1  3  1  0  0  0  0
  1  7  1  0  0  0  0
  3  4  1  0  0  0  0
  3  5  1  0  0  0  0
  3  6  1  0  0  0  0
  7  8  1  0  0  0  0
  7 12  1  0  0  0  0
  8  9  1  0  0  0  0
  8 11  1  0  0  0  0
  8 13  1  0  0  0  0
  9 10  2  0  0  0  0
  9 17  1  0  0  0  0
 11 14  1  0  0  0  0
 11 15  1  0  0  0  0
 11 16  1  0  0  0  0
 17 18  1  0  0  0  0
 17 28  1  0  0  0  0
 18 19  1  0  0  0  0
 18 21  1  0  0  0  0
 18 29  1  0  0  0  0
 19 20  2  0  0  0  0
 19 37  1  0  0  0  0
 21 22  1  0  0  0  0
 21 30  1  0  0  0  0
 21 31  1  0  0  0  0
 22 23  1  0  0  0  0
 22 24  2  0  0  0  0
 23 25  2  0  0  0  0
 23 32  1  0  0  0  0
 24 26  1  0  0  0  0
 24 33  1  0  0  0  0
 25 27  1  0  0  0  0
 25 34  1  0  0  0  0
 26 27  2  0  0  0  0
 26 35  1  0  0  0  0
 27 36  1  0  0  0  0
 37 38  1  0  0  0  0
 37 42  1  0  0  0  0
 38 39  1  0  0  0  0
 38 41  1  0  0  0  0
 38 43  1  0  0  0  0
 39 40  2  0  0  0  0
 39 47  1  0  0  0  0
 41 44  1  0  0  0  0
 41 45  1  0  0  0  0
 41 46  1  0  0  0  0
 47 48  1  0  0  0  0
 47 49  1  0  0  0  0
 48 50  1  0  0  0  0
 48 51  1  0  0  0  0
 48 52  1  0  0  0  0
M  END
$$$$

  -OEChem-05262217163D

 52 52  0     1  0  0  0  0  0999 V2000
   -3.2742    0.2324    4.2227 C   0  0  0  0  0  0  0  0  0  0  0  0
   -4.2786    0.0301    3.5579 O   0  0  0  0  0  0  0  0  0  0  0  0
   -3.1591   -0.3417    5.6218 C   0  0  0  0  0  0  0  0  0  0  0  0
   -4.0604   -0.9086    5.8705 H   0  0  0  0  0  0  0  0  0  0  0  0
   -2.2952   -1.0084    5.6817 H   0  0  0  0  0  0  0  0  0  0  0  0
   -3.0388    0.4661    6.3477 H   0  0  0  0  0  0  0  0  0  0  0  0
   -2.2370    0.9752    3.7008 N   0  0  0  0  0  0  0  0  0  0  0  0
   -2.1428    1.3813    2.2933 C   0  0  2  0  0  0  0  0  0  0  0  0
   -0.7086    1.1994    1.7588 C   0  0  0  0  0  0  0  0  0  0  0  0
    0.2332    1.2602    2.5400 O   0  0  0  0  0  0  0  0  0  0  0  0
   -2.5834    2.8427    2.1835 C   0  0  0  0  0  0  0  0  0  0  0  0
   -1.3655    0.9836    4.2307 H   0  0  0  0  0  0  0  0  0  0  0  0
   -2.8009    0.7594    1.6775 H   0  0  0  0  0  0  0  0  0  0  0  0
   -1.9348    3.4840    2.7888 H   0  0  0  0  0  0  0  0  0  0  0  0
   -2.5367    3.1810    1.1441 H   0  0  0  0  0  0  0  0  0  0  0  0
   -3.6132    2.9538    2.5377 H   0  0  0  0  0  0  0  0  0  0  0  0
   -0.4899    1.1017    0.3933 N   0  0  0  0  0  0  0  0  0  0  0  0
    0.6403    0.3959   -0.2547 C   0  0  2  0  0  0  0  0  0  0  0  0
    0.9900   -1.0166    0.2852 C   0  0  0  0  0  0  0  0  0  0  0  0
    1.0055   -1.3148    1.4712 O   0  0  0  0  0  0  0  0  0  0  0  0
    1.9093    1.2680   -0.1957 C   0  0  0  0  0  0  0  0  0  0  0  0
    1.7551    2.5051   -1.0475 C   0  0  0  0  0  0  0  0  0  0  0  0
    1.9557    2.4526   -2.4354 C   0  0  0  0  0  0  0  0  0  0  0  0
    1.3840    3.7215   -0.4569 C   0  0  0  0  0  0  0  0  0  0  0  0
    1.7909    3.6007   -3.2189 C   0  0  0  0  0  0  0  0  0  0  0  0
    1.2174    4.8694   -1.2389 C   0  0  0  0  0  0  0  0  0  0  0  0
    1.4208    4.8093   -2.6208 C   0  0  0  0  0  0  0  0  0  0  0  0
   -1.3378    1.1738   -0.1609 H   0  0  0  0  0  0  0  0  0  0  0  0
    0.3726    0.2625   -1.3063 H   0  0  0  0  0  0  0  0  0  0  0  0
    2.7670    0.6947   -0.5633 H   0  0  0  0  0  0  0  0  0  0  0  0
    2.1356    1.5424    0.8396 H   0  0  0  0  0  0  0  0  0  0  0  0
    2.2497    1.5221   -2.9110 H   0  0  0  0  0  0  0  0  0  0  0  0
    1.2219    3.7721    0.6168 H   0  0  0  0  0  0  0  0  0  0  0  0
    1.9545    3.5555   -4.2919 H   0  0  0  0  0  0  0  0  0  0  0  0
    0.9323    5.8071   -0.7710 H   0  0  0  0  0  0  0  0  0  0  0  0
    1.2948    5.7011   -3.2277 H   0  0  0  0  0  0  0  0  0  0  0  0
    1.2359   -2.0357   -0.6198 N   0  0  0  0  0  0  0  0  0  0  0  0
    1.5502   -3.4222   -0.2370 C   0  0  2  0  0  0  0  0  0  0  0  0
    3.0134   -3.5852    0.2430 C   0  0  0  0  0  0  0  0  0  0  0  0
    3.8117   -4.2951   -0.3569 O   0  0  0  0  0  0  0  0  0  0  0  0
    1.2112   -4.3145   -1.4372 C   0  0  0  0  0  0  0  0  0  0  0  0
    1.3090   -1.7851   -1.6011 H   0  0  0  0  0  0  0  0  0  0  0  0
    0.9052   -3.7284    0.5941 H   0  0  0  0  0  0  0  0  0  0  0  0
    1.8386   -4.0604   -2.2976 H   0  0  0  0  0  0  0  0  0  0  0  0
    1.3802   -5.3663   -1.1850 H   0  0  0  0  0  0  0  0  0  0  0  0
    0.1610   -4.1922   -1.7192 H   0  0  0  0  0  0  0  0  0  0  0  0
    3.4346   -2.8952    1.3621 N   0  0  0  0  0  0  0  0  0  0  0  0
    4.7915   -2.9411    1.8886 C   0  0  0  0  0  0  0  0  0  0  0  0
    2.7435   -2.2791    1.8007 H   0  0  0  0  0  0  0  0  0  0  0  0
    5.0505   -3.9619    2.1883 H   0  0  0  0  0  0  0  0  0  0  0  0
    5.5080   -2.6023    1.1332 H   0  0  0  0  0  0  0  0  0  0  0  0
    4.8777   -2.2904    2.7642 H   0  0  0  0  0  0  0  0  0  0  0  0
  1  2  2  0  0  0  0
  1  3  1  0  0  0  0
  1  7  1  0  0  0  0
  3  4  1  0  0  0  0
  3  5  1  0  0  0  0
  3  6  1  0  0  0  0
  7  8  1  0  0  0  0
  7 12  1  0  0  0  0
  8  9  1  0  0  0  0
  8 11  1  0  0  0  0
  8 13  1  0  0  0  0
  9 10  2  0  0  0  0
  9 17  1  0  0  0  0
 11 14  1  0  0  0  0
 11 15  1  0  0  0  0
 11 16  1  0  0  0  0
 17 18  1  0  0  0  0
 17 28  1  0  0  0  0
 18 19  1  0  0  0  0
 18 21  1  0  0  0  0
 18 29  1  0  0  0  0
 19 20  2  0  0  0  0
 19 37  1  0  0  0  0
 21 22  1  0  0  0  0
 21 30  1  0  0  0  0
 21 31  1  0  0  0  0
 22 23  1  0  0  0  0
 22 24  2  0  0  0  0
 23 25  2  0  0  0  0
 23 32  1  0  0  0  0
 24 26  1  0  0  0  0
 24 33  1  0  0  0  0
 25 27  1  0  0  0  0
 25 34  1  0  0  0  0
 26 27  2  0  0  0  0
 26 35  1  0  0  0  0
 27 36  1  0  0  0  0
 37 38  1  0  0  0  0
 37 42  1  0  0  0  0
 38 39  1  0  0  0  0
 38 41  1  0  0  0  0
 38 43  1  0  0  0  0
 39 40  2  0  0  0  0
 39 47  1  0  0  0  0
 41 44  1  0  0  0  0
 41 45  1  0  0  0  0
 41 46  1  0  0  0  0
 47 48  1  0  0  0  0
 47 49  1  0  0  0  0
 48 50  1  0  0  0  0
 48 51  1  0  0  0  0
 48 52  1  0  0  0  0
M  END
$$$$

  -OEChem-05262217163D

 52 52  0     1  0  0  0  0  0999 V2000
   -3.1896    0.2893    4.3377 C   0  0  0  0  0  0  0  0  0  0  0  0
   -4.2432    0.1637    3.7330 O   0  0  0  0  0  0  0  0  0  0  0  0
   -3.0583   -0.2314    5.7568 C   0  0  0  0  0  0  0  0  0  0  0  0
   -3.9972   -0.6909    6.0782 H   0  0  0  0  0  0  0  0  0  0  0  0
   -2.2645   -0.9808    5.8069 H   0  0  0  0  0  0  0  0  0  0  0  0
   -2.8176    0.5906    6.4356 H   0  0  0  0  0  0  0  0  0  0  0  0
   -2.1141    0.9005    3.7299 N   0  0  0  0  0  0  0  0  0  0  0  0
   -2.0672    1.2672    2.3095 C   0  0  2  0  0  0  0  0  0  0  0  0
   -0.6424    1.1170    1.7392 C   0  0  0  0  0  0  0  0  0  0  0  0
    0.3200    1.1504    2.4993 O   0  0  0  0  0  0  0  0  0  0  0  0
   -2.5581    2.7104    2.1646 C   0  0  0  0  0  0  0  0  0  0  0  0
   -1.2201    0.8670    4.2194 H   0  0  0  0  0  0  0  0  0  0  0  0
   -2.7204    0.6018    1.7349 H   0  0  0  0  0  0  0  0  0  0  0  0
   -1.9156    3.3908    2.7324 H   0  0  0  0  0  0  0  0  0  0  0  0
   -2.5490    3.0171    1.1144 H   0  0  0  0  0  0  0  0  0  0  0  0
   -3.5817    2.8008    2.5422 H   0  0  0  0  0  0  0  0  0  0  0  0
   -0.4465    1.0652    0.3673 N   0  0  0  0  0  0  0  0  0  0  0  0
    0.7069    0.4204   -0.3018 C   0  0  2  0  0  0  0  0  0  0  0  0
    1.1218   -0.9869    0.2050 C   0  0  0  0  0  0  0  0  0  0  0  0
    0.7379   -1.4658    1.2648 O   0  0  0  0  0  0  0  0  0  0  0  0
    1.9334    1.3530   -0.2519 C   0  0  0  0  0  0  0  0  0  0  0  0
    1.7033    2.5865   -1.0917 C   0  0  0  0  0  0  0  0  0  0  0  0
    1.8851    2.5536   -2.4829 C   0  0  0  0  0  0  0  0  0  0  0  0
    1.2757    3.7778   -0.4879 C   0  0  0  0  0  0  0  0  0  0  0  0
    1.6472    3.6954   -3.2563 C   0  0  0  0  0  0  0  0  0  0  0  0
    1.0375    4.9202   -1.2595 C   0  0  0  0  0  0  0  0  0  0  0  0
    1.2222    4.8789   -2.6448 C   0  0  0  0  0  0  0  0  0  0  0  0
   -1.3043    1.1125   -0.1741 H   0  0  0  0  0  0  0  0  0  0  0  0
    0.4288    0.2843   -1.3506 H   0  0  0  0  0  0  0  0  0  0  0  0
    2.8142    0.8283   -0.6365 H   0  0  0  0  0  0  0  0  0  0  0  0
    2.1603    1.6325    0.7818 H   0  0  0  0  0  0  0  0  0  0  0  0
    2.2178    1.6425   -2.9700 H   0  0  0  0  0  0  0  0  0  0  0  0
    1.1237    3.8138    0.5876 H   0  0  0  0  0  0  0  0  0  0  0  0
    1.7938    3.6642   -4.3321 H   0  0  0  0  0  0  0  0  0  0  0  0
    0.7096    5.8388   -0.7816 H   0  0  0  0  0  0  0  0  0  0  0  0
    1.0391    5.7660   -3.2443 H   0  0  0  0  0  0  0  0  0  0  0  0
    1.7038   -1.8674   -0.6920 N   0  0  0  0  0  0  0  0  0  0  0  0
    2.0206   -3.2717   -0.3833 C   0  0  2  0  0  0  0  0  0  0  0  0
    3.2556   -3.4092    0.5409 C   0  0  0  0  0  0  0  0  0  0  0  0
    4.2941   -3.9303    0.1524 O   0  0  0  0  0  0  0  0  0  0  0  0
    2.1906   -4.0062   -1.7189 C   0  0  0  0  0  0  0  0  0  0  0  0
    2.0636   -1.4790   -1.5586 H   0  0  0  0  0  0  0  0  0  0  0  0
    1.1755   -3.7311    0.1408 H   0  0  0  0  0  0  0  0  0  0  0  0
    3.0339   -3.5939   -2.2822 H   0  0  0  0  0  0  0  0  0  0  0  0
    2.3798   -5.0700   -1.5431 H   0  0  0  0  0  0  0  0  0  0  0  0
    1.2840   -3.9131   -2.3246 H   0  0  0  0  0  0  0  0  0  0  0  0
    3.1927   -2.9067    1.8253 N   0  0  0  0  0  0  0  0  0  0  0  0
    4.3126   -2.9017    2.7559 C   0  0  0  0  0  0  0  0  0  0  0  0
    2.3360   -2.4009    2.0689 H   0  0  0  0  0  0  0  0  0  0  0  0
    4.6414   -3.9249    2.9647 H   0  0  0  0  0  0  0  0  0  0  0  0
    5.1540   -2.3375    2.3408 H   0  0  0  0  0  0  0  0  0  0  0  0
    4.0144   -2.4347    3.6995 H   0  0  0  0  0  0  0  0  0  0  0  0
  1  2  2  0  0  0  0
  1  3  1  0  0  0  0
  1  7  1  0  0  0  0
  3  4  1  0  0  0  0
  3  5  1  0  0  0  0
  3  6  1  0  0  0  0
  7  8  1  0  0  0  0
  7 12  1  0  0  0  0
  8  9  1  0  0  0  0
  8 11  1  0  0  0  0
  8 13  1  0  0  0  0
  9 10  2  0  0  0  0
  9 17  1  0  0  0  0
 11 14  1  0  0  0  0
 11 15  1  0  0  0  0
 11 16  1  0  0  0  0
 17 18  1  0  0  0  0
 17 28  1  0  0  0  0
 18 19  1  0  0  0  0
 18 21  1  0  0  0  0
 18 29  1  0  0  0  0
 19 20  2  0  0  0  0
 19 37  1  0  0  0  0
 21 22  1  0  0  0  0
 21 30  1  0  0  0  0
 21 31  1  0  0  0  0
 22 23  1  0  0  0  0
 22 24  2  0  0  0  0
 23 25  2  0  0  0  0
 23 32  1  0  0  0  0
 24 26  1  0  0  0  0
 24 33  1  0  0  0  0
 25 27  1  0  0  0  0
 25 34  1  0  0  0  0
 26 27  2  0  0  0  0
 26 35  1  0  0  0  0
 27 36  1  0  0  0  0
 37 38  1  0  0  0  0
 37 42  1  0  0  0  0
 38 39  1  0  0  0  0
 38 41  1  0  0  0  0
 38 43  1  0  0  0  0
 39 40  2  0  0  0  0
 39 47  1  0  0  0  0
 41 44  1  0  0  0  0
 41 45  1  0  0  0  0
 41 46  1  0  0  0  0
 47 48  1  0  0  0  0
 47 49  1  0  0  0  0
 48 50  1  0  0  0  0
 48 51  1  0  0  0  0
 48 52  1  0  0  0  0
M  END
$$$$

  -OEChem-05262217163D

 52 52  0     1  0  0  0  0  0999 V2000
   -3.1854    0.3256    4.3558 C   0  0  0  0  0  0  0  0  0  0  0  0
   -4.2525    0.2579    3.7658 O   0  0  0  0  0  0  0  0  0  0  0  0
   -3.0651   -0.1933    5.7764 C   0  0  0  0  0  0  0  0  0  0  0  0
   -4.0272   -0.5864    6.1168 H   0  0  0  0  0  0  0  0  0  0  0  0
   -2.3225   -0.9939    5.8190 H   0  0  0  0  0  0  0  0  0  0  0  0
   -2.7584    0.6150    6.4447 H   0  0  0  0  0  0  0  0  0  0  0  0
   -2.0839    0.8672    3.7287 N   0  0  0  0  0  0  0  0  0  0  0  0
   -2.0354    1.2180    2.3040 C   0  0  2  0  0  0  0  0  0  0  0  0
   -0.6203    1.0211    1.7241 C   0  0  0  0  0  0  0  0  0  0  0  0
    0.3454    0.9747    2.4807 O   0  0  0  0  0  0  0  0  0  0  0  0
   -2.4844    2.6737    2.1437 C   0  0  0  0  0  0  0  0  0  0  0  0
   -1.1868    0.7843    4.2065 H   0  0  0  0  0  0  0  0  0  0  0  0
   -2.7114    0.5653    1.7413 H   0  0  0  0  0  0  0  0  0  0  0  0
   -1.8194    3.3424    2.6997 H   0  0  0  0  0  0  0  0  0  0  0  0
   -2.4718    2.9670    1.0897 H   0  0  0  0  0  0  0  0  0  0  0  0
   -3.5031    2.7994    2.5240 H   0  0  0  0  0  0  0  0  0  0  0  0
   -0.4310    1.0028    0.3503 N   0  0  0  0  0  0  0  0  0  0  0  0
    0.7412    0.4085   -0.3304 C   0  0  2  0  0  0  0  0  0  0  0  0
    1.1909   -0.9919    0.1634 C   0  0  0  0  0  0  0  0  0  0  0  0
    0.5923   -1.6057    1.0396 O   0  0  0  0  0  0  0  0  0  0  0  0
    1.9294    1.3909   -0.2647 C   0  0  0  0  0  0  0  0  0  0  0  0
    1.6475    2.6265   -1.0849 C   0  0  0  0  0  0  0  0  0  0  0  0
    1.8308    2.6199   -2.4761 C   0  0  0  0  0  0  0  0  0  0  0  0
    1.1773    3.7930   -0.4639 C   0  0  0  0  0  0  0  0  0  0  0  0
    1.5511    3.7629   -3.2332 C   0  0  0  0  0  0  0  0  0  0  0  0
    0.8956    4.9359   -1.2198 C   0  0  0  0  0  0  0  0  0  0  0  0
    1.0829    4.9212   -2.6052 C   0  0  0  0  0  0  0  0  0  0  0  0
   -1.2867    1.0631   -0.1933 H   0  0  0  0  0  0  0  0  0  0  0  0
    0.4713    0.2720   -1.3814 H   0  0  0  0  0  0  0  0  0  0  0  0
    2.8341    0.9142   -0.6540 H   0  0  0  0  0  0  0  0  0  0  0  0
    2.1415    1.6652    0.7736 H   0  0  0  0  0  0  0  0  0  0  0  0
    2.1950    1.7284   -2.9767 H   0  0  0  0  0  0  0  0  0  0  0  0
    1.0268    3.8095    0.6123 H   0  0  0  0  0  0  0  0  0  0  0  0
    1.6992    3.7521   -4.3093 H   0  0  0  0  0  0  0  0  0  0  0  0
    0.5328    5.8344   -0.7293 H   0  0  0  0  0  0  0  0  0  0  0  0
    0.8670    5.8094   -3.1920 H   0  0  0  0  0  0  0  0  0  0  0  0
    2.0658   -1.7298   -0.6174 N   0  0  0  0  0  0  0  0  0  0  0  0
    2.4664   -3.1156   -0.3209 C   0  0  2  0  0  0  0  0  0  0  0  0
    3.4400   -3.2034    0.8802 C   0  0  0  0  0  0  0  0  0  0  0  0
    4.5900   -3.6048    0.7470 O   0  0  0  0  0  0  0  0  0  0  0  0
    3.0531   -3.7100   -1.6079 C   0  0  0  0  0  0  0  0  0  0  0  0
    2.5919   -1.2257   -1.3248 H   0  0  0  0  0  0  0  0  0  0  0  0
    1.5809   -3.7046   -0.0586 H   0  0  0  0  0  0  0  0  0  0  0  0
    3.9476   -3.1590   -1.9156 H   0  0  0  0  0  0  0  0  0  0  0  0
    3.3310   -4.7568   -1.4481 H   0  0  0  0  0  0  0  0  0  0  0  0
    2.3185   -3.6685   -2.4178 H   0  0  0  0  0  0  0  0  0  0  0  0
    3.0094   -2.7946    2.1267 N   0  0  0  0  0  0  0  0  0  0  0  0
    3.8592   -2.7504    3.3077 C   0  0  0  0  0  0  0  0  0  0  0  0
    2.0729   -2.3817    2.1674 H   0  0  0  0  0  0  0  0  0  0  0  0
    4.2502   -3.7477    3.5350 H   0  0  0  0  0  0  0  0  0  0  0  0
    4.7008   -2.0682    3.1486 H   0  0  0  0  0  0  0  0  0  0  0  0
    3.2860   -2.3989    4.1711 H   0  0  0  0  0  0  0  0  0  0  0  0
  1  2  2  0  0  0  0
  1  3  1  0  0  0  0
  1  7  1  0  0  0  0
  3  4  1  0  0  0  0
  3  5  1  0  0  0  0
  3  6  1  0  0  0  0
  7  8  1  0  0  0  0
  7 12  1  0  0  0  0
  8  9  1  0  0  0  0
  8 11  1  0  0  0  0
  8 13  1  0  0  0  0
  9 10  2  0  0  0  0
  9 17  1  0  0  0  0
 11 14  1  0  0  0  0
 11 15  1  0  0  0  0
 11 16  1  0  0  0  0
 17 18  1  0  0  0  0
 17 28  1  0  0  0  0
 18 19  1  0  0  0  0
 18 21  1  0  0  0  0
 18 29  1  0  0  0  0
 19 20  2  0  0  0  0
 19 37  1  0  0  0  0
 21 22  1  0  0  0  0
 21 30  1  0  0  0  0
 21 31  1  0  0  0  0
 22 23  1  0  0  0  0
 22 24  2  0  0  0  0
 23 25  2  0  0  0  0
 23 32  1  0  0  0  0
 24 26  1  0  0  0  0
 24 33  1  0  0  0  0
 25 27  1  0  0  0  0
 25 34  1  0  0  0  0
 26 27  2  0  0  0  0
 26 35  1  0  0  0  0
 27 36  1  0  0  0  0
 37 38  1  0  0  0  0
 37 42  1  0  0  0  0
 38 39  1  0  0  0  0
 38 41  1  0  0  0  0
 38 43  1  0  0  0  0
 39 40  2  0  0  0  0
 39 47  1  0  0  0  0
 41 44  1  0  0  0  0
 41 45  1  0  0  0  0
 41 46  1  0  0  0  0
 47 48  1  0  0  0  0
 47 49  1  0  0  0  0
 48 50  1  0  0  0  0
 48 51  1  0  0  0  0
 48 52  1  0  0  0  0
M  END
$$$$

  -OEChem-05262217163D

 52 52  0     1  0  0  0  0  0999 V2000
   -3.3233    0.4550    4.2973 C   0  0  0  0  0  0  0  0  0  0  0  0
   -4.3776    0.6647    3.7184 O   0  0  0  0  0  0  0  0  0  0  0  0
   -3.3251   -0.1311    5.6963 C   0  0  0  0  0  0  0  0  0  0  0  0
   -4.3522   -0.2675    6.0464 H   0  0  0  0  0  0  0  0  0  0  0  0
   -2.8212   -1.1007    5.6944 H   0  0  0  0  0  0  0  0  0  0  0  0
   -2.8051    0.5409    6.3834 H   0  0  0  0  0  0  0  0  0  0  0  0
   -2.1266    0.7451    3.6782 N   0  0  0  0  0  0  0  0  0  0  0  0
   -1.9994    1.1607    2.2756 C   0  0  2  0  0  0  0  0  0  0  0  0
   -0.6361    0.7476    1.6822 C   0  0  0  0  0  0  0  0  0  0  0  0
    0.2673    0.3876    2.4316 O   0  0  0  0  0  0  0  0  0  0  0  0
   -2.1779    2.6811    2.1995 C   0  0  0  0  0  0  0  0  0  0  0  0
   -1.2719    0.4421    4.1442 H   0  0  0  0  0  0  0  0  0  0  0  0
   -2.7772    0.6731    1.6778 H   0  0  0  0  0  0  0  0  0  0  0  0
   -1.4078    3.1865    2.7910 H   0  0  0  0  0  0  0  0  0  0  0  0
   -2.1061    3.0273    1.1641 H   0  0  0  0  0  0  0  0  0  0  0  0
   -3.1599    2.9675    2.5893 H   0  0  0  0  0  0  0  0  0  0  0  0
   -0.4302    0.8244    0.3130 N   0  0  0  0  0  0  0  0  0  0  0  0
    0.7684    0.3360   -0.4021 C   0  0  2  0  0  0  0  0  0  0  0  0
    1.0138   -1.1835   -0.2267 C   0  0  0  0  0  0  0  0  0  0  0  0
    0.1680   -1.9135    0.2794 O   0  0  0  0  0  0  0  0  0  0  0  0
    2.0205    1.1637   -0.0316 C   0  0  0  0  0  0  0  0  0  0  0  0
    1.8873    2.5768   -0.5450 C   0  0  0  0  0  0  0  0  0  0  0  0
    2.1710    2.8858   -1.8843 C   0  0  0  0  0  0  0  0  0  0  0  0
    1.4573    3.5978    0.3149 C   0  0  0  0  0  0  0  0  0  0  0  0
    2.0241    4.1950   -2.3559 C   0  0  0  0  0  0  0  0  0  0  0  0
    1.3096    4.9068   -0.1554 C   0  0  0  0  0  0  0  0  0  0  0  0
    1.5923    5.2058   -1.4916 C   0  0  0  0  0  0  0  0  0  0  0  0
   -1.2448    1.0658   -0.2433 H   0  0  0  0  0  0  0  0  0  0  0  0
    0.5892    0.4739   -1.4723 H   0  0  0  0  0  0  0  0  0  0  0  0
    2.9125    0.7193   -0.4828 H   0  0  0  0  0  0  0  0  0  0  0  0
    2.1877    1.1641    1.0493 H   0  0  0  0  0  0  0  0  0  0  0  0
    2.5077    2.1112   -2.5662 H   0  0  0  0  0  0  0  0  0  0  0  0
    1.2338    3.3715    1.3540 H   0  0  0  0  0  0  0  0  0  0  0  0
    2.2470    4.4285   -3.3931 H   0  0  0  0  0  0  0  0  0  0  0  0
    0.9762    5.6909    0.5180 H   0  0  0  0  0  0  0  0  0  0  0  0
    1.4791    6.2225   -1.8568 H   0  0  0  0  0  0  0  0  0  0  0  0
    2.0989   -1.7948   -0.8323 N   0  0  0  0  0  0  0  0  0  0  0  0
    2.3960   -3.2317   -0.7133 C   0  0  2  0  0  0  0  0  0  0  0  0
    2.9607   -3.6001    0.6818 C   0  0  0  0  0  0  0  0  0  0  0  0
    4.0831   -4.0727    0.8162 O   0  0  0  0  0  0  0  0  0  0  0  0
    3.3471   -3.5974   -1.8597 C   0  0  0  0  0  0  0  0  0  0  0  0
    2.8348   -1.1870   -1.1790 H   0  0  0  0  0  0  0  0  0  0  0  0
    1.4756   -3.8095   -0.8495 H   0  0  0  0  0  0  0  0  0  0  0  0
    4.2932   -3.0547   -1.7650 H   0  0  0  0  0  0  0  0  0  0  0  0
    3.5618   -4.6708   -1.8450 H   0  0  0  0  0  0  0  0  0  0  0  0
    2.8955   -3.3498   -2.8253 H   0  0  0  0  0  0  0  0  0  0  0  0
    2.1941   -3.3559    1.8042 N   0  0  0  0  0  0  0  0  0  0  0  0
    2.6557   -3.5606    3.1696 C   0  0  0  0  0  0  0  0  0  0  0  0
    1.2940   -2.8944    1.6447 H   0  0  0  0  0  0  0  0  0  0  0  0
    2.8795   -4.6180    3.3436 H   0  0  0  0  0  0  0  0  0  0  0  0
    3.5579   -2.9713    3.3628 H   0  0  0  0  0  0  0  0  0  0  0  0
    1.8818   -3.2489    3.8775 H   0  0  0  0  0  0  0  0  0  0  0  0
  1  2  2  0  0  0  0
  1  3  1  0  0  0  0
  1  7  1  0  0  0  0
  3  4  1  0  0  0  0
  3  5  1  0  0  0  0
  3  6  1  0  0  0  0
  7  8  1  0  0  0  0
  7 12  1  0  0  0  0
  8  9  1  0  0  0  0
  8 11  1  0  0  0  0
  8 13  1  0  0  0  0
  9 10  2  0  0  0  0
  9 17  1  0  0  0  0
 11 14  1  0  0  0  0
 11 15  1  0  0  0  0
 11 16  1  0  0  0  0
 17 18  1  0  0  0  0
 17 28  1  0  0  0  0
 18 19  1  0  0  0  0
 18 21  1  0  0  0  0
 18 29  1  0  0  0  0
 19 20  2  0  0  0  0
 19 37  1  0  0  0  0
 21 22  1  0  0  0  0
 21 30  1  0  0  0  0
 21 31  1  0  0  0  0
 22 23  1  0  0  0  0
 22 24  2  0  0  0  0
 23 25  2  0  0  0  0
 23 32  1  0  0  0  0
 24 26  1  0  0  0  0
 24 33  1  0  0  0  0
 25 27  1  0  0  0  0
 25 34  1  0  0  0  0
 26 27  2  0  0  0  0
 26 35  1  0  0  0  0
 27 36  1  0  0  0  0
 37 38  1  0  0  0  0
 37 42  1  0  0  0  0
 38 39  1  0  0  0  0
 38 41  1  0  0  0  0
 38 43  1  0  0  0  0
 39 40  2  0  0  0  0
 39 47  1  0  0  0  0
 41 44  1  0  0  0  0
 41 45  1  0  0  0  0
 41 46  1  0  0  0  0
 47 48  1  0  0  0  0
 47 49  1  0  0  0  0
 48 50  1  0  0  0  0
 48 51  1  0  0  0  0
 48 52  1  0  0  0  0
M  END
$$$$

  -OEChem-05262217163D

 52 52  0     1  0  0  0  0  0999 V2000
   -3.3022    0.4056    4.2602 C   0  0  0  0  0  0  0  0  0  0  0  0
   -4.3541    0.6260    3.6809 O   0  0  0  0  0  0  0  0  0  0  0  0
   -3.3105   -0.1862    5.6571 C   0  0  0  0  0  0  0  0  0  0  0  0
   -4.3391   -0.3320    5.9989 H   0  0  0  0  0  0  0  0  0  0  0  0
   -2.7998   -1.1524    5.6559 H   0  0  0  0  0  0  0  0  0  0  0  0
   -2.8009    0.4869    6.3508 H   0  0  0  0  0  0  0  0  0  0  0  0
   -2.1026    0.6867    3.6421 N   0  0  0  0  0  0  0  0  0  0  0  0
   -1.9725    1.1007    2.2392 C   0  0  2  0  0  0  0  0  0  0  0  0
   -0.6141    0.6754    1.6431 C   0  0  0  0  0  0  0  0  0  0  0  0
    0.2786    0.2748    2.3852 O   0  0  0  0  0  0  0  0  0  0  0  0
   -2.1372    2.6229    2.1608 C   0  0  0  0  0  0  0  0  0  0  0  0
   -1.2510    0.3739    4.1073 H   0  0  0  0  0  0  0  0  0  0  0  0
   -2.7551    0.6197    1.6424 H   0  0  0  0  0  0  0  0  0  0  0  0
   -1.3633    3.1228    2.7521 H   0  0  0  0  0  0  0  0  0  0  0  0
   -2.0611    2.9670    1.1249 H   0  0  0  0  0  0  0  0  0  0  0  0
   -3.1172    2.9190    2.5488 H   0  0  0  0  0  0  0  0  0  0  0  0
   -0.4002    0.7754    0.2774 N   0  0  0  0  0  0  0  0  0  0  0  0
    0.8212    0.3387   -0.4307 C   0  0  2  0  0  0  0  0  0  0  0  0
    1.1018   -1.1755   -0.2551 C   0  0  0  0  0  0  0  0  0  0  0  0
    0.1946   -1.9484    0.0352 O   0  0  0  0  0  0  0  0  0  0  0  0
    2.0305    1.2196   -0.0369 C   0  0  0  0  0  0  0  0  0  0  0  0
    1.8415    2.6297   -0.5406 C   0  0  0  0  0  0  0  0  0  0  0  0
    2.1298    2.9586   -1.8741 C   0  0  0  0  0  0  0  0  0  0  0  0
    1.3657    3.6283    0.3217 C   0  0  0  0  0  0  0  0  0  0  0  0
    1.9455    4.2658   -2.3373 C   0  0  0  0  0  0  0  0  0  0  0  0
    1.1803    4.9355   -0.1404 C   0  0  0  0  0  0  0  0  0  0  0  0
    1.4707    5.2547   -1.4704 C   0  0  0  0  0  0  0  0  0  0  0  0
   -1.2043    1.0414   -0.2834 H   0  0  0  0  0  0  0  0  0  0  0  0
    0.6515    0.4736   -1.5028 H   0  0  0  0  0  0  0  0  0  0  0  0
    2.9475    0.8246   -0.4816 H   0  0  0  0  0  0  0  0  0  0  0  0
    2.1816    1.2178    1.0466 H   0  0  0  0  0  0  0  0  0  0  0  0
    2.5018    2.2008   -2.5568 H   0  0  0  0  0  0  0  0  0  0  0  0
    1.1405    3.3879    1.3571 H   0  0  0  0  0  0  0  0  0  0  0  0
    2.1742    4.5142   -3.3697 H   0  0  0  0  0  0  0  0  0  0  0  0
    0.8141    5.7030    0.5353 H   0  0  0  0  0  0  0  0  0  0  0  0
    1.3315    6.2707   -1.8286 H   0  0  0  0  0  0  0  0  0  0  0  0
    2.3343   -1.7251   -0.5673 N   0  0  0  0  0  0  0  0  0  0  0  0
    2.6678   -3.1442   -0.3607 C   0  0  2  0  0  0  0  0  0  0  0  0
    2.8993   -3.4765    1.1347 C   0  0  0  0  0  0  0  0  0  0  0  0
    3.9796   -3.8885    1.5405 O   0  0  0  0  0  0  0  0  0  0  0  0
    3.8847   -3.4620   -1.2396 C   0  0  0  0  0  0  0  0  0  0  0  0
    3.1037   -1.0759   -0.6990 H   0  0  0  0  0  0  0  0  0  0  0  0
    1.8379   -3.7716   -0.7035 H   0  0  0  0  0  0  0  0  0  0  0  0
    4.7500   -2.8668   -0.9309 H   0  0  0  0  0  0  0  0  0  0  0  0
    4.1467   -4.5215   -1.1542 H   0  0  0  0  0  0  0  0  0  0  0  0
    3.6655   -3.2450   -2.2895 H   0  0  0  0  0  0  0  0  0  0  0  0
    1.8748   -3.2690    2.0371 N   0  0  0  0  0  0  0  0  0  0  0  0
    2.0178   -3.4147    3.4783 C   0  0  0  0  0  0  0  0  0  0  0  0
    1.0274   -2.8332    1.6629 H   0  0  0  0  0  0  0  0  0  0  0  0
    2.3207   -4.4358    3.7322 H   0  0  0  0  0  0  0  0  0  0  0  0
    2.7697   -2.7168    3.8606 H   0  0  0  0  0  0  0  0  0  0  0  0
    1.0650   -3.2035    3.9731 H   0  0  0  0  0  0  0  0  0  0  0  0
  1  2  2  0  0  0  0
  1  3  1  0  0  0  0
  1  7  1  0  0  0  0
  3  4  1  0  0  0  0
  3  5  1  0  0  0  0
  3  6  1  0  0  0  0
  7  8  1  0  0  0  0
  7 12  1  0  0  0  0
  8  9  1  0  0  0  0
  8 11  1  0  0  0  0
  8 13  1  0  0  0  0
  9 10  2  0  0  0  0
  9 17  1  0  0  0  0
 11 14  1  0  0  0  0
 11 15  1  0  0  0  0
 11 16  1  0  0  0  0
 17 18  1  0  0  0  0
 17 28  1  0  0  0  0
 18 19  1  0  0  0  0
 18 21  1  0  0  0  0
 18 29  1  0  0  0  0
 19 20  2  0  0  0  0
 19 37  1  0  0  0  0
 21 22  1  0  0  0  0
 21 30  1  0  0  0  0
 21 31  1  0  0  0  0
 22 23  1  0  0  0  0
 22 24  2  0  0  0  0
 23 25  2  0  0  0  0
 23 32  1  0  0  0  0
 24 26  1  0  0  0  0
 24 33  1  0  0  0  0
 25 27  1  0  0  0  0
 25 34  1  0  0  0  0
 26 27  2  0  0  0  0
 26 35  1  0  0  0  0
 27 36  1  0  0  0  0
 37 38  1  0  0  0  0
 37 42  1  0  0  0  0
 38 39  1  0  0  0  0
 38 41  1  0  0  0  0
 38 43  1  0  0  0  0
 39 40  2  0  0  0  0
 39 47  1  0  0  0  0
 41 44  1  0  0  0  0
 41 45  1  0  0  0  0
 41 46  1  0  0  0  0
 47 48  1  0  0  0  0
 47 49  1  0  0  0  0
 48 50  1  0  0  0  0
 48 51  1  0  0  0  0
 48 52  1  0  0  0  0
M  END
$$$$

  -OEChem-05262217163D

 52 52  0     1  0  0  0  0  0999 V2000
   -3.2769    0.3217    4.2162 C   0  0  0  0  0  0  0  0  0  0  0  0
   -4.3273    0.5153    3.6253 O   0  0  0  0  0  0  0  0  0  0  0  0
   -3.2876   -0.2487    5.6221 C   0  0  0  0  0  0  0  0  0  0  0  0
   -4.3168   -0.3798    5.9683 H   0  0  0  0  0  0  0  0  0  0  0  0
   -2.7859   -1.2194    5.6347 H   0  0  0  0  0  0  0  0  0  0  0  0
   -2.7708    0.4304    6.3046 H   0  0  0  0  0  0  0  0  0  0  0  0
   -2.0777    0.6189    3.6045 N   0  0  0  0  0  0  0  0  0  0  0  0
   -1.9437    1.0375    2.2030 C   0  0  2  0  0  0  0  0  0  0  0  0
   -0.5768    0.6308    1.6137 C   0  0  0  0  0  0  0  0  0  0  0  0
    0.3132    0.2253    2.3561 O   0  0  0  0  0  0  0  0  0  0  0  0
   -2.1263    2.5578    2.1285 C   0  0  0  0  0  0  0  0  0  0  0  0
   -1.2236    0.3341    4.0826 H   0  0  0  0  0  0  0  0  0  0  0  0
   -2.7168    0.5496    1.5989 H   0  0  0  0  0  0  0  0  0  0  0  0
   -1.3618    3.0646    2.7258 H   0  0  0  0  0  0  0  0  0  0  0  0
   -2.0483    2.9056    1.0940 H   0  0  0  0  0  0  0  0  0  0  0  0
   -3.1117    2.8413    2.5118 H   0  0  0  0  0  0  0  0  0  0  0  0
   -0.3505    0.7397    0.2513 N   0  0  0  0  0  0  0  0  0  0  0  0
    0.8957    0.3503   -0.4398 C   0  0  2  0  0  0  0  0  0  0  0  0
    1.2115   -1.1541   -0.2454 C   0  0  0  0  0  0  0  0  0  0  0  0
    0.2939   -1.9657   -0.1823 O   0  0  0  0  0  0  0  0  0  0  0  0
    2.0637    1.2797   -0.0361 C   0  0  0  0  0  0  0  0  0  0  0  0
    1.8230    2.6790   -0.5483 C   0  0  0  0  0  0  0  0  0  0  0  0
    2.1125    3.0149   -1.8796 C   0  0  0  0  0  0  0  0  0  0  0  0
    1.2908    3.6587    0.3028 C   0  0  0  0  0  0  0  0  0  0  0  0
    1.8722    4.3099   -2.3519 C   0  0  0  0  0  0  0  0  0  0  0  0
    1.0473    4.9527   -0.1688 C   0  0  0  0  0  0  0  0  0  0  0  0
    1.3384    5.2790   -1.4969 C   0  0  0  0  0  0  0  0  0  0  0  0
   -1.1454    1.0142   -0.3189 H   0  0  0  0  0  0  0  0  0  0  0  0
    0.7379    0.4711   -1.5154 H   0  0  0  0  0  0  0  0  0  0  0  0
    2.9984    0.9201   -0.4758 H   0  0  0  0  0  0  0  0  0  0  0  0
    2.2043    1.2866    1.0488 H   0  0  0  0  0  0  0  0  0  0  0  0
    2.5258    2.2711   -2.5542 H   0  0  0  0  0  0  0  0  0  0  0  0
    1.0637    3.4131    1.3364 H   0  0  0  0  0  0  0  0  0  0  0  0
    2.1011    4.5631   -3.3830 H   0  0  0  0  0  0  0  0  0  0  0  0
    0.6345    5.7047    0.4974 H   0  0  0  0  0  0  0  0  0  0  0  0
    1.1522    6.2847   -1.8630 H   0  0  0  0  0  0  0  0  0  0  0  0
    2.5078   -1.6414   -0.2298 N   0  0  0  0  0  0  0  0  0  0  0  0
    2.8409   -3.0462    0.0581 C   0  0  2  0  0  0  0  0  0  0  0  0
    2.7181   -3.3738    1.5670 C   0  0  0  0  0  0  0  0  0  0  0  0
    3.6872   -3.7268    2.2290 O   0  0  0  0  0  0  0  0  0  0  0  0
    4.2456   -3.3079   -0.4998 C   0  0  0  0  0  0  0  0  0  0  0  0
    3.2465   -0.9538   -0.1167 H   0  0  0  0  0  0  0  0  0  0  0  0
    2.1456   -3.7066   -0.4714 H   0  0  0  0  0  0  0  0  0  0  0  0
    4.9867   -2.6841    0.0103 H   0  0  0  0  0  0  0  0  0  0  0  0
    4.5198   -4.3579   -0.3562 H   0  0  0  0  0  0  0  0  0  0  0  0
    4.2779   -3.0870   -1.5709 H   0  0  0  0  0  0  0  0  0  0  0  0
    1.4946   -3.2200    2.1880 N   0  0  0  0  0  0  0  0  0  0  0  0
    1.3038   -3.2974    3.6287 C   0  0  0  0  0  0  0  0  0  0  0  0
    0.7548   -2.8080    1.6135 H   0  0  0  0  0  0  0  0  0  0  0  0
    1.6648   -4.2569    4.0134 H   0  0  0  0  0  0  0  0  0  0  0  0
    1.8456   -2.4884    4.1293 H   0  0  0  0  0  0  0  0  0  0  0  0
    0.2409   -3.2064    3.8713 H   0  0  0  0  0  0  0  0  0  0  0  0
  1  2  2  0  0  0  0
  1  3  1  0  0  0  0
  1  7  1  0  0  0  0
  3  4  1  0  0  0  0
  3  5  1  0  0  0  0
  3  6  1  0  0  0  0
  7  8  1  0  0  0  0
  7 12  1  0  0  0  0
  8  9  1  0  0  0  0
  8 11  1  0  0  0  0
  8 13  1  0  0  0  0
  9 10  2  0  0  0  0
  9 17  1  0  0  0  0
 11 14  1  0  0  0  0
 11 15  1  0  0  0  0
 11 16  1  0  0  0  0
 17 18  1  0  0  0  0
 17 28  1  0  0  0  0
 18 19  1  0  0  0  0
 18 21  1  0  0  0  0
 18 29  1  0  0  0  0
 19 20  2  0  0  0  0
 19 37  1  0  0  0  0
 21 22  1  0  0  0  0
 21 30  1  0  0  0  0
 21 31  1  0  0  0  0
 22 23  1  0  0  0  0
 22 24  2  0  0  0  0
 23 25  2  0  0  0  0
 23 32  1  0  0  0  0
 24 26  1  0  0  0  0
 24 33  1  0  0  0  0
 25 27  1  0  0  0  0
 25 34  1  0  0  0  0
 26 27  2  0  0  0  0
 26 35  1  0  0  0  0
 27 36  1  0  0  0  0
 37 38  1  0  0  0  0
 37 42  1  0  0  0  0
 38 39  1  0  0  0  0
 38 41  1  0  0  0  0
 38 43  1  0  0  0  0
 39 40  2  0  0  0  0
 39 47  1  0  0  0  0
 41 44  1  0  0  0  0
 41 45  1  0  0  0  0
 41 46  1  0  0  0  0
 47 48  1  0  0  0  0
 47 49  1  0  0  0  0
 48 50  1  0  0  0  0
 48 51  1  0  0  0  0
 48 52  1  0  0  0  0
M  END
$$$$

  -OEChem-05262217163D

 52 52  0     1  0  0  0  0  0999 V2000
   -3.2273    0.2307    4.1894 C   0  0  0  0  0  0  0  0  0  0  0  0
   -4.2812    0.3453    3.5845 O   0  0  0  0  0  0  0  0  0  0  0  0
   -3.2123   -0.3307    5.5985 C   0  0  0  0  0  0  0  0  0  0  0  0
   -4.2336   -0.5249    5.9379 H   0  0  0  0  0  0  0  0  0  0  0  0
   -2.6493   -1.2668    5.6209 H   0  0  0  0  0  0  0  0  0  0  0  0
   -2.7452    0.3843    6.2801 H   0  0  0  0  0  0  0  0  0  0  0  0
   -2.0443    0.6057    3.5895 N   0  0  0  0  0  0  0  0  0  0  0  0
   -1.9198    1.0116    2.1835 C   0  0  2  0  0  0  0  0  0  0  0  0
   -0.5365    0.6425    1.6101 C   0  0  0  0  0  0  0  0  0  0  0  0
    0.3599    0.2748    2.3642 O   0  0  0  0  0  0  0  0  0  0  0  0
   -2.1522    2.5234    2.0899 C   0  0  0  0  0  0  0  0  0  0  0  0
   -1.1793    0.3758    4.0781 H   0  0  0  0  0  0  0  0  0  0  0  0
   -2.6727    0.4916    1.5811 H   0  0  0  0  0  0  0  0  0  0  0  0
   -1.4076    3.0624    2.6843 H   0  0  0  0  0  0  0  0  0  0  0  0
   -2.0806    2.8614    1.0517 H   0  0  0  0  0  0  0  0  0  0  0  0
   -3.1485    2.7774    2.4659 H   0  0  0  0  0  0  0  0  0  0  0  0
   -0.2998    0.7320    0.2488 N   0  0  0  0  0  0  0  0  0  0  0  0
    0.9696    0.3745   -0.4140 C   0  0  2  0  0  0  0  0  0  0  0  0
    1.3237   -1.1122   -0.1722 C   0  0  0  0  0  0  0  0  0  0  0  0
    0.4582   -1.9660   -0.3339 O   0  0  0  0  0  0  0  0  0  0  0  0
    2.0983    1.3551   -0.0222 C   0  0  0  0  0  0  0  0  0  0  0  0
    1.8122    2.7299   -0.5760 C   0  0  0  0  0  0  0  0  0  0  0  0
    2.1059    3.0384   -1.9130 C   0  0  0  0  0  0  0  0  0  0  0  0
    1.2248    3.7100    0.2379 C   0  0  0  0  0  0  0  0  0  0  0  0
    1.8156    4.3066   -2.4275 C   0  0  0  0  0  0  0  0  0  0  0  0
    0.9317    4.9776   -0.2760 C   0  0  0  0  0  0  0  0  0  0  0  0
    1.2269    5.2760   -1.6098 C   0  0  0  0  0  0  0  0  0  0  0  0
   -1.0929    0.9767   -0.3376 H   0  0  0  0  0  0  0  0  0  0  0  0
    0.8239    0.4594   -1.4951 H   0  0  0  0  0  0  0  0  0  0  0  0
    3.0491    1.0127   -0.4420 H   0  0  0  0  0  0  0  0  0  0  0  0
    2.2239    1.3985    1.0639 H   0  0  0  0  0  0  0  0  0  0  0  0
    2.5620    2.2940   -2.5591 H   0  0  0  0  0  0  0  0  0  0  0  0
    0.9920    3.4852    1.2749 H   0  0  0  0  0  0  0  0  0  0  0  0
    2.0477    4.5395   -3.4627 H   0  0  0  0  0  0  0  0  0  0  0  0
    0.4765    5.7304    0.3612 H   0  0  0  0  0  0  0  0  0  0  0  0
    1.0018    6.2606   -2.0100 H   0  0  0  0  0  0  0  0  0  0  0  0
    2.5966   -1.5270    0.1809 N   0  0  0  0  0  0  0  0  0  0  0  0
    2.9220   -2.9178    0.5361 C   0  0  2  0  0  0  0  0  0  0  0  0
    2.4244   -3.2886    1.9553 C   0  0  0  0  0  0  0  0  0  0  0  0
    3.2030   -3.5987    2.8495 O   0  0  0  0  0  0  0  0  0  0  0  0
    4.4366   -3.0901    0.3693 C   0  0  0  0  0  0  0  0  0  0  0  0
    3.2230   -0.8013    0.5173 H   0  0  0  0  0  0  0  0  0  0  0  0
    2.4312   -3.6009   -0.1655 H   0  0  0  0  0  0  0  0  0  0  0  0
    4.9780   -2.4368    1.0610 H   0  0  0  0  0  0  0  0  0  0  0  0
    4.7247   -4.1259    0.5756 H   0  0  0  0  0  0  0  0  0  0  0  0
    4.7384   -2.8454   -0.6536 H   0  0  0  0  0  0  0  0  0  0  0  0
    1.0714   -3.2381    2.2258 N   0  0  0  0  0  0  0  0  0  0  0  0
    0.5117   -3.3633    3.5633 C   0  0  0  0  0  0  0  0  0  0  0  0
    0.4859   -2.8593    1.4771 H   0  0  0  0  0  0  0  0  0  0  0  0
    0.8049   -4.3171    4.0139 H   0  0  0  0  0  0  0  0  0  0  0  0
    0.8646   -2.5462    4.2010 H   0  0  0  0  0  0  0  0  0  0  0  0
   -0.5809   -3.3239    3.5189 H   0  0  0  0  0  0  0  0  0  0  0  0
  1  2  2  0  0  0  0
  1  3  1  0  0  0  0
  1  7  1  0  0  0  0
  3  4  1  0  0  0  0
  3  5  1  0  0  0  0
  3  6  1  0  0  0  0
  7  8  1  0  0  0  0
  7 12  1  0  0  0  0
  8  9  1  0  0  0  0
  8 11  1  0  0  0  0
  8 13  1  0  0  0  0
  9 10  2  0  0  0  0
  9 17  1  0  0  0  0
 11 14  1  0  0  0  0
 11 15  1  0  0  0  0
 11 16  1  0  0  0  0
 17 18  1  0  0  0  0
 17 28  1  0  0  0  0
 18 19  1  0  0  0  0
 18 21  1  0  0  0  0
 18 29  1  0  0  0  0
 19 20  2  0  0  0  0
 19 37  1  0  0  0  0
 21 22  1  0  0  0  0
 21 30  1  0  0  0  0
 21 31  1  0  0  0  0
 22 23  1  0  0  0  0
 22 24  2  0  0  0  0
 23 25  2  0  0  0  0
 23 32  1  0  0  0  0
 24 26  1  0  0  0  0
 24 33  1  0  0  0  0
 25 27  1  0  0  0  0
 25 34  1  0  0  0  0
 26 27  2  0  0  0  0
 26 35  1  0  0  0  0
 27 36  1  0  0  0  0
 37 38  1  0  0  0  0
 37 42  1  0  0  0  0
 38 39  1  0  0  0  0
 38 41  1  0  0  0  0
 38 43  1  0  0  0  0
 39 40  2  0  0  0  0
 39 47  1  0  0  0  0
 41 44  1  0  0  0  0
 41 45  1  0  0  0  0
 41 46  1  0  0  0  0
 47 48  1  0  0  0  0
 47 49  1  0  0  0  0
 48 50  1  0  0  0  0
 48 51  1  0  0  0  0
 48 52  1  0  0  0  0
M  END
$$$$

  -OEChem-05262217163D

 52 52  0     1  0  0  0  0  0999 V2000
   -3.1296    0.0726    4.1870 C   0  0  0  0  0  0  0  0  0  0  0  0
   -4.1863    0.0629    3.5761 O   0  0  0  0  0  0  0  0  0  0  0  0
   -3.0632   -0.4550    5.6078 C   0  0  0  0  0  0  0  0  0  0  0  0
   -4.0473   -0.8132    5.9231 H   0  0  0  0  0  0  0  0  0  0  0  0
   -2.3518   -1.2823    5.6663 H   0  0  0  0  0  0  0  0  0  0  0  0
   -2.7434    0.3394    6.2864 H   0  0  0  0  0  0  0  0  0  0  0  0
   -1.9883    0.5498    3.5794 N   0  0  0  0  0  0  0  0  0  0  0  0
   -1.8988    0.9243    2.1619 C   0  0  2  0  0  0  0  0  0  0  0  0
   -0.4902    0.6541    1.5955 C   0  0  0  0  0  0  0  0  0  0  0  0
    0.4295    0.3701    2.3570 O   0  0  0  0  0  0  0  0  0  0  0  0
   -2.2556    2.4079    2.0263 C   0  0  0  0  0  0  0  0  0  0  0  0
   -1.1066    0.4192    4.0749 H   0  0  0  0  0  0  0  0  0  0  0  0
   -2.6062    0.3266    1.5764 H   0  0  0  0  0  0  0  0  0  0  0  0
   -1.5563    3.0234    2.6010 H   0  0  0  0  0  0  0  0  0  0  0  0
   -2.2143    2.7203    0.9785 H   0  0  0  0  0  0  0  0  0  0  0  0
   -3.2689    2.5895    2.3993 H   0  0  0  0  0  0  0  0  0  0  0  0
   -0.2573    0.7201    0.2319 N   0  0  0  0  0  0  0  0  0  0  0  0
    1.0239    0.3835   -0.4191 C   0  0  2  0  0  0  0  0  0  0  0  0
    1.3987   -1.0873   -0.1290 C   0  0  0  0  0  0  0  0  0  0  0  0
    0.6222   -1.9738   -0.4678 O   0  0  0  0  0  0  0  0  0  0  0  0
    2.1383    1.3884   -0.0492 C   0  0  0  0  0  0  0  0  0  0  0  0
    1.8355    2.7496   -0.6258 C   0  0  0  0  0  0  0  0  0  0  0  0
    2.1213    3.0444   -1.9674 C   0  0  0  0  0  0  0  0  0  0  0  0
    1.2431    3.7344    0.1785 C   0  0  0  0  0  0  0  0  0  0  0  0
    1.8205    4.3054   -2.4948 C   0  0  0  0  0  0  0  0  0  0  0  0
    0.9417    4.9949   -0.3472 C   0  0  0  0  0  0  0  0  0  0  0  0
    1.2309    5.2810   -1.6847 C   0  0  0  0  0  0  0  0  0  0  0  0
   -1.0678    0.8723   -0.3624 H   0  0  0  0  0  0  0  0  0  0  0  0
    0.8823    0.4385   -1.5026 H   0  0  0  0  0  0  0  0  0  0  0  0
    3.0916    1.0443   -0.4632 H   0  0  0  0  0  0  0  0  0  0  0  0
    2.2664    1.4572    1.0350 H   0  0  0  0  0  0  0  0  0  0  0  0
    2.5802    2.2957   -2.6063 H   0  0  0  0  0  0  0  0  0  0  0  0
    1.0149    3.5194    1.2187 H   0  0  0  0  0  0  0  0  0  0  0  0
    2.0467    4.5284   -3.5335 H   0  0  0  0  0  0  0  0  0  0  0  0
    0.4859    5.7515    0.2847 H   0  0  0  0  0  0  0  0  0  0  0  0
    0.9997    6.2606   -2.0931 H   0  0  0  0  0  0  0  0  0  0  0  0
    2.5646   -1.4381    0.5287 N   0  0  0  0  0  0  0  0  0  0  0  0
    2.8241   -2.8007    1.0202 C   0  0  2  0  0  0  0  0  0  0  0  0
    1.9972   -3.1297    2.2891 C   0  0  0  0  0  0  0  0  0  0  0  0
    2.5333   -3.3521    3.3686 O   0  0  0  0  0  0  0  0  0  0  0  0
    4.3365   -2.9240    1.2432 C   0  0  0  0  0  0  0  0  0  0  0  0
    3.0260   -0.6770    1.0201 H   0  0  0  0  0  0  0  0  0  0  0  0
    2.5408   -3.5297    0.2534 H   0  0  0  0  0  0  0  0  0  0  0  0
    4.6727   -2.2173    2.0087 H   0  0  0  0  0  0  0  0  0  0  0  0
    4.5896   -3.9369    1.5726 H   0  0  0  0  0  0  0  0  0  0  0  0
    4.8771   -2.7183    0.3144 H   0  0  0  0  0  0  0  0  0  0  0  0
    0.6188   -3.1515    2.2041 N   0  0  0  0  0  0  0  0  0  0  0  0
   -0.2599   -3.2504    3.3604 C   0  0  0  0  0  0  0  0  0  0  0  0
    0.2281   -2.8564    1.3061 H   0  0  0  0  0  0  0  0  0  0  0  0
   -0.0520   -4.1661    3.9238 H   0  0  0  0  0  0  0  0  0  0  0  0
   -0.1182   -2.3888    4.0209 H   0  0  0  0  0  0  0  0  0  0  0  0
   -1.3053   -3.2741    3.0383 H   0  0  0  0  0  0  0  0  0  0  0  0
  1  2  2  0  0  0  0
  1  3  1  0  0  0  0
  1  7  1  0  0  0  0
  3  4  1  0  0  0  0
  3  5  1  0  0  0  0
  3  6  1  0  0  0  0
  7  8  1  0  0  0  0
  7 12  1  0  0  0  0
  8  9  1  0  0  0  0
  8 11  1  0  0  0  0
  8 13  1  0  0  0  0
  9 10  2  0  0  0  0
  9 17  1  0  0  0  0
 11 14  1  0  0  0  0
 11 15  1  0  0  0  0
 11 16  1  0  0  0  0
 17 18  1  0  0  0  0
 17 28  1  0  0  0  0
 18 19  1  0  0  0  0
 18 21  1  0  0  0  0
 18 29  1  0  0  0  0
 19 20  2  0  0  0  0
 19 37  1  0  0  0  0
 21 22  1  0  0  0  0
 21 30  1  0  0  0  0
 21 31  1  0  0  0  0
 22 23  1  0  0  0  0
 22 24  2  0  0  0  0
 23 25  2  0  0  0  0
 23 32  1  0  0  0  0
 24 26  1  0  0  0  0
 24 33  1  0  0  0  0
 25 27  1  0  0  0  0
 25 34  1  0  0  0  0
 26 27  2  0  0  0  0
 26 35  1  0  0  0  0
 27 36  1  0  0  0  0
 37 38  1  0  0  0  0
 37 42  1  0  0  0  0
 38 39  1  0  0  0  0
 38 41  1  0  0  0  0
 38 43  1  0  0  0  0
 39 40  2  0  0  0  0
 39 47  1  0  0  0  0
 41 44  1  0  0  0  0
 41 45  1  0  0  0  0
 41 46  1  0  0  0  0
 47 48  1  0  0  0  0
 47 49  1  0  0  0  0
 48 50  1  0  0  0  0
 48 51  1  0  0  0  0
 48 52  1  0  0  0  0
M  END
$$$$

  -OEChem-05262217163D

 52 52  0     1  0  0  0  0  0999 V2000
   -2.9243   -0.2033    4.1978 C   0  0  0  0  0  0  0  0  0  0  0  0
   -3.9336   -0.4417    3.5538 O   0  0  0  0  0  0  0  0  0  0  0  0
   -2.7871   -0.7186    5.6179 C   0  0  0  0  0  0  0  0  0  0  0  0
   -3.6077   -1.4028    5.8510 H   0  0  0  0  0  0  0  0  0  0  0  0
   -1.8406   -1.2520    5.7354 H   0  0  0  0  0  0  0  0  0  0  0  0
   -2.8138    0.1178    6.3205 H   0  0  0  0  0  0  0  0  0  0  0  0
   -1.9019    0.5287    3.6331 N   0  0  0  0  0  0  0  0  0  0  0  0
   -1.8531    0.9267    2.2191 C   0  0  2  0  0  0  0  0  0  0  0  0
   -0.4330    0.7739    1.6390 C   0  0  0  0  0  0  0  0  0  0  0  0
    0.5184    0.6037    2.3962 O   0  0  0  0  0  0  0  0  0  0  0  0
   -2.3265    2.3784    2.1136 C   0  0  0  0  0  0  0  0  0  0  0  0
   -1.0178    0.5453    4.1414 H   0  0  0  0  0  0  0  0  0  0  0  0
   -2.5155    0.2875    1.6252 H   0  0  0  0  0  0  0  0  0  0  0  0
   -1.6724    3.0380    2.6928 H   0  0  0  0  0  0  0  0  0  0  0  0
   -2.3216    2.7105    1.0710 H   0  0  0  0  0  0  0  0  0  0  0  0
   -3.3464    2.4710    2.5006 H   0  0  0  0  0  0  0  0  0  0  0  0
   -0.2254    0.7844    0.2685 N   0  0  0  0  0  0  0  0  0  0  0  0
    1.0513    0.4224   -0.3780 C   0  0  2  0  0  0  0  0  0  0  0  0
    1.4175   -1.0318   -0.0176 C   0  0  0  0  0  0  0  0  0  0  0  0
    0.7664   -1.9452   -0.5124 O   0  0  0  0  0  0  0  0  0  0  0  0
    2.1816    1.4339   -0.0848 C   0  0  0  0  0  0  0  0  0  0  0  0
    1.8782    2.7641   -0.7296 C   0  0  0  0  0  0  0  0  0  0  0  0
    2.1413    2.9773   -2.0911 C   0  0  0  0  0  0  0  0  0  0  0  0
    1.3089    3.7994    0.0266 C   0  0  0  0  0  0  0  0  0  0  0  0
    1.8420    4.2079   -2.6864 C   0  0  0  0  0  0  0  0  0  0  0  0
    1.0094    5.0302   -0.5673 C   0  0  0  0  0  0  0  0  0  0  0  0
    1.2761    5.2346   -1.9244 C   0  0  0  0  0  0  0  0  0  0  0  0
   -1.0558    0.8322   -0.3162 H   0  0  0  0  0  0  0  0  0  0  0  0
    0.8951    0.4234   -1.4614 H   0  0  0  0  0  0  0  0  0  0  0  0
    3.1228    1.0518   -0.4937 H   0  0  0  0  0  0  0  0  0  0  0  0
    2.3333    1.5646    0.9900 H   0  0  0  0  0  0  0  0  0  0  0  0
    2.5810    2.1874   -2.6927 H   0  0  0  0  0  0  0  0  0  0  0  0
    1.0963    3.6466    1.0812 H   0  0  0  0  0  0  0  0  0  0  0  0
    2.0501    4.3670   -3.7407 H   0  0  0  0  0  0  0  0  0  0  0  0
    0.5715    5.8274    0.0264 H   0  0  0  0  0  0  0  0  0  0  0  0
    1.0455    6.1903   -2.3859 H   0  0  0  0  0  0  0  0  0  0  0  0
    2.4082   -1.3244    0.9019 N   0  0  0  0  0  0  0  0  0  0  0  0
    2.5566   -2.6612    1.4994 C   0  0  2  0  0  0  0  0  0  0  0  0
    1.4303   -2.9783    2.5187 C   0  0  0  0  0  0  0  0  0  0  0  0
    1.6670   -3.1836    3.7036 O   0  0  0  0  0  0  0  0  0  0  0  0
    3.9557   -2.7266    2.1239 C   0  0  0  0  0  0  0  0  0  0  0  0
    2.6632   -0.5353    1.4937 H   0  0  0  0  0  0  0  0  0  0  0  0
    2.5052   -3.4224    0.7136 H   0  0  0  0  0  0  0  0  0  0  0  0
    4.0536   -1.9896    2.9276 H   0  0  0  0  0  0  0  0  0  0  0  0
    4.1373   -3.7216    2.5428 H   0  0  0  0  0  0  0  0  0  0  0  0
    4.7209   -2.5249    1.3683 H   0  0  0  0  0  0  0  0  0  0  0  0
    0.1205   -3.0309    2.0825 N   0  0  0  0  0  0  0  0  0  0  0  0
   -1.0256   -3.2611    2.9498 C   0  0  0  0  0  0  0  0  0  0  0  0
   -0.0307   -2.8268    1.0917 H   0  0  0  0  0  0  0  0  0  0  0  0
   -1.0203   -4.2899    3.3237 H   0  0  0  0  0  0  0  0  0  0  0  0
   -1.0029   -2.5757    3.8022 H   0  0  0  0  0  0  0  0  0  0  0  0
   -1.9567   -3.0945    2.3994 H   0  0  0  0  0  0  0  0  0  0  0  0
  1  2  2  0  0  0  0
  1  3  1  0  0  0  0
  1  7  1  0  0  0  0
  3  4  1  0  0  0  0
  3  5  1  0  0  0  0
  3  6  1  0  0  0  0
  7  8  1  0  0  0  0
  7 12  1  0  0  0  0
  8  9  1  0  0  0  0
  8 11  1  0  0  0  0
  8 13  1  0  0  0  0
  9 10  2  0  0  0  0
  9 17  1  0  0  0  0
 11 14  1  0  0  0  0
 11 15  1  0  0  0  0
 11 16  1  0  0  0  0
 17 18  1  0  0  0  0
 17 28  1  0  0  0  0
 18 19  1  0  0  0  0
 18 21  1  0  0  0  0
 18 29  1  0  0  0  0
 19 20  2  0  0  0  0
 19 37  1  0  0  0  0
 21 22  1  0  0  0  0
 21 30  1  0  0  0  0
 21 31  1  0  0  0  0
 22 23  1  0  0  0  0
 22 24  2  0  0  0  0
 23 25  2  0  0  0  0
 23 32  1  0  0  0  0
 24 26  1  0  0  0  0
 24 33  1  0  0  0  0
 25 27  1  0  0  0  0
 25 34  1  0  0  0  0
 26 27  2  0  0  0  0
 26 35  1  0  0  0  0
 27 36  1  0  0  0  0
 37 38  1  0  0  0  0
 37 42  1  0  0  0  0
 38 39  1  0  0  0  0
 38 41  1  0  0  0  0
 38 43  1  0  0  0  0
 39 40  2  0  0  0  0
 39 47  1  0  0  0  0
 41 44  1  0  0  0  0
 41 45  1  0  0  0  0
 41 46  1  0  0  0  0
 47 48  1  0  0  0  0
 47 49  1  0  0  0  0
 48 50  1  0  0  0  0
 48 51  1  0  0  0  0
 48 52  1  0  0  0  0
M  END
$$$$

  -OEChem-05262217163D

 52 52  0     1  0  0  0  0  0999 V2000
   -2.6816   -0.5104    3.9442 C   0  0  0  0  0  0  0  0  0  0  0  0
   -3.4583   -0.9921    3.1335 O   0  0  0  0  0  0  0  0  0  0  0  0
   -2.4331   -1.2057    5.2694 C   0  0  0  0  0  0  0  0  0  0  0  0
   -3.0737   -2.0872    5.3596 H   0  0  0  0  0  0  0  0  0  0  0  0
   -1.3882   -1.5231    5.3323 H   0  0  0  0  0  0  0  0  0  0  0  0
   -2.6510   -0.5262    6.0966 H   0  0  0  0  0  0  0  0  0  0  0  0
   -2.0055    0.6565    3.6540 N   0  0  0  0  0  0  0  0  0  0  0  0
   -1.9103    1.2192    2.2984 C   0  0  2  0  0  0  0  0  0  0  0  0
   -0.4969    1.0174    1.7179 C   0  0  0  0  0  0  0  0  0  0  0  0
    0.4625    0.9472    2.4819 O   0  0  0  0  0  0  0  0  0  0  0  0
   -2.2518    2.7079    2.3765 C   0  0  0  0  0  0  0  0  0  0  0  0
   -1.2293    0.8653    4.2794 H   0  0  0  0  0  0  0  0  0  0  0  0
   -2.6245    0.7346    1.6245 H   0  0  0  0  0  0  0  0  0  0  0  0
   -1.5467    3.2304    3.0309 H   0  0  0  0  0  0  0  0  0  0  0  0
   -2.2069    3.1627    1.3821 H   0  0  0  0  0  0  0  0  0  0  0  0
   -3.2628    2.8424    2.7737 H   0  0  0  0  0  0  0  0  0  0  0  0
   -0.2986    0.8943    0.3510 N   0  0  0  0  0  0  0  0  0  0  0  0
    0.9672    0.4477   -0.2668 C   0  0  2  0  0  0  0  0  0  0  0  0
    1.3202   -0.9728    0.2183 C   0  0  0  0  0  0  0  0  0  0  0  0
    0.8881   -1.9423   -0.3943 O   0  0  0  0  0  0  0  0  0  0  0  0
    2.1288    1.4473   -0.0767 C   0  0  0  0  0  0  0  0  0  0  0  0
    1.8615    2.7231   -0.8361 C   0  0  0  0  0  0  0  0  0  0  0  0
    2.1181    2.8039   -2.2130 C   0  0  0  0  0  0  0  0  0  0  0  0
    1.3386    3.8419   -0.1716 C   0  0  0  0  0  0  0  0  0  0  0  0
    1.8580    3.9868   -2.9137 C   0  0  0  0  0  0  0  0  0  0  0  0
    1.0792    5.0253   -0.8707 C   0  0  0  0  0  0  0  0  0  0  0  0
    1.3388    5.0981   -2.2425 C   0  0  0  0  0  0  0  0  0  0  0  0
   -1.1365    0.8714   -0.2247 H   0  0  0  0  0  0  0  0  0  0  0  0
    0.7996    0.3570   -1.3449 H   0  0  0  0  0  0  0  0  0  0  0  0
    3.0530    0.9998   -0.4574 H   0  0  0  0  0  0  0  0  0  0  0  0
    2.2993    1.6697    0.9796 H   0  0  0  0  0  0  0  0  0  0  0  0
    2.5245    1.9484   -2.7445 H   0  0  0  0  0  0  0  0  0  0  0  0
    1.1334    3.7922    0.8939 H   0  0  0  0  0  0  0  0  0  0  0  0
    2.0614    4.0426   -3.9792 H   0  0  0  0  0  0  0  0  0  0  0  0
    0.6785    5.8881   -0.3472 H   0  0  0  0  0  0  0  0  0  0  0  0
    1.1398    6.0174   -2.7858 H   0  0  0  0  0  0  0  0  0  0  0  0
    2.0846   -1.1651    1.3538 N   0  0  0  0  0  0  0  0  0  0  0  0
    2.1931   -2.4695    2.0243 C   0  0  2  0  0  0  0  0  0  0  0  0
    0.8744   -2.8919    2.7263 C   0  0  0  0  0  0  0  0  0  0  0  0
    0.8031   -3.0272    3.9429 O   0  0  0  0  0  0  0  0  0  0  0  0
    3.3761   -2.3772    2.9957 C   0  0  0  0  0  0  0  0  0  0  0  0
    2.1089   -0.3424    1.9603 H   0  0  0  0  0  0  0  0  0  0  0  0
    2.4269   -3.2417    1.2841 H   0  0  0  0  0  0  0  0  0  0  0  0
    3.1888   -1.6150    3.7591 H   0  0  0  0  0  0  0  0  0  0  0  0
    3.5320   -3.3379    3.4967 H   0  0  0  0  0  0  0  0  0  0  0  0
    4.2919   -2.1158    2.4571 H   0  0  0  0  0  0  0  0  0  0  0  0
   -0.2439   -3.1466    1.9554 N   0  0  0  0  0  0  0  0  0  0  0  0
   -1.5103   -3.6646    2.4580 C   0  0  0  0  0  0  0  0  0  0  0  0
   -0.1336   -3.0014    0.9486 H   0  0  0  0  0  0  0  0  0  0  0  0
   -1.4948   -4.7587    2.4664 H   0  0  0  0  0  0  0  0  0  0  0  0
   -1.7090   -3.3127    3.4740 H   0  0  0  0  0  0  0  0  0  0  0  0
   -2.3330   -3.3292    1.8187 H   0  0  0  0  0  0  0  0  0  0  0  0
  1  2  2  0  0  0  0
  1  3  1  0  0  0  0
  1  7  1  0  0  0  0
  3  4  1  0  0  0  0
  3  5  1  0  0  0  0
  3  6  1  0  0  0  0
  7  8  1  0  0  0  0
  7 12  1  0  0  0  0
  8  9  1  0  0  0  0
  8 11  1  0  0  0  0
  8 13  1  0  0  0  0
  9 10  2  0  0  0  0
  9 17  1  0  0  0  0
 11 14  1  0  0  0  0
 11 15  1  0  0  0  0
 11 16  1  0  0  0  0
 17 18  1  0  0  0  0
 17 28  1  0  0  0  0
 18 19  1  0  0  0  0
 18 21  1  0  0  0  0
 18 29  1  0  0  0  0
 19 20  2  0  0  0  0
 19 37  1  0  0  0  0
 21 22  1  0  0  0  0
 21 30  1  0  0  0  0
 21 31  1  0  0  0  0
 22 23  1  0  0  0  0
 22 24  2  0  0  0  0
 23 25  2  0  0  0  0
 23 32  1  0  0  0  0
 24 26  1  0  0  0  0
 24 33  1  0  0  0  0
 25 27  1  0  0  0  0
 25 34  1  0  0  0  0
 26 27  2  0  0  0  0
 26 35  1  0  0  0  0
 27 36  1  0  0  0  0
 37 38  1  0  0  0  0
 37 42  1  0  0  0  0
 38 39  1  0  0  0  0
 38 41  1  0  0  0  0
 38 43  1  0  0  0  0
 39 40  2  0  0  0  0
 39 47  1  0  0  0  0
 41 44  1  0  0  0  0
 41 45  1  0  0  0  0
 41 46  1  0  0  0  0
 47 48  1  0  0  0  0
 47 49  1  0  0  0  0
 48 50  1  0  0  0  0
 48 51  1  0  0  0  0
 48 52  1  0  0  0  0
M  END
$$$$

  -OEChem-05262217163D

 52 52  0     1  0  0  0  0  0999 V2000
   -3.0256   -0.4235    3.9722 C   0  0  0  0  0  0  0  0  0  0  0  0
   -4.0761   -0.1472    3.4123 O   0  0  0  0  0  0  0  0  0  0  0  0
   -3.0196   -1.3784    5.1506 C   0  0  0  0  0  0  0  0  0  0  0  0
   -4.0437   -1.6438    5.4265 H   0  0  0  0  0  0  0  0  0  0  0  0
   -2.4745   -2.2893    4.8931 H   0  0  0  0  0  0  0  0  0  0  0  0
   -2.5341   -0.9063    6.0082 H   0  0  0  0  0  0  0  0  0  0  0  0
   -1.8448    0.1265    3.5239 N   0  0  0  0  0  0  0  0  0  0  0  0
   -1.7344    1.0083    2.3531 C   0  0  2  0  0  0  0  0  0  0  0  0
   -0.3198    0.9558    1.7477 C   0  0  0  0  0  0  0  0  0  0  0  0
    0.6564    1.0106    2.4881 O   0  0  0  0  0  0  0  0  0  0  0  0
   -2.0786    2.4429    2.7665 C   0  0  0  0  0  0  0  0  0  0  0  0
   -0.9847   -0.2926    3.8914 H   0  0  0  0  0  0  0  0  0  0  0  0
   -2.4413    0.6800    1.5840 H   0  0  0  0  0  0  0  0  0  0  0  0
   -1.3966    2.7905    3.5493 H   0  0  0  0  0  0  0  0  0  0  0  0
   -1.9979    3.1170    1.9083 H   0  0  0  0  0  0  0  0  0  0  0  0
   -3.1026    2.4931    3.1498 H   0  0  0  0  0  0  0  0  0  0  0  0
   -0.1423    0.7801    0.3828 N   0  0  0  0  0  0  0  0  0  0  0  0
    1.1218    0.3768   -0.2748 C   0  0  2  0  0  0  0  0  0  0  0  0
    1.5839   -1.0022    0.2402 C   0  0  0  0  0  0  0  0  0  0  0  0
    1.2762   -2.0126   -0.3826 O   0  0  0  0  0  0  0  0  0  0  0  0
    2.2346    1.4381   -0.1467 C   0  0  0  0  0  0  0  0  0  0  0  0
    1.8697    2.6796   -0.9226 C   0  0  0  0  0  0  0  0  0  0  0  0
    2.0695    2.7463   -2.3095 C   0  0  0  0  0  0  0  0  0  0  0  0
    1.3014    3.7777   -0.2602 C   0  0  0  0  0  0  0  0  0  0  0  0
    1.7074    3.8949   -3.0220 C   0  0  0  0  0  0  0  0  0  0  0  0
    0.9383    4.9261   -0.9713 C   0  0  0  0  0  0  0  0  0  0  0  0
    1.1410    4.9848   -2.3534 C   0  0  0  0  0  0  0  0  0  0  0  0
   -0.9946    0.6991   -0.1660 H   0  0  0  0  0  0  0  0  0  0  0  0
    0.9204    0.2470   -1.3430 H   0  0  0  0  0  0  0  0  0  0  0  0
    3.1667    1.0304   -0.5519 H   0  0  0  0  0  0  0  0  0  0  0  0
    2.4320    1.6915    0.8981 H   0  0  0  0  0  0  0  0  0  0  0  0
    2.5078    1.9060   -2.8398 H   0  0  0  0  0  0  0  0  0  0  0  0
    1.1382    3.7366    0.8132 H   0  0  0  0  0  0  0  0  0  0  0  0
    1.8667    3.9403   -4.0954 H   0  0  0  0  0  0  0  0  0  0  0  0
    0.4990    5.7716   -0.4499 H   0  0  0  0  0  0  0  0  0  0  0  0
    0.8593    5.8763   -2.9064 H   0  0  0  0  0  0  0  0  0  0  0  0
    2.1438   -1.1250    1.4981 N   0  0  0  0  0  0  0  0  0  0  0  0
    1.9897   -2.3553    2.2841 C   0  0  2  0  0  0  0  0  0  0  0  0
    0.5068   -2.5860    2.6719 C   0  0  0  0  0  0  0  0  0  0  0  0
    0.0420   -2.1879    3.7366 O   0  0  0  0  0  0  0  0  0  0  0  0
    2.9000   -2.2344    3.5107 C   0  0  0  0  0  0  0  0  0  0  0  0
    2.0796   -0.2562    2.0378 H   0  0  0  0  0  0  0  0  0  0  0  0
    2.3238   -3.2173    1.6972 H   0  0  0  0  0  0  0  0  0  0  0  0
    2.6160   -1.3691    4.1190 H   0  0  0  0  0  0  0  0  0  0  0  0
    2.8246   -3.1336    4.1298 H   0  0  0  0  0  0  0  0  0  0  0  0
    3.9422   -2.1141    3.1994 H   0  0  0  0  0  0  0  0  0  0  0  0
   -0.3393   -3.1595    1.7428 N   0  0  0  0  0  0  0  0  0  0  0  0
   -1.7831   -3.2616    1.9085 C   0  0  0  0  0  0  0  0  0  0  0  0
    0.0469   -3.2338    0.7982 H   0  0  0  0  0  0  0  0  0  0  0  0
   -2.0311   -3.7050    2.8785 H   0  0  0  0  0  0  0  0  0  0  0  0
   -2.2480   -2.2734    1.8402 H   0  0  0  0  0  0  0  0  0  0  0  0
   -2.2057   -3.8988    1.1255 H   0  0  0  0  0  0  0  0  0  0  0  0
  1  2  2  0  0  0  0
  1  3  1  0  0  0  0
  1  7  1  0  0  0  0
  3  4  1  0  0  0  0
  3  5  1  0  0  0  0
  3  6  1  0  0  0  0
  7  8  1  0  0  0  0
  7 12  1  0  0  0  0
  8  9  1  0  0  0  0
  8 11  1  0  0  0  0
  8 13  1  0  0  0  0
  9 10  2  0  0  0  0
  9 17  1  0  0  0  0
 11 14  1  0  0  0  0
 11 15  1  0  0  0  0
 11 16  1  0  0  0  0
 17 18  1  0  0  0  0
 17 28  1  0  0  0  0
 18 19  1  0  0  0  0
 18 21  1  0  0  0  0
 18 29  1  0  0  0  0
 19 20  2  0  0  0  0
 19 37  1  0  0  0  0
 21 22  1  0  0  0  0
 21 30  1  0  0  0  0
 21 31  1  0  0  0  0
 22 23  1  0  0  0  0
 22 24  2  0  0  0  0
 23 25  2  0  0  0  0
 23 32  1  0  0  0  0
 24 26  1  0  0  0  0
 24 33  1  0  0  0  0
 25 27  1  0  0  0  0
 25 34  1  0  0  0  0
 26 27  2  0  0  0  0
 26 35  1  0  0  0  0
 27 36  1  0  0  0  0
 37 38  1  0  0  0  0
 37 42  1  0  0  0  0
 38 39  1  0  0  0  0
 38 41  1  0  0  0  0
 38 43  1  0  0  0  0
 39 40  2  0  0  0  0
 39 47  1  0  0  0  0
 41 44  1  0  0  0  0
 41 45  1  0  0  0  0
 41 46  1  0  0  0  0
 47 48  1  0  0  0  0
 47 49  1  0  0  0  0
 48 50  1  0  0  0  0
 48 51  1  0  0  0  0
 48 52  1  0  0  0  0
M  END
$$$$

  -OEChem-05262217163D

 52 52  0     1  0  0  0  0  0999 V2000
   -3.3576   -0.2218    3.4113 C   0  0  0  0  0  0  0  0  0  0  0  0
   -4.2420    0.4879    2.9575 O   0  0  0  0  0  0  0  0  0  0  0  0
   -3.7117   -1.4644    4.2065 C   0  0  0  0  0  0  0  0  0  0  0  0
   -3.4489   -2.3598    3.6411 H   0  0  0  0  0  0  0  0  0  0  0  0
   -3.1629   -1.4703    5.1517 H   0  0  0  0  0  0  0  0  0  0  0  0
   -4.7836   -1.4829    4.4212 H   0  0  0  0  0  0  0  0  0  0  0  0
   -2.0375    0.1238    3.2197 N   0  0  0  0  0  0  0  0  0  0  0  0
   -1.5893    1.3891    2.6190 C   0  0  2  0  0  0  0  0  0  0  0  0
   -0.2182    1.2274    1.9320 C   0  0  0  0  0  0  0  0  0  0  0  0
    0.8149    1.3178    2.5856 O   0  0  0  0  0  0  0  0  0  0  0  0
   -1.5596    2.4609    3.7165 C   0  0  0  0  0  0  0  0  0  0  0  0
   -1.3367   -0.5286    3.5893 H   0  0  0  0  0  0  0  0  0  0  0  0
   -2.3001    1.7082    1.8495 H   0  0  0  0  0  0  0  0  0  0  0  0
   -0.8910    2.1622    4.5303 H   0  0  0  0  0  0  0  0  0  0  0  0
   -1.2081    3.4134    3.3089 H   0  0  0  0  0  0  0  0  0  0  0  0
   -2.5623    2.6107    4.1285 H   0  0  0  0  0  0  0  0  0  0  0  0
   -0.1558    0.8965    0.5860 N   0  0  0  0  0  0  0  0  0  0  0  0
    1.0239    0.3729   -0.1457 C   0  0  2  0  0  0  0  0  0  0  0  0
    1.5292   -0.9676    0.4293 C   0  0  0  0  0  0  0  0  0  0  0  0
    1.3789   -1.9962   -0.2210 O   0  0  0  0  0  0  0  0  0  0  0  0
    2.1753    1.3953   -0.2296 C   0  0  0  0  0  0  0  0  0  0  0  0
    1.7811    2.5716   -1.0888 C   0  0  0  0  0  0  0  0  0  0  0  0
    1.8521    2.4915   -2.4877 C   0  0  0  0  0  0  0  0  0  0  0  0
    1.3219    3.7562   -0.4950 C   0  0  0  0  0  0  0  0  0  0  0  0
    1.4694    3.5792   -3.2804 C   0  0  0  0  0  0  0  0  0  0  0  0
    0.9403    4.8452   -1.2860 C   0  0  0  0  0  0  0  0  0  0  0  0
    1.0134    4.7565   -2.6795 C   0  0  0  0  0  0  0  0  0  0  0  0
   -1.0585    0.7941    0.1283 H   0  0  0  0  0  0  0  0  0  0  0  0
    0.7076    0.1569   -1.1717 H   0  0  0  0  0  0  0  0  0  0  0  0
    3.0522    0.9132   -0.6749 H   0  0  0  0  0  0  0  0  0  0  0  0
    2.4763    1.7369    0.7645 H   0  0  0  0  0  0  0  0  0  0  0  0
    2.2074    1.5829   -2.9648 H   0  0  0  0  0  0  0  0  0  0  0  0
    1.2594    3.8306    0.5870 H   0  0  0  0  0  0  0  0  0  0  0  0
    1.5275    3.5098   -4.3628 H   0  0  0  0  0  0  0  0  0  0  0  0
    0.5877    5.7593   -0.8173 H   0  0  0  0  0  0  0  0  0  0  0  0
    0.7173    5.6016   -3.2941 H   0  0  0  0  0  0  0  0  0  0  0  0
    1.9530   -1.0631    1.7408 N   0  0  0  0  0  0  0  0  0  0  0  0
    1.7916   -2.2957    2.5189 C   0  0  2  0  0  0  0  0  0  0  0  0
    0.2957   -2.6628    2.6797 C   0  0  0  0  0  0  0  0  0  0  0  0
   -0.3805   -2.2352    3.6122 O   0  0  0  0  0  0  0  0  0  0  0  0
    2.4809   -2.0815    3.8702 C   0  0  0  0  0  0  0  0  0  0  0  0
    1.8607   -0.1855    2.2623 H   0  0  0  0  0  0  0  0  0  0  0  0
    2.2919   -3.1245    2.0072 H   0  0  0  0  0  0  0  0  0  0  0  0
    2.0328   -1.2362    4.4031 H   0  0  0  0  0  0  0  0  0  0  0  0
    2.3816   -2.9762    4.4924 H   0  0  0  0  0  0  0  0  0  0  0  0
    3.5458   -1.8754    3.7254 H   0  0  0  0  0  0  0  0  0  0  0  0
   -0.3204   -3.3844    1.6765 N   0  0  0  0  0  0  0  0  0  0  0  0
   -1.7566   -3.6133    1.6117 C   0  0  0  0  0  0  0  0  0  0  0  0
    0.2149   -3.4418    0.8065 H   0  0  0  0  0  0  0  0  0  0  0  0
   -2.1129   -4.0827    2.5346 H   0  0  0  0  0  0  0  0  0  0  0  0
   -2.2879   -2.6678    1.4631 H   0  0  0  0  0  0  0  0  0  0  0  0
   -1.9926   -4.2800    0.7767 H   0  0  0  0  0  0  0  0  0  0  0  0
  1  2  2  0  0  0  0
  1  3  1  0  0  0  0
  1  7  1  0  0  0  0
  3  4  1  0  0  0  0
  3  5  1  0  0  0  0
  3  6  1  0  0  0  0
  7  8  1  0  0  0  0
  7 12  1  0  0  0  0
  8  9  1  0  0  0  0
  8 11  1  0  0  0  0
  8 13  1  0  0  0  0
  9 10  2  0  0  0  0
  9 17  1  0  0  0  0
 11 14  1  0  0  0  0
 11 15  1  0  0  0  0
 11 16  1  0  0  0  0
 17 18  1  0  0  0  0
 17 28  1  0  0  0  0
 18 19  1  0  0  0  0
 18 21  1  0  0  0  0
 18 29  1  0  0  0  0
 19 20  2  0  0  0  0
 19 37  1  0  0  0  0
 21 22  1  0  0  0  0
 21 30  1  0  0  0  0
 21 31  1  0  0  0  0
 22 23  1  0  0  0  0
 22 24  2  0  0  0  0
 23 25  2  0  0  0  0
 23 32  1  0  0  0  0
 24 26  1  0  0  0  0
 24 33  1  0  0  0  0
 25 27  1  0  0  0  0
 25 34  1  0  0  0  0
 26 27  2  0  0  0  0
 26 35  1  0  0  0  0
 27 36  1  0  0  0  0
 37 38  1  0  0  0  0
 37 42  1  0  0  0  0
 38 39  1  0  0  0  0
 38 41  1  0  0  0  0
 38 43  1  0  0  0  0
 39 40  2  0  0  0  0
 39 47  1  0  0  0  0
 41 44  1  0  0  0  0
 41 45  1  0  0  0  0
 41 46  1  0  0  0  0
 47 48  1  0  0  0  0
 47 49  1  0  0  0  0
 48 50  1  0  0  0  0
 48 51  1  0  0  0  0
 48 52  1  0  0  0  0
M  END
$$$$

  -OEChem-05262217163D

 52 52  0     1  0  0  0  0  0999 V2000
   -3.5500    0.6331    4.0773 C   0  0  0  0  0  0  0  0  0  0  0  0
   -4.4928    0.6351    3.3019 O   0  0  0  0  0  0  0  0  0  0  0  0
   -3.7117    0.0563    5.4708 C   0  0  0  0  0  0  0  0  0  0  0  0
   -4.7298   -0.3193    5.6068 H   0  0  0  0  0  0  0  0  0  0  0  0
   -3.0111   -0.7694    5.6182 H   0  0  0  0  0  0  0  0  0  0  0  0
   -3.5182    0.8283    6.2193 H   0  0  0  0  0  0  0  0  0  0  0  0
   -2.3325    1.1492    3.6840 N   0  0  0  0  0  0  0  0  0  0  0  0
   -2.0128    1.5423    2.3046 C   0  0  2  0  0  0  0  0  0  0  0  0
   -0.6312    1.0177    1.8676 C   0  0  0  0  0  0  0  0  0  0  0  0
    0.2422    0.8342    2.7090 O   0  0  0  0  0  0  0  0  0  0  0  0
   -2.0570    3.0691    2.2161 C   0  0  0  0  0  0  0  0  0  0  0  0
   -1.5483    1.0129    4.3200 H   0  0  0  0  0  0  0  0  0  0  0  0
   -2.7525    1.1248    1.6134 H   0  0  0  0  0  0  0  0  0  0  0  0
   -1.3173    3.5135    2.8898 H   0  0  0  0  0  0  0  0  0  0  0  0
   -1.8442    3.4009    1.1953 H   0  0  0  0  0  0  0  0  0  0  0  0
   -3.0500    3.4343    2.4972 H   0  0  0  0  0  0  0  0  0  0  0  0
   -0.3838    0.7782    0.5261 N   0  0  0  0  0  0  0  0  0  0  0  0
    0.8567    0.2739   -0.1095 C   0  0  2  0  0  0  0  0  0  0  0  0
    1.3282   -1.1235    0.3554 C   0  0  0  0  0  0  0  0  0  0  0  0
    1.5810   -1.9760   -0.4877 O   0  0  0  0  0  0  0  0  0  0  0  0
    2.0107    1.2787    0.0719 C   0  0  0  0  0  0  0  0  0  0  0  0
    1.7365    2.5473   -0.6984 C   0  0  0  0  0  0  0  0  0  0  0  0
    1.9921    2.6169   -2.0758 C   0  0  0  0  0  0  0  0  0  0  0  0
    1.2138    3.6717   -0.0422 C   0  0  0  0  0  0  0  0  0  0  0  0
    1.7209    3.7904   -2.7878 C   0  0  0  0  0  0  0  0  0  0  0  0
    0.9420    4.8454   -0.7526 C   0  0  0  0  0  0  0  0  0  0  0  0
    1.1941    4.9044   -2.1267 C   0  0  0  0  0  0  0  0  0  0  0  0
   -1.1575    0.9892   -0.0997 H   0  0  0  0  0  0  0  0  0  0  0  0
    0.6618    0.1767   -1.1827 H   0  0  0  0  0  0  0  0  0  0  0  0
    2.9401    0.8354   -0.3022 H   0  0  0  0  0  0  0  0  0  0  0  0
    2.1707    1.5015    1.1310 H   0  0  0  0  0  0  0  0  0  0  0  0
    2.4013    1.7571   -2.5985 H   0  0  0  0  0  0  0  0  0  0  0  0
    1.0195    3.6343    1.0260 H   0  0  0  0  0  0  0  0  0  0  0  0
    1.9209    3.8370   -3.8545 H   0  0  0  0  0  0  0  0  0  0  0  0
    0.5381    5.7115   -0.2365 H   0  0  0  0  0  0  0  0  0  0  0  0
    0.9838    5.8155   -2.6794 H   0  0  0  0  0  0  0  0  0  0  0  0
    1.3595   -1.4905    1.6852 N   0  0  0  0  0  0  0  0  0  0  0  0
    1.6320   -2.8444    2.1839 C   0  0  2  0  0  0  0  0  0  0  0  0
    0.4010   -3.7702    2.0397 C   0  0  0  0  0  0  0  0  0  0  0  0
   -0.1741   -4.2423    3.0136 O   0  0  0  0  0  0  0  0  0  0  0  0
    2.1111   -2.7053    3.6336 C   0  0  0  0  0  0  0  0  0  0  0  0
    1.0641   -0.7738    2.3533 H   0  0  0  0  0  0  0  0  0  0  0  0
    2.4448   -3.2935    1.6033 H   0  0  0  0  0  0  0  0  0  0  0  0
    1.3303   -2.2555    4.2555 H   0  0  0  0  0  0  0  0  0  0  0  0
    2.3603   -3.6879    4.0467 H   0  0  0  0  0  0  0  0  0  0  0  0
    3.0031   -2.0733    3.6809 H   0  0  0  0  0  0  0  0  0  0  0  0
   -0.0736   -4.0543    0.7745 N   0  0  0  0  0  0  0  0  0  0  0  0
   -1.2680   -4.8446    0.5114 C   0  0  0  0  0  0  0  0  0  0  0  0
    0.3991   -3.5804    0.0008 H   0  0  0  0  0  0  0  0  0  0  0  0
   -1.1722   -5.8425    0.9518 H   0  0  0  0  0  0  0  0  0  0  0  0
   -2.1513   -4.3550    0.9343 H   0  0  0  0  0  0  0  0  0  0  0  0
   -1.4156   -4.9565   -0.5670 H   0  0  0  0  0  0  0  0  0  0  0  0
  1  2  2  0  0  0  0
  1  3  1  0  0  0  0
  1  7  1  0  0  0  0
  3  4  1  0  0  0  0
  3  5  1  0  0  0  0
  3  6  1  0  0  0  0
  7  8  1  0  0  0  0
  7 12  1  0  0  0  0
  8  9  1  0  0  0  0
  8 11  1  0  0  0  0
  8 13  1  0  0  0  0
  9 10  2  0  0  0  0
  9 17  1  0  0  0  0
 11 14  1  0  0  0  0
 11 15  1  0  0  0  0
 11 16  1  0  0  0  0
 17 18  1  0  0  0  0
 17 28  1  0  0  0  0
 18 19  1  0  0  0  0
 18 21  1  0  0  0  0
 18 29  1  0  0  0  0
 19 20  2  0  0  0  0
 19 37  1  0  0  0  0
 21 22  1  0  0  0  0
 21 30  1  0  0  0  0
 21 31  1  0  0  0  0
 22 23  1  0  0  0  0
 22 24  2  0  0  0  0
 23 25  2  0  0  0  0
 23 32  1  0  0  0  0
 24 26  1  0  0  0  0
 24 33  1  0  0  0  0
 25 27  1  0  0  0  0
 25 34  1  0  0  0  0
 26 27  2  0  0  0  0
 26 35  1  0  0  0  0
 27 36  1  0  0  0  0
 37 38  1  0  0  0  0
 37 42  1  0  0  0  0
 38 39  1  0  0  0  0
 38 41  1  0  0  0  0
 38 43  1  0  0  0  0
 39 40  2  0  0  0  0
 39 47  1  0  0  0  0
 41 44  1  0  0  0  0
 41 45  1  0  0  0  0
 41 46  1  0  0  0  0
 47 48  1  0  0  0  0
 47 49  1  0  0  0  0
 48 50  1  0  0  0  0
 48 51  1  0  0  0  0
 48 52  1  0  0  0  0
M  END
$$$$

  -OEChem-05262217163D

 52 52  0     1  0  0  0  0  0999 V2000
   -2.0762    2.8066    4.0173 C   0  0  0  0  0  0  0  0  0  0  0  0
   -1.5875    3.5129    3.1511 O   0  0  0  0  0  0  0  0  0  0  0  0
   -2.0374    3.2602    5.4644 C   0  0  0  0  0  0  0  0  0  0  0  0
   -3.0517    3.3162    5.8666 H   0  0  0  0  0  0  0  0  0  0  0  0
   -1.4535    2.5547    6.0607 H   0  0  0  0  0  0  0  0  0  0  0  0
   -1.5752    4.2488    5.5375 H   0  0  0  0  0  0  0  0  0  0  0  0
   -2.6499    1.5886    3.7051 N   0  0  0  0  0  0  0  0  0  0  0  0
   -2.5591    0.9266    2.3901 C   0  0  2  0  0  0  0  0  0  0  0  0
   -1.1110    0.5197    2.0156 C   0  0  0  0  0  0  0  0  0  0  0  0
   -0.3798    0.0638    2.8871 O   0  0  0  0  0  0  0  0  0  0  0  0
   -3.2616    1.7589    1.3017 C   0  0  0  0  0  0  0  0  0  0  0  0
   -2.8799    1.0042    4.5037 H   0  0  0  0  0  0  0  0  0  0  0  0
   -3.1160   -0.0123    2.4674 H   0  0  0  0  0  0  0  0  0  0  0  0
   -2.6731    2.6413    1.0319 H   0  0  0  0  0  0  0  0  0  0  0  0
   -3.4116    1.1572    0.4002 H   0  0  0  0  0  0  0  0  0  0  0  0
   -4.2419    2.0929    1.6554 H   0  0  0  0  0  0  0  0  0  0  0  0
   -0.6884    0.5244    0.6944 N   0  0  0  0  0  0  0  0  0  0  0  0
    0.6272    0.1130    0.1454 C   0  0  2  0  0  0  0  0  0  0  0  0
    1.0635   -1.3525    0.3847 C   0  0  0  0  0  0  0  0  0  0  0  0
    1.7111   -1.9235   -0.4855 O   0  0  0  0  0  0  0  0  0  0  0  0
    1.7369    1.0597    0.6400 C   0  0  0  0  0  0  0  0  0  0  0  0
    1.5508    2.4410    0.0611 C   0  0  0  0  0  0  0  0  0  0  0  0
    1.9830    2.7349   -1.2409 C   0  0  0  0  0  0  0  0  0  0  0  0
    0.9267    3.4444    0.8145 C   0  0  0  0  0  0  0  0  0  0  0  0
    1.7893    4.0118   -1.7808 C   0  0  0  0  0  0  0  0  0  0  0  0
    0.7274    4.7190    0.2762 C   0  0  0  0  0  0  0  0  0  0  0  0
    1.1596    5.0042   -1.0225 C   0  0  0  0  0  0  0  0  0  0  0  0
   -1.3021    1.0262    0.0580 H   0  0  0  0  0  0  0  0  0  0  0  0
    0.5657    0.2127   -0.9430 H   0  0  0  0  0  0  0  0  0  0  0  0
    2.7136    0.6760    0.3261 H   0  0  0  0  0  0  0  0  0  0  0  0
    1.7476    1.1022    1.7337 H   0  0  0  0  0  0  0  0  0  0  0  0
    2.4727    1.9707   -1.8375 H   0  0  0  0  0  0  0  0  0  0  0  0
    0.5890    3.2354    1.8254 H   0  0  0  0  0  0  0  0  0  0  0  0
    2.1289    4.2328   -2.7885 H   0  0  0  0  0  0  0  0  0  0  0  0
    0.2363    5.4820    0.8740 H   0  0  0  0  0  0  0  0  0  0  0  0
    1.0085    5.9958   -1.4388 H   0  0  0  0  0  0  0  0  0  0  0  0
    0.6798   -2.0827    1.4913 N   0  0  0  0  0  0  0  0  0  0  0  0
    1.0896   -3.4648    1.7778 C   0  0  2  0  0  0  0  0  0  0  0  0
    0.2646   -4.5015    0.9773 C   0  0  0  0  0  0  0  0  0  0  0  0
   -0.4265   -5.3499    1.5300 O   0  0  0  0  0  0  0  0  0  0  0  0
    0.9823   -3.6608    3.2950 C   0  0  0  0  0  0  0  0  0  0  0  0
    0.2303   -1.5451    2.2365 H   0  0  0  0  0  0  0  0  0  0  0  0
    2.1394   -3.6011    1.4964 H   0  0  0  0  0  0  0  0  0  0  0  0
   -0.0524   -3.5290    3.6278 H   0  0  0  0  0  0  0  0  0  0  0  0
    1.3100   -4.6680    3.5721 H   0  0  0  0  0  0  0  0  0  0  0  0
    1.6133   -2.9361    3.8185 H   0  0  0  0  0  0  0  0  0  0  0  0
    0.3088   -4.4699   -0.4023 N   0  0  0  0  0  0  0  0  0  0  0  0
   -0.4652   -5.3511   -1.2649 C   0  0  0  0  0  0  0  0  0  0  0  0
    0.8550   -3.7094   -0.8150 H   0  0  0  0  0  0  0  0  0  0  0  0
   -0.2338   -6.3992   -1.0478 H   0  0  0  0  0  0  0  0  0  0  0  0
   -1.5373   -5.1876   -1.1146 H   0  0  0  0  0  0  0  0  0  0  0  0
   -0.2269   -5.1555   -2.3149 H   0  0  0  0  0  0  0  0  0  0  0  0
  1  2  2  0  0  0  0
  1  3  1  0  0  0  0
  1  7  1  0  0  0  0
  3  4  1  0  0  0  0
  3  5  1  0  0  0  0
  3  6  1  0  0  0  0
  7  8  1  0  0  0  0
  7 12  1  0  0  0  0
  8  9  1  0  0  0  0
  8 11  1  0  0  0  0
  8 13  1  0  0  0  0
  9 10  2  0  0  0  0
  9 17  1  0  0  0  0
 11 14  1  0  0  0  0
 11 15  1  0  0  0  0
 11 16  1  0  0  0  0
 17 18  1  0  0  0  0
 17 28  1  0  0  0  0
 18 19  1  0  0  0  0
 18 21  1  0  0  0  0
 18 29  1  0  0  0  0
 19 20  2  0  0  0  0
 19 37  1  0  0  0  0
 21 22  1  0  0  0  0
 21 30  1  0  0  0  0
 21 31  1  0  0  0  0
 22 23  1  0  0  0  0
 22 24  2  0  0  0  0
 23 25  2  0  0  0  0
 23 32  1  0  0  0  0
 24 26  1  0  0  0  0
 24 33  1  0  0  0  0
 25 27  1  0  0  0  0
 25 34  1  0  0  0  0
 26 27  2  0  0  0  0
 26 35  1  0  0  0  0
 27 36  1  0  0  0  0
 37 38  1  0  0  0  0
 37 42  1  0  0  0  0
 38 39  1  0  0  0  0
 38 41  1  0  0  0  0
 38 43  1  0  0  0  0
 39 40  2  0  0  0  0
 39 47  1  0  0  0  0
 41 44  1  0  0  0  0
 41 45  1  0  0  0  0
 41 46  1  0  0  0  0
 47 48  1  0  0  0  0
 47 49  1  0  0  0  0
 48 50  1  0  0  0  0
 48 51  1  0  0  0  0
 48 52  1  0  0  0  0
M  END
$$$$

  -OEChem-05262217163D

 52 52  0     1  0  0  0  0  0999 V2000
   -3.0811    0.0709    2.1302 C   0  0  0  0  0  0  0  0  0  0  0  0
   -3.0727    0.5625    1.0106 O   0  0  0  0  0  0  0  0  0  0  0  0
   -3.8935   -1.1773    2.4158 C   0  0  0  0  0  0  0  0  0  0  0  0
   -4.3645   -1.5393    1.4977 H   0  0  0  0  0  0  0  0  0  0  0  0
   -3.2465   -1.9644    2.8105 H   0  0  0  0  0  0  0  0  0  0  0  0
   -4.6730   -0.9565    3.1490 H   0  0  0  0  0  0  0  0  0  0  0  0
   -2.3162    0.6487    3.1240 N   0  0  0  0  0  0  0  0  0  0  0  0
   -1.4799    1.8457    2.9300 C   0  0  2  0  0  0  0  0  0  0  0  0
   -0.1669    1.5115    2.1829 C   0  0  0  0  0  0  0  0  0  0  0  0
    0.8987    1.4318    2.7818 O   0  0  0  0  0  0  0  0  0  0  0  0
   -1.2402    2.4689    4.3107 C   0  0  0  0  0  0  0  0  0  0  0  0
   -2.2733    0.1598    4.0148 H   0  0  0  0  0  0  0  0  0  0  0  0
   -2.0229    2.5788    2.3233 H   0  0  0  0  0  0  0  0  0  0  0  0
   -0.7102    1.7695    4.9654 H   0  0  0  0  0  0  0  0  0  0  0  0
   -0.6377    3.3782    4.2170 H   0  0  0  0  0  0  0  0  0  0  0  0
   -2.1931    2.7331    4.7797 H   0  0  0  0  0  0  0  0  0  0  0  0
   -0.2550    1.0669    0.8767 N   0  0  0  0  0  0  0  0  0  0  0  0
    0.7766    0.3850    0.0608 C   0  0  2  0  0  0  0  0  0  0  0  0
    1.2669   -0.9590    0.6473 C   0  0  0  0  0  0  0  0  0  0  0  0
    1.6077   -1.8539   -0.1182 O   0  0  0  0  0  0  0  0  0  0  0  0
    1.9884    1.3005   -0.2013 C   0  0  0  0  0  0  0  0  0  0  0  0
    1.6083    2.4641   -1.0845 C   0  0  0  0  0  0  0  0  0  0  0  0
    1.5281    2.3053   -2.4760 C   0  0  0  0  0  0  0  0  0  0  0  0
    1.3287    3.7185   -0.5231 C   0  0  0  0  0  0  0  0  0  0  0  0
    1.1720    3.3838   -3.2934 C   0  0  0  0  0  0  0  0  0  0  0  0
    0.9733    4.7981   -1.3389 C   0  0  0  0  0  0  0  0  0  0  0  0
    0.8942    4.6308   -2.7248 C   0  0  0  0  0  0  0  0  0  0  0  0
   -1.2169    1.0221    0.5247 H   0  0  0  0  0  0  0  0  0  0  0  0
    0.3235    0.1419   -0.9055 H   0  0  0  0  0  0  0  0  0  0  0  0
    2.7748    0.7253   -0.7018 H   0  0  0  0  0  0  0  0  0  0  0  0
    2.4127    1.6607    0.7404 H   0  0  0  0  0  0  0  0  0  0  0  0
    1.7442    1.3410   -2.9268 H   0  0  0  0  0  0  0  0  0  0  0  0
    1.3892    3.8546    0.5526 H   0  0  0  0  0  0  0  0  0  0  0  0
    1.1124    3.2522   -4.3699 H   0  0  0  0  0  0  0  0  0  0  0  0
    0.7604    5.7661   -0.8955 H   0  0  0  0  0  0  0  0  0  0  0  0
    0.6183    5.4682   -3.3590 H   0  0  0  0  0  0  0  0  0  0  0  0
    1.0069   -1.2994    1.9599 N   0  0  0  0  0  0  0  0  0  0  0  0
    1.0317   -2.6557    2.5129 C   0  0  2  0  0  0  0  0  0  0  0  0
   -0.2707   -3.4043    2.1534 C   0  0  0  0  0  0  0  0  0  0  0  0
   -1.1416   -3.6253    2.9886 O   0  0  0  0  0  0  0  0  0  0  0  0
    1.2621   -2.5342    4.0236 C   0  0  0  0  0  0  0  0  0  0  0  0
    0.8096   -0.5156    2.5838 H   0  0  0  0  0  0  0  0  0  0  0  0
    1.8691   -3.2192    2.0877 H   0  0  0  0  0  0  0  0  0  0  0  0
    0.4562   -1.9612    4.4927 H   0  0  0  0  0  0  0  0  0  0  0  0
    1.2953   -3.5272    4.4831 H   0  0  0  0  0  0  0  0  0  0  0  0
    2.2117   -2.0280    4.2234 H   0  0  0  0  0  0  0  0  0  0  0  0
   -0.4989   -3.7311    0.8315 N   0  0  0  0  0  0  0  0  0  0  0  0
   -1.7648   -4.2507    0.3337 C   0  0  0  0  0  0  0  0  0  0  0  0
    0.1873   -3.3695    0.1637 H   0  0  0  0  0  0  0  0  0  0  0  0
   -2.0534   -5.1518    0.8849 H   0  0  0  0  0  0  0  0  0  0  0  0
   -2.5547   -3.5006    0.4427 H   0  0  0  0  0  0  0  0  0  0  0  0
   -1.6745   -4.5102   -0.7254 H   0  0  0  0  0  0  0  0  0  0  0  0
  1  2  2  0  0  0  0
  1  3  1  0  0  0  0
  1  7  1  0  0  0  0
  3  4  1  0  0  0  0
  3  5  1  0  0  0  0
  3  6  1  0  0  0  0
  7  8  1  0  0  0  0
  7 12  1  0  0  0  0
  8  9  1  0  0  0  0
  8 11  1  0  0  0  0
  8 13  1  0  0  0  0
  9 10  2  0  0  0  0
  9 17  1  0  0  0  0
 11 14  1  0  0  0  0
 11 15  1  0  0  0  0
 11 16  1  0  0  0  0
 17 18  1  0  0  0  0
 17 28  1  0  0  0  0
 18 19  1  0  0  0  0
 18 21  1  0  0  0  0
 18 29  1  0  0  0  0
 19 20  2  0  0  0  0
 19 37  1  0  0  0  0
 21 22  1  0  0  0  0
 21 30  1  0  0  0  0
 21 31  1  0  0  0  0
 22 23  1  0  0  0  0
 22 24  2  0  0  0  0
 23 25  2  0  0  0  0
 23 32  1  0  0  0  0
 24 26  1  0  0  0  0
 24 33  1  0  0  0  0
 25 27  1  0  0  0  0
 25 34  1  0  0  0  0
 26 27  2  0  0  0  0
 26 35  1  0  0  0  0
 27 36  1  0  0  0  0
 37 38  1  0  0  0  0
 37 42  1  0  0  0  0
 38 39  1  0  0  0  0
 38 41  1  0  0  0  0
 38 43  1  0  0  0  0
 39 40  2  0  0  0  0
 39 47  1  0  0  0  0
 41 44  1  0  0  0  0
 41 45  1  0  0  0  0
 41 46  1  0  0  0  0
 47 48  1  0  0  0  0
 47 49  1  0  0  0  0
 48 50  1  0  0  0  0
 48 51  1  0  0  0  0
 48 52  1  0  0  0  0
M  END
$$$$

  -OEChem-05262217163D

 52 52  0     1  0  0  0  0  0999 V2000
   -3.0006    0.0112    3.3939 C   0  0  0  0  0  0  0  0  0  0  0  0
   -2.9401   -0.5490    2.3085 O   0  0  0  0  0  0  0  0  0  0  0  0
   -3.4036   -0.7593    4.6367 C   0  0  0  0  0  0  0  0  0  0  0  0
   -3.7628   -1.7553    4.3622 H   0  0  0  0  0  0  0  0  0  0  0  0
   -2.5450   -0.8654    5.3045 H   0  0  0  0  0  0  0  0  0  0  0  0
   -4.2033   -0.2318    5.1624 H   0  0  0  0  0  0  0  0  0  0  0  0
   -2.6367    1.3395    3.4854 N   0  0  0  0  0  0  0  0  0  0  0  0
   -2.0542    2.0602    2.3450 C   0  0  2  0  0  0  0  0  0  0  0  0
   -0.7276    1.4263    1.8716 C   0  0  0  0  0  0  0  0  0  0  0  0
    0.1314    1.1304    2.6920 O   0  0  0  0  0  0  0  0  0  0  0  0
   -1.8347    3.5190    2.7516 C   0  0  0  0  0  0  0  0  0  0  0  0
   -2.4700    1.7000    4.4205 H   0  0  0  0  0  0  0  0  0  0  0  0
   -2.7647    2.0354    1.5121 H   0  0  0  0  0  0  0  0  0  0  0  0
   -1.1243    3.5842    3.5823 H   0  0  0  0  0  0  0  0  0  0  0  0
   -1.4349    4.0916    1.9086 H   0  0  0  0  0  0  0  0  0  0  0  0
   -2.7799    3.9750    3.0622 H   0  0  0  0  0  0  0  0  0  0  0  0
   -0.5485    1.1324    0.5302 N   0  0  0  0  0  0  0  0  0  0  0  0
    0.5853    0.3912   -0.0660 C   0  0  2  0  0  0  0  0  0  0  0  0
    0.7654   -1.0574    0.4529 C   0  0  0  0  0  0  0  0  0  0  0  0
    1.6403   -1.7630   -0.0385 O   0  0  0  0  0  0  0  0  0  0  0  0
    1.9016    1.1869    0.0852 C   0  0  0  0  0  0  0  0  0  0  0  0
    1.8635    2.4487   -0.7422 C   0  0  0  0  0  0  0  0  0  0  0  0
    2.1357    2.4092   -2.1174 C   0  0  0  0  0  0  0  0  0  0  0  0
    1.5558    3.6779   -0.1411 C   0  0  0  0  0  0  0  0  0  0  0  0
    2.0927    3.5800   -2.8821 C   0  0  0  0  0  0  0  0  0  0  0  0
    1.5150    4.8503   -0.9035 C   0  0  0  0  0  0  0  0  0  0  0  0
    1.7818    4.8011   -2.2754 C   0  0  0  0  0  0  0  0  0  0  0  0
   -1.3386    1.3358   -0.0760 H   0  0  0  0  0  0  0  0  0  0  0  0
    0.3835    0.2846   -1.1359 H   0  0  0  0  0  0  0  0  0  0  0  0
    2.7434    0.5766   -0.2586 H   0  0  0  0  0  0  0  0  0  0  0  0
    2.0974    1.4226    1.1348 H   0  0  0  0  0  0  0  0  0  0  0  0
    2.3839    1.4657   -2.5952 H   0  0  0  0  0  0  0  0  0  0  0  0
    1.3519    3.7208    0.9250 H   0  0  0  0  0  0  0  0  0  0  0  0
    2.3057    3.5402   -3.9464 H   0  0  0  0  0  0  0  0  0  0  0  0
    1.2823    5.7991   -0.4292 H   0  0  0  0  0  0  0  0  0  0  0  0
    1.7525    5.7103   -2.8687 H   0  0  0  0  0  0  0  0  0  0  0  0
   -0.0672   -1.6249    1.4017 N   0  0  0  0  0  0  0  0  0  0  0  0
    0.1630   -2.9320    2.0364 C   0  0  2  0  0  0  0  0  0  0  0  0
   -0.3127   -4.1242    1.1699 C   0  0  0  0  0  0  0  0  0  0  0  0
   -1.0505   -4.9966    1.6151 O   0  0  0  0  0  0  0  0  0  0  0  0
   -0.5134   -2.8929    3.4110 C   0  0  0  0  0  0  0  0  0  0  0  0
   -0.8211   -1.0402    1.7644 H   0  0  0  0  0  0  0  0  0  0  0  0
    1.2378   -3.0653    2.1992 H   0  0  0  0  0  0  0  0  0  0  0  0
   -1.5994   -2.8238    3.2990 H   0  0  0  0  0  0  0  0  0  0  0  0
   -0.2813   -3.8027    3.9732 H   0  0  0  0  0  0  0  0  0  0  0  0
   -0.1616   -2.0310    3.9862 H   0  0  0  0  0  0  0  0  0  0  0  0
    0.1488   -4.2408   -0.1262 N   0  0  0  0  0  0  0  0  0  0  0  0
   -0.1804   -5.3434   -1.0181 C   0  0  0  0  0  0  0  0  0  0  0  0
    0.8038   -3.5173   -0.4334 H   0  0  0  0  0  0  0  0  0  0  0  0
    0.1573   -6.2939   -0.5927 H   0  0  0  0  0  0  0  0  0  0  0  0
   -1.2618   -5.3935   -1.1806 H   0  0  0  0  0  0  0  0  0  0  0  0
    0.3092   -5.2041   -1.9866 H   0  0  0  0  0  0  0  0  0  0  0  0
  1  2  2  0  0  0  0
  1  3  1  0  0  0  0
  1  7  1  0  0  0  0
  3  4  1  0  0  0  0
  3  5  1  0  0  0  0
  3  6  1  0  0  0  0
  7  8  1  0  0  0  0
  7 12  1  0  0  0  0
  8  9  1  0  0  0  0
  8 11  1  0  0  0  0
  8 13  1  0  0  0  0
  9 10  2  0  0  0  0
  9 17  1  0  0  0  0
 11 14  1  0  0  0  0
 11 15  1  0  0  0  0
 11 16  1  0  0  0  0
 17 18  1  0  0  0  0
 17 28  1  0  0  0  0
 18 19  1  0  0  0  0
 18 21  1  0  0  0  0
 18 29  1  0  0  0  0
 19 20  2  0  0  0  0
 19 37  1  0  0  0  0
 21 22  1  0  0  0  0
 21 30  1  0  0  0  0
 21 31  1  0  0  0  0
 22 23  1  0  0  0  0
 22 24  2  0  0  0  0
 23 25  2  0  0  0  0
 23 32  1  0  0  0  0
 24 26  1  0  0  0  0
 24 33  1  0  0  0  0
 25 27  1  0  0  0  0
 25 34  1  0  0  0  0
 26 27  2  0  0  0  0
 26 35  1  0  0  0  0
 27 36  1  0  0  0  0
 37 38  1  0  0  0  0
 37 42  1  0  0  0  0
 38 39  1  0  0  0  0
 38 41  1  0  0  0  0
 38 43  1  0  0  0  0
 39 40  2  0  0  0  0
 39 47  1  0  0  0  0
 41 44  1  0  0  0  0
 41 45  1  0  0  0  0
 41 46  1  0  0  0  0
 47 48  1  0  0  0  0
 47 49  1  0  0  0  0
 48 50  1  0  0  0  0
 48 51  1  0  0  0  0
 48 52  1  0  0  0  0
M  END
$$$$

  -OEChem-05262217163D

 52 52  0     1  0  0  0  0  0999 V2000
   -3.0686   -0.0329    3.0782 C   0  0  0  0  0  0  0  0  0  0  0  0
   -2.9162   -0.4586    1.9411 O   0  0  0  0  0  0  0  0  0  0  0  0
   -3.6835   -0.9079    4.1538 C   0  0  0  0  0  0  0  0  0  0  0  0
   -4.0729   -1.8301    3.7133 H   0  0  0  0  0  0  0  0  0  0  0  0
   -2.9295   -1.1650    4.9018 H   0  0  0  0  0  0  0  0  0  0  0  0
   -4.5061   -0.3797    4.6422 H   0  0  0  0  0  0  0  0  0  0  0  0
   -2.6338    1.2400    3.3863 N   0  0  0  0  0  0  0  0  0  0  0  0
   -1.9268    2.0879    2.4174 C   0  0  2  0  0  0  0  0  0  0  0  0
   -0.6078    1.4473    1.9322 C   0  0  0  0  0  0  0  0  0  0  0  0
    0.2714    1.1699    2.7369 O   0  0  0  0  0  0  0  0  0  0  0  0
   -1.6620    3.4482    3.0680 C   0  0  0  0  0  0  0  0  0  0  0  0
   -2.5877    1.4853    4.3714 H   0  0  0  0  0  0  0  0  0  0  0  0
   -2.5719    2.2443    1.5465 H   0  0  0  0  0  0  0  0  0  0  0  0
   -1.0248    3.3365    3.9517 H   0  0  0  0  0  0  0  0  0  0  0  0
   -1.1583    4.1148    2.3607 H   0  0  0  0  0  0  0  0  0  0  0  0
   -2.6039    3.9153    3.3715 H   0  0  0  0  0  0  0  0  0  0  0  0
   -0.4663    1.1260    0.5928 N   0  0  0  0  0  0  0  0  0  0  0  0
    0.6609    0.3881   -0.0146 C   0  0  2  0  0  0  0  0  0  0  0  0
    0.8549   -1.0392    0.5536 C   0  0  0  0  0  0  0  0  0  0  0  0
    1.8374   -1.6980    0.2280 O   0  0  0  0  0  0  0  0  0  0  0  0
    1.9645    1.2148    0.0713 C   0  0  0  0  0  0  0  0  0  0  0  0
    1.8716    2.4481   -0.7949 C   0  0  0  0  0  0  0  0  0  0  0  0
    2.1022    2.3689   -2.1762 C   0  0  0  0  0  0  0  0  0  0  0  0
    1.5440    3.6877   -0.2266 C   0  0  0  0  0  0  0  0  0  0  0  0
    2.0047    3.5118   -2.9773 C   0  0  0  0  0  0  0  0  0  0  0  0
    1.4446    4.8312   -1.0263 C   0  0  0  0  0  0  0  0  0  0  0  0
    1.6746    4.7434   -2.4027 C   0  0  0  0  0  0  0  0  0  0  0  0
   -1.2859    1.2847    0.0125 H   0  0  0  0  0  0  0  0  0  0  0  0
    0.4305    0.2419   -1.0739 H   0  0  0  0  0  0  0  0  0  0  0  0
    2.8091    0.6129   -0.2800 H   0  0  0  0  0  0  0  0  0  0  0  0
    2.1865    1.4876    1.1069 H   0  0  0  0  0  0  0  0  0  0  0  0
    2.3638    1.4172   -2.6298 H   0  0  0  0  0  0  0  0  0  0  0  0
    1.3687    3.7610    0.8428 H   0  0  0  0  0  0  0  0  0  0  0  0
    2.1897    3.4425   -4.0452 H   0  0  0  0  0  0  0  0  0  0  0  0
    1.1930    5.7870   -0.5766 H   0  0  0  0  0  0  0  0  0  0  0  0
    1.6013    5.6313   -3.0238 H   0  0  0  0  0  0  0  0  0  0  0  0
   -0.1253   -1.6678    1.3037 N   0  0  0  0  0  0  0  0  0  0  0  0
    0.0135   -3.0102    1.8915 C   0  0  2  0  0  0  0  0  0  0  0  0
   -0.2719   -4.1446    0.8771 C   0  0  0  0  0  0  0  0  0  0  0  0
   -1.0704   -5.0437    1.1168 O   0  0  0  0  0  0  0  0  0  0  0  0
   -0.8992   -3.0709    3.1207 C   0  0  0  0  0  0  0  0  0  0  0  0
   -0.9786   -1.1383    1.4949 H   0  0  0  0  0  0  0  0  0  0  0  0
    1.0436   -3.1446    2.2381 H   0  0  0  0  0  0  0  0  0  0  0  0
   -1.9482   -2.9952    2.8196 H   0  0  0  0  0  0  0  0  0  0  0  0
   -0.7597   -4.0181    3.6511 H   0  0  0  0  0  0  0  0  0  0  0  0
   -0.6670   -2.2521    3.8084 H   0  0  0  0  0  0  0  0  0  0  0  0
    0.4191   -4.1665   -0.3182 N   0  0  0  0  0  0  0  0  0  0  0  0
    0.2862   -5.2105   -1.3241 C   0  0  0  0  0  0  0  0  0  0  0  0
    1.1194   -3.4306   -0.4411 H   0  0  0  0  0  0  0  0  0  0  0  0
    0.6479   -6.1669   -0.9325 H   0  0  0  0  0  0  0  0  0  0  0  0
   -0.7611   -5.3238   -1.6233 H   0  0  0  0  0  0  0  0  0  0  0  0
    0.8720   -4.9539   -2.2120 H   0  0  0  0  0  0  0  0  0  0  0  0
  1  2  2  0  0  0  0
  1  3  1  0  0  0  0
  1  7  1  0  0  0  0
  3  4  1  0  0  0  0
  3  5  1  0  0  0  0
  3  6  1  0  0  0  0
  7  8  1  0  0  0  0
  7 12  1  0  0  0  0
  8  9  1  0  0  0  0
  8 11  1  0  0  0  0
  8 13  1  0  0  0  0
  9 10  2  0  0  0  0
  9 17  1  0  0  0  0
 11 14  1  0  0  0  0
 11 15  1  0  0  0  0
 11 16  1  0  0  0  0
 17 18  1  0  0  0  0
 17 28  1  0  0  0  0
 18 19  1  0  0  0  0
 18 21  1  0  0  0  0
 18 29  1  0  0  0  0
 19 20  2  0  0  0  0
 19 37  1  0  0  0  0
 21 22  1  0  0  0  0
 21 30  1  0  0  0  0
 21 31  1  0  0  0  0
 22 23  1  0  0  0  0
 22 24  2  0  0  0  0
 23 25  2  0  0  0  0
 23 32  1  0  0  0  0
 24 26  1  0  0  0  0
 24 33  1  0  0  0  0
 25 27  1  0  0  0  0
 25 34  1  0  0  0  0
 26 27  2  0  0  0  0
 26 35  1  0  0  0  0
 27 36  1  0  0  0  0
 37 38  1  0  0  0  0
 37 42  1  0  0  0  0
 38 39  1  0  0  0  0
 38 41  1  0  0  0  0
 38 43  1  0  0  0  0
 39 40  2  0  0  0  0
 39 47  1  0  0  0  0
 41 44  1  0  0  0  0
 41 45  1  0  0  0  0
 41 46  1  0  0  0  0
 47 48  1  0  0  0  0
 47 49  1  0  0  0  0
 48 50  1  0  0  0  0
 48 51  1  0  0  0  0
 48 52  1  0  0  0  0
M  END
$$$$

  -OEChem-05262217163D

 52 52  0     1  0  0  0  0  0999 V2000
   -3.0915   -0.0438    2.7506 C   0  0  0  0  0  0  0  0  0  0  0  0
   -2.8670   -0.3010    1.5754 O   0  0  0  0  0  0  0  0  0  0  0  0
   -3.9042   -0.9970    3.6061 C   0  0  0  0  0  0  0  0  0  0  0  0
   -4.2491   -1.8446    3.0068 H   0  0  0  0  0  0  0  0  0  0  0  0
   -3.2935   -1.3736    4.4304 H   0  0  0  0  0  0  0  0  0  0  0  0
   -4.7760   -0.4805    4.0153 H   0  0  0  0  0  0  0  0  0  0  0  0
   -2.5773    1.1110    3.3035 N   0  0  0  0  0  0  0  0  0  0  0  0
   -1.7786    2.0876    2.5501 C   0  0  2  0  0  0  0  0  0  0  0  0
   -0.4634    1.4868    2.0034 C   0  0  0  0  0  0  0  0  0  0  0  0
    0.4770    1.2608    2.7525 O   0  0  0  0  0  0  0  0  0  0  0  0
   -1.5051    3.2855    3.4659 C   0  0  0  0  0  0  0  0  0  0  0  0
   -2.6693    1.2284    4.3086 H   0  0  0  0  0  0  0  0  0  0  0  0
   -2.3649    2.4436    1.6965 H   0  0  0  0  0  0  0  0  0  0  0  0
   -0.9415    2.9753    4.3520 H   0  0  0  0  0  0  0  0  0  0  0  0
   -0.9210    4.0428    2.9336 H   0  0  0  0  0  0  0  0  0  0  0  0
   -2.4455    3.7409    3.7912 H   0  0  0  0  0  0  0  0  0  0  0  0
   -0.3997    1.1441    0.6634 N   0  0  0  0  0  0  0  0  0  0  0  0
    0.6961    0.4048    0.0044 C   0  0  2  0  0  0  0  0  0  0  0  0
    0.9070   -1.0032    0.6105 C   0  0  0  0  0  0  0  0  0  0  0  0
    1.9632   -1.6070    0.4515 O   0  0  0  0  0  0  0  0  0  0  0  0
    1.9989    1.2379   -0.0127 C   0  0  0  0  0  0  0  0  0  0  0  0
    1.8444    2.4501   -0.8995 C   0  0  0  0  0  0  0  0  0  0  0  0
    1.9859    2.3398   -2.2906 C   0  0  0  0  0  0  0  0  0  0  0  0
    1.5503    3.7018   -0.3396 C   0  0  0  0  0  0  0  0  0  0  0  0
    1.8327    3.4637   -3.1099 C   0  0  0  0  0  0  0  0  0  0  0  0
    1.3974    4.8270   -1.1570 C   0  0  0  0  0  0  0  0  0  0  0  0
    1.5381    4.7078   -2.5432 C   0  0  0  0  0  0  0  0  0  0  0  0
   -1.2867    1.1972    0.1665 H   0  0  0  0  0  0  0  0  0  0  0  0
    0.4048    0.2295   -1.0350 H   0  0  0  0  0  0  0  0  0  0  0  0
    2.8225    0.6317   -0.4037 H   0  0  0  0  0  0  0  0  0  0  0  0
    2.2848    1.5358    0.9999 H   0  0  0  0  0  0  0  0  0  0  0  0
    2.2186    1.3783   -2.7389 H   0  0  0  0  0  0  0  0  0  0  0  0
    1.4431    3.7984    0.7369 H   0  0  0  0  0  0  0  0  0  0  0  0
    1.9461    3.3699   -4.1859 H   0  0  0  0  0  0  0  0  0  0  0  0
    1.1731    5.7930   -0.7146 H   0  0  0  0  0  0  0  0  0  0  0  0
    1.4231    5.5810   -3.1788 H   0  0  0  0  0  0  0  0  0  0  0  0
   -0.1587   -1.6964    1.1605 N   0  0  0  0  0  0  0  0  0  0  0  0
   -0.0630   -3.0535    1.7211 C   0  0  2  0  0  0  0  0  0  0  0  0
   -0.1098   -4.1522    0.6316 C   0  0  0  0  0  0  0  0  0  0  0  0
   -0.9669   -5.0290    0.6302 O   0  0  0  0  0  0  0  0  0  0  0  0
   -1.1745   -3.2048    2.7645 C   0  0  0  0  0  0  0  0  0  0  0  0
   -1.0536   -1.2045    1.2160 H   0  0  0  0  0  0  0  0  0  0  0  0
    0.8943   -3.1610    2.2419 H   0  0  0  0  0  0  0  0  0  0  0  0
   -2.1569   -3.1215    2.2900 H   0  0  0  0  0  0  0  0  0  0  0  0
   -1.1077   -4.1830    3.2513 H   0  0  0  0  0  0  0  0  0  0  0  0
   -1.0825   -2.4301    3.5314 H   0  0  0  0  0  0  0  0  0  0  0  0
    0.8527   -4.1551   -0.3580 N   0  0  0  0  0  0  0  0  0  0  0  0
    0.9027   -5.1157   -1.4507 C   0  0  0  0  0  0  0  0  0  0  0  0
    1.5340   -3.3918   -0.3217 H   0  0  0  0  0  0  0  0  0  0  0  0
    0.9734   -6.1364   -1.0606 H   0  0  0  0  0  0  0  0  0  0  0  0
    0.0039   -5.0356   -2.0708 H   0  0  0  0  0  0  0  0  0  0  0  0
    1.7771   -4.9248   -2.0801 H   0  0  0  0  0  0  0  0  0  0  0  0
  1  2  2  0  0  0  0
  1  3  1  0  0  0  0
  1  7  1  0  0  0  0
  3  4  1  0  0  0  0
  3  5  1  0  0  0  0
  3  6  1  0  0  0  0
  7  8  1  0  0  0  0
  7 12  1  0  0  0  0
  8  9  1  0  0  0  0
  8 11  1  0  0  0  0
  8 13  1  0  0  0  0
  9 10  2  0  0  0  0
  9 17  1  0  0  0  0
 11 14  1  0  0  0  0
 11 15  1  0  0  0  0
 11 16  1  0  0  0  0
 17 18  1  0  0  0  0
 17 28  1  0  0  0  0
 18 19  1  0  0  0  0
 18 21  1  0  0  0  0
 18 29  1  0  0  0  0
 19 20  2  0  0  0  0
 19 37  1  0  0  0  0
 21 22  1  0  0  0  0
 21 30  1  0  0  0  0
 21 31  1  0  0  0  0
 22 23  1  0  0  0  0
 22 24  2  0  0  0  0
 23 25  2  0  0  0  0
 23 32  1  0  0  0  0
 24 26  1  0  0  0  0
 24 33  1  0  0  0  0
 25 27  1  0  0  0  0
 25 34  1  0  0  0  0
 26 27  2  0  0  0  0
 26 35  1  0  0  0  0
 27 36  1  0  0  0  0
 37 38  1  0  0  0  0
 37 42  1  0  0  0  0
 38 39  1  0  0  0  0
 38 41  1  0  0  0  0
 38 43  1  0  0  0  0
 39 40  2  0  0  0  0
 39 47  1  0  0  0  0
 41 44  1  0  0  0  0
 41 45  1  0  0  0  0
 41 46  1  0  0  0  0
 47 48  1  0  0  0  0
 47 49  1  0  0  0  0
 48 50  1  0  0  0  0
 48 51  1  0  0  0  0
 48 52  1  0  0  0  0
M  END
$$$$

  -OEChem-05262217163D

 52 52  0     1  0  0  0  0  0999 V2000
   -3.0824   -0.0444    2.5441 C   0  0  0  0  0  0  0  0  0  0  0  0
   -2.8289   -0.1919    1.3556 O   0  0  0  0  0  0  0  0  0  0  0  0
   -3.9634   -1.0440    3.2693 C   0  0  0  0  0  0  0  0  0  0  0  0
   -4.2702   -1.8428    2.5881 H   0  0  0  0  0  0  0  0  0  0  0  0
   -3.4190   -1.4860    4.1073 H   0  0  0  0  0  0  0  0  0  0  0  0
   -4.8578   -0.5446    3.6497 H   0  0  0  0  0  0  0  0  0  0  0  0
   -2.5510    1.0282    3.2312 N   0  0  0  0  0  0  0  0  0  0  0  0
   -1.7281    2.0797    2.6151 C   0  0  2  0  0  0  0  0  0  0  0  0
   -0.3927    1.5433    2.0488 C   0  0  0  0  0  0  0  0  0  0  0  0
    0.5781    1.3825    2.7749 O   0  0  0  0  0  0  0  0  0  0  0  0
   -1.4979    3.1712    3.6667 C   0  0  0  0  0  0  0  0  0  0  0  0
   -2.6987    1.0556    4.2363 H   0  0  0  0  0  0  0  0  0  0  0  0
   -2.2840    2.5273    1.7844 H   0  0  0  0  0  0  0  0  0  0  0  0
   -0.9712    2.7666    4.5374 H   0  0  0  0  0  0  0  0  0  0  0  0
   -0.8939    3.9808    3.2448 H   0  0  0  0  0  0  0  0  0  0  0  0
   -2.4527    3.5897    3.9993 H   0  0  0  0  0  0  0  0  0  0  0  0
   -0.3542    1.1716    0.7166 N   0  0  0  0  0  0  0  0  0  0  0  0
    0.7276    0.4199    0.0512 C   0  0  2  0  0  0  0  0  0  0  0  0
    0.9329   -0.9679    0.7002 C   0  0  0  0  0  0  0  0  0  0  0  0
    2.0333   -1.5098    0.7278 O   0  0  0  0  0  0  0  0  0  0  0  0
    2.0329    1.2457   -0.0194 C   0  0  0  0  0  0  0  0  0  0  0  0
    1.8645    2.4366   -0.9318 C   0  0  0  0  0  0  0  0  0  0  0  0
    1.9725    2.2910   -2.3229 C   0  0  0  0  0  0  0  0  0  0  0  0
    1.5882    3.7029   -0.3970 C   0  0  0  0  0  0  0  0  0  0  0  0
    1.8048    3.3944   -3.1667 C   0  0  0  0  0  0  0  0  0  0  0  0
    1.4194    4.8073   -1.2391 C   0  0  0  0  0  0  0  0  0  0  0  0
    1.5264    4.6529   -2.6247 C   0  0  0  0  0  0  0  0  0  0  0  0
   -1.2702    1.1459    0.2698 H   0  0  0  0  0  0  0  0  0  0  0  0
    0.4136    0.2170   -0.9768 H   0  0  0  0  0  0  0  0  0  0  0  0
    2.8415    0.6236   -0.4164 H   0  0  0  0  0  0  0  0  0  0  0  0
    2.3462    1.5663    0.9782 H   0  0  0  0  0  0  0  0  0  0  0  0
    2.1922    1.3180   -2.7519 H   0  0  0  0  0  0  0  0  0  0  0  0
    1.5060    3.8269    0.6791 H   0  0  0  0  0  0  0  0  0  0  0  0
    1.8941    3.2740   -4.2424 H   0  0  0  0  0  0  0  0  0  0  0  0
    1.2087    5.7848   -0.8160 H   0  0  0  0  0  0  0  0  0  0  0  0
    1.3973    5.5101   -3.2788 H   0  0  0  0  0  0  0  0  0  0  0  0
   -0.1753   -1.7426    0.9985 N   0  0  0  0  0  0  0  0  0  0  0  0
   -0.1084   -3.1291    1.4863 C   0  0  2  0  0  0  0  0  0  0  0  0
    0.1075   -4.1483    0.3416 C   0  0  0  0  0  0  0  0  0  0  0  0
   -0.6892   -5.0532    0.1198 O   0  0  0  0  0  0  0  0  0  0  0  0
   -1.3823   -3.3966    2.2933 C   0  0  0  0  0  0  0  0  0  0  0  0
   -1.0883   -1.2863    0.9379 H   0  0  0  0  0  0  0  0  0  0  0  0
    0.7422   -3.2328    2.1685 H   0  0  0  0  0  0  0  0  0  0  0  0
   -2.2680   -3.2873    1.6593 H   0  0  0  0  0  0  0  0  0  0  0  0
   -1.3691   -4.4131    2.6992 H   0  0  0  0  0  0  0  0  0  0  0  0
   -1.4527   -2.6940    3.1280 H   0  0  0  0  0  0  0  0  0  0  0  0
    1.2402   -4.0440   -0.4408 N   0  0  0  0  0  0  0  0  0  0  0  0
    1.5616   -4.9381   -1.5439 C   0  0  0  0  0  0  0  0  0  0  0  0
    1.8668   -3.2650   -0.2203 H   0  0  0  0  0  0  0  0  0  0  0  0
    1.6347   -5.9717   -1.1901 H   0  0  0  0  0  0  0  0  0  0  0  0
    0.7900   -4.8830   -2.3186 H   0  0  0  0  0  0  0  0  0  0  0  0
    2.5207   -4.6567   -1.9891 H   0  0  0  0  0  0  0  0  0  0  0  0
  1  2  2  0  0  0  0
  1  3  1  0  0  0  0
  1  7  1  0  0  0  0
  3  4  1  0  0  0  0
  3  5  1  0  0  0  0
  3  6  1  0  0  0  0
  7  8  1  0  0  0  0
  7 12  1  0  0  0  0
  8  9  1  0  0  0  0
  8 11  1  0  0  0  0
  8 13  1  0  0  0  0
  9 10  2  0  0  0  0
  9 17  1  0  0  0  0
 11 14  1  0  0  0  0
 11 15  1  0  0  0  0
 11 16  1  0  0  0  0
 17 18  1  0  0  0  0
 17 28  1  0  0  0  0
 18 19  1  0  0  0  0
 18 21  1  0  0  0  0
 18 29  1  0  0  0  0
 19 20  2  0  0  0  0
 19 37  1  0  0  0  0
 21 22  1  0  0  0  0
 21 30  1  0  0  0  0
 21 31  1  0  0  0  0
 22 23  1  0  0  0  0
 22 24  2  0  0  0  0
 23 25  2  0  0  0  0
 23 32  1  0  0  0  0
 24 26  1  0  0  0  0
 24 33  1  0  0  0  0
 25 27  1  0  0  0  0
 25 34  1  0  0  0  0
 26 27  2  0  0  0  0
 26 35  1  0  0  0  0
 27 36  1  0  0  0  0
 37 38  1  0  0  0  0
 37 42  1  0  0  0  0
 38 39  1  0  0  0  0
 38 41  1  0  0  0  0
 38 43  1  0  0  0  0
 39 40  2  0  0  0  0
 39 47  1  0  0  0  0
 41 44  1  0  0  0  0
 41 45  1  0  0  0  0
 41 46  1  0  0  0  0
 47 48  1  0  0  0  0
 47 49  1  0  0  0  0
 48 50  1  0  0  0  0
 48 51  1  0  0  0  0
 48 52  1  0  0  0  0
M  END
$$$$

  -OEChem-05262217163D

 52 52  0     1  0  0  0  0  0999 V2000
   -3.0530   -0.0269    2.4904 C   0  0  0  0  0  0  0  0  0  0  0  0
   -2.8384   -0.0968    1.2867 O   0  0  0  0  0  0  0  0  0  0  0  0
   -3.9021   -1.0802    3.1767 C   0  0  0  0  0  0  0  0  0  0  0  0
   -4.2293   -1.8330    2.4538 H   0  0  0  0  0  0  0  0  0  0  0  0
   -3.3244   -1.5737    3.9621 H   0  0  0  0  0  0  0  0  0  0  0  0
   -4.7851   -0.6161    3.6230 H   0  0  0  0  0  0  0  0  0  0  0  0
   -2.5089    1.0024    3.2325 N   0  0  0  0  0  0  0  0  0  0  0  0
   -1.6899    2.0870    2.6712 C   0  0  2  0  0  0  0  0  0  0  0  0
   -0.3517    1.5808    2.0853 C   0  0  0  0  0  0  0  0  0  0  0  0
    0.6309    1.4307    2.7972 O   0  0  0  0  0  0  0  0  0  0  0  0
   -1.4699    3.1277    3.7750 C   0  0  0  0  0  0  0  0  0  0  0  0
   -2.6210    0.9560    4.2417 H   0  0  0  0  0  0  0  0  0  0  0  0
   -2.2442    2.5711    1.8603 H   0  0  0  0  0  0  0  0  0  0  0  0
   -0.9423    2.6843    4.6260 H   0  0  0  0  0  0  0  0  0  0  0  0
   -0.8706    3.9609    3.3943 H   0  0  0  0  0  0  0  0  0  0  0  0
   -2.4287    3.5225    4.1247 H   0  0  0  0  0  0  0  0  0  0  0  0
   -0.3349    1.2074    0.7544 N   0  0  0  0  0  0  0  0  0  0  0  0
    0.7188    0.4279    0.0797 C   0  0  2  0  0  0  0  0  0  0  0  0
    0.8831   -0.9608    0.7372 C   0  0  0  0  0  0  0  0  0  0  0  0
    1.9854   -1.4451    0.9724 O   0  0  0  0  0  0  0  0  0  0  0  0
    2.0459    1.2151   -0.0091 C   0  0  0  0  0  0  0  0  0  0  0  0
    1.8985    2.4073   -0.9240 C   0  0  0  0  0  0  0  0  0  0  0  0
    1.9843    2.2539   -2.3158 C   0  0  0  0  0  0  0  0  0  0  0  0
    1.6629    3.6827   -0.3908 C   0  0  0  0  0  0  0  0  0  0  0  0
    1.8371    3.3589   -3.1613 C   0  0  0  0  0  0  0  0  0  0  0  0
    1.5143    4.7887   -1.2349 C   0  0  0  0  0  0  0  0  0  0  0  0
    1.6009    4.6268   -2.6212 C   0  0  0  0  0  0  0  0  0  0  0  0
   -1.2637    1.1715    0.3339 H   0  0  0  0  0  0  0  0  0  0  0  0
    0.3918    0.2326   -0.9456 H   0  0  0  0  0  0  0  0  0  0  0  0
    2.8307    0.5668   -0.4119 H   0  0  0  0  0  0  0  0  0  0  0  0
    2.3809    1.5304    0.9832 H   0  0  0  0  0  0  0  0  0  0  0  0
    2.1691    1.2734   -2.7441 H   0  0  0  0  0  0  0  0  0  0  0  0
    1.5954    3.8122    0.6858 H   0  0  0  0  0  0  0  0  0  0  0  0
    1.9088    3.2318   -4.2374 H   0  0  0  0  0  0  0  0  0  0  0  0
    1.3345    5.7730   -0.8128 H   0  0  0  0  0  0  0  0  0  0  0  0
    1.4883    5.4848   -3.2775 H   0  0  0  0  0  0  0  0  0  0  0  0
   -0.2104   -1.8096    0.7546 N   0  0  0  0  0  0  0  0  0  0  0  0
   -0.1569   -3.2242    1.1550 C   0  0  2  0  0  0  0  0  0  0  0  0
    0.3714   -4.1373    0.0217 C   0  0  0  0  0  0  0  0  0  0  0  0
   -0.3050   -5.0458   -0.4467 O   0  0  0  0  0  0  0  0  0  0  0  0
   -1.5563   -3.6220    1.6364 C   0  0  0  0  0  0  0  0  0  0  0  0
   -1.1231   -1.3852    0.5826 H   0  0  0  0  0  0  0  0  0  0  0  0
    0.5291   -3.3369    2.0012 H   0  0  0  0  0  0  0  0  0  0  0  0
   -2.2903   -3.4983    0.8335 H   0  0  0  0  0  0  0  0  0  0  0  0
   -1.5650   -4.6689    1.9562 H   0  0  0  0  0  0  0  0  0  0  0  0
   -1.8528   -3.0020    2.4858 H   0  0  0  0  0  0  0  0  0  0  0  0
    1.6451   -3.9282   -0.4684 N   0  0  0  0  0  0  0  0  0  0  0  0
    2.2510   -4.7080   -1.5381 C   0  0  0  0  0  0  0  0  0  0  0  0
    2.1589   -3.1414   -0.0615 H   0  0  0  0  0  0  0  0  0  0  0  0
    2.3229   -5.7616   -1.2496 H   0  0  0  0  0  0  0  0  0  0  0  0
    1.6545   -4.6323   -2.4531 H   0  0  0  0  0  0  0  0  0  0  0  0
    3.2586   -4.3378   -1.7500 H   0  0  0  0  0  0  0  0  0  0  0  0
  1  2  2  0  0  0  0
  1  3  1  0  0  0  0
  1  7  1  0  0  0  0
  3  4  1  0  0  0  0
  3  5  1  0  0  0  0
  3  6  1  0  0  0  0
  7  8  1  0  0  0  0
  7 12  1  0  0  0  0
  8  9  1  0  0  0  0
  8 11  1  0  0  0  0
  8 13  1  0  0  0  0
  9 10  2  0  0  0  0
  9 17  1  0  0  0  0
 11 14  1  0  0  0  0
 11 15  1  0  0  0  0
 11 16  1  0  0  0  0
 17 18  1  0  0  0  0
 17 28  1  0  0  0  0
 18 19  1  0  0  0  0
 18 21  1  0  0  0  0
 18 29  1  0  0  0  0
 19 20  2  0  0  0  0
 19 37  1  0  0  0  0
 21 22  1  0  0  0  0
 21 30  1  0  0  0  0
 21 31  1  0  0  0  0
 22 23  1  0  0  0  0
 22 24  2  0  0  0  0
 23 25  2  0  0  0  0
 23 32  1  0  0  0  0
 24 26  1  0  0  0  0
 24 33  1  0  0  0  0
 25 27  1  0  0  0  0
 25 34  1  0  0  0  0
 26 27  2  0  0  0  0
 26 35  1  0  0  0  0
 27 36  1  0  0  0  0
 37 38  1  0  0  0  0
 37 42  1  0  0  0  0
 38 39  1  0  0  0  0
 38 41  1  0  0  0  0
 38 43  1  0  0  0  0
 39 40  2  0  0  0  0
 39 47  1  0  0  0  0
 41 44  1  0  0  0  0
 41 45  1  0  0  0  0
 41 46  1  0  0  0  0
 47 48  1  0  0  0  0
 47 49  1  0  0  0  0
 48 50  1  0  0  0  0
 48 51  1  0  0  0  0
 48 52  1  0  0  0  0
M  END
$$$$

  -OEChem-05262217163D

 52 52  0     1  0  0  0  0  0999 V2000
   -3.0419    0.1060    2.3787 C   0  0  0  0  0  0  0  0  0  0  0  0
   -2.9570    0.2976    1.1730 O   0  0  0  0  0  0  0  0  0  0  0  0
   -3.8497   -1.0633    2.9080 C   0  0  0  0  0  0  0  0  0  0  0  0
   -4.2436   -1.6573    2.0783 H   0  0  0  0  0  0  0  0  0  0  0  0
   -3.2197   -1.7027    3.5313 H   0  0  0  0  0  0  0  0  0  0  0  0
   -4.6877   -0.6974    3.5061 H   0  0  0  0  0  0  0  0  0  0  0  0
   -2.3654    0.9284    3.2575 N   0  0  0  0  0  0  0  0  0  0  0  0
   -1.5144    2.0568    2.8487 C   0  0  2  0  0  0  0  0  0  0  0  0
   -0.2200    1.5863    2.1451 C   0  0  0  0  0  0  0  0  0  0  0  0
    0.8159    1.4250    2.7734 O   0  0  0  0  0  0  0  0  0  0  0  0
   -1.2251    2.8976    4.0981 C   0  0  0  0  0  0  0  0  0  0  0  0
   -2.3607    0.6548    4.2366 H   0  0  0  0  0  0  0  0  0  0  0  0
   -2.0629    2.6882    2.1411 H   0  0  0  0  0  0  0  0  0  0  0  0
   -0.7011    2.3023    4.8532 H   0  0  0  0  0  0  0  0  0  0  0  0
   -0.5968    3.7559    3.8394 H   0  0  0  0  0  0  0  0  0  0  0  0
   -2.1580    3.2700    4.5319 H   0  0  0  0  0  0  0  0  0  0  0  0
   -0.3070    1.2536    0.8059 N   0  0  0  0  0  0  0  0  0  0  0  0
    0.6692    0.4668    0.0298 C   0  0  2  0  0  0  0  0  0  0  0  0
    0.8343   -0.9460    0.6326 C   0  0  0  0  0  0  0  0  0  0  0  0
    1.9051   -1.3631    1.0601 O   0  0  0  0  0  0  0  0  0  0  0  0
    2.0173    1.2048   -0.1262 C   0  0  0  0  0  0  0  0  0  0  0  0
    1.8573    2.4369   -0.9840 C   0  0  0  0  0  0  0  0  0  0  0  0
    1.8388    2.3382   -2.3833 C   0  0  0  0  0  0  0  0  0  0  0  0
    1.7121    3.6970   -0.3862 C   0  0  0  0  0  0  0  0  0  0  0  0
    1.6781    3.4825   -3.1724 C   0  0  0  0  0  0  0  0  0  0  0  0
    1.5512    4.8422   -1.1736 C   0  0  0  0  0  0  0  0  0  0  0  0
    1.5342    4.7351   -2.5677 C   0  0  0  0  0  0  0  0  0  0  0  0
   -1.2700    1.2441    0.4625 H   0  0  0  0  0  0  0  0  0  0  0  0
    0.2667    0.3228   -0.9767 H   0  0  0  0  0  0  0  0  0  0  0  0
    2.7413    0.5383   -0.6061 H   0  0  0  0  0  0  0  0  0  0  0  0
    2.4349    1.4684    0.8498 H   0  0  0  0  0  0  0  0  0  0  0  0
    1.9536    1.3704   -2.8619 H   0  0  0  0  0  0  0  0  0  0  0  0
    1.7251    3.7834    0.6968 H   0  0  0  0  0  0  0  0  0  0  0  0
    1.6681    3.3985   -4.2550 H   0  0  0  0  0  0  0  0  0  0  0  0
    1.4427    5.8139   -0.7012 H   0  0  0  0  0  0  0  0  0  0  0  0
    1.4123    5.6238   -3.1798 H   0  0  0  0  0  0  0  0  0  0  0  0
   -0.1773   -1.8674    0.4251 N   0  0  0  0  0  0  0  0  0  0  0  0
   -0.1147   -3.2763    0.8445 C   0  0  2  0  0  0  0  0  0  0  0  0
    0.6878   -4.1564   -0.1447 C   0  0  0  0  0  0  0  0  0  0  0  0
    0.1740   -5.1030   -0.7296 O   0  0  0  0  0  0  0  0  0  0  0  0
   -1.5566   -3.7610    1.0371 C   0  0  0  0  0  0  0  0  0  0  0  0
   -1.0585   -1.5076    0.0647 H   0  0  0  0  0  0  0  0  0  0  0  0
    0.3914   -3.3448    1.8137 H   0  0  0  0  0  0  0  0  0  0  0  0
   -2.1095   -3.7112    0.0935 H   0  0  0  0  0  0  0  0  0  0  0  0
   -1.5641   -4.7979    1.3886 H   0  0  0  0  0  0  0  0  0  0  0  0
   -2.0696   -3.1433    1.7786 H   0  0  0  0  0  0  0  0  0  0  0  0
    2.0200   -3.8730   -0.3682 N   0  0  0  0  0  0  0  0  0  0  0  0
    2.8727   -4.6174   -1.2839 C   0  0  0  0  0  0  0  0  0  0  0  0
    2.3917   -3.0496    0.1143 H   0  0  0  0  0  0  0  0  0  0  0  0
    2.9144   -5.6727   -0.9950 H   0  0  0  0  0  0  0  0  0  0  0  0
    2.4895   -4.5461   -2.3070 H   0  0  0  0  0  0  0  0  0  0  0  0
    3.8896   -4.2135   -1.2643 H   0  0  0  0  0  0  0  0  0  0  0  0
  1  2  2  0  0  0  0
  1  3  1  0  0  0  0
  1  7  1  0  0  0  0
  3  4  1  0  0  0  0
  3  5  1  0  0  0  0
  3  6  1  0  0  0  0
  7  8  1  0  0  0  0
  7 12  1  0  0  0  0
  8  9  1  0  0  0  0
  8 11  1  0  0  0  0
  8 13  1  0  0  0  0
  9 10  2  0  0  0  0
  9 17  1  0  0  0  0
 11 14  1  0  0  0  0
 11 15  1  0  0  0  0
 11 16  1  0  0  0  0
 17 18  1  0  0  0  0
 17 28  1  0  0  0  0
 18 19  1  0  0  0  0
 18 21  1  0  0  0  0
 18 29  1  0  0  0  0
 19 20  2  0  0  0  0
 19 37  1  0  0  0  0
 21 22  1  0  0  0  0
 21 30  1  0  0  0  0
 21 31  1  0  0  0  0
 22 23  1  0  0  0  0
 22 24  2  0  0  0  0
 23 25  2  0  0  0  0
 23 32  1  0  0  0  0
 24 26  1  0  0  0  0
 24 33  1  0  0  0  0
 25 27  1  0  0  0  0
 25 34  1  0  0  0  0
 26 27  2  0  0  0  0
 26 35  1  0  0  0  0
 27 36  1  0  0  0  0
 37 38  1  0  0  0  0
 37 42  1  0  0  0  0
 38 39  1  0  0  0  0
 38 41  1  0  0  0  0
 38 43  1  0  0  0  0
 39 40  2  0  0  0  0
 39 47  1  0  0  0  0
 41 44  1  0  0  0  0
 41 45  1  0  0  0  0
 41 46  1  0  0  0  0
 47 48  1  0  0  0  0
 47 49  1  0  0  0  0
 48 50  1  0  0  0  0
 48 51  1  0  0  0  0
 48 52  1  0  0  0  0
M  END
$$$$

  -OEChem-05262217163D

 52 52  0     1  0  0  0  0  0999 V2000
   -3.1638    0.3657    2.3022 C   0  0  0  0  0  0  0  0  0  0  0  0
   -3.0916    0.7319    1.1374 O   0  0  0  0  0  0  0  0  0  0  0  0
   -4.0671   -0.7920    2.6821 C   0  0  0  0  0  0  0  0  0  0  0  0
   -4.5639   -1.1909    1.7932 H   0  0  0  0  0  0  0  0  0  0  0  0
   -3.4802   -1.5897    3.1439 H   0  0  0  0  0  0  0  0  0  0  0  0
   -4.8290   -0.4541    3.3889 H   0  0  0  0  0  0  0  0  0  0  0  0
   -2.3743    0.9697    3.2599 N   0  0  0  0  0  0  0  0  0  0  0  0
   -1.4152    2.0491    2.9770 C   0  0  2  0  0  0  0  0  0  0  0  0
   -0.1589    1.5307    2.2370 C   0  0  0  0  0  0  0  0  0  0  0  0
    0.8952    1.3570    2.8299 O   0  0  0  0  0  0  0  0  0  0  0  0
   -1.0800    2.7313    4.3090 C   0  0  0  0  0  0  0  0  0  0  0  0
   -2.3718    0.5559    4.1886 H   0  0  0  0  0  0  0  0  0  0  0  0
   -1.8881    2.7977    2.3321 H   0  0  0  0  0  0  0  0  0  0  0  0
   -0.6173    2.0210    5.0021 H   0  0  0  0  0  0  0  0  0  0  0  0
   -0.3813    3.5582    4.1456 H   0  0  0  0  0  0  0  0  0  0  0  0
   -1.9870    3.1324    4.7716 H   0  0  0  0  0  0  0  0  0  0  0  0
   -0.2909    1.2100    0.8981 N   0  0  0  0  0  0  0  0  0  0  0  0
    0.6501    0.4322    0.0696 C   0  0  2  0  0  0  0  0  0  0  0  0
    0.8537   -0.9956    0.6246 C   0  0  0  0  0  0  0  0  0  0  0  0
    1.8607   -1.3346    1.2354 O   0  0  0  0  0  0  0  0  0  0  0  0
    1.9945    1.1674   -0.1218 C   0  0  0  0  0  0  0  0  0  0  0  0
    1.8114    2.4173   -0.9483 C   0  0  0  0  0  0  0  0  0  0  0  0
    1.7419    2.3465   -2.3478 C   0  0  0  0  0  0  0  0  0  0  0  0
    1.6947    3.6658   -0.3210 C   0  0  0  0  0  0  0  0  0  0  0  0
    1.5581    3.5070   -3.1077 C   0  0  0  0  0  0  0  0  0  0  0  0
    1.5113    4.8273   -1.0790 C   0  0  0  0  0  0  0  0  0  0  0  0
    1.4427    4.7479   -2.4734 C   0  0  0  0  0  0  0  0  0  0  0  0
   -1.2570    1.2682    0.5649 H   0  0  0  0  0  0  0  0  0  0  0  0
    0.2071    0.3176   -0.9235 H   0  0  0  0  0  0  0  0  0  0  0  0
    2.6985    0.5062   -0.6377 H   0  0  0  0  0  0  0  0  0  0  0  0
    2.4468    1.4113    0.8441 H   0  0  0  0  0  0  0  0  0  0  0  0
    1.8348    1.3884   -2.8501 H   0  0  0  0  0  0  0  0  0  0  0  0
    1.7465    3.7308    0.7624 H   0  0  0  0  0  0  0  0  0  0  0  0
    1.5076    3.4442   -4.1908 H   0  0  0  0  0  0  0  0  0  0  0  0
    1.4245    5.7896   -0.5836 H   0  0  0  0  0  0  0  0  0  0  0  0
    1.3016    5.6490   -3.0630 H   0  0  0  0  0  0  0  0  0  0  0  0
    0.0108   -2.0009    0.1846 N   0  0  0  0  0  0  0  0  0  0  0  0
    0.1411   -3.4167    0.5621 C   0  0  2  0  0  0  0  0  0  0  0  0
    1.1860   -4.1636   -0.3014 C   0  0  0  0  0  0  0  0  0  0  0  0
    0.8819   -5.1334   -0.9860 O   0  0  0  0  0  0  0  0  0  0  0  0
   -1.2577   -4.0407    0.4859 C   0  0  0  0  0  0  0  0  0  0  0  0
   -0.7882   -1.7231   -0.3784 H   0  0  0  0  0  0  0  0  0  0  0  0
    0.4790   -3.4874    1.6018 H   0  0  0  0  0  0  0  0  0  0  0  0
   -1.6384   -4.0097   -0.5400 H   0  0  0  0  0  0  0  0  0  0  0  0
   -1.2236   -5.0857    0.8108 H   0  0  0  0  0  0  0  0  0  0  0  0
   -1.9528   -3.5005    1.1358 H   0  0  0  0  0  0  0  0  0  0  0  0
    2.4944   -3.7239   -0.3003 N   0  0  0  0  0  0  0  0  0  0  0  0
    3.5659   -4.3449   -1.0659 C   0  0  0  0  0  0  0  0  0  0  0  0
    2.6937   -2.9019    0.2772 H   0  0  0  0  0  0  0  0  0  0  0  0
    3.7091   -5.3831   -0.7489 H   0  0  0  0  0  0  0  0  0  0  0  0
    3.3314   -4.3315   -2.1353 H   0  0  0  0  0  0  0  0  0  0  0  0
    4.5034   -3.8025   -0.9109 H   0  0  0  0  0  0  0  0  0  0  0  0
  1  2  2  0  0  0  0
  1  3  1  0  0  0  0
  1  7  1  0  0  0  0
  3  4  1  0  0  0  0
  3  5  1  0  0  0  0
  3  6  1  0  0  0  0
  7  8  1  0  0  0  0
  7 12  1  0  0  0  0
  8  9  1  0  0  0  0
  8 11  1  0  0  0  0
  8 13  1  0  0  0  0
  9 10  2  0  0  0  0
  9 17  1  0  0  0  0
 11 14  1  0  0  0  0
 11 15  1  0  0  0  0
 11 16  1  0  0  0  0
 17 18  1  0  0  0  0
 17 28  1  0  0  0  0
 18 19  1  0  0  0  0
 18 21  1  0  0  0  0
 18 29  1  0  0  0  0
 19 20  2  0  0  0  0
 19 37  1  0  0  0  0
 21 22  1  0  0  0  0
 21 30  1  0  0  0  0
 21 31  1  0  0  0  0
 22 23  1  0  0  0  0
 22 24  2  0  0  0  0
 23 25  2  0  0  0  0
 23 32  1  0  0  0  0
 24 26  1  0  0  0  0
 24 33  1  0  0  0  0
 25 27  1  0  0  0  0
 25 34  1  0  0  0  0
 26 27  2  0  0  0  0
 26 35  1  0  0  0  0
 27 36  1  0  0  0  0
 37 38  1  0  0  0  0
 37 42  1  0  0  0  0
 38 39  1  0  0  0  0
 38 41  1  0  0  0  0
 38 43  1  0  0  0  0
 39 40  2  0  0  0  0
 39 47  1  0  0  0  0
 41 44  1  0  0  0  0
 41 45  1  0  0  0  0
 41 46  1  0  0  0  0
 47 48  1  0  0  0  0
 47 49  1  0  0  0  0
 48 50  1  0  0  0  0
 48 51  1  0  0  0  0
 48 52  1  0  0  0  0
M  END
$$$$

  -OEChem-05262217163D

 52 52  0     1  0  0  0  0  0999 V2000
   -3.5777    0.4999    3.7665 C   0  0  0  0  0  0  0  0  0  0  0  0
   -4.2964    0.3305    2.7935 O   0  0  0  0  0  0  0  0  0  0  0  0
   -3.8675   -0.2347    5.0617 C   0  0  0  0  0  0  0  0  0  0  0  0
   -4.7089   -0.9201    4.9266 H   0  0  0  0  0  0  0  0  0  0  0  0
   -2.9912   -0.8108    5.3688 H   0  0  0  0  0  0  0  0  0  0  0  0
   -4.1184    0.4816    5.8478 H   0  0  0  0  0  0  0  0  0  0  0  0
   -2.4884    1.3431    3.6894 N   0  0  0  0  0  0  0  0  0  0  0  0
   -1.9760    1.8715    2.4175 C   0  0  2  0  0  0  0  0  0  0  0  0
   -0.7669    1.0589    1.9120 C   0  0  0  0  0  0  0  0  0  0  0  0
    0.0341    0.6198    2.7240 O   0  0  0  0  0  0  0  0  0  0  0  0
   -1.5833    3.3335    2.6385 C   0  0  0  0  0  0  0  0  0  0  0  0
   -1.8107    1.2470    4.4428 H   0  0  0  0  0  0  0  0  0  0  0  0
   -2.7541    1.8405    1.6478 H   0  0  0  0  0  0  0  0  0  0  0  0
   -0.7866    3.4089    3.3858 H   0  0  0  0  0  0  0  0  0  0  0  0
   -1.2271    3.7782    1.7041 H   0  0  0  0  0  0  0  0  0  0  0  0
   -2.4466    3.9080    2.9884 H   0  0  0  0  0  0  0  0  0  0  0  0
   -0.5729    0.9024    0.5492 N   0  0  0  0  0  0  0  0  0  0  0  0
    0.5404    0.2004   -0.1245 C   0  0  2  0  0  0  0  0  0  0  0  0
    0.6558   -1.2996    0.2453 C   0  0  0  0  0  0  0  0  0  0  0  0
    1.3354   -1.6959    1.1843 O   0  0  0  0  0  0  0  0  0  0  0  0
    1.8788    0.9266    0.1282 C   0  0  0  0  0  0  0  0  0  0  0  0
    1.8877    2.2783   -0.5440 C   0  0  0  0  0  0  0  0  0  0  0  0
    2.1704    2.3978   -1.9129 C   0  0  0  0  0  0  0  0  0  0  0  0
    1.6046    3.4337    0.1986 C   0  0  0  0  0  0  0  0  0  0  0  0
    2.1604    3.6532   -2.5311 C   0  0  0  0  0  0  0  0  0  0  0  0
    1.5936    4.6894   -0.4177 C   0  0  0  0  0  0  0  0  0  0  0  0
    1.8699    4.7990   -1.7840 C   0  0  0  0  0  0  0  0  0  0  0  0
   -1.2597    1.3602   -0.0433 H   0  0  0  0  0  0  0  0  0  0  0  0
    0.3526    0.2340   -1.2009 H   0  0  0  0  0  0  0  0  0  0  0  0
    2.7008    0.3260   -0.2750 H   0  0  0  0  0  0  0  0  0  0  0  0
    2.0645    1.0317    1.2018 H   0  0  0  0  0  0  0  0  0  0  0  0
    2.4027    1.5152   -2.5013 H   0  0  0  0  0  0  0  0  0  0  0  0
    1.3966    3.3538    1.2620 H   0  0  0  0  0  0  0  0  0  0  0  0
    2.3826    3.7387   -3.5910 H   0  0  0  0  0  0  0  0  0  0  0  0
    1.3762    5.5790    0.1662 H   0  0  0  0  0  0  0  0  0  0  0  0
    1.8656    5.7738   -2.2629 H   0  0  0  0  0  0  0  0  0  0  0  0
    0.2399   -2.2492   -0.6733 N   0  0  0  0  0  0  0  0  0  0  0  0
    0.4301   -3.6996   -0.5117 C   0  0  2  0  0  0  0  0  0  0  0  0
    1.8606   -4.1516   -0.8941 C   0  0  0  0  0  0  0  0  0  0  0  0
    2.0698   -4.8882   -1.8509 O   0  0  0  0  0  0  0  0  0  0  0  0
   -0.6581   -4.3993   -1.3358 C   0  0  0  0  0  0  0  0  0  0  0  0
   -0.2331   -1.9197   -1.5090 H   0  0  0  0  0  0  0  0  0  0  0  0
    0.2772   -3.9728    0.5380 H   0  0  0  0  0  0  0  0  0  0  0  0
   -0.5507   -4.1626   -2.3993 H   0  0  0  0  0  0  0  0  0  0  0  0
   -0.5850   -5.4848   -1.2152 H   0  0  0  0  0  0  0  0  0  0  0  0
   -1.6513   -4.0823   -1.0034 H   0  0  0  0  0  0  0  0  0  0  0  0
    2.9300   -3.6943   -0.1503 N   0  0  0  0  0  0  0  0  0  0  0  0
    4.3228   -4.0024   -0.4431 C   0  0  0  0  0  0  0  0  0  0  0  0
    2.7065   -3.0191    0.5872 H   0  0  0  0  0  0  0  0  0  0  0  0
    4.4885   -5.0845   -0.4207 H   0  0  0  0  0  0  0  0  0  0  0  0
    4.5991   -3.6228   -1.4321 H   0  0  0  0  0  0  0  0  0  0  0  0
    4.9762   -3.5380    0.3018 H   0  0  0  0  0  0  0  0  0  0  0  0
  1  2  2  0  0  0  0
  1  3  1  0  0  0  0
  1  7  1  0  0  0  0
  3  4  1  0  0  0  0
  3  5  1  0  0  0  0
  3  6  1  0  0  0  0
  7  8  1  0  0  0  0
  7 12  1  0  0  0  0
  8  9  1  0  0  0  0
  8 11  1  0  0  0  0
  8 13  1  0  0  0  0
  9 10  2  0  0  0  0
  9 17  1  0  0  0  0
 11 14  1  0  0  0  0
 11 15  1  0  0  0  0
 11 16  1  0  0  0  0
 17 18  1  0  0  0  0
 17 28  1  0  0  0  0
 18 19  1  0  0  0  0
 18 21  1  0  0  0  0
 18 29  1  0  0  0  0
 19 20  2  0  0  0  0
 19 37  1  0  0  0  0
 21 22  1  0  0  0  0
 21 30  1  0  0  0  0
 21 31  1  0  0  0  0
 22 23  1  0  0  0  0
 22 24  2  0  0  0  0
 23 25  2  0  0  0  0
 23 32  1  0  0  0  0
 24 26  1  0  0  0  0
 24 33  1  0  0  0  0
 25 27  1  0  0  0  0
 25 34  1  0  0  0  0
 26 27  2  0  0  0  0
 26 35  1  0  0  0  0
 27 36  1  0  0  0  0
 37 38  1  0  0  0  0
 37 42  1  0  0  0  0
 38 39  1  0  0  0  0
 38 41  1  0  0  0  0
 38 43  1  0  0  0  0
 39 40  2  0  0  0  0
 39 47  1  0  0  0  0
 41 44  1  0  0  0  0
 41 45  1  0  0  0  0
 41 46  1  0  0  0  0
 47 48  1  0  0  0  0
 47 49  1  0  0  0  0
 48 50  1  0  0  0  0
 48 51  1  0  0  0  0
 48 52  1  0  0  0  0
M  END
$$$$

  -OEChem-05262217163D

 52 52  0     1  0  0  0  0  0999 V2000
   -3.5210    0.5006    4.0960 C   0  0  0  0  0  0  0  0  0  0  0  0
   -4.4844    0.4848    3.3457 O   0  0  0  0  0  0  0  0  0  0  0  0
   -3.5961   -0.1914    5.4438 C   0  0  0  0  0  0  0  0  0  0  0  0
   -4.5783   -0.6535    5.5764 H   0  0  0  0  0  0  0  0  0  0  0  0
   -2.8301   -0.9682    5.5074 H   0  0  0  0  0  0  0  0  0  0  0  0
   -3.4367    0.5340    6.2450 H   0  0  0  0  0  0  0  0  0  0  0  0
   -2.3562    1.1353    3.7193 N   0  0  0  0  0  0  0  0  0  0  0  0
   -2.0796    1.5976    2.3527 C   0  0  2  0  0  0  0  0  0  0  0  0
   -0.7470    1.0249    1.8301 C   0  0  0  0  0  0  0  0  0  0  0  0
    0.1257    0.7322    2.6361 O   0  0  0  0  0  0  0  0  0  0  0  0
   -2.0380    3.1273    2.3666 C   0  0  0  0  0  0  0  0  0  0  0  0
   -1.5386    0.9535    4.3009 H   0  0  0  0  0  0  0  0  0  0  0  0
   -2.8689    1.2695    1.6683 H   0  0  0  0  0  0  0  0  0  0  0  0
   -1.2489    3.4835    3.0367 H   0  0  0  0  0  0  0  0  0  0  0  0
   -1.8427    3.5145    1.3620 H   0  0  0  0  0  0  0  0  0  0  0  0
   -2.9963    3.5281    2.7118 H   0  0  0  0  0  0  0  0  0  0  0  0
   -0.5378    0.9374    0.4621 N   0  0  0  0  0  0  0  0  0  0  0  0
    0.5786    0.2640   -0.2383 C   0  0  2  0  0  0  0  0  0  0  0  0
    0.6889   -1.2544    0.0434 C   0  0  0  0  0  0  0  0  0  0  0  0
    0.9754   -1.7111    1.1415 O   0  0  0  0  0  0  0  0  0  0  0  0
    1.9283    0.9471    0.0611 C   0  0  0  0  0  0  0  0  0  0  0  0
    1.9652    2.3339   -0.5341 C   0  0  0  0  0  0  0  0  0  0  0  0
    2.2573    2.5275   -1.8927 C   0  0  0  0  0  0  0  0  0  0  0  0
    1.6856    3.4481    0.2702 C   0  0  0  0  0  0  0  0  0  0  0  0
    2.2650    3.8160   -2.4387 C   0  0  0  0  0  0  0  0  0  0  0  0
    1.6936    4.7368   -0.2738 C   0  0  0  0  0  0  0  0  0  0  0  0
    1.9820    4.9210   -1.6295 C   0  0  0  0  0  0  0  0  0  0  0  0
   -1.3117    1.2606   -0.1107 H   0  0  0  0  0  0  0  0  0  0  0  0
    0.3961    0.3646   -1.3114 H   0  0  0  0  0  0  0  0  0  0  0  0
    2.7395    0.3554   -0.3760 H   0  0  0  0  0  0  0  0  0  0  0  0
    2.1185    0.9856    1.1379 H   0  0  0  0  0  0  0  0  0  0  0  0
    2.4852    1.6777   -2.5289 H   0  0  0  0  0  0  0  0  0  0  0  0
    1.4601    3.3090    1.3243 H   0  0  0  0  0  0  0  0  0  0  0  0
    2.4954    3.9597   -3.4904 H   0  0  0  0  0  0  0  0  0  0  0  0
    1.4788    5.5935    0.3583 H   0  0  0  0  0  0  0  0  0  0  0  0
    1.9909    5.9216   -2.0520 H   0  0  0  0  0  0  0  0  0  0  0  0
    0.5891   -2.1486   -1.0093 N   0  0  0  0  0  0  0  0  0  0  0  0
    0.7434   -3.6057   -0.8710 C   0  0  2  0  0  0  0  0  0  0  0  0
    2.2279   -4.0347   -0.7788 C   0  0  0  0  0  0  0  0  0  0  0  0
    2.7547   -4.7225   -1.6453 O   0  0  0  0  0  0  0  0  0  0  0  0
    0.0021   -4.2611   -2.0426 C   0  0  0  0  0  0  0  0  0  0  0  0
    0.4608   -1.7681   -1.9416 H   0  0  0  0  0  0  0  0  0  0  0  0
    0.2575   -3.9381    0.0527 H   0  0  0  0  0  0  0  0  0  0  0  0
    0.4481   -3.9649   -2.9975 H   0  0  0  0  0  0  0  0  0  0  0  0
    0.0554   -5.3513   -1.9597 H   0  0  0  0  0  0  0  0  0  0  0  0
   -1.0518   -3.9670   -2.0401 H   0  0  0  0  0  0  0  0  0  0  0  0
    2.9803   -3.6154    0.2998 N   0  0  0  0  0  0  0  0  0  0  0  0
    4.3898   -3.9279    0.4864 C   0  0  0  0  0  0  0  0  0  0  0  0
    2.5113   -2.9865    0.9587 H   0  0  0  0  0  0  0  0  0  0  0  0
    4.5378   -5.0118    0.5343 H   0  0  0  0  0  0  0  0  0  0  0  0
    4.9841   -3.5256   -0.3404 H   0  0  0  0  0  0  0  0  0  0  0  0
    4.7522   -3.4880    1.4204 H   0  0  0  0  0  0  0  0  0  0  0  0
  1  2  2  0  0  0  0
  1  3  1  0  0  0  0
  1  7  1  0  0  0  0
  3  4  1  0  0  0  0
  3  5  1  0  0  0  0
  3  6  1  0  0  0  0
  7  8  1  0  0  0  0
  7 12  1  0  0  0  0
  8  9  1  0  0  0  0
  8 11  1  0  0  0  0
  8 13  1  0  0  0  0
  9 10  2  0  0  0  0
  9 17  1  0  0  0  0
 11 14  1  0  0  0  0
 11 15  1  0  0  0  0
 11 16  1  0  0  0  0
 17 18  1  0  0  0  0
 17 28  1  0  0  0  0
 18 19  1  0  0  0  0
 18 21  1  0  0  0  0
 18 29  1  0  0  0  0
 19 20  2  0  0  0  0
 19 37  1  0  0  0  0
 21 22  1  0  0  0  0
 21 30  1  0  0  0  0
 21 31  1  0  0  0  0
 22 23  1  0  0  0  0
 22 24  2  0  0  0  0
 23 25  2  0  0  0  0
 23 32  1  0  0  0  0
 24 26  1  0  0  0  0
 24 33  1  0  0  0  0
 25 27  1  0  0  0  0
 25 34  1  0  0  0  0
 26 27  2  0  0  0  0
 26 35  1  0  0  0  0
 27 36  1  0  0  0  0
 37 38  1  0  0  0  0
 37 42  1  0  0  0  0
 38 39  1  0  0  0  0
 38 41  1  0  0  0  0
 38 43  1  0  0  0  0
 39 40  2  0  0  0  0
 39 47  1  0  0  0  0
 41 44  1  0  0  0  0
 41 45  1  0  0  0  0
 41 46  1  0  0  0  0
 47 48  1  0  0  0  0
 47 49  1  0  0  0  0
 48 50  1  0  0  0  0
 48 51  1  0  0  0  0
 48 52  1  0  0  0  0
M  END
$$$$

  -OEChem-05262217163D

 52 52  0     1  0  0  0  0  0999 V2000
   -3.4237    0.4636    4.2700 C   0  0  0  0  0  0  0  0  0  0  0  0
   -4.4604    0.5679    3.6328 O   0  0  0  0  0  0  0  0  0  0  0  0
   -3.4376   -0.1620    5.6520 C   0  0  0  0  0  0  0  0  0  0  0  0
   -4.4508   -0.4818    5.9113 H   0  0  0  0  0  0  0  0  0  0  0  0
   -2.7771   -1.0323    5.6743 H   0  0  0  0  0  0  0  0  0  0  0  0
   -3.0967    0.5646    6.3934 H   0  0  0  0  0  0  0  0  0  0  0  0
   -2.2359    0.9102    3.7316 N   0  0  0  0  0  0  0  0  0  0  0  0
   -2.0759    1.3636    2.3447 C   0  0  2  0  0  0  0  0  0  0  0  0
   -0.6875    0.9912    1.7860 C   0  0  0  0  0  0  0  0  0  0  0  0
    0.2349    0.7941    2.5679 O   0  0  0  0  0  0  0  0  0  0  0  0
   -2.2817    2.8807    2.3047 C   0  0  0  0  0  0  0  0  0  0  0  0
   -1.3793    0.6857    4.2376 H   0  0  0  0  0  0  0  0  0  0  0  0
   -2.8248    0.8785    1.7096 H   0  0  0  0  0  0  0  0  0  0  0  0
   -1.5383    3.3828    2.9321 H   0  0  0  0  0  0  0  0  0  0  0  0
   -2.1850    3.2559    1.2814 H   0  0  0  0  0  0  0  0  0  0  0  0
   -3.2801    3.1375    2.6733 H   0  0  0  0  0  0  0  0  0  0  0  0
   -0.4920    0.9643    0.4125 N   0  0  0  0  0  0  0  0  0  0  0  0
    0.6370    0.3289   -0.3047 C   0  0  2  0  0  0  0  0  0  0  0  0
    0.7750   -1.1973   -0.0797 C   0  0  0  0  0  0  0  0  0  0  0  0
    0.5944   -1.7343    1.0048 O   0  0  0  0  0  0  0  0  0  0  0  0
    1.9841    1.0186   -0.0056 C   0  0  0  0  0  0  0  0  0  0  0  0
    2.0042    2.4176   -0.5730 C   0  0  0  0  0  0  0  0  0  0  0  0
    2.2817    2.6415   -1.9305 C   0  0  0  0  0  0  0  0  0  0  0  0
    1.7167    3.5127    0.2544 C   0  0  0  0  0  0  0  0  0  0  0  0
    2.2730    3.9408   -2.4506 C   0  0  0  0  0  0  0  0  0  0  0  0
    1.7075    4.8121   -0.2640 C   0  0  0  0  0  0  0  0  0  0  0  0
    1.9850    5.0264   -1.6175 C   0  0  0  0  0  0  0  0  0  0  0  0
   -1.3223    1.1689   -0.1350 H   0  0  0  0  0  0  0  0  0  0  0  0
    0.4400    0.4580   -1.3725 H   0  0  0  0  0  0  0  0  0  0  0  0
    2.7960    0.4445   -0.4639 H   0  0  0  0  0  0  0  0  0  0  0  0
    2.1881    1.0377    1.0687 H   0  0  0  0  0  0  0  0  0  0  0  0
    2.5129    1.8083   -2.5868 H   0  0  0  0  0  0  0  0  0  0  0  0
    1.4966    3.3500    1.3065 H   0  0  0  0  0  0  0  0  0  0  0  0
    2.4939    4.1082   -3.5009 H   0  0  0  0  0  0  0  0  0  0  0  0
    1.4863    5.6536    0.3863 H   0  0  0  0  0  0  0  0  0  0  0  0
    1.9803    6.0352   -2.0197 H   0  0  0  0  0  0  0  0  0  0  0  0
    1.0125   -2.0239   -1.1651 N   0  0  0  0  0  0  0  0  0  0  0  0
    1.1363   -3.4881   -1.0730 C   0  0  2  0  0  0  0  0  0  0  0  0
    2.5036   -3.9286   -0.4943 C   0  0  0  0  0  0  0  0  0  0  0  0
    3.3087   -4.5669   -1.1619 O   0  0  0  0  0  0  0  0  0  0  0  0
    0.8684   -4.0604   -2.4706 C   0  0  0  0  0  0  0  0  0  0  0  0
    1.2358   -1.5817   -2.0515 H   0  0  0  0  0  0  0  0  0  0  0  0
    0.3633   -3.8792   -0.4024 H   0  0  0  0  0  0  0  0  0  0  0  0
    1.6242   -3.7129   -3.1824 H   0  0  0  0  0  0  0  0  0  0  0  0
    0.8982   -5.1545   -2.4421 H   0  0  0  0  0  0  0  0  0  0  0  0
   -0.1188   -3.7518   -2.8273 H   0  0  0  0  0  0  0  0  0  0  0  0
    2.8366   -3.5659    0.7955 N   0  0  0  0  0  0  0  0  0  0  0  0
    4.1187   -3.8592    1.4206 C   0  0  0  0  0  0  0  0  0  0  0  0
    2.1606   -2.9739    1.2871 H   0  0  0  0  0  0  0  0  0  0  0  0
    4.2851   -4.9405    1.4649 H   0  0  0  0  0  0  0  0  0  0  0  0
    4.9348   -3.3992    0.8539 H   0  0  0  0  0  0  0  0  0  0  0  0
    4.1392   -3.4645    2.4409 H   0  0  0  0  0  0  0  0  0  0  0  0
  1  2  2  0  0  0  0
  1  3  1  0  0  0  0
  1  7  1  0  0  0  0
  3  4  1  0  0  0  0
  3  5  1  0  0  0  0
  3  6  1  0  0  0  0
  7  8  1  0  0  0  0
  7 12  1  0  0  0  0
  8  9  1  0  0  0  0
  8 11  1  0  0  0  0
  8 13  1  0  0  0  0
  9 10  2  0  0  0  0
  9 17  1  0  0  0  0
 11 14  1  0  0  0  0
 11 15  1  0  0  0  0
 11 16  1  0  0  0  0
 17 18  1  0  0  0  0
 17 28  1  0  0  0  0
 18 19  1  0  0  0  0
 18 21  1  0  0  0  0
 18 29  1  0  0  0  0
 19 20  2  0  0  0  0
 19 37  1  0  0  0  0
 21 22  1  0  0  0  0
 21 30  1  0  0  0  0
 21 31  1  0  0  0  0
 22 23  1  0  0  0  0
 22 24  2  0  0  0  0
 23 25  2  0  0  0  0
 23 32  1  0  0  0  0
 24 26  1  0  0  0  0
 24 33  1  0  0  0  0
 25 27  1  0  0  0  0
 25 34  1  0  0  0  0
 26 27  2  0  0  0  0
 26 35  1  0  0  0  0
 27 36  1  0  0  0  0
 37 38  1  0  0  0  0
 37 42  1  0  0  0  0
 38 39  1  0  0  0  0
 38 41  1  0  0  0  0
 38 43  1  0  0  0  0
 39 40  2  0  0  0  0
 39 47  1  0  0  0  0
 41 44  1  0  0  0  0
 41 45  1  0  0  0  0
 41 46  1  0  0  0  0
 47 48  1  0  0  0  0
 47 49  1  0  0  0  0
 48 50  1  0  0  0  0
 48 51  1  0  0  0  0
 48 52  1  0  0  0  0
M  END
$$$$

  -OEChem-05262217163D

 52 52  0     1  0  0  0  0  0999 V2000
   -3.3252    0.4315    4.3306 C   0  0  0  0  0  0  0  0  0  0  0  0
   -4.3842    0.5240    3.7294 O   0  0  0  0  0  0  0  0  0  0  0  0
   -3.2887   -0.1683    5.7237 C   0  0  0  0  0  0  0  0  0  0  0  0
   -4.2933   -0.4742    6.0291 H   0  0  0  0  0  0  0  0  0  0  0  0
   -2.6352   -1.0441    5.7351 H   0  0  0  0  0  0  0  0  0  0  0  0
   -2.9121    0.5681    6.4377 H   0  0  0  0  0  0  0  0  0  0  0  0
   -2.1571    0.8633    3.7402 N   0  0  0  0  0  0  0  0  0  0  0  0
   -2.0454    1.2726    2.3348 C   0  0  2  0  0  0  0  0  0  0  0  0
   -0.6530    0.9401    1.7601 C   0  0  0  0  0  0  0  0  0  0  0  0
    0.2774    0.7212    2.5290 O   0  0  0  0  0  0  0  0  0  0  0  0
   -2.3232    2.7761    2.2415 C   0  0  0  0  0  0  0  0  0  0  0  0
   -1.2837    0.6445    4.2193 H   0  0  0  0  0  0  0  0  0  0  0  0
   -2.7835    0.7298    1.7346 H   0  0  0  0  0  0  0  0  0  0  0  0
   -1.5966    3.3369    2.8381 H   0  0  0  0  0  0  0  0  0  0  0  0
   -2.2593    3.1167    1.2036 H   0  0  0  0  0  0  0  0  0  0  0  0
   -3.3277    2.9987    2.6157 H   0  0  0  0  0  0  0  0  0  0  0  0
   -0.4603    0.9507    0.3861 N   0  0  0  0  0  0  0  0  0  0  0  0
    0.6952    0.3641   -0.3293 C   0  0  2  0  0  0  0  0  0  0  0  0
    0.8813   -1.1600   -0.1259 C   0  0  0  0  0  0  0  0  0  0  0  0
    0.3541   -1.7774    0.7916 O   0  0  0  0  0  0  0  0  0  0  0  0
    2.0150    1.1033   -0.0226 C   0  0  0  0  0  0  0  0  0  0  0  0
    1.9772    2.5032   -0.5857 C   0  0  0  0  0  0  0  0  0  0  0  0
    2.2467    2.7402   -1.9425 C   0  0  0  0  0  0  0  0  0  0  0  0
    1.6454    3.5844    0.2434 C   0  0  0  0  0  0  0  0  0  0  0  0
    2.1812    4.0380   -2.4618 C   0  0  0  0  0  0  0  0  0  0  0  0
    1.5813    4.8824   -0.2740 C   0  0  0  0  0  0  0  0  0  0  0  0
    1.8475    5.1095   -1.6277 C   0  0  0  0  0  0  0  0  0  0  0  0
   -1.2995    1.1224   -0.1598 H   0  0  0  0  0  0  0  0  0  0  0  0
    0.4941    0.4917   -1.3966 H   0  0  0  0  0  0  0  0  0  0  0  0
    2.8520    0.5656   -0.4794 H   0  0  0  0  0  0  0  0  0  0  0  0
    2.2150    1.1287    1.0519 H   0  0  0  0  0  0  0  0  0  0  0  0
    2.5097    1.9179   -2.6003 H   0  0  0  0  0  0  0  0  0  0  0  0
    1.4326    3.4127    1.2954 H   0  0  0  0  0  0  0  0  0  0  0  0
    2.3915    4.2148   -3.5126 H   0  0  0  0  0  0  0  0  0  0  0  0
    1.3256    5.7132    0.3770 H   0  0  0  0  0  0  0  0  0  0  0  0
    1.7983    6.1175   -2.0297 H   0  0  0  0  0  0  0  0  0  0  0  0
    1.4575   -1.9087   -1.1383 N   0  0  0  0  0  0  0  0  0  0  0  0
    1.6044   -3.3732   -1.0979 C   0  0  2  0  0  0  0  0  0  0  0  0
    2.7281   -3.8278   -0.1340 C   0  0  0  0  0  0  0  0  0  0  0  0
    3.7362   -4.3918   -0.5425 O   0  0  0  0  0  0  0  0  0  0  0  0
    1.8252   -3.8512   -2.5387 C   0  0  0  0  0  0  0  0  0  0  0  0
    1.9424   -1.4024   -1.8731 H   0  0  0  0  0  0  0  0  0  0  0  0
    0.6733   -3.8250   -0.7383 H   0  0  0  0  0  0  0  0  0  0  0  0
    2.7477   -3.4285   -2.9493 H   0  0  0  0  0  0  0  0  0  0  0  0
    1.9033   -4.9428   -2.5670 H   0  0  0  0  0  0  0  0  0  0  0  0
    0.9869   -3.5491   -3.1737 H   0  0  0  0  0  0  0  0  0  0  0  0
    2.5995   -3.5705    1.2163 N   0  0  0  0  0  0  0  0  0  0  0  0
    3.6166   -3.8891    2.2084 C   0  0  0  0  0  0  0  0  0  0  0  0
    1.7817   -3.0201    1.4947 H   0  0  0  0  0  0  0  0  0  0  0  0
    3.8225   -4.9645    2.2143 H   0  0  0  0  0  0  0  0  0  0  0  0
    4.5460   -3.3528    1.9908 H   0  0  0  0  0  0  0  0  0  0  0  0
    3.2730   -3.5980    3.2056 H   0  0  0  0  0  0  0  0  0  0  0  0
  1  2  2  0  0  0  0
  1  3  1  0  0  0  0
  1  7  1  0  0  0  0
  3  4  1  0  0  0  0
  3  5  1  0  0  0  0
  3  6  1  0  0  0  0
  7  8  1  0  0  0  0
  7 12  1  0  0  0  0
  8  9  1  0  0  0  0
  8 11  1  0  0  0  0
  8 13  1  0  0  0  0
  9 10  2  0  0  0  0
  9 17  1  0  0  0  0
 11 14  1  0  0  0  0
 11 15  1  0  0  0  0
 11 16  1  0  0  0  0
 17 18  1  0  0  0  0
 17 28  1  0  0  0  0
 18 19  1  0  0  0  0
 18 21  1  0  0  0  0
 18 29  1  0  0  0  0
 19 20  2  0  0  0  0
 19 37  1  0  0  0  0
 21 22  1  0  0  0  0
 21 30  1  0  0  0  0
 21 31  1  0  0  0  0
 22 23  1  0  0  0  0
 22 24  2  0  0  0  0
 23 25  2  0  0  0  0
 23 32  1  0  0  0  0
 24 26  1  0  0  0  0
 24 33  1  0  0  0  0
 25 27  1  0  0  0  0
 25 34  1  0  0  0  0
 26 27  2  0  0  0  0
 26 35  1  0  0  0  0
 27 36  1  0  0  0  0
 37 38  1  0  0  0  0
 37 42  1  0  0  0  0
 38 39  1  0  0  0  0
 38 41  1  0  0  0  0
 38 43  1  0  0  0  0
 39 40  2  0  0  0  0
 39 47  1  0  0  0  0
 41 44  1  0  0  0  0
 41 45  1  0  0  0  0
 41 46  1  0  0  0  0
 47 48  1  0  0  0  0
 47 49  1  0  0  0  0
 48 50  1  0  0  0  0
 48 51  1  0  0  0  0
 48 52  1  0  0  0  0
M  END
$$$$

  -OEChem-05262217163D

 52 52  0     1  0  0  0  0  0999 V2000
   -3.3371    0.4644    4.3195 C   0  0  0  0  0  0  0  0  0  0  0  0
   -4.3928    0.6420    3.7321 O   0  0  0  0  0  0  0  0  0  0  0  0
   -3.3321   -0.1302    5.7153 C   0  0  0  0  0  0  0  0  0  0  0  0
   -4.3568   -0.3130    6.0508 H   0  0  0  0  0  0  0  0  0  0  0  0
   -2.7869   -1.0774    5.7148 H   0  0  0  0  0  0  0  0  0  0  0  0
   -2.8509    0.5592    6.4132 H   0  0  0  0  0  0  0  0  0  0  0  0
   -2.1455    0.7991    3.7127 N   0  0  0  0  0  0  0  0  0  0  0  0
   -2.0194    1.2208    2.3119 C   0  0  2  0  0  0  0  0  0  0  0  0
   -0.6477    0.8318    1.7234 C   0  0  0  0  0  0  0  0  0  0  0  0
    0.2710    0.5350    2.4810 O   0  0  0  0  0  0  0  0  0  0  0  0
   -2.2192    2.7384    2.2384 C   0  0  0  0  0  0  0  0  0  0  0  0
   -1.2850    0.5222    4.1847 H   0  0  0  0  0  0  0  0  0  0  0  0
   -2.7867    0.7223    1.7096 H   0  0  0  0  0  0  0  0  0  0  0  0
   -1.4637    3.2529    2.8408 H   0  0  0  0  0  0  0  0  0  0  0  0
   -2.1382    3.0885    1.2049 H   0  0  0  0  0  0  0  0  0  0  0  0
   -3.2101    3.0092    2.6166 H   0  0  0  0  0  0  0  0  0  0  0  0
   -0.4531    0.8777    0.3507 N   0  0  0  0  0  0  0  0  0  0  0  0
    0.7218    0.3403   -0.3703 C   0  0  2  0  0  0  0  0  0  0  0  0
    0.9390   -1.1824   -0.1855 C   0  0  0  0  0  0  0  0  0  0  0  0
    0.2192   -1.8610    0.5389 O   0  0  0  0  0  0  0  0  0  0  0  0
    2.0101    1.1232   -0.0320 C   0  0  0  0  0  0  0  0  0  0  0  0
    1.9271    2.5330   -0.5639 C   0  0  0  0  0  0  0  0  0  0  0  0
    2.2028    2.8117   -1.9112 C   0  0  0  0  0  0  0  0  0  0  0  0
    1.5485    3.5817    0.2868 C   0  0  0  0  0  0  0  0  0  0  0  0
    2.1006    4.1192   -2.3993 C   0  0  0  0  0  0  0  0  0  0  0  0
    1.4456    4.8890   -0.1998 C   0  0  0  0  0  0  0  0  0  0  0  0
    1.7212    5.1582   -1.5438 C   0  0  0  0  0  0  0  0  0  0  0  0
   -1.2818    1.0847   -0.1987 H   0  0  0  0  0  0  0  0  0  0  0  0
    0.5289    0.4748   -1.4384 H   0  0  0  0  0  0  0  0  0  0  0  0
    2.8736    0.6314   -0.4900 H   0  0  0  0  0  0  0  0  0  0  0  0
    2.1964    1.1333    1.0453 H   0  0  0  0  0  0  0  0  0  0  0  0
    2.5007    2.0151   -2.5857 H   0  0  0  0  0  0  0  0  0  0  0  0
    1.3310    3.3781    1.3319 H   0  0  0  0  0  0  0  0  0  0  0  0
    2.3179    4.3287   -3.4427 H   0  0  0  0  0  0  0  0  0  0  0  0
    1.1532    5.6943    0.4676 H   0  0  0  0  0  0  0  0  0  0  0  0
    1.6436    6.1736   -1.9218 H   0  0  0  0  0  0  0  0  0  0  0  0
    1.7981   -1.8618   -1.0334 N   0  0  0  0  0  0  0  0  0  0  0  0
    2.0348   -3.3137   -0.9656 C   0  0  2  0  0  0  0  0  0  0  0  0
    2.9093   -3.7088    0.2501 C   0  0  0  0  0  0  0  0  0  0  0  0
    4.0220   -4.2018    0.1087 O   0  0  0  0  0  0  0  0  0  0  0  0
    2.6455   -3.7444   -2.3047 C   0  0  0  0  0  0  0  0  0  0  0  0
    2.4380   -1.3026   -1.5894 H   0  0  0  0  0  0  0  0  0  0  0  0
    1.0784   -3.8366   -0.8557 H   0  0  0  0  0  0  0  0  0  0  0  0
    3.6139   -3.2588   -2.4624 H   0  0  0  0  0  0  0  0  0  0  0  0
    2.7964   -4.8287   -2.3191 H   0  0  0  0  0  0  0  0  0  0  0  0
    1.9796   -3.4784   -3.1312 H   0  0  0  0  0  0  0  0  0  0  0  0
    2.4354   -3.4677    1.5242 N   0  0  0  0  0  0  0  0  0  0  0  0
    3.2030   -3.7044    2.7381 C   0  0  0  0  0  0  0  0  0  0  0  0
    1.5407   -2.9731    1.5861 H   0  0  0  0  0  0  0  0  0  0  0  0
    3.4679   -4.7634    2.8233 H   0  0  0  0  0  0  0  0  0  0  0  0
    4.1217   -3.1088    2.7323 H   0  0  0  0  0  0  0  0  0  0  0  0
    2.6132   -3.4236    3.6160 H   0  0  0  0  0  0  0  0  0  0  0  0
  1  2  2  0  0  0  0
  1  3  1  0  0  0  0
  1  7  1  0  0  0  0
  3  4  1  0  0  0  0
  3  5  1  0  0  0  0
  3  6  1  0  0  0  0
  7  8  1  0  0  0  0
  7 12  1  0  0  0  0
  8  9  1  0  0  0  0
  8 11  1  0  0  0  0
  8 13  1  0  0  0  0
  9 10  2  0  0  0  0
  9 17  1  0  0  0  0
 11 14  1  0  0  0  0
 11 15  1  0  0  0  0
 11 16  1  0  0  0  0
 17 18  1  0  0  0  0
 17 28  1  0  0  0  0
 18 19  1  0  0  0  0
 18 21  1  0  0  0  0
 18 29  1  0  0  0  0
 19 20  2  0  0  0  0
 19 37  1  0  0  0  0
 21 22  1  0  0  0  0
 21 30  1  0  0  0  0
 21 31  1  0  0  0  0
 22 23  1  0  0  0  0
 22 24  2  0  0  0  0
 23 25  2  0  0  0  0
 23 32  1  0  0  0  0
 24 26  1  0  0  0  0
 24 33  1  0  0  0  0
 25 27  1  0  0  0  0
 25 34  1  0  0  0  0
 26 27  2  0  0  0  0
 26 35  1  0  0  0  0
 27 36  1  0  0  0  0
 37 38  1  0  0  0  0
 37 42  1  0  0  0  0
 38 39  1  0  0  0  0
 38 41  1  0  0  0  0
 38 43  1  0  0  0  0
 39 40  2  0  0  0  0
 39 47  1  0  0  0  0
 41 44  1  0  0  0  0
 41 45  1  0  0  0  0
 41 46  1  0  0  0  0
 47 48  1  0  0  0  0
 47 49  1  0  0  0  0
 48 50  1  0  0  0  0
 48 51  1  0  0  0  0
 48 52  1  0  0  0  0
M  END
$$$$

  -OEChem-05262217163D

 52 52  0     1  0  0  0  0  0999 V2000
   -3.4224    0.5468    4.2681 C   0  0  0  0  0  0  0  0  0  0  0  0
   -4.4379    0.8885    3.6828 O   0  0  0  0  0  0  0  0  0  0  0  0
   -3.5122   -0.0978    5.6385 C   0  0  0  0  0  0  0  0  0  0  0  0
   -4.5579   -0.1849    5.9468 H   0  0  0  0  0  0  0  0  0  0  0  0
   -3.0685   -1.0961    5.6111 H   0  0  0  0  0  0  0  0  0  0  0  0
   -2.9787    0.5107    6.3726 H   0  0  0  0  0  0  0  0  0  0  0  0
   -2.1899    0.7425    3.6826 N   0  0  0  0  0  0  0  0  0  0  0  0
   -1.9928    1.2008    2.3012 C   0  0  2  0  0  0  0  0  0  0  0  0
   -0.6783    0.6579    1.7022 C   0  0  0  0  0  0  0  0  0  0  0  0
    0.1530    0.1418    2.4422 O   0  0  0  0  0  0  0  0  0  0  0  0
   -1.9885    2.7334    2.2924 C   0  0  0  0  0  0  0  0  0  0  0  0
   -1.3808    0.3299    4.1460 H   0  0  0  0  0  0  0  0  0  0  0  0
   -2.8129    0.8356    1.6735 H   0  0  0  0  0  0  0  0  0  0  0  0
   -1.1745    3.1169    2.9157 H   0  0  0  0  0  0  0  0  0  0  0  0
   -1.8568    3.1130    1.2746 H   0  0  0  0  0  0  0  0  0  0  0  0
   -2.9366    3.1178    2.6824 H   0  0  0  0  0  0  0  0  0  0  0  0
   -0.4554    0.7574    0.3381 N   0  0  0  0  0  0  0  0  0  0  0  0
    0.7480    0.3042   -0.3941 C   0  0  2  0  0  0  0  0  0  0  0  0
    0.7947   -1.2356   -0.5486 C   0  0  0  0  0  0  0  0  0  0  0  0
   -0.1545   -1.9378   -0.2167 O   0  0  0  0  0  0  0  0  0  0  0  0
    2.0697    0.8802    0.1709 C   0  0  0  0  0  0  0  0  0  0  0  0
    2.1268    2.3720   -0.0500 C   0  0  0  0  0  0  0  0  0  0  0  0
    2.5118    2.9014   -1.2914 C   0  0  0  0  0  0  0  0  0  0  0  0
    1.7786    3.2489    0.9878 C   0  0  0  0  0  0  0  0  0  0  0  0
    2.5405    4.2858   -1.4927 C   0  0  0  0  0  0  0  0  0  0  0  0
    1.8064    4.6329    0.7876 C   0  0  0  0  0  0  0  0  0  0  0  0
    2.1856    5.1517   -0.4539 C   0  0  0  0  0  0  0  0  0  0  0  0
   -1.2338    1.1108   -0.2108 H   0  0  0  0  0  0  0  0  0  0  0  0
    0.6549    0.6834   -1.4159 H   0  0  0  0  0  0  0  0  0  0  0  0
    2.9223    0.4299   -0.3450 H   0  0  0  0  0  0  0  0  0  0  0  0
    2.1958    0.6424    1.2297 H   0  0  0  0  0  0  0  0  0  0  0  0
    2.7899    2.2408   -2.1068 H   0  0  0  0  0  0  0  0  0  0  0  0
    1.4842    2.8521    1.9558 H   0  0  0  0  0  0  0  0  0  0  0  0
    2.8395    4.6902   -2.4555 H   0  0  0  0  0  0  0  0  0  0  0  0
    1.5363    5.3040    1.5978 H   0  0  0  0  0  0  0  0  0  0  0  0
    2.2079    6.2263   -0.6100 H   0  0  0  0  0  0  0  0  0  0  0  0
    1.8469   -1.8525   -1.2048 N   0  0  0  0  0  0  0  0  0  0  0  0
    1.9624   -3.3105   -1.3757 C   0  0  2  0  0  0  0  0  0  0  0  0
    2.3762   -4.0256   -0.0652 C   0  0  0  0  0  0  0  0  0  0  0  0
    3.4289   -4.6462    0.0235 O   0  0  0  0  0  0  0  0  0  0  0  0
    2.9441   -3.5598   -2.5275 C   0  0  0  0  0  0  0  0  0  0  0  0
    2.6671   -1.2859   -1.3981 H   0  0  0  0  0  0  0  0  0  0  0  0
    0.9924   -3.7234   -1.6733 H   0  0  0  0  0  0  0  0  0  0  0  0
    3.9408   -3.1849   -2.2736 H   0  0  0  0  0  0  0  0  0  0  0  0
    3.0212   -4.6325   -2.7330 H   0  0  0  0  0  0  0  0  0  0  0  0
    2.6011   -3.0584   -3.4378 H   0  0  0  0  0  0  0  0  0  0  0  0
    1.5538   -3.9326    1.0399 N   0  0  0  0  0  0  0  0  0  0  0  0
    1.8896   -4.4605    2.3545 C   0  0  0  0  0  0  0  0  0  0  0  0
    0.7298   -3.3334    0.9380 H   0  0  0  0  0  0  0  0  0  0  0  0
    2.0587   -5.5411    2.3025 H   0  0  0  0  0  0  0  0  0  0  0  0
    2.7938   -3.9789    2.7409 H   0  0  0  0  0  0  0  0  0  0  0  0
    1.0702   -4.2725    3.0551 H   0  0  0  0  0  0  0  0  0  0  0  0
  1  2  2  0  0  0  0
  1  3  1  0  0  0  0
  1  7  1  0  0  0  0
  3  4  1  0  0  0  0
  3  5  1  0  0  0  0
  3  6  1  0  0  0  0
  7  8  1  0  0  0  0
  7 12  1  0  0  0  0
  8  9  1  0  0  0  0
  8 11  1  0  0  0  0
  8 13  1  0  0  0  0
  9 10  2  0  0  0  0
  9 17  1  0  0  0  0
 11 14  1  0  0  0  0
 11 15  1  0  0  0  0
 11 16  1  0  0  0  0
 17 18  1  0  0  0  0
 17 28  1  0  0  0  0
 18 19  1  0  0  0  0
 18 21  1  0  0  0  0
 18 29  1  0  0  0  0
 19 20  2  0  0  0  0
 19 37  1  0  0  0  0
 21 22  1  0  0  0  0
 21 30  1  0  0  0  0
 21 31  1  0  0  0  0
 22 23  1  0  0  0  0
 22 24  2  0  0  0  0
 23 25  2  0  0  0  0
 23 32  1  0  0  0  0
 24 26  1  0  0  0  0
 24 33  1  0  0  0  0
 25 27  1  0  0  0  0
 25 34  1  0  0  0  0
 26 27  2  0  0  0  0
 26 35  1  0  0  0  0
 27 36  1  0  0  0  0
 37 38  1  0  0  0  0
 37 42  1  0  0  0  0
 38 39  1  0  0  0  0
 38 41  1  0  0  0  0
 38 43  1  0  0  0  0
 39 40  2  0  0  0  0
 39 47  1  0  0  0  0
 41 44  1  0  0  0  0
 41 45  1  0  0  0  0
 41 46  1  0  0  0  0
 47 48  1  0  0  0  0
 47 49  1  0  0  0  0
 48 50  1  0  0  0  0
 48 51  1  0  0  0  0
 48 52  1  0  0  0  0
M  END
$$$$

  -OEChem-05262217163D

 52 52  0     1  0  0  0  0  0999 V2000
   -3.4079    0.5127    4.2352 C   0  0  0  0  0  0  0  0  0  0  0  0
   -4.4201    0.8704    3.6543 O   0  0  0  0  0  0  0  0  0  0  0  0
   -3.5029   -0.1282    5.6068 C   0  0  0  0  0  0  0  0  0  0  0  0
   -4.5458   -0.1660    5.9343 H   0  0  0  0  0  0  0  0  0  0  0  0
   -3.1080   -1.1462    5.5700 H   0  0  0  0  0  0  0  0  0  0  0  0
   -2.9272    0.4531    6.3311 H   0  0  0  0  0  0  0  0  0  0  0  0
   -2.1751    0.6840    3.6425 N   0  0  0  0  0  0  0  0  0  0  0  0
   -1.9754    1.1454    2.2626 C   0  0  2  0  0  0  0  0  0  0  0  0
   -0.6570    0.6072    1.6680 C   0  0  0  0  0  0  0  0  0  0  0  0
    0.1651    0.0708    2.4041 O   0  0  0  0  0  0  0  0  0  0  0  0
   -1.9765    2.6782    2.2531 C   0  0  0  0  0  0  0  0  0  0  0  0
   -1.3703    0.2605    4.1035 H   0  0  0  0  0  0  0  0  0  0  0  0
   -2.7923    0.7780    1.6320 H   0  0  0  0  0  0  0  0  0  0  0  0
   -1.1753    3.0651    2.8906 H   0  0  0  0  0  0  0  0  0  0  0  0
   -1.8288    3.0583    1.2376 H   0  0  0  0  0  0  0  0  0  0  0  0
   -2.9324    3.0591    2.6263 H   0  0  0  0  0  0  0  0  0  0  0  0
   -0.4205    0.7177    0.3078 N   0  0  0  0  0  0  0  0  0  0  0  0
    0.8087    0.3079   -0.4048 C   0  0  2  0  0  0  0  0  0  0  0  0
    0.8956   -1.2313   -0.5495 C   0  0  0  0  0  0  0  0  0  0  0  0
   -0.1128   -1.9242   -0.4611 O   0  0  0  0  0  0  0  0  0  0  0  0
    2.0935    0.9426    0.1824 C   0  0  0  0  0  0  0  0  0  0  0  0
    2.0933    2.4349   -0.0436 C   0  0  0  0  0  0  0  0  0  0  0  0
    2.4804    2.9745   -1.2799 C   0  0  0  0  0  0  0  0  0  0  0  0
    1.6929    3.3012    0.9842 C   0  0  0  0  0  0  0  0  0  0  0  0
    2.4675    4.3587   -1.4835 C   0  0  0  0  0  0  0  0  0  0  0  0
    1.6772    4.6851    0.7811 C   0  0  0  0  0  0  0  0  0  0  0  0
    2.0650    5.2143   -0.4535 C   0  0  0  0  0  0  0  0  0  0  0  0
   -1.1887    1.0807   -0.2489 H   0  0  0  0  0  0  0  0  0  0  0  0
    0.7216    0.6758   -1.4309 H   0  0  0  0  0  0  0  0  0  0  0  0
    2.9742    0.5320   -0.3184 H   0  0  0  0  0  0  0  0  0  0  0  0
    2.2095    0.7134    1.2445 H   0  0  0  0  0  0  0  0  0  0  0  0
    2.7961    2.3223   -2.0885 H   0  0  0  0  0  0  0  0  0  0  0  0
    1.3931    2.8968    1.9470 H   0  0  0  0  0  0  0  0  0  0  0  0
    2.7725    4.7700   -2.4413 H   0  0  0  0  0  0  0  0  0  0  0  0
    1.3673    5.3484    1.5835 H   0  0  0  0  0  0  0  0  0  0  0  0
    2.0562    6.2890   -0.6110 H   0  0  0  0  0  0  0  0  0  0  0  0
    2.0784   -1.8619   -0.8981 N   0  0  0  0  0  0  0  0  0  0  0  0
    2.2253   -3.3232   -0.9991 C   0  0  2  0  0  0  0  0  0  0  0  0
    2.2908   -4.0032    0.3911 C   0  0  0  0  0  0  0  0  0  0  0  0
    3.2829   -4.6212    0.7586 O   0  0  0  0  0  0  0  0  0  0  0  0
    3.4652   -3.5987   -1.8582 C   0  0  0  0  0  0  0  0  0  0  0  0
    2.9265   -1.3056   -0.8499 H   0  0  0  0  0  0  0  0  0  0  0  0
    1.3598   -3.7442   -1.5217 H   0  0  0  0  0  0  0  0  0  0  0  0
    4.3651   -3.2021   -1.3771 H   0  0  0  0  0  0  0  0  0  0  0  0
    3.5954   -4.6764   -1.9990 H   0  0  0  0  0  0  0  0  0  0  0  0
    3.3586   -3.1329   -2.8425 H   0  0  0  0  0  0  0  0  0  0  0  0
    1.2162   -3.8804    1.2493 N   0  0  0  0  0  0  0  0  0  0  0  0
    1.2126   -4.3595    2.6237 C   0  0  0  0  0  0  0  0  0  0  0  0
    0.4532   -3.2777    0.9293 H   0  0  0  0  0  0  0  0  0  0  0  0
    1.3504   -5.4452    2.6511 H   0  0  0  0  0  0  0  0  0  0  0  0
    2.0165   -3.8861    3.1966 H   0  0  0  0  0  0  0  0  0  0  0  0
    0.2582   -4.1195    3.1022 H   0  0  0  0  0  0  0  0  0  0  0  0
  1  2  2  0  0  0  0
  1  3  1  0  0  0  0
  1  7  1  0  0  0  0
  3  4  1  0  0  0  0
  3  5  1  0  0  0  0
  3  6  1  0  0  0  0
  7  8  1  0  0  0  0
  7 12  1  0  0  0  0
  8  9  1  0  0  0  0
  8 11  1  0  0  0  0
  8 13  1  0  0  0  0
  9 10  2  0  0  0  0
  9 17  1  0  0  0  0
 11 14  1  0  0  0  0
 11 15  1  0  0  0  0
 11 16  1  0  0  0  0
 17 18  1  0  0  0  0
 17 28  1  0  0  0  0
 18 19  1  0  0  0  0
 18 21  1  0  0  0  0
 18 29  1  0  0  0  0
 19 20  2  0  0  0  0
 19 37  1  0  0  0  0
 21 22  1  0  0  0  0
 21 30  1  0  0  0  0
 21 31  1  0  0  0  0
 22 23  1  0  0  0  0
 22 24  2  0  0  0  0
 23 25  2  0  0  0  0
 23 32  1  0  0  0  0
 24 26  1  0  0  0  0
 24 33  1  0  0  0  0
 25 27  1  0  0  0  0
 25 34  1  0  0  0  0
 26 27  2  0  0  0  0
 26 35  1  0  0  0  0
 27 36  1  0  0  0  0
 37 38  1  0  0  0  0
 37 42  1  0  0  0  0
 38 39  1  0  0  0  0
 38 41  1  0  0  0  0
 38 43  1  0  0  0  0
 39 40  2  0  0  0  0
 39 47  1  0  0  0  0
 41 44  1  0  0  0  0
 41 45  1  0  0  0  0
 41 46  1  0  0  0  0
 47 48  1  0  0  0  0
 47 49  1  0  0  0  0
 48 50  1  0  0  0  0
 48 51  1  0  0  0  0
 48 52  1  0  0  0  0
M  END
$$$$

  -OEChem-05262217163D

 52 52  0     1  0  0  0  0  0999 V2000
   -3.3819    0.4102    4.1942 C   0  0  0  0  0  0  0  0  0  0  0  0
   -4.4023    0.6895    3.5850 O   0  0  0  0  0  0  0  0  0  0  0  0
   -3.4638   -0.2236    5.5703 C   0  0  0  0  0  0  0  0  0  0  0  0
   -4.5089   -0.3550    5.8643 H   0  0  0  0  0  0  0  0  0  0  0  0
   -2.9753   -1.2010    5.5610 H   0  0  0  0  0  0  0  0  0  0  0  0
   -2.9694    0.4161    6.3053 H   0  0  0  0  0  0  0  0  0  0  0  0
   -2.1505    0.6653    3.6293 N   0  0  0  0  0  0  0  0  0  0  0  0
   -1.9514    1.1209    2.2470 C   0  0  2  0  0  0  0  0  0  0  0  0
   -0.6105    0.6198    1.6712 C   0  0  0  0  0  0  0  0  0  0  0  0
    0.2183    0.1085    2.4173 O   0  0  0  0  0  0  0  0  0  0  0  0
   -2.0046    2.6525    2.2257 C   0  0  0  0  0  0  0  0  0  0  0  0
   -1.3306    0.3002    4.1129 H   0  0  0  0  0  0  0  0  0  0  0  0
   -2.7488    0.7220    1.6103 H   0  0  0  0  0  0  0  0  0  0  0  0
   -1.2116    3.0717    2.8529 H   0  0  0  0  0  0  0  0  0  0  0  0
   -1.8786    3.0294    1.2062 H   0  0  0  0  0  0  0  0  0  0  0  0
   -2.9701    3.0030    2.6043 H   0  0  0  0  0  0  0  0  0  0  0  0
   -0.3629    0.7144    0.3124 N   0  0  0  0  0  0  0  0  0  0  0  0
    0.8883    0.3314   -0.3751 C   0  0  2  0  0  0  0  0  0  0  0  0
    1.0091   -1.2080   -0.4799 C   0  0  0  0  0  0  0  0  0  0  0  0
    0.0015   -1.8882   -0.6441 O   0  0  0  0  0  0  0  0  0  0  0  0
    2.1447    1.0252    0.2060 C   0  0  0  0  0  0  0  0  0  0  0  0
    2.0911    2.5092   -0.0617 C   0  0  0  0  0  0  0  0  0  0  0  0
    2.4694    3.0270   -1.3098 C   0  0  0  0  0  0  0  0  0  0  0  0
    1.6480    3.3888    0.9367 C   0  0  0  0  0  0  0  0  0  0  0  0
    2.3996    4.4023   -1.5567 C   0  0  0  0  0  0  0  0  0  0  0  0
    1.5778    4.7640    0.6913 C   0  0  0  0  0  0  0  0  0  0  0  0
    1.9522    5.2712   -0.5568 C   0  0  0  0  0  0  0  0  0  0  0  0
   -1.1306    1.0530   -0.2608 H   0  0  0  0  0  0  0  0  0  0  0  0
    0.8019    0.6689   -1.4122 H   0  0  0  0  0  0  0  0  0  0  0  0
    3.0425    0.6339   -0.2803 H   0  0  0  0  0  0  0  0  0  0  0  0
    2.2587    0.8293    1.2750 H   0  0  0  0  0  0  0  0  0  0  0  0
    2.8195    2.3632   -2.0944 H   0  0  0  0  0  0  0  0  0  0  0  0
    1.3566    3.0018    1.9091 H   0  0  0  0  0  0  0  0  0  0  0  0
    2.6945    4.7963   -2.5248 H   0  0  0  0  0  0  0  0  0  0  0  0
    1.2352    5.4377    1.4712 H   0  0  0  0  0  0  0  0  0  0  0  0
    1.8985    6.3393   -0.7481 H   0  0  0  0  0  0  0  0  0  0  0  0
    2.2342   -1.8536   -0.4920 N   0  0  0  0  0  0  0  0  0  0  0  0
    2.3839   -3.3176   -0.5400 C   0  0  2  0  0  0  0  0  0  0  0  0
    2.0676   -3.9856    0.8216 C   0  0  0  0  0  0  0  0  0  0  0  0
    2.9199   -4.6056    1.4467 O   0  0  0  0  0  0  0  0  0  0  0  0
    3.8043   -3.6171   -1.0360 C   0  0  0  0  0  0  0  0  0  0  0  0
    3.0369   -1.3086   -0.1915 H   0  0  0  0  0  0  0  0  0  0  0  0
    1.6832   -3.7341   -1.2717 H   0  0  0  0  0  0  0  0  0  0  0  0
    4.5485   -3.2359   -0.3295 H   0  0  0  0  0  0  0  0  0  0  0  0
    3.9481   -4.6973   -1.1399 H   0  0  0  0  0  0  0  0  0  0  0  0
    3.9745   -3.1514   -2.0113 H   0  0  0  0  0  0  0  0  0  0  0  0
    0.8002   -3.8576    1.3545 N   0  0  0  0  0  0  0  0  0  0  0  0
    0.4279   -4.3172    2.6846 C   0  0  0  0  0  0  0  0  0  0  0  0
    0.1569   -3.2531    0.8370 H   0  0  0  0  0  0  0  0  0  0  0  0
    0.5781   -5.3983    2.7722 H   0  0  0  0  0  0  0  0  0  0  0  0
    1.0313   -3.8125    3.4462 H   0  0  0  0  0  0  0  0  0  0  0  0
   -0.6267   -4.0982    2.8768 H   0  0  0  0  0  0  0  0  0  0  0  0
  1  2  2  0  0  0  0
  1  3  1  0  0  0  0
  1  7  1  0  0  0  0
  3  4  1  0  0  0  0
  3  5  1  0  0  0  0
  3  6  1  0  0  0  0
  7  8  1  0  0  0  0
  7 12  1  0  0  0  0
  8  9  1  0  0  0  0
  8 11  1  0  0  0  0
  8 13  1  0  0  0  0
  9 10  2  0  0  0  0
  9 17  1  0  0  0  0
 11 14  1  0  0  0  0
 11 15  1  0  0  0  0
 11 16  1  0  0  0  0
 17 18  1  0  0  0  0
 17 28  1  0  0  0  0
 18 19  1  0  0  0  0
 18 21  1  0  0  0  0
 18 29  1  0  0  0  0
 19 20  2  0  0  0  0
 19 37  1  0  0  0  0
 21 22  1  0  0  0  0
 21 30  1  0  0  0  0
 21 31  1  0  0  0  0
 22 23  1  0  0  0  0
 22 24  2  0  0  0  0
 23 25  2  0  0  0  0
 23 32  1  0  0  0  0
 24 26  1  0  0  0  0
 24 33  1  0  0  0  0
 25 27  1  0  0  0  0
 25 34  1  0  0  0  0
 26 27  2  0  0  0  0
 26 35  1  0  0  0  0
 27 36  1  0  0  0  0
 37 38  1  0  0  0  0
 37 42  1  0  0  0  0
 38 39  1  0  0  0  0
 38 41  1  0  0  0  0
 38 43  1  0  0  0  0
 39 40  2  0  0  0  0
 39 47  1  0  0  0  0
 41 44  1  0  0  0  0
 41 45  1  0  0  0  0
 41 46  1  0  0  0  0
 47 48  1  0  0  0  0
 47 49  1  0  0  0  0
 48 50  1  0  0  0  0
 48 51  1  0  0  0  0
 48 52  1  0  0  0  0
M  END
$$$$

  -OEChem-05262217163D

 52 52  0     1  0  0  0  0  0999 V2000
   -3.4014    0.3827    4.1454 C   0  0  0  0  0  0  0  0  0  0  0  0
   -4.4108    0.6595    3.5173 O   0  0  0  0  0  0  0  0  0  0  0  0
   -3.5061   -0.2901    5.5011 C   0  0  0  0  0  0  0  0  0  0  0  0
   -4.5548   -0.4756    5.7499 H   0  0  0  0  0  0  0  0  0  0  0  0
   -2.9737   -1.2443    5.4864 H   0  0  0  0  0  0  0  0  0  0  0  0
   -3.0692    0.3511    6.2705 H   0  0  0  0  0  0  0  0  0  0  0  0
   -2.1606    0.6695    3.6176 N   0  0  0  0  0  0  0  0  0  0  0  0
   -1.9355    1.1475    2.2473 C   0  0  2  0  0  0  0  0  0  0  0  0
   -0.5969    0.6309    1.6804 C   0  0  0  0  0  0  0  0  0  0  0  0
    0.2346    0.1354    2.4340 O   0  0  0  0  0  0  0  0  0  0  0  0
   -1.9581    2.6795    2.2577 C   0  0  0  0  0  0  0  0  0  0  0  0
   -1.3476    0.3068    4.1145 H   0  0  0  0  0  0  0  0  0  0  0  0
   -2.7322    0.7786    1.5920 H   0  0  0  0  0  0  0  0  0  0  0  0
   -1.1686    3.0696    2.9077 H   0  0  0  0  0  0  0  0  0  0  0  0
   -1.8064    3.0745    1.2485 H   0  0  0  0  0  0  0  0  0  0  0  0
   -2.9229    3.0414    2.6272 H   0  0  0  0  0  0  0  0  0  0  0  0
   -0.3499    0.6907    0.3203 N   0  0  0  0  0  0  0  0  0  0  0  0
    0.9146    0.3230   -0.3480 C   0  0  2  0  0  0  0  0  0  0  0  0
    1.0724   -1.2139   -0.3976 C   0  0  0  0  0  0  0  0  0  0  0  0
    0.1323   -1.9042   -0.7763 O   0  0  0  0  0  0  0  0  0  0  0  0
    2.1509    1.0648    0.2138 C   0  0  0  0  0  0  0  0  0  0  0  0
    2.0646    2.5385   -0.0973 C   0  0  0  0  0  0  0  0  0  0  0  0
    2.4347    3.0279   -1.3591 C   0  0  0  0  0  0  0  0  0  0  0  0
    1.6079    3.4378    0.8771 C   0  0  0  0  0  0  0  0  0  0  0  0
    2.3426    4.3946   -1.6432 C   0  0  0  0  0  0  0  0  0  0  0  0
    1.5160    4.8046    0.5945 C   0  0  0  0  0  0  0  0  0  0  0  0
    1.8826    5.2832   -0.6668 C   0  0  0  0  0  0  0  0  0  0  0  0
   -1.1096    1.0312   -0.2625 H   0  0  0  0  0  0  0  0  0  0  0  0
    0.8263    0.6229   -1.3967 H   0  0  0  0  0  0  0  0  0  0  0  0
    3.0576    0.6761   -0.2603 H   0  0  0  0  0  0  0  0  0  0  0  0
    2.2654    0.9053    1.2890 H   0  0  0  0  0  0  0  0  0  0  0  0
    2.7949    2.3482   -2.1256 H   0  0  0  0  0  0  0  0  0  0  0  0
    1.3247    3.0734    1.8605 H   0  0  0  0  0  0  0  0  0  0  0  0
    2.6306    4.7666   -2.6220 H   0  0  0  0  0  0  0  0  0  0  0  0
    1.1636    5.4947    1.3556 H   0  0  0  0  0  0  0  0  0  0  0  0
    1.8136    6.3446   -0.8871 H   0  0  0  0  0  0  0  0  0  0  0  0
    2.2632   -1.8442   -0.0797 N   0  0  0  0  0  0  0  0  0  0  0  0
    2.4357   -3.3055   -0.0624 C   0  0  2  0  0  0  0  0  0  0  0  0
    1.8015   -3.9600    1.1900 C   0  0  0  0  0  0  0  0  0  0  0  0
    2.4745   -4.5844    2.0016 O   0  0  0  0  0  0  0  0  0  0  0  0
    3.9382   -3.5870   -0.1886 C   0  0  0  0  0  0  0  0  0  0  0  0
    2.9474   -1.2833    0.4203 H   0  0  0  0  0  0  0  0  0  0  0  0
    1.9417   -3.7433   -0.9362 H   0  0  0  0  0  0  0  0  0  0  0  0
    4.4812   -3.1776    0.6694 H   0  0  0  0  0  0  0  0  0  0  0  0
    4.1193   -4.6660   -0.2289 H   0  0  0  0  0  0  0  0  0  0  0  0
    4.3359   -3.1363   -1.1029 H   0  0  0  0  0  0  0  0  0  0  0  0
    0.4434   -3.8279    1.4003 N   0  0  0  0  0  0  0  0  0  0  0  0
   -0.2466   -4.3047    2.5900 C   0  0  0  0  0  0  0  0  0  0  0  0
   -0.0580   -3.2373    0.7321 H   0  0  0  0  0  0  0  0  0  0  0  0
   -0.1265   -5.3880    2.6936 H   0  0  0  0  0  0  0  0  0  0  0  0
    0.1530   -3.8167    3.4850 H   0  0  0  0  0  0  0  0  0  0  0  0
   -1.3152   -4.0804    2.5202 H   0  0  0  0  0  0  0  0  0  0  0  0
  1  2  2  0  0  0  0
  1  3  1  0  0  0  0
  1  7  1  0  0  0  0
  3  4  1  0  0  0  0
  3  5  1  0  0  0  0
  3  6  1  0  0  0  0
  7  8  1  0  0  0  0
  7 12  1  0  0  0  0
  8  9  1  0  0  0  0
  8 11  1  0  0  0  0
  8 13  1  0  0  0  0
  9 10  2  0  0  0  0
  9 17  1  0  0  0  0
 11 14  1  0  0  0  0
 11 15  1  0  0  0  0
 11 16  1  0  0  0  0
 17 18  1  0  0  0  0
 17 28  1  0  0  0  0
 18 19  1  0  0  0  0
 18 21  1  0  0  0  0
 18 29  1  0  0  0  0
 19 20  2  0  0  0  0
 19 37  1  0  0  0  0
 21 22  1  0  0  0  0
 21 30  1  0  0  0  0
 21 31  1  0  0  0  0
 22 23  1  0  0  0  0
 22 24  2  0  0  0  0
 23 25  2  0  0  0  0
 23 32  1  0  0  0  0
 24 26  1  0  0  0  0
 24 33  1  0  0  0  0
 25 27  1  0  0  0  0
 25 34  1  0  0  0  0
 26 27  2  0  0  0  0
 26 35  1  0  0  0  0
 27 36  1  0  0  0  0
 37 38  1  0  0  0  0
 37 42  1  0  0  0  0
 38 39  1  0  0  0  0
 38 41  1  0  0  0  0
 38 43  1  0  0  0  0
 39 40  2  0  0  0  0
 39 47  1  0  0  0  0
 41 44  1  0  0  0  0
 41 45  1  0  0  0  0
 41 46  1  0  0  0  0
 47 48  1  0  0  0  0
 47 49  1  0  0  0  0
 48 50  1  0  0  0  0
 48 51  1  0  0  0  0
 48 52  1  0  0  0  0
M  END
$$$$

  -OEChem-05262217163D

 52 52  0     1  0  0  0  0  0999 V2000
   -3.3837    0.4317    4.1614 C   0  0  0  0  0  0  0  0  0  0  0  0
   -4.3908    0.7172    3.5333 O   0  0  0  0  0  0  0  0  0  0  0  0
   -3.4946   -0.1937    5.5392 C   0  0  0  0  0  0  0  0  0  0  0  0
   -4.5455   -0.2874    5.8267 H   0  0  0  0  0  0  0  0  0  0  0  0
   -3.0404   -1.1876    5.5366 H   0  0  0  0  0  0  0  0  0  0  0  0
   -2.9830    0.4312    6.2751 H   0  0  0  0  0  0  0  0  0  0  0  0
   -2.1411    0.6684    3.6132 N   0  0  0  0  0  0  0  0  0  0  0  0
   -1.9177    1.1209    2.2338 C   0  0  2  0  0  0  0  0  0  0  0  0
   -0.5778    0.6002    1.6755 C   0  0  0  0  0  0  0  0  0  0  0  0
    0.2550    0.1146    2.4345 O   0  0  0  0  0  0  0  0  0  0  0  0
   -1.9465    2.6527    2.2124 C   0  0  0  0  0  0  0  0  0  0  0  0
   -1.3315    0.3033    4.1143 H   0  0  0  0  0  0  0  0  0  0  0  0
   -2.7129    0.7346    1.5868 H   0  0  0  0  0  0  0  0  0  0  0  0
   -1.1667    3.0595    2.8640 H   0  0  0  0  0  0  0  0  0  0  0  0
   -1.7838    3.0281    1.1975 H   0  0  0  0  0  0  0  0  0  0  0  0
   -2.9177    3.0174    2.5620 H   0  0  0  0  0  0  0  0  0  0  0  0
   -0.3261    0.6431    0.3156 N   0  0  0  0  0  0  0  0  0  0  0  0
    0.9559    0.3014   -0.3304 C   0  0  2  0  0  0  0  0  0  0  0  0
    1.1478   -1.2298   -0.3394 C   0  0  0  0  0  0  0  0  0  0  0  0
    0.3364   -1.9328   -0.9314 O   0  0  0  0  0  0  0  0  0  0  0  0
    2.1688    1.0825    0.2283 C   0  0  0  0  0  0  0  0  0  0  0  0
    2.0481    2.5482   -0.1095 C   0  0  0  0  0  0  0  0  0  0  0  0
    2.4159    3.0261   -1.3761 C   0  0  0  0  0  0  0  0  0  0  0  0
    1.5551    3.4508    0.8441 C   0  0  0  0  0  0  0  0  0  0  0  0
    2.2846    4.3842   -1.6864 C   0  0  0  0  0  0  0  0  0  0  0  0
    1.4225    4.8086    0.5355 C   0  0  0  0  0  0  0  0  0  0  0  0
    1.7862    5.2759   -0.7312 C   0  0  0  0  0  0  0  0  0  0  0  0
   -1.0707    1.0057   -0.2737 H   0  0  0  0  0  0  0  0  0  0  0  0
    0.8724    0.5763   -1.3866 H   0  0  0  0  0  0  0  0  0  0  0  0
    3.0866    0.7008   -0.2308 H   0  0  0  0  0  0  0  0  0  0  0  0
    2.2776    0.9474    1.3074 H   0  0  0  0  0  0  0  0  0  0  0  0
    2.8047    2.3436   -2.1258 H   0  0  0  0  0  0  0  0  0  0  0  0
    1.2742    3.0968    1.8319 H   0  0  0  0  0  0  0  0  0  0  0  0
    2.5714    4.7466   -2.6694 H   0  0  0  0  0  0  0  0  0  0  0  0
    1.0402    5.4998    1.2812 H   0  0  0  0  0  0  0  0  0  0  0  0
    1.6856    6.3306   -0.9716 H   0  0  0  0  0  0  0  0  0  0  0  0
    2.2220   -1.8357    0.2878 N   0  0  0  0  0  0  0  0  0  0  0  0
    2.3863   -3.2944    0.3910 C   0  0  2  0  0  0  0  0  0  0  0  0
    1.4441   -3.9277    1.4454 C   0  0  0  0  0  0  0  0  0  0  0  0
    1.8781   -4.5397    2.4143 O   0  0  0  0  0  0  0  0  0  0  0  0
    3.8688   -3.5625    0.6779 C   0  0  0  0  0  0  0  0  0  0  0  0
    2.7119   -1.2603    0.9685 H   0  0  0  0  0  0  0  0  0  0  0  0
    2.1451   -3.7576   -0.5718 H   0  0  0  0  0  0  0  0  0  0  0  0
    4.1598   -3.1308    1.6410 H   0  0  0  0  0  0  0  0  0  0  0  0
    4.0597   -4.6399    0.7102 H   0  0  0  0  0  0  0  0  0  0  0  0
    4.4940   -3.1249   -0.1063 H   0  0  0  0  0  0  0  0  0  0  0  0
    0.0780   -3.8088    1.2840 N   0  0  0  0  0  0  0  0  0  0  0  0
   -0.9035   -4.3097    2.2354 C   0  0  0  0  0  0  0  0  0  0  0  0
   -0.2330   -3.2468    0.4878 H   0  0  0  0  0  0  0  0  0  0  0  0
   -0.8019   -5.3933    2.3557 H   0  0  0  0  0  0  0  0  0  0  0  0
   -0.7690   -3.8315    3.2111 H   0  0  0  0  0  0  0  0  0  0  0  0
   -1.9160   -4.0956    1.8801 H   0  0  0  0  0  0  0  0  0  0  0  0
  1  2  2  0  0  0  0
  1  3  1  0  0  0  0
  1  7  1  0  0  0  0
  3  4  1  0  0  0  0
  3  5  1  0  0  0  0
  3  6  1  0  0  0  0
  7  8  1  0  0  0  0
  7 12  1  0  0  0  0
  8  9  1  0  0  0  0
  8 11  1  0  0  0  0
  8 13  1  0  0  0  0
  9 10  2  0  0  0  0
  9 17  1  0  0  0  0
 11 14  1  0  0  0  0
 11 15  1  0  0  0  0
 11 16  1  0  0  0  0
 17 18  1  0  0  0  0
 17 28  1  0  0  0  0
 18 19  1  0  0  0  0
 18 21  1  0  0  0  0
 18 29  1  0  0  0  0
 19 20  2  0  0  0  0
 19 37  1  0  0  0  0
 21 22  1  0  0  0  0
 21 30  1  0  0  0  0
 21 31  1  0  0  0  0
 22 23  1  0  0  0  0
 22 24  2  0  0  0  0
 23 25  2  0  0  0  0
 23 32  1  0  0  0  0
 24 26  1  0  0  0  0
 24 33  1  0  0  0  0
 25 27  1  0  0  0  0
 25 34  1  0  0  0  0
 26 27  2  0  0  0  0
 26 35  1  0  0  0  0
 27 36  1  0  0  0  0
 37 38  1  0  0  0  0
 37 42  1  0  0  0  0
 38 39  1  0  0  0  0
 38 41  1  0  0  0  0
 38 43  1  0  0  0  0
 39 40  2  0  0  0  0
 39 47  1  0  0  0  0
 41 44  1  0  0  0  0
 41 45  1  0  0  0  0
 41 46  1  0  0  0  0
 47 48  1  0  0  0  0
 47 49  1  0  0  0  0
 48 50  1  0  0  0  0
 48 51  1  0  0  0  0
 48 52  1  0  0  0  0
M  END
$$$$

  -OEChem-05262217163D

 52 52  0     1  0  0  0  0  0999 V2000
   -3.3842    0.4957    4.1885 C   0  0  0  0  0  0  0  0  0  0  0  0
   -4.3869    0.7887    3.5568 O   0  0  0  0  0  0  0  0  0  0  0  0
   -3.5044   -0.1025    5.5771 C   0  0  0  0  0  0  0  0  0  0  0  0
   -4.5560   -0.1653    5.8702 H   0  0  0  0  0  0  0  0  0  0  0  0
   -3.0739   -1.1068    5.5895 H   0  0  0  0  0  0  0  0  0  0  0  0
   -2.9747    0.5227    6.2998 H   0  0  0  0  0  0  0  0  0  0  0  0
   -2.1386    0.7048    3.6360 N   0  0  0  0  0  0  0  0  0  0  0  0
   -1.9112    1.1427    2.2528 C   0  0  2  0  0  0  0  0  0  0  0  0
   -0.5739    0.6092    1.7001 C   0  0  0  0  0  0  0  0  0  0  0  0
    0.2629    0.1363    2.4639 O   0  0  0  0  0  0  0  0  0  0  0  0
   -1.9342    2.6743    2.2164 C   0  0  0  0  0  0  0  0  0  0  0  0
   -1.3339    0.3351    4.1416 H   0  0  0  0  0  0  0  0  0  0  0  0
   -2.7083    0.7544    1.6094 H   0  0  0  0  0  0  0  0  0  0  0  0
   -1.1519    3.0845    2.8628 H   0  0  0  0  0  0  0  0  0  0  0  0
   -1.7723    3.0382    1.1971 H   0  0  0  0  0  0  0  0  0  0  0  0
   -2.9031    3.0471    2.5643 H   0  0  0  0  0  0  0  0  0  0  0  0
   -0.3279    0.6156    0.3382 N   0  0  0  0  0  0  0  0  0  0  0  0
    0.9618    0.2761   -0.2924 C   0  0  2  0  0  0  0  0  0  0  0  0
    1.1768   -1.2490   -0.2494 C   0  0  0  0  0  0  0  0  0  0  0  0
    0.5551   -1.9689   -1.0224 O   0  0  0  0  0  0  0  0  0  0  0  0
    2.1654    1.0858    0.2435 C   0  0  0  0  0  0  0  0  0  0  0  0
    2.0294    2.5398   -0.1363 C   0  0  0  0  0  0  0  0  0  0  0  0
    2.3928    2.9853   -1.4162 C   0  0  0  0  0  0  0  0  0  0  0  0
    1.5261    3.4640    0.7910 C   0  0  0  0  0  0  0  0  0  0  0  0
    2.2489    4.3327   -1.7648 C   0  0  0  0  0  0  0  0  0  0  0  0
    1.3818    4.8111    0.4440 C   0  0  0  0  0  0  0  0  0  0  0  0
    1.7429    5.2460   -0.8347 C   0  0  0  0  0  0  0  0  0  0  0  0
   -1.0583    1.0011   -0.2548 H   0  0  0  0  0  0  0  0  0  0  0  0
    0.8772    0.5170   -1.3568 H   0  0  0  0  0  0  0  0  0  0  0  0
    3.0867    0.6948   -0.2014 H   0  0  0  0  0  0  0  0  0  0  0  0
    2.2747    0.9865    1.3262 H   0  0  0  0  0  0  0  0  0  0  0  0
    2.7880    2.2858   -2.1470 H   0  0  0  0  0  0  0  0  0  0  0  0
    1.2477    3.1355    1.7882 H   0  0  0  0  0  0  0  0  0  0  0  0
    2.5320    4.6702   -2.7577 H   0  0  0  0  0  0  0  0  0  0  0  0
    0.9931    5.5203    1.1692 H   0  0  0  0  0  0  0  0  0  0  0  0
    1.6340    6.2926   -1.1040 H   0  0  0  0  0  0  0  0  0  0  0  0
    2.0647   -1.8210    0.6430 N   0  0  0  0  0  0  0  0  0  0  0  0
    2.2279   -3.2737    0.8075 C   0  0  2  0  0  0  0  0  0  0  0  0
    1.0515   -3.9229    1.5800 C   0  0  0  0  0  0  0  0  0  0  0  0
    1.2209   -4.5137    2.6403 O   0  0  0  0  0  0  0  0  0  0  0  0
    3.5833   -3.5002    1.4884 C   0  0  0  0  0  0  0  0  0  0  0  0
    2.3001   -1.2336    1.4415 H   0  0  0  0  0  0  0  0  0  0  0  0
    2.2655   -3.7504   -0.1778 H   0  0  0  0  0  0  0  0  0  0  0  0
    3.5901   -3.0546    2.4883 H   0  0  0  0  0  0  0  0  0  0  0  0
    3.7849   -4.5717    1.5854 H   0  0  0  0  0  0  0  0  0  0  0  0
    4.3871   -3.0499    0.8980 H   0  0  0  0  0  0  0  0  0  0  0  0
   -0.2222   -3.8483    1.0520 N   0  0  0  0  0  0  0  0  0  0  0  0
   -1.4079   -4.3947    1.6964 C   0  0  0  0  0  0  0  0  0  0  0  0
   -0.3189   -3.3150    0.1841 H   0  0  0  0  0  0  0  0  0  0  0  0
   -1.3018   -5.4751    1.8387 H   0  0  0  0  0  0  0  0  0  0  0  0
   -1.5653   -3.9236    2.6720 H   0  0  0  0  0  0  0  0  0  0  0  0
   -2.2909   -4.2122    1.0766 H   0  0  0  0  0  0  0  0  0  0  0  0
  1  2  2  0  0  0  0
  1  3  1  0  0  0  0
  1  7  1  0  0  0  0
  3  4  1  0  0  0  0
  3  5  1  0  0  0  0
  3  6  1  0  0  0  0
  7  8  1  0  0  0  0
  7 12  1  0  0  0  0
  8  9  1  0  0  0  0
  8 11  1  0  0  0  0
  8 13  1  0  0  0  0
  9 10  2  0  0  0  0
  9 17  1  0  0  0  0
 11 14  1  0  0  0  0
 11 15  1  0  0  0  0
 11 16  1  0  0  0  0
 17 18  1  0  0  0  0
 17 28  1  0  0  0  0
 18 19  1  0  0  0  0
 18 21  1  0  0  0  0
 18 29  1  0  0  0  0
 19 20  2  0  0  0  0
 19 37  1  0  0  0  0
 21 22  1  0  0  0  0
 21 30  1  0  0  0  0
 21 31  1  0  0  0  0
 22 23  1  0  0  0  0
 22 24  2  0  0  0  0
 23 25  2  0  0  0  0
 23 32  1  0  0  0  0
 24 26  1  0  0  0  0
 24 33  1  0  0  0  0
 25 27  1  0  0  0  0
 25 34  1  0  0  0  0
 26 27  2  0  0  0  0
 26 35  1  0  0  0  0
 27 36  1  0  0  0  0
 37 38  1  0  0  0  0
 37 42  1  0  0  0  0
 38 39  1  0  0  0  0
 38 41  1  0  0  0  0
 38 43  1  0  0  0  0
 39 40  2  0  0  0  0
 39 47  1  0  0  0  0
 41 44  1  0  0  0  0
 41 45  1  0  0  0  0
 41 46  1  0  0  0  0
 47 48  1  0  0  0  0
 47 49  1  0  0  0  0
 48 50  1  0  0  0  0
 48 51  1  0  0  0  0
 48 52  1  0  0  0  0
M  END
$$$$

  -OEChem-05262217163D

 52 52  0     1  0  0  0  0  0999 V2000
   -3.4098    0.4881    4.1596 C   0  0  0  0  0  0  0  0  0  0  0  0
   -4.4019    0.7878    3.5141 O   0  0  0  0  0  0  0  0  0  0  0  0
   -3.5523   -0.1135    5.5453 C   0  0  0  0  0  0  0  0  0  0  0  0
   -4.6054   -0.1362    5.8398 H   0  0  0  0  0  0  0  0  0  0  0  0
   -3.1617   -1.1342    5.5507 H   0  0  0  0  0  0  0  0  0  0  0  0
   -2.9977    0.4851    6.2722 H   0  0  0  0  0  0  0  0  0  0  0  0
   -2.1554    0.6931    3.6252 N   0  0  0  0  0  0  0  0  0  0  0  0
   -1.9062    1.1437    2.2496 C   0  0  2  0  0  0  0  0  0  0  0  0
   -0.5639    0.6117    1.7096 C   0  0  0  0  0  0  0  0  0  0  0  0
    0.2767    0.1622    2.4843 O   0  0  0  0  0  0  0  0  0  0  0  0
   -1.9212    2.6752    2.2250 C   0  0  0  0  0  0  0  0  0  0  0  0
   -1.3598    0.3196    4.1422 H   0  0  0  0  0  0  0  0  0  0  0  0
   -2.6958    0.7646    1.5919 H   0  0  0  0  0  0  0  0  0  0  0  0
   -1.1440    3.0760    2.8831 H   0  0  0  0  0  0  0  0  0  0  0  0
   -1.7460    3.0462    1.2105 H   0  0  0  0  0  0  0  0  0  0  0  0
   -2.8920    3.0498    2.5650 H   0  0  0  0  0  0  0  0  0  0  0  0
   -0.3213    0.5838    0.3466 N   0  0  0  0  0  0  0  0  0  0  0  0
    0.9726    0.2487   -0.2788 C   0  0  2  0  0  0  0  0  0  0  0  0
    1.2116   -1.2694   -0.1924 C   0  0  0  0  0  0  0  0  0  0  0  0
    0.7911   -2.0083   -1.0749 O   0  0  0  0  0  0  0  0  0  0  0  0
    2.1711    1.0769    0.2383 C   0  0  0  0  0  0  0  0  0  0  0  0
    2.0247    2.5236   -0.1654 C   0  0  0  0  0  0  0  0  0  0  0  0
    2.3816    2.9493   -1.4539 C   0  0  0  0  0  0  0  0  0  0  0  0
    1.5155    3.4602    0.7460 C   0  0  0  0  0  0  0  0  0  0  0  0
    2.2276    4.2897   -1.8253 C   0  0  0  0  0  0  0  0  0  0  0  0
    1.3584    4.7996    0.3756 C   0  0  0  0  0  0  0  0  0  0  0  0
    1.7146    5.2150   -0.9109 C   0  0  0  0  0  0  0  0  0  0  0  0
   -1.0504    0.9638   -0.2519 H   0  0  0  0  0  0  0  0  0  0  0  0
    0.8840    0.4646   -1.3484 H   0  0  0  0  0  0  0  0  0  0  0  0
    3.0933    0.6821   -0.2016 H   0  0  0  0  0  0  0  0  0  0  0  0
    2.2845    0.9970    1.3221 H   0  0  0  0  0  0  0  0  0  0  0  0
    2.7814    2.2401   -2.1728 H   0  0  0  0  0  0  0  0  0  0  0  0
    1.2413    3.1468    1.7490 H   0  0  0  0  0  0  0  0  0  0  0  0
    2.5085    4.6121   -2.8239 H   0  0  0  0  0  0  0  0  0  0  0  0
    0.9641    5.5180    1.0882 H   0  0  0  0  0  0  0  0  0  0  0  0
    1.5962    6.2558   -1.1986 H   0  0  0  0  0  0  0  0  0  0  0  0
    1.8624   -1.8081    0.9010 N   0  0  0  0  0  0  0  0  0  0  0  0
    1.9700   -3.2537    1.1455 C   0  0  2  0  0  0  0  0  0  0  0  0
    0.6390   -3.8672    1.6482 C   0  0  0  0  0  0  0  0  0  0  0  0
    0.5449   -4.3983    2.7486 O   0  0  0  0  0  0  0  0  0  0  0  0
    3.1303   -3.4591    2.1271 C   0  0  0  0  0  0  0  0  0  0  0  0
    1.8611   -1.1978    1.7211 H   0  0  0  0  0  0  0  0  0  0  0  0
    2.2274   -3.7650    0.2119 H   0  0  0  0  0  0  0  0  0  0  0  0
    2.9208   -2.9635    3.0808 H   0  0  0  0  0  0  0  0  0  0  0  0
    3.2825   -4.5264    2.3171 H   0  0  0  0  0  0  0  0  0  0  0  0
    4.0559   -3.0467    1.7144 H   0  0  0  0  0  0  0  0  0  0  0  0
   -0.4749   -3.8170    0.8329 N   0  0  0  0  0  0  0  0  0  0  0  0
   -1.7856   -4.3294    1.2072 C   0  0  0  0  0  0  0  0  0  0  0  0
   -0.3578   -3.3329   -0.0607 H   0  0  0  0  0  0  0  0  0  0  0  0
   -1.7260   -5.3968    1.4441 H   0  0  0  0  0  0  0  0  0  0  0  0
   -2.1699   -3.7939    2.0813 H   0  0  0  0  0  0  0  0  0  0  0  0
   -2.4923   -4.1983    0.3823 H   0  0  0  0  0  0  0  0  0  0  0  0
  1  2  2  0  0  0  0
  1  3  1  0  0  0  0
  1  7  1  0  0  0  0
  3  4  1  0  0  0  0
  3  5  1  0  0  0  0
  3  6  1  0  0  0  0
  7  8  1  0  0  0  0
  7 12  1  0  0  0  0
  8  9  1  0  0  0  0
  8 11  1  0  0  0  0
  8 13  1  0  0  0  0
  9 10  2  0  0  0  0
  9 17  1  0  0  0  0
 11 14  1  0  0  0  0
 11 15  1  0  0  0  0
 11 16  1  0  0  0  0
 17 18  1  0  0  0  0
 17 28  1  0  0  0  0
 18 19  1  0  0  0  0
 18 21  1  0  0  0  0
 18 29  1  0  0  0  0
 19 20  2  0  0  0  0
 19 37  1  0  0  0  0
 21 22  1  0  0  0  0
 21 30  1  0  0  0  0
 21 31  1  0  0  0  0
 22 23  1  0  0  0  0
 22 24  2  0  0  0  0
 23 25  2  0  0  0  0
 23 32  1  0  0  0  0
 24 26  1  0  0  0  0
 24 33  1  0  0  0  0
 25 27  1  0  0  0  0
 25 34  1  0  0  0  0
 26 27  2  0  0  0  0
 26 35  1  0  0  0  0
 27 36  1  0  0  0  0
 37 38  1  0  0  0  0
 37 42  1  0  0  0  0
 38 39  1  0  0  0  0
 38 41  1  0  0  0  0
 38 43  1  0  0  0  0
 39 40  2  0  0  0  0
 39 47  1  0  0  0  0
 41 44  1  0  0  0  0
 41 45  1  0  0  0  0
 41 46  1  0  0  0  0
 47 48  1  0  0  0  0
 47 49  1  0  0  0  0
 48 50  1  0  0  0  0
 48 51  1  0  0  0  0
 48 52  1  0  0  0  0
M  END
$$$$

  -OEChem-05262217163D

 52 52  0     1  0  0  0  0  0999 V2000
   -3.4664    0.3889    4.0495 C   0  0  0  0  0  0  0  0  0  0  0  0
   -4.4331    0.6668    3.3574 O   0  0  0  0  0  0  0  0  0  0  0  0
   -3.6580   -0.2979    5.3885 C   0  0  0  0  0  0  0  0  0  0  0  0
   -4.7235   -0.4363    5.5922 H   0  0  0  0  0  0  0  0  0  0  0  0
   -3.1711   -1.2763    5.3800 H   0  0  0  0  0  0  0  0  0  0  0  0
   -3.2238    0.3105    6.1855 H   0  0  0  0  0  0  0  0  0  0  0  0
   -2.1960    0.6969    3.6101 N   0  0  0  0  0  0  0  0  0  0  0  0
   -1.8898    1.2059    2.2668 C   0  0  2  0  0  0  0  0  0  0  0  0
   -0.5383    0.6716    1.7530 C   0  0  0  0  0  0  0  0  0  0  0  0
    0.3069    0.2759    2.5510 O   0  0  0  0  0  0  0  0  0  0  0  0
   -1.8780    2.7365    2.3140 C   0  0  0  0  0  0  0  0  0  0  0  0
   -1.4155    0.3353    4.1573 H   0  0  0  0  0  0  0  0  0  0  0  0
   -2.6609    0.8751    1.5626 H   0  0  0  0  0  0  0  0  0  0  0  0
   -1.1145    3.0931    3.0126 H   0  0  0  0  0  0  0  0  0  0  0  0
   -1.6654    3.1497    1.3233 H   0  0  0  0  0  0  0  0  0  0  0  0
   -2.8526    3.1124    2.6417 H   0  0  0  0  0  0  0  0  0  0  0  0
   -0.2989    0.5787    0.3921 N   0  0  0  0  0  0  0  0  0  0  0  0
    0.9864    0.2227   -0.2449 C   0  0  2  0  0  0  0  0  0  0  0  0
    1.2564   -1.2868   -0.1087 C   0  0  0  0  0  0  0  0  0  0  0  0
    1.0193   -2.0408   -1.0451 O   0  0  0  0  0  0  0  0  0  0  0  0
    2.1871    1.0689    0.2312 C   0  0  0  0  0  0  0  0  0  0  0  0
    2.0283    2.5015   -0.2144 C   0  0  0  0  0  0  0  0  0  0  0  0
    2.3664    2.8876   -1.5200 C   0  0  0  0  0  0  0  0  0  0  0  0
    1.5279    3.4638    0.6748 C   0  0  0  0  0  0  0  0  0  0  0  0
    2.1962    4.2137   -1.9326 C   0  0  0  0  0  0  0  0  0  0  0  0
    1.3565    4.7896    0.2636 C   0  0  0  0  0  0  0  0  0  0  0  0
    1.6889    5.1646   -1.0415 C   0  0  0  0  0  0  0  0  0  0  0  0
   -1.0383    0.9240   -0.2149 H   0  0  0  0  0  0  0  0  0  0  0  0
    0.8809    0.4033   -1.3198 H   0  0  0  0  0  0  0  0  0  0  0  0
    3.1052    0.6642   -0.2080 H   0  0  0  0  0  0  0  0  0  0  0  0
    2.3146    1.0198    1.3155 H   0  0  0  0  0  0  0  0  0  0  0  0
    2.7623    2.1580   -2.2207 H   0  0  0  0  0  0  0  0  0  0  0  0
    1.2722    3.1812    1.6921 H   0  0  0  0  0  0  0  0  0  0  0  0
    2.4601    4.5054   -2.9452 H   0  0  0  0  0  0  0  0  0  0  0  0
    0.9690    5.5284    0.9592 H   0  0  0  0  0  0  0  0  0  0  0  0
    1.5574    6.1941   -1.3617 H   0  0  0  0  0  0  0  0  0  0  0  0
    1.6561   -1.8091    1.1063 N   0  0  0  0  0  0  0  0  0  0  0  0
    1.6579   -3.2470    1.4098 C   0  0  2  0  0  0  0  0  0  0  0  0
    0.2261   -3.7883    1.6443 C   0  0  0  0  0  0  0  0  0  0  0  0
   -0.1359   -4.2203    2.7326 O   0  0  0  0  0  0  0  0  0  0  0  0
    2.5798   -3.4561    2.6171 C   0  0  0  0  0  0  0  0  0  0  0  0
    1.5327   -1.1660    1.8941 H   0  0  0  0  0  0  0  0  0  0  0  0
    2.0812   -3.8014    0.5656 H   0  0  0  0  0  0  0  0  0  0  0  0
    2.1990   -2.9168    3.4904 H   0  0  0  0  0  0  0  0  0  0  0  0
    2.6426   -4.5198    2.8671 H   0  0  0  0  0  0  0  0  0  0  0  0
    3.5878   -3.0935    2.3945 H   0  0  0  0  0  0  0  0  0  0  0  0
   -0.6788   -3.7587    0.6013 N   0  0  0  0  0  0  0  0  0  0  0  0
   -2.0723   -4.1645    0.7183 C   0  0  0  0  0  0  0  0  0  0  0  0
   -0.3495   -3.3304   -0.2677 H   0  0  0  0  0  0  0  0  0  0  0  0
   -2.1408   -5.2134    1.0251 H   0  0  0  0  0  0  0  0  0  0  0  0
   -2.5907   -3.5450    1.4578 H   0  0  0  0  0  0  0  0  0  0  0  0
   -2.5793   -4.0526   -0.2450 H   0  0  0  0  0  0  0  0  0  0  0  0
  1  2  2  0  0  0  0
  1  3  1  0  0  0  0
  1  7  1  0  0  0  0
  3  4  1  0  0  0  0
  3  5  1  0  0  0  0
  3  6  1  0  0  0  0
  7  8  1  0  0  0  0
  7 12  1  0  0  0  0
  8  9  1  0  0  0  0
  8 11  1  0  0  0  0
  8 13  1  0  0  0  0
  9 10  2  0  0  0  0
  9 17  1  0  0  0  0
 11 14  1  0  0  0  0
 11 15  1  0  0  0  0
 11 16  1  0  0  0  0
 17 18  1  0  0  0  0
 17 28  1  0  0  0  0
 18 19  1  0  0  0  0
 18 21  1  0  0  0  0
 18 29  1  0  0  0  0
 19 20  2  0  0  0  0
 19 37  1  0  0  0  0
 21 22  1  0  0  0  0
 21 30  1  0  0  0  0
 21 31  1  0  0  0  0
 22 23  1  0  0  0  0
 22 24  2  0  0  0  0
 23 25  2  0  0  0  0
 23 32  1  0  0  0  0
 24 26  1  0  0  0  0
 24 33  1  0  0  0  0
 25 27  1  0  0  0  0
 25 34  1  0  0  0  0
 26 27  2  0  0  0  0
 26 35  1  0  0  0  0
 27 36  1  0  0  0  0
 37 38  1  0  0  0  0
 37 42  1  0  0  0  0
 38 39  1  0  0  0  0
 38 41  1  0  0  0  0
 38 43  1  0  0  0  0
 39 40  2  0  0  0  0
 39 47  1  0  0  0  0
 41 44  1  0  0  0  0
 41 45  1  0  0  0  0
 41 46  1  0  0  0  0
 47 48  1  0  0  0  0
 47 49  1  0  0  0  0
 48 50  1  0  0  0  0
 48 51  1  0  0  0  0
 48 52  1  0  0  0  0
M  END
$$$$

  -OEChem-05262217163D

 52 52  0     1  0  0  0  0  0999 V2000
   -3.1489    0.1409    2.0561 C   0  0  0  0  0  0  0  0  0  0  0  0
   -3.1665    0.9032    1.1000 O   0  0  0  0  0  0  0  0  0  0  0  0
   -4.1400   -1.0035    2.1377 C   0  0  0  0  0  0  0  0  0  0  0  0
   -4.4133   -1.3367    1.1333 H   0  0  0  0  0  0  0  0  0  0  0  0
   -3.7047   -1.8427    2.6845 H   0  0  0  0  0  0  0  0  0  0  0  0
   -5.0409   -0.6736    2.6604 H   0  0  0  0  0  0  0  0  0  0  0  0
   -2.2260    0.3386    3.0602 N   0  0  0  0  0  0  0  0  0  0  0  0
   -1.2825    1.4679    3.0845 C   0  0  2  0  0  0  0  0  0  0  0  0
   -0.0352    1.1909    2.2161 C   0  0  0  0  0  0  0  0  0  0  0  0
    1.0745    1.0891    2.7290 O   0  0  0  0  0  0  0  0  0  0  0  0
   -0.9450    1.7441    4.5551 C   0  0  0  0  0  0  0  0  0  0  0  0
   -2.0032   -0.4888    3.6191 H   0  0  0  0  0  0  0  0  0  0  0  0
   -1.7653    2.3643    2.6802 H   0  0  0  0  0  0  0  0  0  0  0  0
   -0.4592    0.8744    5.0095 H   0  0  0  0  0  0  0  0  0  0  0  0
   -0.2686    2.6009    4.6349 H   0  0  0  0  0  0  0  0  0  0  0  0
   -1.8554    1.9697    5.1187 H   0  0  0  0  0  0  0  0  0  0  0  0
   -0.2132    0.8519    0.8845 N   0  0  0  0  0  0  0  0  0  0  0  0
    0.8015    0.3087   -0.0467 C   0  0  2  0  0  0  0  0  0  0  0  0
    1.0518   -1.1696    0.2976 C   0  0  0  0  0  0  0  0  0  0  0  0
    0.7208   -2.0665   -0.4702 O   0  0  0  0  0  0  0  0  0  0  0  0
    2.1236    1.0997   -0.1354 C   0  0  0  0  0  0  0  0  0  0  0  0
    1.8906    2.4553   -0.7537 C   0  0  0  0  0  0  0  0  0  0  0  0
    1.7980    2.6035   -2.1456 C   0  0  0  0  0  0  0  0  0  0  0  0
    1.7486    3.5843    0.0652 C   0  0  0  0  0  0  0  0  0  0  0  0
    1.5677    3.8632   -2.7098 C   0  0  0  0  0  0  0  0  0  0  0  0
    1.5172    4.8440   -0.4968 C   0  0  0  0  0  0  0  0  0  0  0  0
    1.4272    4.9840   -1.8852 C   0  0  0  0  0  0  0  0  0  0  0  0
   -1.1868    0.8816    0.5667 H   0  0  0  0  0  0  0  0  0  0  0  0
    0.3611    0.3172   -1.0491 H   0  0  0  0  0  0  0  0  0  0  0  0
    2.8250    0.5445   -0.7674 H   0  0  0  0  0  0  0  0  0  0  0  0
    2.6050    1.2025    0.8397 H   0  0  0  0  0  0  0  0  0  0  0  0
    1.9038    1.7389   -2.7940 H   0  0  0  0  0  0  0  0  0  0  0  0
    1.8159    3.4804    1.1448 H   0  0  0  0  0  0  0  0  0  0  0  0
    1.4975    3.9703   -3.7884 H   0  0  0  0  0  0  0  0  0  0  0  0
    1.4075    5.7119    0.1466 H   0  0  0  0  0  0  0  0  0  0  0  0
    1.2486    5.9620   -2.3223 H   0  0  0  0  0  0  0  0  0  0  0  0
    1.5135   -1.4875    1.5605 N   0  0  0  0  0  0  0  0  0  0  0  0
    1.1905   -2.7650    2.1999 C   0  0  2  0  0  0  0  0  0  0  0  0
   -0.3383   -2.9987    2.2874 C   0  0  0  0  0  0  0  0  0  0  0  0
   -1.0339   -2.4396    3.1345 O   0  0  0  0  0  0  0  0  0  0  0  0
    1.8382   -2.7617    3.5875 C   0  0  0  0  0  0  0  0  0  0  0  0
    1.5967   -0.6734    2.1776 H   0  0  0  0  0  0  0  0  0  0  0  0
    1.6284   -3.5824    1.6178 H   0  0  0  0  0  0  0  0  0  0  0  0
    1.4480   -1.9373    4.1933 H   0  0  0  0  0  0  0  0  0  0  0  0
    1.6311   -3.7027    4.1062 H   0  0  0  0  0  0  0  0  0  0  0  0
    2.9227   -2.6454    3.4991 H   0  0  0  0  0  0  0  0  0  0  0  0
   -0.9274   -3.8169    1.3429 N   0  0  0  0  0  0  0  0  0  0  0  0
   -2.3640   -4.0170    1.2243 C   0  0  0  0  0  0  0  0  0  0  0  0
   -0.3621   -3.9616    0.5056 H   0  0  0  0  0  0  0  0  0  0  0  0
   -2.8233   -4.1535    2.2089 H   0  0  0  0  0  0  0  0  0  0  0  0
   -2.8249   -3.1573    0.7299 H   0  0  0  0  0  0  0  0  0  0  0  0
   -2.5689   -4.9113    0.6283 H   0  0  0  0  0  0  0  0  0  0  0  0
  1  2  2  0  0  0  0
  1  3  1  0  0  0  0
  1  7  1  0  0  0  0
  3  4  1  0  0  0  0
  3  5  1  0  0  0  0
  3  6  1  0  0  0  0
  7  8  1  0  0  0  0
  7 12  1  0  0  0  0
  8  9  1  0  0  0  0
  8 11  1  0  0  0  0
  8 13  1  0  0  0  0
  9 10  2  0  0  0  0
  9 17  1  0  0  0  0
 11 14  1  0  0  0  0
 11 15  1  0  0  0  0
 11 16  1  0  0  0  0
 17 18  1  0  0  0  0
 17 28  1  0  0  0  0
 18 19  1  0  0  0  0
 18 21  1  0  0  0  0
 18 29  1  0  0  0  0
 19 20  2  0  0  0  0
 19 37  1  0  0  0  0
 21 22  1  0  0  0  0
 21 30  1  0  0  0  0
 21 31  1  0  0  0  0
 22 23  1  0  0  0  0
 22 24  2  0  0  0  0
 23 25  2  0  0  0  0
 23 32  1  0  0  0  0
 24 26  1  0  0  0  0
 24 33  1  0  0  0  0
 25 27  1  0  0  0  0
 25 34  1  0  0  0  0
 26 27  2  0  0  0  0
 26 35  1  0  0  0  0
 27 36  1  0  0  0  0
 37 38  1  0  0  0  0
 37 42  1  0  0  0  0
 38 39  1  0  0  0  0
 38 41  1  0  0  0  0
 38 43  1  0  0  0  0
 39 40  2  0  0  0  0
 39 47  1  0  0  0  0
 41 44  1  0  0  0  0
 41 45  1  0  0  0  0
 41 46  1  0  0  0  0
 47 48  1  0  0  0  0
 47 49  1  0  0  0  0
 48 50  1  0  0  0  0
 48 51  1  0  0  0  0
 48 52  1  0  0  0  0
M  END
$$$$

  -OEChem-05262217163D

 52 52  0     1  0  0  0  0  0999 V2000
   -3.5707    1.0145    4.2470 C   0  0  0  0  0  0  0  0  0  0  0  0
   -4.5254    1.3237    3.5521 O   0  0  0  0  0  0  0  0  0  0  0  0
   -3.7881    0.4672    5.6449 C   0  0  0  0  0  0  0  0  0  0  0  0
   -4.8582    0.3802    5.8535 H   0  0  0  0  0  0  0  0  0  0  0  0
   -3.3315   -0.5217    5.7340 H   0  0  0  0  0  0  0  0  0  0  0  0
   -3.3385    1.1369    6.3819 H   0  0  0  0  0  0  0  0  0  0  0  0
   -2.2899    1.1537    3.7555 N   0  0  0  0  0  0  0  0  0  0  0  0
   -1.9764    1.5055    2.3641 C   0  0  2  0  0  0  0  0  0  0  0  0
   -0.6926    0.8082    1.8697 C   0  0  0  0  0  0  0  0  0  0  0  0
    0.1012    0.3381    2.6790 O   0  0  0  0  0  0  0  0  0  0  0  0
   -1.8371    3.0274    2.2667 C   0  0  0  0  0  0  0  0  0  0  0  0
   -1.5301    0.7831    4.3245 H   0  0  0  0  0  0  0  0  0  0  0  0
   -2.7931    1.1791    1.7105 H   0  0  0  0  0  0  0  0  0  0  0  0
   -1.0305    3.3815    2.9163 H   0  0  0  0  0  0  0  0  0  0  0  0
   -1.6165    3.3293    1.2381 H   0  0  0  0  0  0  0  0  0  0  0  0
   -2.7694    3.5116    2.5749 H   0  0  0  0  0  0  0  0  0  0  0  0
   -0.4792    0.6426    0.5116 N   0  0  0  0  0  0  0  0  0  0  0  0
    0.7570    0.1725   -0.1558 C   0  0  2  0  0  0  0  0  0  0  0  0
    0.9852   -1.3461   -0.0127 C   0  0  0  0  0  0  0  0  0  0  0  0
    1.2516   -2.0184   -1.0014 O   0  0  0  0  0  0  0  0  0  0  0  0
    2.0212    0.9412    0.2804 C   0  0  0  0  0  0  0  0  0  0  0  0
    1.9566    2.3747   -0.1864 C   0  0  0  0  0  0  0  0  0  0  0  0
    2.2950    2.7133   -1.5049 C   0  0  0  0  0  0  0  0  0  0  0  0
    1.5613    3.3878    0.6992 C   0  0  0  0  0  0  0  0  0  0  0  0
    2.2211    4.0423   -1.9362 C   0  0  0  0  0  0  0  0  0  0  0  0
    1.4876    4.7169    0.2698 C   0  0  0  0  0  0  0  0  0  0  0  0
    1.8149    5.0444   -1.0495 C   0  0  0  0  0  0  0  0  0  0  0  0
   -1.1835    1.0647   -0.0889 H   0  0  0  0  0  0  0  0  0  0  0  0
    0.6299    0.3466   -1.2293 H   0  0  0  0  0  0  0  0  0  0  0  0
    2.9011    0.4675   -0.1683 H   0  0  0  0  0  0  0  0  0  0  0  0
    2.1618    0.8960    1.3636 H   0  0  0  0  0  0  0  0  0  0  0  0
    2.6143    1.9432   -2.2013 H   0  0  0  0  0  0  0  0  0  0  0  0
    1.3146    3.1433    1.7284 H   0  0  0  0  0  0  0  0  0  0  0  0
    2.4817    4.2953   -2.9599 H   0  0  0  0  0  0  0  0  0  0  0  0
    1.1811    5.4954    0.9623 H   0  0  0  0  0  0  0  0  0  0  0  0
    1.7592    6.0764   -1.3837 H   0  0  0  0  0  0  0  0  0  0  0  0
    0.8160   -1.9813    1.2011 N   0  0  0  0  0  0  0  0  0  0  0  0
    0.9603   -3.4249    1.4314 C   0  0  2  0  0  0  0  0  0  0  0  0
   -0.2759   -4.2233    0.9511 C   0  0  0  0  0  0  0  0  0  0  0  0
   -0.9535   -4.8950    1.7203 O   0  0  0  0  0  0  0  0  0  0  0  0
    1.2500   -3.6156    2.9254 C   0  0  0  0  0  0  0  0  0  0  0  0
    0.5729   -1.3776    1.9912 H   0  0  0  0  0  0  0  0  0  0  0  0
    1.8238   -3.7987    0.8709 H   0  0  0  0  0  0  0  0  0  0  0  0
    0.4109   -3.2538    3.5283 H   0  0  0  0  0  0  0  0  0  0  0  0
    1.4065   -4.6755    3.1500 H   0  0  0  0  0  0  0  0  0  0  0  0
    2.1507   -3.0646    3.2130 H   0  0  0  0  0  0  0  0  0  0  0  0
   -0.6270   -4.1763   -0.3836 N   0  0  0  0  0  0  0  0  0  0  0  0
   -1.7982   -4.8368   -0.9425 C   0  0  0  0  0  0  0  0  0  0  0  0
   -0.0600   -3.5651   -0.9764 H   0  0  0  0  0  0  0  0  0  0  0  0
   -1.7550   -5.9150   -0.7559 H   0  0  0  0  0  0  0  0  0  0  0  0
   -2.7133   -4.4369   -0.4936 H   0  0  0  0  0  0  0  0  0  0  0  0
   -1.8429   -4.6745   -2.0237 H   0  0  0  0  0  0  0  0  0  0  0  0
  1  2  2  0  0  0  0
  1  3  1  0  0  0  0
  1  7  1  0  0  0  0
  3  4  1  0  0  0  0
  3  5  1  0  0  0  0
  3  6  1  0  0  0  0
  7  8  1  0  0  0  0
  7 12  1  0  0  0  0
  8  9  1  0  0  0  0
  8 11  1  0  0  0  0
  8 13  1  0  0  0  0
  9 10  2  0  0  0  0
  9 17  1  0  0  0  0
 11 14  1  0  0  0  0
 11 15  1  0  0  0  0
 11 16  1  0  0  0  0
 17 18  1  0  0  0  0
 17 28  1  0  0  0  0
 18 19  1  0  0  0  0
 18 21  1  0  0  0  0
 18 29  1  0  0  0  0
 19 20  2  0  0  0  0
 19 37  1  0  0  0  0
 21 22  1  0  0  0  0
 21 30  1  0  0  0  0
 21 31  1  0  0  0  0
 22 23  1  0  0  0  0
 22 24  2  0  0  0  0
 23 25  2  0  0  0  0
 23 32  1  0  0  0  0
 24 26  1  0  0  0  0
 24 33  1  0  0  0  0
 25 27  1  0  0  0  0
 25 34  1  0  0  0  0
 26 27  2  0  0  0  0
 26 35  1  0  0  0  0
 27 36  1  0  0  0  0
 37 38  1  0  0  0  0
 37 42  1  0  0  0  0
 38 39  1  0  0  0  0
 38 41  1  0  0  0  0
 38 43  1  0  0  0  0
 39 40  2  0  0  0  0
 39 47  1  0  0  0  0
 41 44  1  0  0  0  0
 41 45  1  0  0  0  0
 41 46  1  0  0  0  0
 47 48  1  0  0  0  0
 47 49  1  0  0  0  0
 48 50  1  0  0  0  0
 48 51  1  0  0  0  0
 48 52  1  0  0  0  0
M  END
$$$$

  -OEChem-05262217163D

 52 52  0     1  0  0  0  0  0999 V2000
   -3.5863    1.3341    4.3175 C   0  0  0  0  0  0  0  0  0  0  0  0
   -4.5317    1.6999    3.6377 O   0  0  0  0  0  0  0  0  0  0  0  0
   -3.8082    0.8579    5.7404 C   0  0  0  0  0  0  0  0  0  0  0  0
   -4.8751    0.8730    5.9807 H   0  0  0  0  0  0  0  0  0  0  0  0
   -3.4365   -0.1633    5.8549 H   0  0  0  0  0  0  0  0  0  0  0  0
   -3.2800    1.5111    6.4389 H   0  0  0  0  0  0  0  0  0  0  0  0
   -2.3140    1.3426    3.7856 N   0  0  0  0  0  0  0  0  0  0  0  0
   -2.0136    1.6258    2.3760 C   0  0  2  0  0  0  0  0  0  0  0  0
   -0.7961    0.8222    1.8745 C   0  0  0  0  0  0  0  0  0  0  0  0
   -0.0622    0.2516    2.6751 O   0  0  0  0  0  0  0  0  0  0  0  0
   -1.7710    3.1305    2.2258 C   0  0  0  0  0  0  0  0  0  0  0  0
   -1.5725    0.9209    4.3435 H   0  0  0  0  0  0  0  0  0  0  0  0
   -2.8682    1.3379    1.7536 H   0  0  0  0  0  0  0  0  0  0  0  0
   -0.9294    3.4471    2.8494 H   0  0  0  0  0  0  0  0  0  0  0  0
   -1.5503    3.3843    1.1844 H   0  0  0  0  0  0  0  0  0  0  0  0
   -2.6607    3.6891    2.5341 H   0  0  0  0  0  0  0  0  0  0  0  0
   -0.5890    0.6587    0.5158 N   0  0  0  0  0  0  0  0  0  0  0  0
    0.6313    0.1411   -0.1473 C   0  0  2  0  0  0  0  0  0  0  0  0
    0.8155   -1.3857   -0.0238 C   0  0  0  0  0  0  0  0  0  0  0  0
    1.3332   -2.0078   -0.9436 O   0  0  0  0  0  0  0  0  0  0  0  0
    1.9187    0.8574    0.3091 C   0  0  0  0  0  0  0  0  0  0  0  0
    1.9175    2.2963   -0.1443 C   0  0  0  0  0  0  0  0  0  0  0  0
    2.2852    2.6309   -1.4557 C   0  0  0  0  0  0  0  0  0  0  0  0
    1.5638    3.3188    0.7477 C   0  0  0  0  0  0  0  0  0  0  0  0
    2.2786    3.9661   -1.8740 C   0  0  0  0  0  0  0  0  0  0  0  0
    1.5566    4.6542    0.3318 C   0  0  0  0  0  0  0  0  0  0  0  0
    1.9118    4.9780   -0.9811 C   0  0  0  0  0  0  0  0  0  0  0  0
   -1.2386    1.1687   -0.0780 H   0  0  0  0  0  0  0  0  0  0  0  0
    0.5183    0.3284   -1.2201 H   0  0  0  0  0  0  0  0  0  0  0  0
    2.7862    0.3548   -0.1323 H   0  0  0  0  0  0  0  0  0  0  0  0
    2.0419    0.7963    1.3941 H   0  0  0  0  0  0  0  0  0  0  0  0
    2.5758    1.8526   -2.1560 H   0  0  0  0  0  0  0  0  0  0  0  0
    1.3010    3.0763    1.7728 H   0  0  0  0  0  0  0  0  0  0  0  0
    2.5617    4.2164   -2.8924 H   0  0  0  0  0  0  0  0  0  0  0  0
    1.2826    5.4399    1.0299 H   0  0  0  0  0  0  0  0  0  0  0  0
    1.9104    6.0147   -1.3053 H   0  0  0  0  0  0  0  0  0  0  0  0
    0.3414   -2.0818    1.0699 N   0  0  0  0  0  0  0  0  0  0  0  0
    0.5520   -3.5171    1.3041 C   0  0  2  0  0  0  0  0  0  0  0  0
   -0.4350   -4.4016    0.5040 C   0  0  0  0  0  0  0  0  0  0  0  0
   -1.1778   -5.2057    1.0551 O   0  0  0  0  0  0  0  0  0  0  0  0
    0.4619   -3.7432    2.8182 C   0  0  0  0  0  0  0  0  0  0  0  0
    0.0337   -1.5023    1.8544 H   0  0  0  0  0  0  0  0  0  0  0  0
    1.5620   -3.7932    0.9838 H   0  0  0  0  0  0  0  0  0  0  0  0
   -0.5382   -3.4916    3.1859 H   0  0  0  0  0  0  0  0  0  0  0  0
    0.6656   -4.7917    3.0578 H   0  0  0  0  0  0  0  0  0  0  0  0
    1.1947   -3.1216    3.3416 H   0  0  0  0  0  0  0  0  0  0  0  0
   -0.4693   -4.2944   -0.8723 N   0  0  0  0  0  0  0  0  0  0  0  0
   -1.3556   -5.0672   -1.7306 C   0  0  0  0  0  0  0  0  0  0  0  0
    0.1595   -3.6010   -1.2859 H   0  0  0  0  0  0  0  0  0  0  0  0
   -1.1619   -6.1386   -1.6141 H   0  0  0  0  0  0  0  0  0  0  0  0
   -2.4023   -4.8675   -1.4784 H   0  0  0  0  0  0  0  0  0  0  0  0
   -1.1944   -4.7983   -2.7788 H   0  0  0  0  0  0  0  0  0  0  0  0
  1  2  2  0  0  0  0
  1  3  1  0  0  0  0
  1  7  1  0  0  0  0
  3  4  1  0  0  0  0
  3  5  1  0  0  0  0
  3  6  1  0  0  0  0
  7  8  1  0  0  0  0
  7 12  1  0  0  0  0
  8  9  1  0  0  0  0
  8 11  1  0  0  0  0
  8 13  1  0  0  0  0
  9 10  2  0  0  0  0
  9 17  1  0  0  0  0
 11 14  1  0  0  0  0
 11 15  1  0  0  0  0
 11 16  1  0  0  0  0
 17 18  1  0  0  0  0
 17 28  1  0  0  0  0
 18 19  1  0  0  0  0
 18 21  1  0  0  0  0
 18 29  1  0  0  0  0
 19 20  2  0  0  0  0
 19 37  1  0  0  0  0
 21 22  1  0  0  0  0
 21 30  1  0  0  0  0
 21 31  1  0  0  0  0
 22 23  1  0  0  0  0
 22 24  2  0  0  0  0
 23 25  2  0  0  0  0
 23 32  1  0  0  0  0
 24 26  1  0  0  0  0
 24 33  1  0  0  0  0
 25 27  1  0  0  0  0
 25 34  1  0  0  0  0
 26 27  2  0  0  0  0
 26 35  1  0  0  0  0
 27 36  1  0  0  0  0
 37 38  1  0  0  0  0
 37 42  1  0  0  0  0
 38 39  1  0  0  0  0
 38 41  1  0  0  0  0
 38 43  1  0  0  0  0
 39 40  2  0  0  0  0
 39 47  1  0  0  0  0
 41 44  1  0  0  0  0
 41 45  1  0  0  0  0
 41 46  1  0  0  0  0
 47 48  1  0  0  0  0
 47 49  1  0  0  0  0
 48 50  1  0  0  0  0
 48 51  1  0  0  0  0
 48 52  1  0  0  0  0
M  END
$$$$

  -OEChem-05262217163D

 52 52  0     1  0  0  0  0  0999 V2000
   -3.2542    0.2474    3.5510 C   0  0  0  0  0  0  0  0  0  0  0  0
   -3.5195   -0.2455    2.4654 O   0  0  0  0  0  0  0  0  0  0  0  0
   -3.6091   -0.4812    4.8326 C   0  0  0  0  0  0  0  0  0  0  0  0
   -4.1433   -1.4079    4.6041 H   0  0  0  0  0  0  0  0  0  0  0  0
   -2.6991   -0.7270    5.3856 H   0  0  0  0  0  0  0  0  0  0  0  0
   -4.2484    0.1489    5.4556 H   0  0  0  0  0  0  0  0  0  0  0  0
   -2.5690    1.4445    3.6024 N   0  0  0  0  0  0  0  0  0  0  0  0
   -1.9624    2.0263    2.3972 C   0  0  2  0  0  0  0  0  0  0  0  0
   -0.7627    1.1939    1.8944 C   0  0  0  0  0  0  0  0  0  0  0  0
   -0.0048    0.6680    2.7003 O   0  0  0  0  0  0  0  0  0  0  0  0
   -1.5247    3.4562    2.7193 C   0  0  0  0  0  0  0  0  0  0  0  0
   -2.1611    1.6830    4.5019 H   0  0  0  0  0  0  0  0  0  0  0  0
   -2.7134    2.0665    1.6008 H   0  0  0  0  0  0  0  0  0  0  0  0
   -0.7669    3.4578    3.5096 H   0  0  0  0  0  0  0  0  0  0  0  0
   -1.1008    3.9340    1.8304 H   0  0  0  0  0  0  0  0  0  0  0  0
   -2.3814    4.0493    3.0542 H   0  0  0  0  0  0  0  0  0  0  0  0
   -0.6019    0.9494    0.5416 N   0  0  0  0  0  0  0  0  0  0  0  0
    0.5533    0.2931   -0.1143 C   0  0  2  0  0  0  0  0  0  0  0  0
    0.5838   -1.2366    0.0935 C   0  0  0  0  0  0  0  0  0  0  0  0
    1.2747   -1.9344   -0.6399 O   0  0  0  0  0  0  0  0  0  0  0  0
    1.9124    0.9170    0.2722 C   0  0  0  0  0  0  0  0  0  0  0  0
    2.0246    2.3232   -0.2633 C   0  0  0  0  0  0  0  0  0  0  0  0
    2.3849    2.5515   -1.5994 C   0  0  0  0  0  0  0  0  0  0  0  0
    1.7728    3.4198    0.5740 C   0  0  0  0  0  0  0  0  0  0  0  0
    2.4803    3.8567   -2.0941 C   0  0  0  0  0  0  0  0  0  0  0  0
    1.8670    4.7255    0.0811 C   0  0  0  0  0  0  0  0  0  0  0  0
    2.2194    4.9442   -1.2543 C   0  0  0  0  0  0  0  0  0  0  0  0
   -1.3049    1.3618   -0.0660 H   0  0  0  0  0  0  0  0  0  0  0  0
    0.4309    0.4286   -1.1933 H   0  0  0  0  0  0  0  0  0  0  0  0
    2.7201    0.3171   -0.1611 H   0  0  0  0  0  0  0  0  0  0  0  0
    2.0656    0.9038    1.3543 H   0  0  0  0  0  0  0  0  0  0  0  0
    2.5937    1.7124   -2.2571 H   0  0  0  0  0  0  0  0  0  0  0  0
    1.5094    3.2557    1.6150 H   0  0  0  0  0  0  0  0  0  0  0  0
    2.7613    4.0247   -3.1298 H   0  0  0  0  0  0  0  0  0  0  0  0
    1.6735    5.5690    0.7370 H   0  0  0  0  0  0  0  0  0  0  0  0
    2.2972    5.9574   -1.6377 H   0  0  0  0  0  0  0  0  0  0  0  0
   -0.1938   -1.8449    1.0599 N   0  0  0  0  0  0  0  0  0  0  0  0
   -0.1028   -3.2607    1.4445 C   0  0  2  0  0  0  0  0  0  0  0  0
   -0.8339   -4.2177    0.4688 C   0  0  0  0  0  0  0  0  0  0  0  0
   -1.6092   -5.0796    0.8679 O   0  0  0  0  0  0  0  0  0  0  0  0
   -0.6400   -3.3541    2.8784 C   0  0  0  0  0  0  0  0  0  0  0  0
   -0.6527   -1.2060    1.7091 H   0  0  0  0  0  0  0  0  0  0  0  0
    0.9495   -3.5632    1.4567 H   0  0  0  0  0  0  0  0  0  0  0  0
   -1.6989   -3.0767    2.9091 H   0  0  0  0  0  0  0  0  0  0  0  0
   -0.5372   -4.3757    3.2576 H   0  0  0  0  0  0  0  0  0  0  0  0
   -0.0823   -2.6836    3.5396 H   0  0  0  0  0  0  0  0  0  0  0  0
   -0.5555   -4.1489   -0.8820 N   0  0  0  0  0  0  0  0  0  0  0  0
   -1.0968   -5.0621   -1.8780 C   0  0  0  0  0  0  0  0  0  0  0  0
    0.1527   -3.4639   -1.1572 H   0  0  0  0  0  0  0  0  0  0  0  0
   -0.7648   -6.0860   -1.6776 H   0  0  0  0  0  0  0  0  0  0  0  0
   -2.1914   -5.0365   -1.8666 H   0  0  0  0  0  0  0  0  0  0  0  0
   -0.7548   -4.7756   -2.8771 H   0  0  0  0  0  0  0  0  0  0  0  0
  1  2  2  0  0  0  0
  1  3  1  0  0  0  0
  1  7  1  0  0  0  0
  3  4  1  0  0  0  0
  3  5  1  0  0  0  0
  3  6  1  0  0  0  0
  7  8  1  0  0  0  0
  7 12  1  0  0  0  0
  8  9  1  0  0  0  0
  8 11  1  0  0  0  0
  8 13  1  0  0  0  0
  9 10  2  0  0  0  0
  9 17  1  0  0  0  0
 11 14  1  0  0  0  0
 11 15  1  0  0  0  0
 11 16  1  0  0  0  0
 17 18  1  0  0  0  0
 17 28  1  0  0  0  0
 18 19  1  0  0  0  0
 18 21  1  0  0  0  0
 18 29  1  0  0  0  0
 19 20  2  0  0  0  0
 19 37  1  0  0  0  0
 21 22  1  0  0  0  0
 21 30  1  0  0  0  0
 21 31  1  0  0  0  0
 22 23  1  0  0  0  0
 22 24  2  0  0  0  0
 23 25  2  0  0  0  0
 23 32  1  0  0  0  0
 24 26  1  0  0  0  0
 24 33  1  0  0  0  0
 25 27  1  0  0  0  0
 25 34  1  0  0  0  0
 26 27  2  0  0  0  0
 26 35  1  0  0  0  0
 27 36  1  0  0  0  0
 37 38  1  0  0  0  0
 37 42  1  0  0  0  0
 38 39  1  0  0  0  0
 38 41  1  0  0  0  0
 38 43  1  0  0  0  0
 39 40  2  0  0  0  0
 39 47  1  0  0  0  0
 41 44  1  0  0  0  0
 41 45  1  0  0  0  0
 41 46  1  0  0  0  0
 47 48  1  0  0  0  0
 47 49  1  0  0  0  0
 48 50  1  0  0  0  0
 48 51  1  0  0  0  0
 48 52  1  0  0  0  0
M  END
$$$$

  -OEChem-05262217163D

 52 52  0     1  0  0  0  0  0999 V2000
   -3.1392   -0.0228    3.0322 C   0  0  0  0  0  0  0  0  0  0  0  0
   -3.0226   -0.3798    1.8678 O   0  0  0  0  0  0  0  0  0  0  0  0
   -3.7696   -0.9431    4.0600 C   0  0  0  0  0  0  0  0  0  0  0  0
   -4.2231   -1.8065    3.5644 H   0  0  0  0  0  0  0  0  0  0  0  0
   -3.0097   -1.2978    4.7607 H   0  0  0  0  0  0  0  0  0  0  0  0
   -4.5465   -0.4109    4.6141 H   0  0  0  0  0  0  0  0  0  0  0  0
   -2.6391    1.2058    3.4134 N   0  0  0  0  0  0  0  0  0  0  0  0
   -1.8854    2.0670    2.4922 C   0  0  2  0  0  0  0  0  0  0  0  0
   -0.6023    1.3799    1.9747 C   0  0  0  0  0  0  0  0  0  0  0  0
    0.2483    1.0068    2.7713 O   0  0  0  0  0  0  0  0  0  0  0  0
   -1.5478    3.3729    3.2160 C   0  0  0  0  0  0  0  0  0  0  0  0
   -2.5631    1.3801    4.4116 H   0  0  0  0  0  0  0  0  0  0  0  0
   -2.5185    2.3063    1.6314 H   0  0  0  0  0  0  0  0  0  0  0  0
   -0.9199    3.1775    4.0917 H   0  0  0  0  0  0  0  0  0  0  0  0
   -1.0067    4.0481    2.5457 H   0  0  0  0  0  0  0  0  0  0  0  0
   -2.4631    3.8739    3.5461 H   0  0  0  0  0  0  0  0  0  0  0  0
   -0.4969    1.0824    0.6260 N   0  0  0  0  0  0  0  0  0  0  0  0
    0.6083    0.3667   -0.0484 C   0  0  2  0  0  0  0  0  0  0  0  0
    0.5842   -1.1559    0.2180 C   0  0  0  0  0  0  0  0  0  0  0  0
    1.4082   -1.8817   -0.3284 O   0  0  0  0  0  0  0  0  0  0  0  0
    2.0025    0.9697    0.2441 C   0  0  0  0  0  0  0  0  0  0  0  0
    2.1241    2.3460   -0.3636 C   0  0  0  0  0  0  0  0  0  0  0  0
    2.4249    2.5024   -1.7246 C   0  0  0  0  0  0  0  0  0  0  0  0
    1.9315    3.4867    0.4293 C   0  0  0  0  0  0  0  0  0  0  0  0
    2.5244    3.7799   -2.2862 C   0  0  0  0  0  0  0  0  0  0  0  0
    2.0303    4.7651   -0.1305 C   0  0  0  0  0  0  0  0  0  0  0  0
    2.3259    4.9118   -1.4895 C   0  0  0  0  0  0  0  0  0  0  0  0
   -1.3183    1.2990    0.0670 H   0  0  0  0  0  0  0  0  0  0  0  0
    0.4427    0.4645   -1.1252 H   0  0  0  0  0  0  0  0  0  0  0  0
    2.7736    0.3319   -0.2006 H   0  0  0  0  0  0  0  0  0  0  0  0
    2.2134    0.9994    1.3156 H   0  0  0  0  0  0  0  0  0  0  0  0
    2.5844    1.6283   -2.3493 H   0  0  0  0  0  0  0  0  0  0  0  0
    1.7076    3.3764    1.4867 H   0  0  0  0  0  0  0  0  0  0  0  0
    2.7591    3.8922   -3.3407 H   0  0  0  0  0  0  0  0  0  0  0  0
    1.8822    5.6430    0.4913 H   0  0  0  0  0  0  0  0  0  0  0  0
    2.4065    5.9035   -1.9250 H   0  0  0  0  0  0  0  0  0  0  0  0
   -0.3856   -1.7484    1.0083 N   0  0  0  0  0  0  0  0  0  0  0  0
   -0.3937   -3.1687    1.3915 C   0  0  2  0  0  0  0  0  0  0  0  0
   -0.9659   -4.0920    0.2885 C   0  0  0  0  0  0  0  0  0  0  0  0
   -1.8822   -4.8765    0.5089 O   0  0  0  0  0  0  0  0  0  0  0  0
   -1.1592   -3.2797    2.7140 C   0  0  0  0  0  0  0  0  0  0  0  0
   -1.1295   -1.1439    1.3634 H   0  0  0  0  0  0  0  0  0  0  0  0
    0.6353   -3.4943    1.5765 H   0  0  0  0  0  0  0  0  0  0  0  0
   -2.2133   -3.0277    2.5662 H   0  0  0  0  0  0  0  0  0  0  0  0
   -1.0991   -4.3015    3.1016 H   0  0  0  0  0  0  0  0  0  0  0  0
   -0.7341   -2.6007    3.4594 H   0  0  0  0  0  0  0  0  0  0  0  0
   -0.3991   -4.0643   -0.9701 N   0  0  0  0  0  0  0  0  0  0  0  0
   -0.8247   -4.9060   -2.0794 C   0  0  0  0  0  0  0  0  0  0  0  0
    0.3832   -3.4165   -1.0946 H   0  0  0  0  0  0  0  0  0  0  0  0
   -0.7278   -5.9643   -1.8165 H   0  0  0  0  0  0  0  0  0  0  0  0
   -1.8689   -4.7002   -2.3364 H   0  0  0  0  0  0  0  0  0  0  0  0
   -0.2058   -4.7103   -2.9602 H   0  0  0  0  0  0  0  0  0  0  0  0
  1  2  2  0  0  0  0
  1  3  1  0  0  0  0
  1  7  1  0  0  0  0
  3  4  1  0  0  0  0
  3  5  1  0  0  0  0
  3  6  1  0  0  0  0
  7  8  1  0  0  0  0
  7 12  1  0  0  0  0
  8  9  1  0  0  0  0
  8 11  1  0  0  0  0
  8 13  1  0  0  0  0
  9 10  2  0  0  0  0
  9 17  1  0  0  0  0
 11 14  1  0  0  0  0
 11 15  1  0  0  0  0
 11 16  1  0  0  0  0
 17 18  1  0  0  0  0
 17 28  1  0  0  0  0
 18 19  1  0  0  0  0
 18 21  1  0  0  0  0
 18 29  1  0  0  0  0
 19 20  2  0  0  0  0
 19 37  1  0  0  0  0
 21 22  1  0  0  0  0
 21 30  1  0  0  0  0
 21 31  1  0  0  0  0
 22 23  1  0  0  0  0
 22 24  2  0  0  0  0
 23 25  2  0  0  0  0
 23 32  1  0  0  0  0
 24 26  1  0  0  0  0
 24 33  1  0  0  0  0
 25 27  1  0  0  0  0
 25 34  1  0  0  0  0
 26 27  2  0  0  0  0
 26 35  1  0  0  0  0
 27 36  1  0  0  0  0
 37 38  1  0  0  0  0
 37 42  1  0  0  0  0
 38 39  1  0  0  0  0
 38 41  1  0  0  0  0
 38 43  1  0  0  0  0
 39 40  2  0  0  0  0
 39 47  1  0  0  0  0
 41 44  1  0  0  0  0
 41 45  1  0  0  0  0
 41 46  1  0  0  0  0
 47 48  1  0  0  0  0
 47 49  1  0  0  0  0
 48 50  1  0  0  0  0
 48 51  1  0  0  0  0
 48 52  1  0  0  0  0
M  END
$$$$

  -OEChem-05262217163D

 52 52  0     1  0  0  0  0  0999 V2000
   -3.1730    0.0011    2.8408 C   0  0  0  0  0  0  0  0  0  0  0  0
   -3.0149   -0.2694    1.6575 O   0  0  0  0  0  0  0  0  0  0  0  0
   -3.9187   -0.9520    3.7555 C   0  0  0  0  0  0  0  0  0  0  0  0
   -4.3901   -1.7464    3.1700 H   0  0  0  0  0  0  0  0  0  0  0  0
   -3.2258   -1.4034    4.4700 H   0  0  0  0  0  0  0  0  0  0  0  0
   -4.6963   -0.4141    4.3032 H   0  0  0  0  0  0  0  0  0  0  0  0
   -2.6253    1.1616    3.3486 N   0  0  0  0  0  0  0  0  0  0  0  0
   -1.7968    2.0698    2.5441 C   0  0  2  0  0  0  0  0  0  0  0  0
   -0.5159    1.3813    2.0223 C   0  0  0  0  0  0  0  0  0  0  0  0
    0.3580    1.0402    2.8071 O   0  0  0  0  0  0  0  0  0  0  0  0
   -1.4551    3.2941    3.3988 C   0  0  0  0  0  0  0  0  0  0  0  0
   -2.6128    1.2620    4.3599 H   0  0  0  0  0  0  0  0  0  0  0  0
   -2.3767    2.4117    1.6804 H   0  0  0  0  0  0  0  0  0  0  0  0
   -0.8894    2.9993    4.2888 H   0  0  0  0  0  0  0  0  0  0  0  0
   -0.8489    4.0007    2.8232 H   0  0  0  0  0  0  0  0  0  0  0  0
   -2.3692    3.8040    3.7180 H   0  0  0  0  0  0  0  0  0  0  0  0
   -0.4373    1.0587    0.6779 N   0  0  0  0  0  0  0  0  0  0  0  0
    0.6592    0.3450   -0.0118 C   0  0  2  0  0  0  0  0  0  0  0  0
    0.6464   -1.1704    0.2943 C   0  0  0  0  0  0  0  0  0  0  0  0
    1.5642   -1.8876   -0.0902 O   0  0  0  0  0  0  0  0  0  0  0  0
    2.0499    0.9777    0.2341 C   0  0  0  0  0  0  0  0  0  0  0  0
    2.1303    2.3434   -0.4038 C   0  0  0  0  0  0  0  0  0  0  0  0
    2.3938    2.4789   -1.7747 C   0  0  0  0  0  0  0  0  0  0  0  0
    1.9299    3.4951    0.3709 C   0  0  0  0  0  0  0  0  0  0  0  0
    2.4513    3.7471   -2.3631 C   0  0  0  0  0  0  0  0  0  0  0  0
    1.9861    4.7639   -0.2157 C   0  0  0  0  0  0  0  0  0  0  0  0
    2.2457    4.8900   -1.5840 C   0  0  0  0  0  0  0  0  0  0  0  0
   -1.2861    1.2314    0.1438 H   0  0  0  0  0  0  0  0  0  0  0  0
    0.4658    0.4158   -1.0861 H   0  0  0  0  0  0  0  0  0  0  0  0
    2.8230    0.3468   -0.2168 H   0  0  0  0  0  0  0  0  0  0  0  0
    2.2860    1.0320    1.2993 H   0  0  0  0  0  0  0  0  0  0  0  0
    2.5572    1.5962   -2.3860 H   0  0  0  0  0  0  0  0  0  0  0  0
    1.7317    3.4006    1.4350 H   0  0  0  0  0  0  0  0  0  0  0  0
    2.6594    3.8434   -3.4246 H   0  0  0  0  0  0  0  0  0  0  0  0
    1.8324    5.6502    0.3924 H   0  0  0  0  0  0  0  0  0  0  0  0
    2.2931    5.8744   -2.0401 H   0  0  0  0  0  0  0  0  0  0  0  0
   -0.4604   -1.7793    0.8620 N   0  0  0  0  0  0  0  0  0  0  0  0
   -0.5489   -3.2137    1.1781 C   0  0  2  0  0  0  0  0  0  0  0  0
   -0.9010   -4.0787   -0.0566 C   0  0  0  0  0  0  0  0  0  0  0  0
   -1.8683   -4.8318   -0.0681 O   0  0  0  0  0  0  0  0  0  0  0  0
   -1.5573   -3.3706    2.3208 C   0  0  0  0  0  0  0  0  0  0  0  0
   -1.2544   -1.1784    1.0957 H   0  0  0  0  0  0  0  0  0  0  0  0
    0.4227   -3.5621    1.5440 H   0  0  0  0  0  0  0  0  0  0  0  0
   -2.5563   -3.0675    1.9927 H   0  0  0  0  0  0  0  0  0  0  0  0
   -1.6025   -4.4148    2.6459 H   0  0  0  0  0  0  0  0  0  0  0  0
   -1.2619   -2.7539    3.1749 H   0  0  0  0  0  0  0  0  0  0  0  0
   -0.0870   -4.0192   -1.1702 N   0  0  0  0  0  0  0  0  0  0  0  0
   -0.3101   -4.7809   -2.3904 C   0  0  0  0  0  0  0  0  0  0  0  0
    0.7159   -3.3881   -1.1049 H   0  0  0  0  0  0  0  0  0  0  0  0
   -0.2988   -5.8553   -2.1793 H   0  0  0  0  0  0  0  0  0  0  0  0
   -1.2761   -4.5177   -2.8332 H   0  0  0  0  0  0  0  0  0  0  0  0
    0.4764   -4.5634   -3.1192 H   0  0  0  0  0  0  0  0  0  0  0  0
  1  2  2  0  0  0  0
  1  3  1  0  0  0  0
  1  7  1  0  0  0  0
  3  4  1  0  0  0  0
  3  5  1  0  0  0  0
  3  6  1  0  0  0  0
  7  8  1  0  0  0  0
  7 12  1  0  0  0  0
  8  9  1  0  0  0  0
  8 11  1  0  0  0  0
  8 13  1  0  0  0  0
  9 10  2  0  0  0  0
  9 17  1  0  0  0  0
 11 14  1  0  0  0  0
 11 15  1  0  0  0  0
 11 16  1  0  0  0  0
 17 18  1  0  0  0  0
 17 28  1  0  0  0  0
 18 19  1  0  0  0  0
 18 21  1  0  0  0  0
 18 29  1  0  0  0  0
 19 20  2  0  0  0  0
 19 37  1  0  0  0  0
 21 22  1  0  0  0  0
 21 30  1  0  0  0  0
 21 31  1  0  0  0  0
 22 23  1  0  0  0  0
 22 24  2  0  0  0  0
 23 25  2  0  0  0  0
 23 32  1  0  0  0  0
 24 26  1  0  0  0  0
 24 33  1  0  0  0  0
 25 27  1  0  0  0  0
 25 34  1  0  0  0  0
 26 27  2  0  0  0  0
 26 35  1  0  0  0  0
 27 36  1  0  0  0  0
 37 38  1  0  0  0  0
 37 42  1  0  0  0  0
 38 39  1  0  0  0  0
 38 41  1  0  0  0  0
 38 43  1  0  0  0  0
 39 40  2  0  0  0  0
 39 47  1  0  0  0  0
 41 44  1  0  0  0  0
 41 45  1  0  0  0  0
 41 46  1  0  0  0  0
 47 48  1  0  0  0  0
 47 49  1  0  0  0  0
 48 50  1  0  0  0  0
 48 51  1  0  0  0  0
 48 52  1  0  0  0  0
M  END
$$$$

  -OEChem-05262217163D

 52 52  0     1  0  0  0  0  0999 V2000
   -3.1914    0.0544    2.5650 C   0  0  0  0  0  0  0  0  0  0  0  0
   -2.9760   -0.0512    1.3646 O   0  0  0  0  0  0  0  0  0  0  0  0
   -4.1170   -0.9201    3.2681 C   0  0  0  0  0  0  0  0  0  0  0  0
   -4.5625   -1.6086    2.5443 H   0  0  0  0  0  0  0  0  0  0  0  0
   -3.5590   -1.4987    4.0085 H   0  0  0  0  0  0  0  0  0  0  0  0
   -4.9196   -0.3759    3.7722 H   0  0  0  0  0  0  0  0  0  0  0  0
   -2.5639    1.0497    3.2859 N   0  0  0  0  0  0  0  0  0  0  0  0
   -1.6590    2.0456    2.6944 C   0  0  2  0  0  0  0  0  0  0  0  0
   -0.3737    1.4118    2.1133 C   0  0  0  0  0  0  0  0  0  0  0  0
    0.5656    1.1296    2.8437 O   0  0  0  0  0  0  0  0  0  0  0  0
   -1.3400    3.0893    3.7707 C   0  0  0  0  0  0  0  0  0  0  0  0
   -2.6700    1.0304    4.2965 H   0  0  0  0  0  0  0  0  0  0  0  0
   -2.1762    2.5574    1.8761 H   0  0  0  0  0  0  0  0  0  0  0  0
   -0.8441    2.6231    4.6286 H   0  0  0  0  0  0  0  0  0  0  0  0
   -0.6763    3.8597    3.3654 H   0  0  0  0  0  0  0  0  0  0  0  0
   -2.2585    3.5722    4.1179 H   0  0  0  0  0  0  0  0  0  0  0  0
   -0.3656    1.0771    0.7705 N   0  0  0  0  0  0  0  0  0  0  0  0
    0.6909    0.3582    0.0287 C   0  0  2  0  0  0  0  0  0  0  0  0
    0.6761   -1.1508    0.3635 C   0  0  0  0  0  0  0  0  0  0  0  0
    1.6555   -1.8578    0.1504 O   0  0  0  0  0  0  0  0  0  0  0  0
    2.0942    0.9955    0.1739 C   0  0  0  0  0  0  0  0  0  0  0  0
    2.1360    2.3501   -0.4918 C   0  0  0  0  0  0  0  0  0  0  0  0
    2.3135    2.4583   -1.8792 C   0  0  0  0  0  0  0  0  0  0  0  0
    1.9892    3.5174    0.2713 C   0  0  0  0  0  0  0  0  0  0  0  0
    2.3392    3.7144   -2.4950 C   0  0  0  0  0  0  0  0  0  0  0  0
    2.0152    4.7744   -0.3423 C   0  0  0  0  0  0  0  0  0  0  0  0
    2.1890    4.8732   -1.7264 C   0  0  0  0  0  0  0  0  0  0  0  0
   -1.2742    1.1606    0.3156 H   0  0  0  0  0  0  0  0  0  0  0  0
    0.4326    0.4119   -1.0327 H   0  0  0  0  0  0  0  0  0  0  0  0
    2.8374    0.3568   -0.3144 H   0  0  0  0  0  0  0  0  0  0  0  0
    2.3964    1.0689    1.2209 H   0  0  0  0  0  0  0  0  0  0  0  0
    2.4352    1.5631   -2.4820 H   0  0  0  0  0  0  0  0  0  0  0  0
    1.8566    3.4444    1.3471 H   0  0  0  0  0  0  0  0  0  0  0  0
    2.4784    3.7890   -3.5695 H   0  0  0  0  0  0  0  0  0  0  0  0
    1.9040    5.6727    0.2574 H   0  0  0  0  0  0  0  0  0  0  0  0
    2.2113    5.8485   -2.2037 H   0  0  0  0  0  0  0  0  0  0  0  0
   -0.5115   -1.7747    0.7091 N   0  0  0  0  0  0  0  0  0  0  0  0
   -0.6516   -3.2184    0.9562 C   0  0  2  0  0  0  0  0  0  0  0  0
   -0.7486   -4.0419   -0.3518 C   0  0  0  0  0  0  0  0  0  0  0  0
   -1.7078   -4.7664   -0.5927 O   0  0  0  0  0  0  0  0  0  0  0  0
   -1.8653   -3.4116    1.8713 C   0  0  0  0  0  0  0  0  0  0  0  0
   -1.3336   -1.1771    0.8227 H   0  0  0  0  0  0  0  0  0  0  0  0
    0.2304   -3.5798    1.4953 H   0  0  0  0  0  0  0  0  0  0  0  0
   -2.7772   -3.0649    1.3748 H   0  0  0  0  0  0  0  0  0  0  0  0
   -1.9882   -4.4702    2.1215 H   0  0  0  0  0  0  0  0  0  0  0  0
   -1.7321   -2.8510    2.8010 H   0  0  0  0  0  0  0  0  0  0  0  0
    0.2873   -3.9790   -1.2623 N   0  0  0  0  0  0  0  0  0  0  0  0
    0.3277   -4.7231   -2.5130 C   0  0  0  0  0  0  0  0  0  0  0  0
    1.0648   -3.3610   -1.0147 H   0  0  0  0  0  0  0  0  0  0  0  0
    0.2939   -5.8001   -2.3184 H   0  0  0  0  0  0  0  0  0  0  0  0
   -0.5220   -4.4518   -3.1478 H   0  0  0  0  0  0  0  0  0  0  0  0
    1.2510   -4.4978   -3.0552 H   0  0  0  0  0  0  0  0  0  0  0  0
  1  2  2  0  0  0  0
  1  3  1  0  0  0  0
  1  7  1  0  0  0  0
  3  4  1  0  0  0  0
  3  5  1  0  0  0  0
  3  6  1  0  0  0  0
  7  8  1  0  0  0  0
  7 12  1  0  0  0  0
  8  9  1  0  0  0  0
  8 11  1  0  0  0  0
  8 13  1  0  0  0  0
  9 10  2  0  0  0  0
  9 17  1  0  0  0  0
 11 14  1  0  0  0  0
 11 15  1  0  0  0  0
 11 16  1  0  0  0  0
 17 18  1  0  0  0  0
 17 28  1  0  0  0  0
 18 19  1  0  0  0  0
 18 21  1  0  0  0  0
 18 29  1  0  0  0  0
 19 20  2  0  0  0  0
 19 37  1  0  0  0  0
 21 22  1  0  0  0  0
 21 30  1  0  0  0  0
 21 31  1  0  0  0  0
 22 23  1  0  0  0  0
 22 24  2  0  0  0  0
 23 25  2  0  0  0  0
 23 32  1  0  0  0  0
 24 26  1  0  0  0  0
 24 33  1  0  0  0  0
 25 27  1  0  0  0  0
 25 34  1  0  0  0  0
 26 27  2  0  0  0  0
 26 35  1  0  0  0  0
 27 36  1  0  0  0  0
 37 38  1  0  0  0  0
 37 42  1  0  0  0  0
 38 39  1  0  0  0  0
 38 41  1  0  0  0  0
 38 43  1  0  0  0  0
 39 40  2  0  0  0  0
 39 47  1  0  0  0  0
 41 44  1  0  0  0  0
 41 45  1  0  0  0  0
 41 46  1  0  0  0  0
 47 48  1  0  0  0  0
 47 49  1  0  0  0  0
 48 50  1  0  0  0  0
 48 51  1  0  0  0  0
 48 52  1  0  0  0  0
M  END
$$$$

  -OEChem-05262217163D

 52 52  0     1  0  0  0  0  0999 V2000
   -3.1780    0.0936    2.3786 C   0  0  0  0  0  0  0  0  0  0  0  0
   -2.9423    0.0978    1.1770 O   0  0  0  0  0  0  0  0  0  0  0  0
   -4.1634   -0.9032    2.9591 C   0  0  0  0  0  0  0  0  0  0  0  0
   -4.5399   -1.5643    2.1733 H   0  0  0  0  0  0  0  0  0  0  0  0
   -3.6760   -1.5101    3.7260 H   0  0  0  0  0  0  0  0  0  0  0  0
   -5.0087   -0.3752    3.4074 H   0  0  0  0  0  0  0  0  0  0  0  0
   -2.5308    0.9846    3.2114 N   0  0  0  0  0  0  0  0  0  0  0  0
   -1.5963    2.0247    2.7542 C   0  0  2  0  0  0  0  0  0  0  0  0
   -0.2931    1.4412    2.1589 C   0  0  0  0  0  0  0  0  0  0  0  0
    0.6766    1.2149    2.8682 O   0  0  0  0  0  0  0  0  0  0  0  0
   -1.3191    2.9559    3.9403 C   0  0  0  0  0  0  0  0  0  0  0  0
   -2.6814    0.8788    4.2110 H   0  0  0  0  0  0  0  0  0  0  0  0
   -2.0780    2.6192    1.9706 H   0  0  0  0  0  0  0  0  0  0  0  0
   -0.8616    2.4034    4.7677 H   0  0  0  0  0  0  0  0  0  0  0  0
   -0.6353    3.7567    3.6408 H   0  0  0  0  0  0  0  0  0  0  0  0
   -2.2491    3.4108    4.2946 H   0  0  0  0  0  0  0  0  0  0  0  0
   -0.3097    1.0879    0.8225 N   0  0  0  0  0  0  0  0  0  0  0  0
    0.7218    0.3567    0.0603 C   0  0  2  0  0  0  0  0  0  0  0  0
    0.6875   -1.1429    0.4272 C   0  0  0  0  0  0  0  0  0  0  0  0
    1.6994   -1.8359    0.4116 O   0  0  0  0  0  0  0  0  0  0  0  0
    2.1361    0.9760    0.1645 C   0  0  0  0  0  0  0  0  0  0  0  0
    2.1755    2.3256   -0.5104 C   0  0  0  0  0  0  0  0  0  0  0  0
    2.3163    2.4263   -1.9025 C   0  0  0  0  0  0  0  0  0  0  0  0
    2.0609    3.4973    0.2511 C   0  0  0  0  0  0  0  0  0  0  0  0
    2.3392    3.6800   -2.5237 C   0  0  0  0  0  0  0  0  0  0  0  0
    2.0822    4.7515   -0.3681 C   0  0  0  0  0  0  0  0  0  0  0  0
    2.2211    4.8433   -1.7565 C   0  0  0  0  0  0  0  0  0  0  0  0
   -1.2419    1.1276    0.4072 H   0  0  0  0  0  0  0  0  0  0  0  0
    0.4401    0.4011   -0.9956 H   0  0  0  0  0  0  0  0  0  0  0  0
    2.8570    0.3245   -0.3402 H   0  0  0  0  0  0  0  0  0  0  0  0
    2.4666    1.0502    1.2032 H   0  0  0  0  0  0  0  0  0  0  0  0
    2.4125    1.5283   -2.5055 H   0  0  0  0  0  0  0  0  0  0  0  0
    1.9560    3.4293    1.3304 H   0  0  0  0  0  0  0  0  0  0  0  0
    2.4522    3.7493   -3.6016 H   0  0  0  0  0  0  0  0  0  0  0  0
    1.9943    5.6529    0.2309 H   0  0  0  0  0  0  0  0  0  0  0  0
    2.2414    5.8164   -2.2382 H   0  0  0  0  0  0  0  0  0  0  0  0
   -0.5354   -1.7874    0.5066 N   0  0  0  0  0  0  0  0  0  0  0  0
   -0.6994   -3.2369    0.6931 C   0  0  2  0  0  0  0  0  0  0  0  0
   -0.5304   -4.0213   -0.6305 C   0  0  0  0  0  0  0  0  0  0  0  0
   -1.4325   -4.7080   -1.0964 O   0  0  0  0  0  0  0  0  0  0  0  0
   -2.0626   -3.4632    1.3545 C   0  0  0  0  0  0  0  0  0  0  0  0
   -1.3701   -1.1982    0.4989 H   0  0  0  0  0  0  0  0  0  0  0  0
    0.0683   -3.6053    1.3821 H   0  0  0  0  0  0  0  0  0  0  0  0
   -2.8669   -3.0829    0.7166 H   0  0  0  0  0  0  0  0  0  0  0  0
   -2.2306   -4.5314    1.5246 H   0  0  0  0  0  0  0  0  0  0  0  0
   -2.1027   -2.9507    2.3194 H   0  0  0  0  0  0  0  0  0  0  0  0
    0.6732   -3.9466   -1.3031 N   0  0  0  0  0  0  0  0  0  0  0  0
    0.9432   -4.6026   -2.5745 C   0  0  0  0  0  0  0  0  0  0  0  0
    1.3803   -3.3317   -0.8907 H   0  0  0  0  0  0  0  0  0  0  0  0
    0.7646   -5.6801   -2.4957 H   0  0  0  0  0  0  0  0  0  0  0  0
    0.2993   -4.1935   -3.3597 H   0  0  0  0  0  0  0  0  0  0  0  0
    1.9866   -4.4469   -2.8648 H   0  0  0  0  0  0  0  0  0  0  0  0
  1  2  2  0  0  0  0
  1  3  1  0  0  0  0
  1  7  1  0  0  0  0
  3  4  1  0  0  0  0
  3  5  1  0  0  0  0
  3  6  1  0  0  0  0
  7  8  1  0  0  0  0
  7 12  1  0  0  0  0
  8  9  1  0  0  0  0
  8 11  1  0  0  0  0
  8 13  1  0  0  0  0
  9 10  2  0  0  0  0
  9 17  1  0  0  0  0
 11 14  1  0  0  0  0
 11 15  1  0  0  0  0
 11 16  1  0  0  0  0
 17 18  1  0  0  0  0
 17 28  1  0  0  0  0
 18 19  1  0  0  0  0
 18 21  1  0  0  0  0
 18 29  1  0  0  0  0
 19 20  2  0  0  0  0
 19 37  1  0  0  0  0
 21 22  1  0  0  0  0
 21 30  1  0  0  0  0
 21 31  1  0  0  0  0
 22 23  1  0  0  0  0
 22 24  2  0  0  0  0
 23 25  2  0  0  0  0
 23 32  1  0  0  0  0
 24 26  1  0  0  0  0
 24 33  1  0  0  0  0
 25 27  1  0  0  0  0
 25 34  1  0  0  0  0
 26 27  2  0  0  0  0
 26 35  1  0  0  0  0
 27 36  1  0  0  0  0
 37 38  1  0  0  0  0
 37 42  1  0  0  0  0
 38 39  1  0  0  0  0
 38 41  1  0  0  0  0
 38 43  1  0  0  0  0
 39 40  2  0  0  0  0
 39 47  1  0  0  0  0
 41 44  1  0  0  0  0
 41 45  1  0  0  0  0
 41 46  1  0  0  0  0
 47 48  1  0  0  0  0
 47 49  1  0  0  0  0
 48 50  1  0  0  0  0
 48 51  1  0  0  0  0
 48 52  1  0  0  0  0
M  END
$$$$

  -OEChem-05262217163D

 52 52  0     1  0  0  0  0  0999 V2000
   -3.1539    0.1305    2.3371 C   0  0  0  0  0  0  0  0  0  0  0  0
   -2.9745    0.2470    1.1312 O   0  0  0  0  0  0  0  0  0  0  0  0
   -4.0938   -0.9341    2.8699 C   0  0  0  0  0  0  0  0  0  0  0  0
   -4.5513   -1.4841    2.0427 H   0  0  0  0  0  0  0  0  0  0  0  0
   -3.5433   -1.6372    3.4998 H   0  0  0  0  0  0  0  0  0  0  0  0
   -4.8864   -0.4705    3.4624 H   0  0  0  0  0  0  0  0  0  0  0  0
   -2.4778    0.9478    3.2209 N   0  0  0  0  0  0  0  0  0  0  0  0
   -1.5504    2.0191    2.8258 C   0  0  2  0  0  0  0  0  0  0  0  0
   -0.2507    1.4733    2.1891 C   0  0  0  0  0  0  0  0  0  0  0  0
    0.7429    1.2622    2.8686 O   0  0  0  0  0  0  0  0  0  0  0  0
   -1.2745    2.8750    4.0679 C   0  0  0  0  0  0  0  0  0  0  0  0
   -2.5738    0.7375    4.2107 H   0  0  0  0  0  0  0  0  0  0  0  0
   -2.0353    2.6601    2.0817 H   0  0  0  0  0  0  0  0  0  0  0  0
   -0.8144    2.2736    4.8590 H   0  0  0  0  0  0  0  0  0  0  0  0
   -0.5937    3.6951    3.8181 H   0  0  0  0  0  0  0  0  0  0  0  0
   -2.2058    3.3035    4.4508 H   0  0  0  0  0  0  0  0  0  0  0  0
   -0.3038    1.1324    0.8507 N   0  0  0  0  0  0  0  0  0  0  0  0
    0.6906    0.3835    0.0590 C   0  0  2  0  0  0  0  0  0  0  0  0
    0.6187   -1.1161    0.4189 C   0  0  0  0  0  0  0  0  0  0  0  0
    1.6221   -1.7870    0.6358 O   0  0  0  0  0  0  0  0  0  0  0  0
    2.1242    0.9596    0.1330 C   0  0  0  0  0  0  0  0  0  0  0  0
    2.1906    2.3140   -0.5304 C   0  0  0  0  0  0  0  0  0  0  0  0
    2.3014    2.4240   -1.9247 C   0  0  0  0  0  0  0  0  0  0  0  0
    2.1355    3.4811    0.2444 C   0  0  0  0  0  0  0  0  0  0  0  0
    2.3530    3.6822   -2.5348 C   0  0  0  0  0  0  0  0  0  0  0  0
    2.1882    4.7400   -0.3634 C   0  0  0  0  0  0  0  0  0  0  0  0
    2.2961    4.8410   -1.7541 C   0  0  0  0  0  0  0  0  0  0  0  0
   -1.2515    1.1690    0.4704 H   0  0  0  0  0  0  0  0  0  0  0  0
    0.3887    0.4464   -0.9904 H   0  0  0  0  0  0  0  0  0  0  0  0
    2.8107    0.2884   -0.3933 H   0  0  0  0  0  0  0  0  0  0  0  0
    2.4813    1.0144    1.1640 H   0  0  0  0  0  0  0  0  0  0  0  0
    2.3509    1.5294   -2.5383 H   0  0  0  0  0  0  0  0  0  0  0  0
    2.0539    3.4054    1.3254 H   0  0  0  0  0  0  0  0  0  0  0  0
    2.4404    3.7585   -3.6146 H   0  0  0  0  0  0  0  0  0  0  0  0
    2.1487    5.6376    0.2463 H   0  0  0  0  0  0  0  0  0  0  0  0
    2.3394    5.8179   -2.2266 H   0  0  0  0  0  0  0  0  0  0  0  0
   -0.5755   -1.7861    0.2143 N   0  0  0  0  0  0  0  0  0  0  0  0
   -0.7449   -3.2418    0.3436 C   0  0  2  0  0  0  0  0  0  0  0  0
   -0.2341   -4.0100   -0.9004 C   0  0  0  0  0  0  0  0  0  0  0  0
   -0.9771   -4.7111   -1.5777 O   0  0  0  0  0  0  0  0  0  0  0  0
   -2.2260   -3.5069    0.6371 C   0  0  0  0  0  0  0  0  0  0  0  0
   -1.4054   -1.2119    0.0672 H   0  0  0  0  0  0  0  0  0  0  0  0
   -0.1660   -3.6013    1.2011 H   0  0  0  0  0  0  0  0  0  0  0  0
   -2.8531   -3.1404   -0.1823 H   0  0  0  0  0  0  0  0  0  0  0  0
   -2.4036   -4.5806    0.7558 H   0  0  0  0  0  0  0  0  0  0  0  0
   -2.5244   -3.0056    1.5610 H   0  0  0  0  0  0  0  0  0  0  0  0
    1.0973   -3.9104   -1.2520 N   0  0  0  0  0  0  0  0  0  0  0  0
    1.6933   -4.5735   -2.4031 C   0  0  0  0  0  0  0  0  0  0  0  0
    1.6694   -3.2886   -0.6735 H   0  0  0  0  0  0  0  0  0  0  0  0
    1.5886   -5.6599   -2.3154 H   0  0  0  0  0  0  0  0  0  0  0  0
    1.2079   -4.2450   -3.3281 H   0  0  0  0  0  0  0  0  0  0  0  0
    2.7588   -4.3327   -2.4663 H   0  0  0  0  0  0  0  0  0  0  0  0
  1  2  2  0  0  0  0
  1  3  1  0  0  0  0
  1  7  1  0  0  0  0
  3  4  1  0  0  0  0
  3  5  1  0  0  0  0
  3  6  1  0  0  0  0
  7  8  1  0  0  0  0
  7 12  1  0  0  0  0
  8  9  1  0  0  0  0
  8 11  1  0  0  0  0
  8 13  1  0  0  0  0
  9 10  2  0  0  0  0
  9 17  1  0  0  0  0
 11 14  1  0  0  0  0
 11 15  1  0  0  0  0
 11 16  1  0  0  0  0
 17 18  1  0  0  0  0
 17 28  1  0  0  0  0
 18 19  1  0  0  0  0
 18 21  1  0  0  0  0
 18 29  1  0  0  0  0
 19 20  2  0  0  0  0
 19 37  1  0  0  0  0
 21 22  1  0  0  0  0
 21 30  1  0  0  0  0
 21 31  1  0  0  0  0
 22 23  1  0  0  0  0
 22 24  2  0  0  0  0
 23 25  2  0  0  0  0
 23 32  1  0  0  0  0
 24 26  1  0  0  0  0
 24 33  1  0  0  0  0
 25 27  1  0  0  0  0
 25 34  1  0  0  0  0
 26 27  2  0  0  0  0
 26 35  1  0  0  0  0
 27 36  1  0  0  0  0
 37 38  1  0  0  0  0
 37 42  1  0  0  0  0
 38 39  1  0  0  0  0
 38 41  1  0  0  0  0
 38 43  1  0  0  0  0
 39 40  2  0  0  0  0
 39 47  1  0  0  0  0
 41 44  1  0  0  0  0
 41 45  1  0  0  0  0
 41 46  1  0  0  0  0
 47 48  1  0  0  0  0
 47 49  1  0  0  0  0
 48 50  1  0  0  0  0
 48 51  1  0  0  0  0
 48 52  1  0  0  0  0
M  END
$$$$

  -OEChem-05262217163D

 52 52  0     1  0  0  0  0  0999 V2000
   -3.1320    0.1814    2.2699 C   0  0  0  0  0  0  0  0  0  0  0  0
   -3.0431    0.4925    1.0893 O   0  0  0  0  0  0  0  0  0  0  0  0
   -3.9809   -1.0061    2.6811 C   0  0  0  0  0  0  0  0  0  0  0  0
   -4.5296   -1.3952    1.8189 H   0  0  0  0  0  0  0  0  0  0  0  0
   -3.3439   -1.7993    3.0804 H   0  0  0  0  0  0  0  0  0  0  0  0
   -4.6998   -0.7049    3.4472 H   0  0  0  0  0  0  0  0  0  0  0  0
   -2.4134    0.8758    3.2228 N   0  0  0  0  0  0  0  0  0  0  0  0
   -1.4986    1.9880    2.9212 C   0  0  2  0  0  0  0  0  0  0  0  0
   -0.2078    1.5016    2.2207 C   0  0  0  0  0  0  0  0  0  0  0  0
    0.8172    1.3106    2.8580 O   0  0  0  0  0  0  0  0  0  0  0  0
   -1.2154    2.7282    4.2343 C   0  0  0  0  0  0  0  0  0  0  0  0
   -2.4148    0.4995    4.1672 H   0  0  0  0  0  0  0  0  0  0  0  0
   -1.9933    2.6928    2.2442 H   0  0  0  0  0  0  0  0  0  0  0  0
   -0.7302    2.0644    4.9573 H   0  0  0  0  0  0  0  0  0  0  0  0
   -0.5545    3.5815    4.0518 H   0  0  0  0  0  0  0  0  0  0  0  0
   -2.1471    3.1001    4.6714 H   0  0  0  0  0  0  0  0  0  0  0  0
   -0.3051    1.1863    0.8775 N   0  0  0  0  0  0  0  0  0  0  0  0
    0.6493    0.4291    0.0448 C   0  0  2  0  0  0  0  0  0  0  0  0
    0.5517   -1.0749    0.3783 C   0  0  0  0  0  0  0  0  0  0  0  0
    1.4881   -1.7102    0.8496 O   0  0  0  0  0  0  0  0  0  0  0  0
    2.1026    0.9545    0.0937 C   0  0  0  0  0  0  0  0  0  0  0  0
    2.1987    2.3213   -0.5394 C   0  0  0  0  0  0  0  0  0  0  0  0
    2.2776    2.4620   -1.9329 C   0  0  0  0  0  0  0  0  0  0  0  0
    2.1966    3.4699    0.2643 C   0  0  0  0  0  0  0  0  0  0  0  0
    2.3511    3.7330   -2.5136 C   0  0  0  0  0  0  0  0  0  0  0  0
    2.2693    4.7415   -0.3142 C   0  0  0  0  0  0  0  0  0  0  0  0
    2.3461    4.8735   -1.7042 C   0  0  0  0  0  0  0  0  0  0  0  0
   -1.2685    1.2264    0.5359 H   0  0  0  0  0  0  0  0  0  0  0  0
    0.3258    0.5272   -0.9954 H   0  0  0  0  0  0  0  0  0  0  0  0
    2.7487    0.2700   -0.4656 H   0  0  0  0  0  0  0  0  0  0  0  0
    2.4901    0.9713    1.1152 H   0  0  0  0  0  0  0  0  0  0  0  0
    2.2850    1.5822   -2.5692 H   0  0  0  0  0  0  0  0  0  0  0  0
    2.1378    3.3700    1.3449 H   0  0  0  0  0  0  0  0  0  0  0  0
    2.4143    3.8334   -3.5931 H   0  0  0  0  0  0  0  0  0  0  0  0
    2.2682    5.6243    0.3179 H   0  0  0  0  0  0  0  0  0  0  0  0
    2.4050    5.8602   -2.1540 H   0  0  0  0  0  0  0  0  0  0  0  0
   -0.5397   -1.7859   -0.0893 N   0  0  0  0  0  0  0  0  0  0  0  0
   -0.6978   -3.2433    0.0331 C   0  0  2  0  0  0  0  0  0  0  0  0
    0.1120   -4.0155   -1.0372 C   0  0  0  0  0  0  0  0  0  0  0  0
   -0.4337   -4.7381   -1.8629 O   0  0  0  0  0  0  0  0  0  0  0  0
   -2.1998   -3.5465   -0.0234 C   0  0  0  0  0  0  0  0  0  0  0  0
   -1.3094   -1.2473   -0.4802 H   0  0  0  0  0  0  0  0  0  0  0  0
   -0.3280   -3.5696    1.0110 H   0  0  0  0  0  0  0  0  0  0  0  0
   -2.6179   -3.2447   -0.9891 H   0  0  0  0  0  0  0  0  0  0  0  0
   -2.3744   -4.6191    0.1083 H   0  0  0  0  0  0  0  0  0  0  0  0
   -2.7274   -3.0112    0.7707 H   0  0  0  0  0  0  0  0  0  0  0  0
    1.4852   -3.8778   -1.0681 N   0  0  0  0  0  0  0  0  0  0  0  0
    2.3481   -4.5038   -2.0595 C   0  0  0  0  0  0  0  0  0  0  0  0
    1.8872   -3.2282   -0.3862 H   0  0  0  0  0  0  0  0  0  0  0  0
    2.2467   -5.5934   -2.0223 H   0  0  0  0  0  0  0  0  0  0  0  0
    2.0876   -4.1584   -3.0653 H   0  0  0  0  0  0  0  0  0  0  0  0
    3.3938   -4.2473   -1.8643 H   0  0  0  0  0  0  0  0  0  0  0  0
  1  2  2  0  0  0  0
  1  3  1  0  0  0  0
  1  7  1  0  0  0  0
  3  4  1  0  0  0  0
  3  5  1  0  0  0  0
  3  6  1  0  0  0  0
  7  8  1  0  0  0  0
  7 12  1  0  0  0  0
  8  9  1  0  0  0  0
  8 11  1  0  0  0  0
  8 13  1  0  0  0  0
  9 10  2  0  0  0  0
  9 17  1  0  0  0  0
 11 14  1  0  0  0  0
 11 15  1  0  0  0  0
 11 16  1  0  0  0  0
 17 18  1  0  0  0  0
 17 28  1  0  0  0  0
 18 19  1  0  0  0  0
 18 21  1  0  0  0  0
 18 29  1  0  0  0  0
 19 20  2  0  0  0  0
 19 37  1  0  0  0  0
 21 22  1  0  0  0  0
 21 30  1  0  0  0  0
 21 31  1  0  0  0  0
 22 23  1  0  0  0  0
 22 24  2  0  0  0  0
 23 25  2  0  0  0  0
 23 32  1  0  0  0  0
 24 26  1  0  0  0  0
 24 33  1  0  0  0  0
 25 27  1  0  0  0  0
 25 34  1  0  0  0  0
 26 27  2  0  0  0  0
 26 35  1  0  0  0  0
 27 36  1  0  0  0  0
 37 38  1  0  0  0  0
 37 42  1  0  0  0  0
 38 39  1  0  0  0  0
 38 41  1  0  0  0  0
 38 43  1  0  0  0  0
 39 40  2  0  0  0  0
 39 47  1  0  0  0  0
 41 44  1  0  0  0  0
 41 45  1  0  0  0  0
 41 46  1  0  0  0  0
 47 48  1  0  0  0  0
 47 49  1  0  0  0  0
 48 50  1  0  0  0  0
 48 51  1  0  0  0  0
 48 52  1  0  0  0  0
M  END
$$$$

  -OEChem-05262217163D

 52 52  0     1  0  0  0  0  0999 V2000
   -3.5696    0.6413    3.8848 C   0  0  0  0  0  0  0  0  0  0  0  0
   -4.3734    0.6067    2.9658 O   0  0  0  0  0  0  0  0  0  0  0  0
   -3.8584   -0.1028    5.1748 C   0  0  0  0  0  0  0  0  0  0  0  0
   -4.8261   -0.6083    5.1103 H   0  0  0  0  0  0  0  0  0  0  0  0
   -3.0821   -0.8506    5.3557 H   0  0  0  0  0  0  0  0  0  0  0  0
   -3.8822    0.5980    6.0128 H   0  0  0  0  0  0  0  0  0  0  0  0
   -2.3861    1.3378    3.7511 N   0  0  0  0  0  0  0  0  0  0  0  0
   -1.8914    1.8376    2.4605 C   0  0  2  0  0  0  0  0  0  0  0  0
   -0.7692    0.9413    1.8975 C   0  0  0  0  0  0  0  0  0  0  0  0
   -0.0280    0.3547    2.6736 O   0  0  0  0  0  0  0  0  0  0  0  0
   -1.3857    3.2660    2.6723 C   0  0  0  0  0  0  0  0  0  0  0  0
   -1.6776    1.1266    4.4513 H   0  0  0  0  0  0  0  0  0  0  0  0
   -2.7002    1.8679    1.7233 H   0  0  0  0  0  0  0  0  0  0  0  0
   -0.5576    3.2786    3.3882 H   0  0  0  0  0  0  0  0  0  0  0  0
   -1.0364    3.6920    1.7266 H   0  0  0  0  0  0  0  0  0  0  0  0
   -2.1913    3.8980    3.0591 H   0  0  0  0  0  0  0  0  0  0  0  0
   -0.6077    0.8343    0.5258 N   0  0  0  0  0  0  0  0  0  0  0  0
    0.5105    0.1869   -0.1941 C   0  0  2  0  0  0  0  0  0  0  0  0
    0.4177   -1.3564   -0.1352 C   0  0  0  0  0  0  0  0  0  0  0  0
    1.1041   -2.0210    0.6320 O   0  0  0  0  0  0  0  0  0  0  0  0
    1.9000    0.6942    0.2556 C   0  0  0  0  0  0  0  0  0  0  0  0
    2.0910    2.1408   -0.1318 C   0  0  0  0  0  0  0  0  0  0  0  0
    2.4710    2.4934   -1.4352 C   0  0  0  0  0  0  0  0  0  0  0  0
    1.8938    3.1526    0.8190 C   0  0  0  0  0  0  0  0  0  0  0  0
    2.6341    3.8384   -1.7859 C   0  0  0  0  0  0  0  0  0  0  0  0
    2.0579    4.4975    0.4712 C   0  0  0  0  0  0  0  0  0  0  0  0
    2.4254    4.8410   -0.8333 C   0  0  0  0  0  0  0  0  0  0  0  0
   -1.2392    1.4092   -0.0243 H   0  0  0  0  0  0  0  0  0  0  0  0
    0.4153    0.4482   -1.2515 H   0  0  0  0  0  0  0  0  0  0  0  0
    2.6757    0.0972   -0.2355 H   0  0  0  0  0  0  0  0  0  0  0  0
    2.0448    0.5604    1.3311 H   0  0  0  0  0  0  0  0  0  0  0  0
    2.6433    1.7229   -2.1808 H   0  0  0  0  0  0  0  0  0  0  0  0
    1.6182    2.8896    1.8365 H   0  0  0  0  0  0  0  0  0  0  0  0
    2.9276    4.1042   -2.7974 H   0  0  0  0  0  0  0  0  0  0  0  0
    1.9075    5.2736    1.2161 H   0  0  0  0  0  0  0  0  0  0  0  0
    2.5572    5.8848   -1.1039 H   0  0  0  0  0  0  0  0  0  0  0  0
   -0.2780   -2.0348   -1.1223 N   0  0  0  0  0  0  0  0  0  0  0  0
   -0.3690   -3.5016   -1.2108 C   0  0  2  0  0  0  0  0  0  0  0  0
    0.8945   -4.1394   -1.8384 C   0  0  0  0  0  0  0  0  0  0  0  0
    0.8536   -4.7353   -2.9085 O   0  0  0  0  0  0  0  0  0  0  0  0
   -1.6498   -3.8388   -1.9850 C   0  0  0  0  0  0  0  0  0  0  0  0
   -0.7974   -1.4810   -1.7963 H   0  0  0  0  0  0  0  0  0  0  0  0
   -0.4707   -3.9203   -0.2033 H   0  0  0  0  0  0  0  0  0  0  0  0
   -1.5973   -3.4492   -3.0069 H   0  0  0  0  0  0  0  0  0  0  0  0
   -1.7847   -4.9242   -2.0365 H   0  0  0  0  0  0  0  0  0  0  0  0
   -2.5234   -3.4064   -1.4876 H   0  0  0  0  0  0  0  0  0  0  0  0
    2.1005   -4.0295   -1.1766 N   0  0  0  0  0  0  0  0  0  0  0  0
    3.3584   -4.5682   -1.6732 C   0  0  0  0  0  0  0  0  0  0  0  0
    2.0942   -3.4645   -0.3223 H   0  0  0  0  0  0  0  0  0  0  0  0
    3.2905   -5.6553   -1.7855 H   0  0  0  0  0  0  0  0  0  0  0  0
    3.6071   -4.1274   -2.6440 H   0  0  0  0  0  0  0  0  0  0  0  0
    4.1674   -4.3427   -0.9718 H   0  0  0  0  0  0  0  0  0  0  0  0
  1  2  2  0  0  0  0
  1  3  1  0  0  0  0
  1  7  1  0  0  0  0
  3  4  1  0  0  0  0
  3  5  1  0  0  0  0
  3  6  1  0  0  0  0
  7  8  1  0  0  0  0
  7 12  1  0  0  0  0
  8  9  1  0  0  0  0
  8 11  1  0  0  0  0
  8 13  1  0  0  0  0
  9 10  2  0  0  0  0
  9 17  1  0  0  0  0
 11 14  1  0  0  0  0
 11 15  1  0  0  0  0
 11 16  1  0  0  0  0
 17 18  1  0  0  0  0
 17 28  1  0  0  0  0
 18 19  1  0  0  0  0
 18 21  1  0  0  0  0
 18 29  1  0  0  0  0
 19 20  2  0  0  0  0
 19 37  1  0  0  0  0
 21 22  1  0  0  0  0
 21 30  1  0  0  0  0
 21 31  1  0  0  0  0
 22 23  1  0  0  0  0
 22 24  2  0  0  0  0
 23 25  2  0  0  0  0
 23 32  1  0  0  0  0
 24 26  1  0  0  0  0
 24 33  1  0  0  0  0
 25 27  1  0  0  0  0
 25 34  1  0  0  0  0
 26 27  2  0  0  0  0
 26 35  1  0  0  0  0
 27 36  1  0  0  0  0
 37 38  1  0  0  0  0
 37 42  1  0  0  0  0
 38 39  1  0  0  0  0
 38 41  1  0  0  0  0
 38 43  1  0  0  0  0
 39 40  2  0  0  0  0
 39 47  1  0  0  0  0
 41 44  1  0  0  0  0
 41 45  1  0  0  0  0
 41 46  1  0  0  0  0
 47 48  1  0  0  0  0
 47 49  1  0  0  0  0
 48 50  1  0  0  0  0
 48 51  1  0  0  0  0
 48 52  1  0  0  0  0
M  END
$$$$

  -OEChem-05262217163D

 52 52  0     1  0  0  0  0  0999 V2000
   -3.6545    0.8636    4.1382 C   0  0  0  0  0  0  0  0  0  0  0  0
   -4.5766    1.1841    3.4046 O   0  0  0  0  0  0  0  0  0  0  0  0
   -3.9352    0.1205    5.4310 C   0  0  0  0  0  0  0  0  0  0  0  0
   -5.0034   -0.0973    5.5173 H   0  0  0  0  0  0  0  0  0  0  0  0
   -3.3826   -0.8221    5.4482 H   0  0  0  0  0  0  0  0  0  0  0  0
   -3.6295    0.7299    6.2849 H   0  0  0  0  0  0  0  0  0  0  0  0
   -2.3544    1.1655    3.7903 N   0  0  0  0  0  0  0  0  0  0  0  0
   -1.9509    1.6636    2.4682 C   0  0  2  0  0  0  0  0  0  0  0  0
   -0.7794    0.8446    1.8898 C   0  0  0  0  0  0  0  0  0  0  0  0
   -0.0182    0.2747    2.6591 O   0  0  0  0  0  0  0  0  0  0  0  0
   -1.5536    3.1343    2.6135 C   0  0  0  0  0  0  0  0  0  0  0  0
   -1.6220    0.7273    4.3482 H   0  0  0  0  0  0  0  0  0  0  0  0
   -2.7838    1.5877    1.7614 H   0  0  0  0  0  0  0  0  0  0  0  0
   -0.7133    3.2375    3.3077 H   0  0  0  0  0  0  0  0  0  0  0  0
   -1.2581    3.5495    1.6451 H   0  0  0  0  0  0  0  0  0  0  0  0
   -2.3969    3.7170    2.9973 H   0  0  0  0  0  0  0  0  0  0  0  0
   -0.6070    0.7869    0.5156 N   0  0  0  0  0  0  0  0  0  0  0  0
    0.5047    0.1523   -0.2264 C   0  0  2  0  0  0  0  0  0  0  0  0
    0.4058   -1.3905   -0.2429 C   0  0  0  0  0  0  0  0  0  0  0  0
    0.8453   -2.0832    0.6660 O   0  0  0  0  0  0  0  0  0  0  0  0
    1.9017    0.6161    0.2412 C   0  0  0  0  0  0  0  0  0  0  0  0
    2.1158    2.0733   -0.0917 C   0  0  0  0  0  0  0  0  0  0  0  0
    2.5012    2.4644   -1.3830 C   0  0  0  0  0  0  0  0  0  0  0  0
    1.9214    3.0562    0.8896 C   0  0  0  0  0  0  0  0  0  0  0  0
    2.6815    3.8178   -1.6895 C   0  0  0  0  0  0  0  0  0  0  0  0
    2.1011    4.4096    0.5850 C   0  0  0  0  0  0  0  0  0  0  0  0
    2.4797    4.7911   -0.7058 C   0  0  0  0  0  0  0  0  0  0  0  0
   -1.2676    1.3392   -0.0235 H   0  0  0  0  0  0  0  0  0  0  0  0
    0.4128    0.4669   -1.2694 H   0  0  0  0  0  0  0  0  0  0  0  0
    2.6672    0.0234   -0.2701 H   0  0  0  0  0  0  0  0  0  0  0  0
    2.0423    0.4405    1.3109 H   0  0  0  0  0  0  0  0  0  0  0  0
    2.6670    1.7172   -2.1531 H   0  0  0  0  0  0  0  0  0  0  0  0
    1.6327    2.7646    1.8958 H   0  0  0  0  0  0  0  0  0  0  0  0
    2.9825    4.1131   -2.6906 H   0  0  0  0  0  0  0  0  0  0  0  0
    1.9523    5.1632    1.3527 H   0  0  0  0  0  0  0  0  0  0  0  0
    2.6233    5.8415   -0.9425 H   0  0  0  0  0  0  0  0  0  0  0  0
   -0.0025   -2.0354   -1.3982 N   0  0  0  0  0  0  0  0  0  0  0  0
   -0.0111   -3.4967   -1.5687 C   0  0  2  0  0  0  0  0  0  0  0  0
    1.3977   -4.0586   -1.8760 C   0  0  0  0  0  0  0  0  0  0  0  0
    1.6693   -4.5558   -2.9623 O   0  0  0  0  0  0  0  0  0  0  0  0
   -1.0366   -3.8259   -2.6606 C   0  0  0  0  0  0  0  0  0  0  0  0
   -0.2561   -1.4598   -2.1949 H   0  0  0  0  0  0  0  0  0  0  0  0
   -0.3508   -3.9718   -0.6418 H   0  0  0  0  0  0  0  0  0  0  0  0
   -0.7467   -3.3710   -3.6131 H   0  0  0  0  0  0  0  0  0  0  0  0
   -1.1041   -4.9093   -2.8018 H   0  0  0  0  0  0  0  0  0  0  0  0
   -2.0263   -3.4531   -2.3796 H   0  0  0  0  0  0  0  0  0  0  0  0
    2.3802   -3.9707   -0.9105 N   0  0  0  0  0  0  0  0  0  0  0  0
    3.7561   -4.4057   -1.1049 C   0  0  0  0  0  0  0  0  0  0  0  0
    2.1268   -3.4666   -0.0557 H   0  0  0  0  0  0  0  0  0  0  0  0
    3.7882   -5.4678   -1.3691 H   0  0  0  0  0  0  0  0  0  0  0  0
    4.2308   -3.8285   -1.9049 H   0  0  0  0  0  0  0  0  0  0  0  0
    4.3307   -4.2626   -0.1847 H   0  0  0  0  0  0  0  0  0  0  0  0
  1  2  2  0  0  0  0
  1  3  1  0  0  0  0
  1  7  1  0  0  0  0
  3  4  1  0  0  0  0
  3  5  1  0  0  0  0
  3  6  1  0  0  0  0
  7  8  1  0  0  0  0
  7 12  1  0  0  0  0
  8  9  1  0  0  0  0
  8 11  1  0  0  0  0
  8 13  1  0  0  0  0
  9 10  2  0  0  0  0
  9 17  1  0  0  0  0
 11 14  1  0  0  0  0
 11 15  1  0  0  0  0
 11 16  1  0  0  0  0
 17 18  1  0  0  0  0
 17 28  1  0  0  0  0
 18 19  1  0  0  0  0
 18 21  1  0  0  0  0
 18 29  1  0  0  0  0
 19 20  2  0  0  0  0
 19 37  1  0  0  0  0
 21 22  1  0  0  0  0
 21 30  1  0  0  0  0
 21 31  1  0  0  0  0
 22 23  1  0  0  0  0
 22 24  2  0  0  0  0
 23 25  2  0  0  0  0
 23 32  1  0  0  0  0
 24 26  1  0  0  0  0
 24 33  1  0  0  0  0
 25 27  1  0  0  0  0
 25 34  1  0  0  0  0
 26 27  2  0  0  0  0
 26 35  1  0  0  0  0
 27 36  1  0  0  0  0
 37 38  1  0  0  0  0
 37 42  1  0  0  0  0
 38 39  1  0  0  0  0
 38 41  1  0  0  0  0
 38 43  1  0  0  0  0
 39 40  2  0  0  0  0
 39 47  1  0  0  0  0
 41 44  1  0  0  0  0
 41 45  1  0  0  0  0
 41 46  1  0  0  0  0
 47 48  1  0  0  0  0
 47 49  1  0  0  0  0
 48 50  1  0  0  0  0
 48 51  1  0  0  0  0
 48 52  1  0  0  0  0
M  END
$$$$

  -OEChem-05262217163D

 52 52  0     1  0  0  0  0  0999 V2000
   -3.5817    0.7729    4.2560 C   0  0  0  0  0  0  0  0  0  0  0  0
   -4.5572    1.1077    3.6019 O   0  0  0  0  0  0  0  0  0  0  0  0
   -3.7614    0.0759    5.5917 C   0  0  0  0  0  0  0  0  0  0  0  0
   -4.8252   -0.0500    5.8122 H   0  0  0  0  0  0  0  0  0  0  0  0
   -3.2883   -0.9090    5.5649 H   0  0  0  0  0  0  0  0  0  0  0  0
   -3.3049    0.6700    6.3872 H   0  0  0  0  0  0  0  0  0  0  0  0
   -2.3123    1.0187    3.7775 N   0  0  0  0  0  0  0  0  0  0  0  0
   -2.0193    1.5007    2.4217 C   0  0  2  0  0  0  0  0  0  0  0  0
   -0.7628    0.8223    1.8379 C   0  0  0  0  0  0  0  0  0  0  0  0
    0.0612    0.3446    2.6067 O   0  0  0  0  0  0  0  0  0  0  0  0
   -1.8256    3.0183    2.4821 C   0  0  0  0  0  0  0  0  0  0  0  0
   -1.5352    0.5974    4.2863 H   0  0  0  0  0  0  0  0  0  0  0  0
   -2.8565    1.2692    1.7546 H   0  0  0  0  0  0  0  0  0  0  0  0
   -0.9915    3.2706    3.1449 H   0  0  0  0  0  0  0  0  0  0  0  0
   -1.6126    3.4192    1.4865 H   0  0  0  0  0  0  0  0  0  0  0  0
   -2.7320    3.5002    2.8622 H   0  0  0  0  0  0  0  0  0  0  0  0
   -0.5796    0.8143    0.4628 N   0  0  0  0  0  0  0  0  0  0  0  0
    0.5367    0.2130   -0.3016 C   0  0  2  0  0  0  0  0  0  0  0  0
    0.4544   -1.3278   -0.3870 C   0  0  0  0  0  0  0  0  0  0  0  0
    0.5175   -2.0439    0.6032 O   0  0  0  0  0  0  0  0  0  0  0  0
    1.9377    0.6449    0.1809 C   0  0  0  0  0  0  0  0  0  0  0  0
    2.1595    2.1134   -0.0879 C   0  0  0  0  0  0  0  0  0  0  0  0
    2.5431    2.5611   -1.3612 C   0  0  0  0  0  0  0  0  0  0  0  0
    1.9611    3.0513    0.9352 C   0  0  0  0  0  0  0  0  0  0  0  0
    2.7235    3.9267   -1.6073 C   0  0  0  0  0  0  0  0  0  0  0  0
    2.1407    4.4168    0.6911 C   0  0  0  0  0  0  0  0  0  0  0  0
    2.5216    4.8551   -0.5811 C   0  0  0  0  0  0  0  0  0  0  0  0
   -1.3187    1.2618   -0.0709 H   0  0  0  0  0  0  0  0  0  0  0  0
    0.4386    0.5767   -1.3278 H   0  0  0  0  0  0  0  0  0  0  0  0
    2.6963    0.0731   -0.3634 H   0  0  0  0  0  0  0  0  0  0  0  0
    2.0861    0.4174    1.2394 H   0  0  0  0  0  0  0  0  0  0  0  0
    2.7085    1.8489   -2.1637 H   0  0  0  0  0  0  0  0  0  0  0  0
    1.6658    2.7146    1.9256 H   0  0  0  0  0  0  0  0  0  0  0  0
    3.0246    4.2661   -2.5941 H   0  0  0  0  0  0  0  0  0  0  0  0
    1.9874    5.1349    1.4913 H   0  0  0  0  0  0  0  0  0  0  0  0
    2.6649    5.9151   -0.7704 H   0  0  0  0  0  0  0  0  0  0  0  0
    0.3678   -1.9438   -1.6240 N   0  0  0  0  0  0  0  0  0  0  0  0
    0.3580   -3.4030   -1.8163 C   0  0  2  0  0  0  0  0  0  0  0  0
    1.7674   -4.0267   -1.6690 C   0  0  0  0  0  0  0  0  0  0  0  0
    2.3517   -4.5278   -2.6223 O   0  0  0  0  0  0  0  0  0  0  0  0
   -0.2774   -3.6829   -3.1839 C   0  0  0  0  0  0  0  0  0  0  0  0
    0.4253   -1.3541   -2.4485 H   0  0  0  0  0  0  0  0  0  0  0  0
   -0.2780   -3.8673   -1.0547 H   0  0  0  0  0  0  0  0  0  0  0  0
    0.3205   -3.2387   -3.9863 H   0  0  0  0  0  0  0  0  0  0  0  0
   -0.3407   -4.7621   -3.3571 H   0  0  0  0  0  0  0  0  0  0  0  0
   -1.2887   -3.2675   -3.2269 H   0  0  0  0  0  0  0  0  0  0  0  0
    2.3909   -3.9941   -0.4377 N   0  0  0  0  0  0  0  0  0  0  0  0
    3.7386   -4.4878   -0.1927 C   0  0  0  0  0  0  0  0  0  0  0  0
    1.9026   -3.4785    0.3006 H   0  0  0  0  0  0  0  0  0  0  0  0
    3.8117   -5.5485   -0.4546 H   0  0  0  0  0  0  0  0  0  0  0  0
    4.4656   -3.9261   -0.7880 H   0  0  0  0  0  0  0  0  0  0  0  0
    3.9939   -4.3760    0.8654 H   0  0  0  0  0  0  0  0  0  0  0  0
  1  2  2  0  0  0  0
  1  3  1  0  0  0  0
  1  7  1  0  0  0  0
  3  4  1  0  0  0  0
  3  5  1  0  0  0  0
  3  6  1  0  0  0  0
  7  8  1  0  0  0  0
  7 12  1  0  0  0  0
  8  9  1  0  0  0  0
  8 11  1  0  0  0  0
  8 13  1  0  0  0  0
  9 10  2  0  0  0  0
  9 17  1  0  0  0  0
 11 14  1  0  0  0  0
 11 15  1  0  0  0  0
 11 16  1  0  0  0  0
 17 18  1  0  0  0  0
 17 28  1  0  0  0  0
 18 19  1  0  0  0  0
 18 21  1  0  0  0  0
 18 29  1  0  0  0  0
 19 20  2  0  0  0  0
 19 37  1  0  0  0  0
 21 22  1  0  0  0  0
 21 30  1  0  0  0  0
 21 31  1  0  0  0  0
 22 23  1  0  0  0  0
 22 24  2  0  0  0  0
 23 25  2  0  0  0  0
 23 32  1  0  0  0  0
 24 26  1  0  0  0  0
 24 33  1  0  0  0  0
 25 27  1  0  0  0  0
 25 34  1  0  0  0  0
 26 27  2  0  0  0  0
 26 35  1  0  0  0  0
 27 36  1  0  0  0  0
 37 38  1  0  0  0  0
 37 42  1  0  0  0  0
 38 39  1  0  0  0  0
 38 41  1  0  0  0  0
 38 43  1  0  0  0  0
 39 40  2  0  0  0  0
 39 47  1  0  0  0  0
 41 44  1  0  0  0  0
 41 45  1  0  0  0  0
 41 46  1  0  0  0  0
 47 48  1  0  0  0  0
 47 49  1  0  0  0  0
 48 50  1  0  0  0  0
 48 51  1  0  0  0  0
 48 52  1  0  0  0  0
M  END
$$$$

  -OEChem-05262217163D

 52 52  0     1  0  0  0  0  0999 V2000
   -3.5152    0.6713    4.2922 C   0  0  0  0  0  0  0  0  0  0  0  0
   -4.5133    1.0331    3.6885 O   0  0  0  0  0  0  0  0  0  0  0  0
   -3.6446   -0.0212    5.6360 C   0  0  0  0  0  0  0  0  0  0  0  0
   -4.6989   -0.1192    5.9095 H   0  0  0  0  0  0  0  0  0  0  0  0
   -3.1995   -1.0180    5.5859 H   0  0  0  0  0  0  0  0  0  0  0  0
   -3.1328    0.5603    6.4066 H   0  0  0  0  0  0  0  0  0  0  0  0
   -2.2668    0.8826    3.7477 N   0  0  0  0  0  0  0  0  0  0  0  0
   -2.0309    1.3800    2.3871 C   0  0  2  0  0  0  0  0  0  0  0  0
   -0.7290    0.8038    1.7931 C   0  0  0  0  0  0  0  0  0  0  0  0
    0.1264    0.3674    2.5541 O   0  0  0  0  0  0  0  0  0  0  0  0
   -1.9662    2.9095    2.4319 C   0  0  0  0  0  0  0  0  0  0  0  0
   -1.4702    0.4559    4.2207 H   0  0  0  0  0  0  0  0  0  0  0  0
   -2.8548    1.0707    1.7352 H   0  0  0  0  0  0  0  0  0  0  0  0
   -1.1465    3.2386    3.0784 H   0  0  0  0  0  0  0  0  0  0  0  0
   -1.8047    3.3172    1.4296 H   0  0  0  0  0  0  0  0  0  0  0  0
   -2.9041    3.3164    2.8230 H   0  0  0  0  0  0  0  0  0  0  0  0
   -0.5439    0.8335    0.4184 N   0  0  0  0  0  0  0  0  0  0  0  0
    0.5862    0.2646   -0.3506 C   0  0  2  0  0  0  0  0  0  0  0  0
    0.5265   -1.2751   -0.4710 C   0  0  0  0  0  0  0  0  0  0  0  0
    0.2043   -1.9933    0.4666 O   0  0  0  0  0  0  0  0  0  0  0  0
    1.9816    0.7027    0.1432 C   0  0  0  0  0  0  0  0  0  0  0  0
    2.1859    2.1790   -0.0959 C   0  0  0  0  0  0  0  0  0  0  0  0
    2.5658    2.6607   -1.3582 C   0  0  0  0  0  0  0  0  0  0  0  0
    1.9722    3.0917    0.9470 C   0  0  0  0  0  0  0  0  0  0  0  0
    2.7273    4.0342   -1.5727 C   0  0  0  0  0  0  0  0  0  0  0  0
    2.1320    4.4645    0.7336 C   0  0  0  0  0  0  0  0  0  0  0  0
    2.5087    4.9367   -0.5272 C   0  0  0  0  0  0  0  0  0  0  0  0
   -1.3245    1.2082   -0.1120 H   0  0  0  0  0  0  0  0  0  0  0  0
    0.4824    0.6461   -1.3700 H   0  0  0  0  0  0  0  0  0  0  0  0
    2.7488    0.1527   -0.4120 H   0  0  0  0  0  0  0  0  0  0  0  0
    2.1345    0.4555    1.1964 H   0  0  0  0  0  0  0  0  0  0  0  0
    2.7434    1.9707   -2.1773 H   0  0  0  0  0  0  0  0  0  0  0  0
    1.6791    2.7301    1.9293 H   0  0  0  0  0  0  0  0  0  0  0  0
    3.0260    4.4007   -2.5505 H   0  0  0  0  0  0  0  0  0  0  0  0
    1.9658    5.1621    1.5492 H   0  0  0  0  0  0  0  0  0  0  0  0
    2.6354    6.0028   -0.6924 H   0  0  0  0  0  0  0  0  0  0  0  0
    0.7715   -1.8804   -1.6920 N   0  0  0  0  0  0  0  0  0  0  0  0
    0.7659   -3.3380   -1.8979 C   0  0  2  0  0  0  0  0  0  0  0  0
    2.0379   -4.0153   -1.3306 C   0  0  0  0  0  0  0  0  0  0  0  0
    2.8529   -4.5653   -2.0617 O   0  0  0  0  0  0  0  0  0  0  0  0
    0.5754   -3.5891   -3.3993 C   0  0  0  0  0  0  0  0  0  0  0  0
    1.1292   -1.2955   -2.4411 H   0  0  0  0  0  0  0  0  0  0  0  0
   -0.0914   -3.7785   -1.3772 H   0  0  0  0  0  0  0  0  0  0  0  0
    1.4125   -3.1734   -3.9696 H   0  0  0  0  0  0  0  0  0  0  0  0
    0.5216   -4.6642   -3.5996 H   0  0  0  0  0  0  0  0  0  0  0  0
   -0.3527   -3.1272   -3.7494 H   0  0  0  0  0  0  0  0  0  0  0  0
    2.2756   -3.9698    0.0289 N   0  0  0  0  0  0  0  0  0  0  0  0
    3.4653   -4.5130    0.6690 C   0  0  0  0  0  0  0  0  0  0  0  0
    1.6041   -3.4349    0.5878 H   0  0  0  0  0  0  0  0  0  0  0  0
    3.5176   -5.5966    0.5204 H   0  0  0  0  0  0  0  0  0  0  0  0
    4.3683   -4.0545    0.2526 H   0  0  0  0  0  0  0  0  0  0  0  0
    3.4396   -4.3117    1.7445 H   0  0  0  0  0  0  0  0  0  0  0  0
  1  2  2  0  0  0  0
  1  3  1  0  0  0  0
  1  7  1  0  0  0  0
  3  4  1  0  0  0  0
  3  5  1  0  0  0  0
  3  6  1  0  0  0  0
  7  8  1  0  0  0  0
  7 12  1  0  0  0  0
  8  9  1  0  0  0  0
  8 11  1  0  0  0  0
  8 13  1  0  0  0  0
  9 10  2  0  0  0  0
  9 17  1  0  0  0  0
 11 14  1  0  0  0  0
 11 15  1  0  0  0  0
 11 16  1  0  0  0  0
 17 18  1  0  0  0  0
 17 28  1  0  0  0  0
 18 19  1  0  0  0  0
 18 21  1  0  0  0  0
 18 29  1  0  0  0  0
 19 20  2  0  0  0  0
 19 37  1  0  0  0  0
 21 22  1  0  0  0  0
 21 30  1  0  0  0  0
 21 31  1  0  0  0  0
 22 23  1  0  0  0  0
 22 24  2  0  0  0  0
 23 25  2  0  0  0  0
 23 32  1  0  0  0  0
 24 26  1  0  0  0  0
 24 33  1  0  0  0  0
 25 27  1  0  0  0  0
 25 34  1  0  0  0  0
 26 27  2  0  0  0  0
 26 35  1  0  0  0  0
 27 36  1  0  0  0  0
 37 38  1  0  0  0  0
 37 42  1  0  0  0  0
 38 39  1  0  0  0  0
 38 41  1  0  0  0  0
 38 43  1  0  0  0  0
 39 40  2  0  0  0  0
 39 47  1  0  0  0  0
 41 44  1  0  0  0  0
 41 45  1  0  0  0  0
 41 46  1  0  0  0  0
 47 48  1  0  0  0  0
 47 49  1  0  0  0  0
 48 50  1  0  0  0  0
 48 51  1  0  0  0  0
 48 52  1  0  0  0  0
M  END
$$$$

  -OEChem-05262217163D

 52 52  0     1  0  0  0  0  0999 V2000
   -3.4764    0.6078    4.3010 C   0  0  0  0  0  0  0  0  0  0  0  0
   -4.4852    0.9557    3.7073 O   0  0  0  0  0  0  0  0  0  0  0  0
   -3.5843   -0.0604    5.6588 C   0  0  0  0  0  0  0  0  0  0  0  0
   -4.6346   -0.1665    5.9445 H   0  0  0  0  0  0  0  0  0  0  0  0
   -3.1268   -1.0522    5.6238 H   0  0  0  0  0  0  0  0  0  0  0  0
   -3.0734    0.5427    6.4133 H   0  0  0  0  0  0  0  0  0  0  0  0
   -2.2367    0.8174    3.7355 N   0  0  0  0  0  0  0  0  0  0  0  0
   -2.0230    1.3017    2.3658 C   0  0  2  0  0  0  0  0  0  0  0  0
   -0.7060    0.7630    1.7685 C   0  0  0  0  0  0  0  0  0  0  0  0
    0.1523    0.3195    2.5234 O   0  0  0  0  0  0  0  0  0  0  0  0
   -2.0090    2.8337    2.3878 C   0  0  0  0  0  0  0  0  0  0  0  0
   -1.4307    0.4045    4.2043 H   0  0  0  0  0  0  0  0  0  0  0  0
   -2.8400    0.9545    1.7241 H   0  0  0  0  0  0  0  0  0  0  0  0
   -1.1942    3.1990    3.0212 H   0  0  0  0  0  0  0  0  0  0  0  0
   -1.8714    3.2322    1.3783 H   0  0  0  0  0  0  0  0  0  0  0  0
   -2.9558    3.2161    2.7825 H   0  0  0  0  0  0  0  0  0  0  0  0
   -0.5116    0.8200    0.3959 N   0  0  0  0  0  0  0  0  0  0  0  0
    0.6412    0.2873   -0.3657 C   0  0  2  0  0  0  0  0  0  0  0  0
    0.6187   -1.2524   -0.5069 C   0  0  0  0  0  0  0  0  0  0  0  0
   -0.0003   -1.9705    0.2693 O   0  0  0  0  0  0  0  0  0  0  0  0
    2.0191    0.7662    0.1438 C   0  0  0  0  0  0  0  0  0  0  0  0
    2.1830    2.2490   -0.0873 C   0  0  0  0  0  0  0  0  0  0  0  0
    2.5619    2.7448   -1.3443 C   0  0  0  0  0  0  0  0  0  0  0  0
    1.9301    3.1528    0.9548 C   0  0  0  0  0  0  0  0  0  0  0  0
    2.6870    4.1229   -1.5539 C   0  0  0  0  0  0  0  0  0  0  0  0
    2.0533    4.5304    0.7465 C   0  0  0  0  0  0  0  0  0  0  0  0
    2.4320    5.0161   -0.5086 C   0  0  0  0  0  0  0  0  0  0  0  0
   -1.3069    1.1561   -0.1388 H   0  0  0  0  0  0  0  0  0  0  0  0
    0.5348    0.6718   -1.3841 H   0  0  0  0  0  0  0  0  0  0  0  0
    2.8092    0.2429   -0.4041 H   0  0  0  0  0  0  0  0  0  0  0  0
    2.1695    0.5207    1.1977 H   0  0  0  0  0  0  0  0  0  0  0  0
    2.7669    2.0623   -2.1630 H   0  0  0  0  0  0  0  0  0  0  0  0
    1.6336    2.7810    1.9323 H   0  0  0  0  0  0  0  0  0  0  0  0
    2.9851    4.5007   -2.5277 H   0  0  0  0  0  0  0  0  0  0  0  0
    1.8556    5.2213    1.5608 H   0  0  0  0  0  0  0  0  0  0  0  0
    2.5303    6.0857   -0.6703 H   0  0  0  0  0  0  0  0  0  0  0  0
    1.1856   -1.8507   -1.6198 N   0  0  0  0  0  0  0  0  0  0  0  0
    1.2059   -3.3058   -1.8436 C   0  0  2  0  0  0  0  0  0  0  0  0
    2.2433   -4.0219   -0.9444 C   0  0  0  0  0  0  0  0  0  0  0  0
    3.2297   -4.5746   -1.4162 O   0  0  0  0  0  0  0  0  0  0  0  0
    1.4514   -3.5389   -3.3396 C   0  0  0  0  0  0  0  0  0  0  0  0
    1.7674   -1.2698   -2.2161 H   0  0  0  0  0  0  0  0  0  0  0  0
    0.2247   -3.7280   -1.6002 H   0  0  0  0  0  0  0  0  0  0  0  0
    2.4267   -3.1415   -3.6387 H   0  0  0  0  0  0  0  0  0  0  0  0
    1.4325   -4.6106   -3.5623 H   0  0  0  0  0  0  0  0  0  0  0  0
    0.6747   -3.0497   -3.9350 H   0  0  0  0  0  0  0  0  0  0  0  0
    2.0716   -4.0012    0.4254 N   0  0  0  0  0  0  0  0  0  0  0  0
    3.0355   -4.5384    1.3752 C   0  0  0  0  0  0  0  0  0  0  0  0
    1.2853   -3.4436    0.7717 H   0  0  0  0  0  0  0  0  0  0  0  0
    3.2040   -5.6044    1.1895 H   0  0  0  0  0  0  0  0  0  0  0  0
    3.9904   -4.0096    1.2914 H   0  0  0  0  0  0  0  0  0  0  0  0
    2.6619   -4.4207    2.3969 H   0  0  0  0  0  0  0  0  0  0  0  0
  1  2  2  0  0  0  0
  1  3  1  0  0  0  0
  1  7  1  0  0  0  0
  3  4  1  0  0  0  0
  3  5  1  0  0  0  0
  3  6  1  0  0  0  0
  7  8  1  0  0  0  0
  7 12  1  0  0  0  0
  8  9  1  0  0  0  0
  8 11  1  0  0  0  0
  8 13  1  0  0  0  0
  9 10  2  0  0  0  0
  9 17  1  0  0  0  0
 11 14  1  0  0  0  0
 11 15  1  0  0  0  0
 11 16  1  0  0  0  0
 17 18  1  0  0  0  0
 17 28  1  0  0  0  0
 18 19  1  0  0  0  0
 18 21  1  0  0  0  0
 18 29  1  0  0  0  0
 19 20  2  0  0  0  0
 19 37  1  0  0  0  0
 21 22  1  0  0  0  0
 21 30  1  0  0  0  0
 21 31  1  0  0  0  0
 22 23  1  0  0  0  0
 22 24  2  0  0  0  0
 23 25  2  0  0  0  0
 23 32  1  0  0  0  0
 24 26  1  0  0  0  0
 24 33  1  0  0  0  0
 25 27  1  0  0  0  0
 25 34  1  0  0  0  0
 26 27  2  0  0  0  0
 26 35  1  0  0  0  0
 27 36  1  0  0  0  0
 37 38  1  0  0  0  0
 37 42  1  0  0  0  0
 38 39  1  0  0  0  0
 38 41  1  0  0  0  0
 38 43  1  0  0  0  0
 39 40  2  0  0  0  0
 39 47  1  0  0  0  0
 41 44  1  0  0  0  0
 41 45  1  0  0  0  0
 41 46  1  0  0  0  0
 47 48  1  0  0  0  0
 47 49  1  0  0  0  0
 48 50  1  0  0  0  0
 48 51  1  0  0  0  0
 48 52  1  0  0  0  0
M  END
$$$$

  -OEChem-05262217163D

 52 52  0     1  0  0  0  0  0999 V2000
   -3.4280    0.5453    4.2977 C   0  0  0  0  0  0  0  0  0  0  0  0
   -4.4557    0.8414    3.7087 O   0  0  0  0  0  0  0  0  0  0  0  0
   -3.4942   -0.1068    5.6662 C   0  0  0  0  0  0  0  0  0  0  0  0
   -4.5359   -0.2280    5.9763 H   0  0  0  0  0  0  0  0  0  0  0  0
   -3.0200   -1.0909    5.6343 H   0  0  0  0  0  0  0  0  0  0  0  0
   -2.9781    0.5151    6.4018 H   0  0  0  0  0  0  0  0  0  0  0  0
   -2.2031    0.7949    3.7170 N   0  0  0  0  0  0  0  0  0  0  0  0
   -2.0204    1.2412    2.3298 C   0  0  2  0  0  0  0  0  0  0  0  0
   -0.6889    0.7303    1.7400 C   0  0  0  0  0  0  0  0  0  0  0  0
    0.1623    0.2678    2.4925 O   0  0  0  0  0  0  0  0  0  0  0  0
   -2.0630    2.7726    2.2979 C   0  0  0  0  0  0  0  0  0  0  0  0
   -1.3804    0.4122    4.1821 H   0  0  0  0  0  0  0  0  0  0  0  0
   -2.8284    0.8419    1.7069 H   0  0  0  0  0  0  0  0  0  0  0  0
   -1.2597    3.1900    2.9132 H   0  0  0  0  0  0  0  0  0  0  0  0
   -1.9447    3.1405    1.2741 H   0  0  0  0  0  0  0  0  0  0  0  0
   -3.0214    3.1333    2.6844 H   0  0  0  0  0  0  0  0  0  0  0  0
   -0.4774    0.8075    0.3718 N   0  0  0  0  0  0  0  0  0  0  0  0
    0.7032    0.3127   -0.3712 C   0  0  2  0  0  0  0  0  0  0  0  0
    0.7160   -1.2268   -0.5180 C   0  0  0  0  0  0  0  0  0  0  0  0
   -0.1138   -1.9354    0.0408 O   0  0  0  0  0  0  0  0  0  0  0  0
    2.0557    0.8399    0.1627 C   0  0  0  0  0  0  0  0  0  0  0  0
    2.1680    2.3273   -0.0687 C   0  0  0  0  0  0  0  0  0  0  0  0
    2.5493    2.8349   -1.3205 C   0  0  0  0  0  0  0  0  0  0  0  0
    1.8711    3.2227    0.9691 C   0  0  0  0  0  0  0  0  0  0  0  0
    2.6293    4.2160   -1.5306 C   0  0  0  0  0  0  0  0  0  0  0  0
    1.9501    4.6035    0.7604 C   0  0  0  0  0  0  0  0  0  0  0  0
    2.3288    5.1007   -0.4902 C   0  0  0  0  0  0  0  0  0  0  0  0
   -1.2729    1.1253   -0.1735 H   0  0  0  0  0  0  0  0  0  0  0  0
    0.6034    0.6918   -1.3921 H   0  0  0  0  0  0  0  0  0  0  0  0
    2.8767    0.3478   -0.3674 H   0  0  0  0  0  0  0  0  0  0  0  0
    2.1944    0.6028    1.2201 H   0  0  0  0  0  0  0  0  0  0  0  0
    2.7874    2.1597   -2.1363 H   0  0  0  0  0  0  0  0  0  0  0  0
    1.5763    2.8422    1.9436 H   0  0  0  0  0  0  0  0  0  0  0  0
    2.9266    4.6026   -2.5012 H   0  0  0  0  0  0  0  0  0  0  0  0
    1.7192    5.2883    1.5711 H   0  0  0  0  0  0  0  0  0  0  0  0
    2.3924    6.1729   -0.6521 H   0  0  0  0  0  0  0  0  0  0  0  0
    1.5626   -1.8318   -1.4316 N   0  0  0  0  0  0  0  0  0  0  0  0
    1.6220   -3.2862   -1.6548 C   0  0  2  0  0  0  0  0  0  0  0  0
    2.3469   -4.0313   -0.5062 C   0  0  0  0  0  0  0  0  0  0  0  0
    3.3858   -4.6518   -0.6974 O   0  0  0  0  0  0  0  0  0  0  0  0
    2.2786   -3.5119   -3.0227 C   0  0  0  0  0  0  0  0  0  0  0  0
    2.2985   -1.2589   -1.8338 H   0  0  0  0  0  0  0  0  0  0  0  0
    0.6053   -3.6909   -1.7050 H   0  0  0  0  0  0  0  0  0  0  0  0
    3.3039   -3.1285   -3.0275 H   0  0  0  0  0  0  0  0  0  0  0  0
    2.3091   -4.5810   -3.2558 H   0  0  0  0  0  0  0  0  0  0  0  0
    1.7098   -3.0045   -3.8077 H   0  0  0  0  0  0  0  0  0  0  0  0
    1.8209   -3.9750    0.7692 N   0  0  0  0  0  0  0  0  0  0  0  0
    2.4500   -4.5704    1.9394 C   0  0  0  0  0  0  0  0  0  0  0  0
    0.9915   -3.3864    0.8902 H   0  0  0  0  0  0  0  0  0  0  0  0
    2.5366   -5.6551    1.8172 H   0  0  0  0  0  0  0  0  0  0  0  0
    3.4496   -4.1507    2.0927 H   0  0  0  0  0  0  0  0  0  0  0  0
    1.8496   -4.3695    2.8319 H   0  0  0  0  0  0  0  0  0  0  0  0
  1  2  2  0  0  0  0
  1  3  1  0  0  0  0
  1  7  1  0  0  0  0
  3  4  1  0  0  0  0
  3  5  1  0  0  0  0
  3  6  1  0  0  0  0
  7  8  1  0  0  0  0
  7 12  1  0  0  0  0
  8  9  1  0  0  0  0
  8 11  1  0  0  0  0
  8 13  1  0  0  0  0
  9 10  2  0  0  0  0
  9 17  1  0  0  0  0
 11 14  1  0  0  0  0
 11 15  1  0  0  0  0
 11 16  1  0  0  0  0
 17 18  1  0  0  0  0
 17 28  1  0  0  0  0
 18 19  1  0  0  0  0
 18 21  1  0  0  0  0
 18 29  1  0  0  0  0
 19 20  2  0  0  0  0
 19 37  1  0  0  0  0
 21 22  1  0  0  0  0
 21 30  1  0  0  0  0
 21 31  1  0  0  0  0
 22 23  1  0  0  0  0
 22 24  2  0  0  0  0
 23 25  2  0  0  0  0
 23 32  1  0  0  0  0
 24 26  1  0  0  0  0
 24 33  1  0  0  0  0
 25 27  1  0  0  0  0
 25 34  1  0  0  0  0
 26 27  2  0  0  0  0
 26 35  1  0  0  0  0
 27 36  1  0  0  0  0
 37 38  1  0  0  0  0
 37 42  1  0  0  0  0
 38 39  1  0  0  0  0
 38 41  1  0  0  0  0
 38 43  1  0  0  0  0
 39 40  2  0  0  0  0
 39 47  1  0  0  0  0
 41 44  1  0  0  0  0
 41 45  1  0  0  0  0
 41 46  1  0  0  0  0
 47 48  1  0  0  0  0
 47 49  1  0  0  0  0
 48 50  1  0  0  0  0
 48 51  1  0  0  0  0
 48 52  1  0  0  0  0
M  END
$$$$

  -OEChem-05262217163D

 52 52  0     1  0  0  0  0  0999 V2000
   -3.5276    0.5623    4.2335 C   0  0  0  0  0  0  0  0  0  0  0  0
   -4.5106    0.9554    3.6256 O   0  0  0  0  0  0  0  0  0  0  0  0
   -3.6865   -0.1066    5.5857 C   0  0  0  0  0  0  0  0  0  0  0  0
   -4.7403   -0.1204    5.8777 H   0  0  0  0  0  0  0  0  0  0  0  0
   -3.3204   -1.1351    5.5388 H   0  0  0  0  0  0  0  0  0  0  0  0
   -3.1190    0.4410    6.3419 H   0  0  0  0  0  0  0  0  0  0  0  0
   -2.2709    0.7216    3.6896 N   0  0  0  0  0  0  0  0  0  0  0  0
   -2.0139    1.2068    2.3274 C   0  0  2  0  0  0  0  0  0  0  0  0
   -0.7034    0.6299    1.7514 C   0  0  0  0  0  0  0  0  0  0  0  0
    0.0848    0.0690    2.5048 O   0  0  0  0  0  0  0  0  0  0  0  0
   -1.9520    2.7378    2.3583 C   0  0  0  0  0  0  0  0  0  0  0  0
   -1.4914    0.2723    4.1694 H   0  0  0  0  0  0  0  0  0  0  0  0
   -2.8284    0.8897    1.6670 H   0  0  0  0  0  0  0  0  0  0  0  0
   -1.1413    3.0746    3.0123 H   0  0  0  0  0  0  0  0  0  0  0  0
   -1.7783    3.1366    1.3543 H   0  0  0  0  0  0  0  0  0  0  0  0
   -2.8953    3.1487    2.7323 H   0  0  0  0  0  0  0  0  0  0  0  0
   -0.4636    0.7247    0.3899 N   0  0  0  0  0  0  0  0  0  0  0  0
    0.7371    0.2915   -0.3627 C   0  0  2  0  0  0  0  0  0  0  0  0
    0.6101   -1.1745   -0.8414 C   0  0  0  0  0  0  0  0  0  0  0  0
   -0.4334   -1.8014   -0.6909 O   0  0  0  0  0  0  0  0  0  0  0  0
    2.0982    0.5778    0.3199 C   0  0  0  0  0  0  0  0  0  0  0  0
    2.3481    2.0649    0.3971 C   0  0  0  0  0  0  0  0  0  0  0  0
    2.8413    2.7672   -0.7138 C   0  0  0  0  0  0  0  0  0  0  0  0
    2.0874    2.7641    1.5843 C   0  0  0  0  0  0  0  0  0  0  0  0
    3.0589    4.1475   -0.6409 C   0  0  0  0  0  0  0  0  0  0  0  0
    2.3040    4.1435    1.6588 C   0  0  0  0  0  0  0  0  0  0  0  0
    2.7888    4.8364    0.5454 C   0  0  0  0  0  0  0  0  0  0  0  0
   -1.2443    1.0733   -0.1588 H   0  0  0  0  0  0  0  0  0  0  0  0
    0.7408    0.8790   -1.2854 H   0  0  0  0  0  0  0  0  0  0  0  0
    2.9070    0.1365   -0.2691 H   0  0  0  0  0  0  0  0  0  0  0  0
    2.1643    0.1177    1.3082 H   0  0  0  0  0  0  0  0  0  0  0  0
    3.0579    2.2447   -1.6404 H   0  0  0  0  0  0  0  0  0  0  0  0
    1.7161    2.2327    2.4563 H   0  0  0  0  0  0  0  0  0  0  0  0
    3.4395    4.6846   -1.5049 H   0  0  0  0  0  0  0  0  0  0  0  0
    2.0985    4.6742    2.5838 H   0  0  0  0  0  0  0  0  0  0  0  0
    2.9595    5.9075    0.6042 H   0  0  0  0  0  0  0  0  0  0  0  0
    1.6238   -1.7807   -1.5641 N   0  0  0  0  0  0  0  0  0  0  0  0
    1.5683   -3.1688   -2.0509 C   0  0  2  0  0  0  0  0  0  0  0  0
    1.7977   -4.1992   -0.9175 C   0  0  0  0  0  0  0  0  0  0  0  0
    2.7717   -4.9425   -0.9115 O   0  0  0  0  0  0  0  0  0  0  0  0
    2.5899   -3.2955   -3.1877 C   0  0  0  0  0  0  0  0  0  0  0  0
    2.5170   -1.2991   -1.6042 H   0  0  0  0  0  0  0  0  0  0  0  0
    0.5772   -3.3706   -2.4715 H   0  0  0  0  0  0  0  0  0  0  0  0
    3.6037   -3.1117   -2.8178 H   0  0  0  0  0  0  0  0  0  0  0  0
    2.5560   -4.3023   -3.6162 H   0  0  0  0  0  0  0  0  0  0  0  0
    2.3694   -2.5756   -3.9814 H   0  0  0  0  0  0  0  0  0  0  0  0
    0.8966   -4.2593    0.1270 N   0  0  0  0  0  0  0  0  0  0  0  0
    1.0652   -5.1027    1.3019 C   0  0  0  0  0  0  0  0  0  0  0  0
    0.1533   -3.5554    0.1196 H   0  0  0  0  0  0  0  0  0  0  0  0
    1.1551   -6.1543    1.0101 H   0  0  0  0  0  0  0  0  0  0  0  0
    1.9631   -4.8114    1.8566 H   0  0  0  0  0  0  0  0  0  0  0  0
    0.1997   -5.0013    1.9638 H   0  0  0  0  0  0  0  0  0  0  0  0
  1  2  2  0  0  0  0
  1  3  1  0  0  0  0
  1  7  1  0  0  0  0
  3  4  1  0  0  0  0
  3  5  1  0  0  0  0
  3  6  1  0  0  0  0
  7  8  1  0  0  0  0
  7 12  1  0  0  0  0
  8  9  1  0  0  0  0
  8 11  1  0  0  0  0
  8 13  1  0  0  0  0
  9 10  2  0  0  0  0
  9 17  1  0  0  0  0
 11 14  1  0  0  0  0
 11 15  1  0  0  0  0
 11 16  1  0  0  0  0
 17 18  1  0  0  0  0
 17 28  1  0  0  0  0
 18 19  1  0  0  0  0
 18 21  1  0  0  0  0
 18 29  1  0  0  0  0
 19 20  2  0  0  0  0
 19 37  1  0  0  0  0
 21 22  1  0  0  0  0
 21 30  1  0  0  0  0
 21 31  1  0  0  0  0
 22 23  1  0  0  0  0
 22 24  2  0  0  0  0
 23 25  2  0  0  0  0
 23 32  1  0  0  0  0
 24 26  1  0  0  0  0
 24 33  1  0  0  0  0
 25 27  1  0  0  0  0
 25 34  1  0  0  0  0
 26 27  2  0  0  0  0
 26 35  1  0  0  0  0
 27 36  1  0  0  0  0
 37 38  1  0  0  0  0
 37 42  1  0  0  0  0
 38 39  1  0  0  0  0
 38 41  1  0  0  0  0
 38 43  1  0  0  0  0
 39 40  2  0  0  0  0
 39 47  1  0  0  0  0
 41 44  1  0  0  0  0
 41 45  1  0  0  0  0
 41 46  1  0  0  0  0
 47 48  1  0  0  0  0
 47 49  1  0  0  0  0
 48 50  1  0  0  0  0
 48 51  1  0  0  0  0
 48 52  1  0  0  0  0
M  END
$$$$

  -OEChem-05262217163D

 52 52  0     1  0  0  0  0  0999 V2000
   -3.5136    0.5242    4.1997 C   0  0  0  0  0  0  0  0  0  0  0  0
   -4.4965    0.8983    3.5796 O   0  0  0  0  0  0  0  0  0  0  0  0
   -3.6733   -0.1292    5.5597 C   0  0  0  0  0  0  0  0  0  0  0  0
   -4.7301   -0.1633    5.8391 H   0  0  0  0  0  0  0  0  0  0  0  0
   -3.2828   -1.1495    5.5323 H   0  0  0  0  0  0  0  0  0  0  0  0
   -3.1279    0.4425    6.3144 H   0  0  0  0  0  0  0  0  0  0  0  0
   -2.2551    0.6907    3.6623 N   0  0  0  0  0  0  0  0  0  0  0  0
   -1.9939    1.1665    2.2974 C   0  0  2  0  0  0  0  0  0  0  0  0
   -0.6765    0.5938    1.7346 C   0  0  0  0  0  0  0  0  0  0  0  0
    0.1059    0.0303    2.4919 O   0  0  0  0  0  0  0  0  0  0  0  0
   -1.9404    2.6980    2.3157 C   0  0  0  0  0  0  0  0  0  0  0  0
   -1.4749    0.2533    4.1517 H   0  0  0  0  0  0  0  0  0  0  0  0
   -2.8023    0.8396    1.6344 H   0  0  0  0  0  0  0  0  0  0  0  0
   -1.1387    3.0450    2.9755 H   0  0  0  0  0  0  0  0  0  0  0  0
   -1.7581    3.0899    1.3104 H   0  0  0  0  0  0  0  0  0  0  0  0
   -2.8898    3.1064    2.6761 H   0  0  0  0  0  0  0  0  0  0  0  0
   -0.4198    0.6896    0.3772 N   0  0  0  0  0  0  0  0  0  0  0  0
    0.8056    0.2908   -0.3525 C   0  0  2  0  0  0  0  0  0  0  0  0
    0.7135   -1.1834   -0.8155 C   0  0  0  0  0  0  0  0  0  0  0  0
   -0.3781   -1.7353   -0.9109 O   0  0  0  0  0  0  0  0  0  0  0  0
    2.1428    0.6380    0.3510 C   0  0  0  0  0  0  0  0  0  0  0  0
    2.3317    2.1350    0.4124 C   0  0  0  0  0  0  0  0  0  0  0  0
    2.8164    2.8436   -0.6982 C   0  0  0  0  0  0  0  0  0  0  0  0
    2.0221    2.8372    1.5864 C   0  0  0  0  0  0  0  0  0  0  0  0
    2.9791    4.2319   -0.6372 C   0  0  0  0  0  0  0  0  0  0  0  0
    2.1831    4.2251    1.6489 C   0  0  0  0  0  0  0  0  0  0  0  0
    2.6615    4.9232    0.5361 C   0  0  0  0  0  0  0  0  0  0  0  0
   -1.1944    1.0311   -0.1852 H   0  0  0  0  0  0  0  0  0  0  0  0
    0.8060    0.8647   -1.2836 H   0  0  0  0  0  0  0  0  0  0  0  0
    2.9792    0.2274   -0.2208 H   0  0  0  0  0  0  0  0  0  0  0  0
    2.2112    0.1925    1.3457 H   0  0  0  0  0  0  0  0  0  0  0  0
    3.0684    2.3199   -1.6153 H   0  0  0  0  0  0  0  0  0  0  0  0
    1.6556    2.3010    2.4575 H   0  0  0  0  0  0  0  0  0  0  0  0
    3.3535    4.7736   -1.5009 H   0  0  0  0  0  0  0  0  0  0  0  0
    1.9395    4.7585    2.5633 H   0  0  0  0  0  0  0  0  0  0  0  0
    2.7897    6.0007    0.5844 H   0  0  0  0  0  0  0  0  0  0  0  0
    1.8270   -1.8883   -1.2413 N   0  0  0  0  0  0  0  0  0  0  0  0
    1.7895   -3.2928   -1.6814 C   0  0  2  0  0  0  0  0  0  0  0  0
    1.6541   -4.2786   -0.4943 C   0  0  0  0  0  0  0  0  0  0  0  0
    2.5260   -5.1001   -0.2378 O   0  0  0  0  0  0  0  0  0  0  0  0
    3.0469   -3.5420   -2.5240 C   0  0  0  0  0  0  0  0  0  0  0  0
    2.7351   -1.4768   -1.0482 H   0  0  0  0  0  0  0  0  0  0  0  0
    0.9205   -3.4510   -2.3291 H   0  0  0  0  0  0  0  0  0  0  0  0
    3.9496   -3.4144   -1.9180 H   0  0  0  0  0  0  0  0  0  0  0  0
    3.0396   -4.5623   -2.9209 H   0  0  0  0  0  0  0  0  0  0  0  0
    3.0875   -2.8445   -3.3660 H   0  0  0  0  0  0  0  0  0  0  0  0
    0.5343   -4.2108    0.3108 N   0  0  0  0  0  0  0  0  0  0  0  0
    0.3511   -4.9990    1.5212 C   0  0  0  0  0  0  0  0  0  0  0  0
   -0.1248   -3.4566    0.1002 H   0  0  0  0  0  0  0  0  0  0  0  0
    0.4076   -6.0689    1.2949 H   0  0  0  0  0  0  0  0  0  0  0  0
    1.1214   -4.7519    2.2589 H   0  0  0  0  0  0  0  0  0  0  0  0
   -0.6290   -4.7905    1.9605 H   0  0  0  0  0  0  0  0  0  0  0  0
  1  2  2  0  0  0  0
  1  3  1  0  0  0  0
  1  7  1  0  0  0  0
  3  4  1  0  0  0  0
  3  5  1  0  0  0  0
  3  6  1  0  0  0  0
  7  8  1  0  0  0  0
  7 12  1  0  0  0  0
  8  9  1  0  0  0  0
  8 11  1  0  0  0  0
  8 13  1  0  0  0  0
  9 10  2  0  0  0  0
  9 17  1  0  0  0  0
 11 14  1  0  0  0  0
 11 15  1  0  0  0  0
 11 16  1  0  0  0  0
 17 18  1  0  0  0  0
 17 28  1  0  0  0  0
 18 19  1  0  0  0  0
 18 21  1  0  0  0  0
 18 29  1  0  0  0  0
 19 20  2  0  0  0  0
 19 37  1  0  0  0  0
 21 22  1  0  0  0  0
 21 30  1  0  0  0  0
 21 31  1  0  0  0  0
 22 23  1  0  0  0  0
 22 24  2  0  0  0  0
 23 25  2  0  0  0  0
 23 32  1  0  0  0  0
 24 26  1  0  0  0  0
 24 33  1  0  0  0  0
 25 27  1  0  0  0  0
 25 34  1  0  0  0  0
 26 27  2  0  0  0  0
 26 35  1  0  0  0  0
 27 36  1  0  0  0  0
 37 38  1  0  0  0  0
 37 42  1  0  0  0  0
 38 39  1  0  0  0  0
 38 41  1  0  0  0  0
 38 43  1  0  0  0  0
 39 40  2  0  0  0  0
 39 47  1  0  0  0  0
 41 44  1  0  0  0  0
 41 45  1  0  0  0  0
 41 46  1  0  0  0  0
 47 48  1  0  0  0  0
 47 49  1  0  0  0  0
 48 50  1  0  0  0  0
 48 51  1  0  0  0  0
 48 52  1  0  0  0  0
M  END
$$$$

  -OEChem-05262217163D

 52 52  0     1  0  0  0  0  0999 V2000
   -3.5144    0.4409    4.1503 C   0  0  0  0  0  0  0  0  0  0  0  0
   -4.5027    0.7441    3.5012 O   0  0  0  0  0  0  0  0  0  0  0  0
   -3.6673   -0.2303    5.5025 C   0  0  0  0  0  0  0  0  0  0  0  0
   -4.7248   -0.4083    5.7170 H   0  0  0  0  0  0  0  0  0  0  0  0
   -3.1421   -1.1885    5.5063 H   0  0  0  0  0  0  0  0  0  0  0  0
   -3.2514    0.4079    6.2858 H   0  0  0  0  0  0  0  0  0  0  0  0
   -2.2554    0.6957    3.6496 N   0  0  0  0  0  0  0  0  0  0  0  0
   -1.9887    1.1656    2.2834 C   0  0  2  0  0  0  0  0  0  0  0  0
   -0.6491    0.6225    1.7436 C   0  0  0  0  0  0  0  0  0  0  0  0
    0.1398    0.0910    2.5168 O   0  0  0  0  0  0  0  0  0  0  0  0
   -1.9796    2.6976    2.2889 C   0  0  0  0  0  0  0  0  0  0  0  0
   -1.4637    0.3070    4.1609 H   0  0  0  0  0  0  0  0  0  0  0  0
   -2.7777    0.8110    1.6111 H   0  0  0  0  0  0  0  0  0  0  0  0
   -1.1935    3.0737    2.9515 H   0  0  0  0  0  0  0  0  0  0  0  0
   -1.8007    3.0854    1.2814 H   0  0  0  0  0  0  0  0  0  0  0  0
   -2.9435    3.0805    2.6390 H   0  0  0  0  0  0  0  0  0  0  0  0
   -0.3829    0.6901    0.3867 N   0  0  0  0  0  0  0  0  0  0  0  0
    0.8592    0.3022   -0.3187 C   0  0  2  0  0  0  0  0  0  0  0  0
    0.7931   -1.1858   -0.7363 C   0  0  0  0  0  0  0  0  0  0  0  0
   -0.2819   -1.6782   -1.0631 O   0  0  0  0  0  0  0  0  0  0  0  0
    2.1829    0.7029    0.3817 C   0  0  0  0  0  0  0  0  0  0  0  0
    2.3375    2.2047    0.4005 C   0  0  0  0  0  0  0  0  0  0  0  0
    2.8134    2.8906   -0.7276 C   0  0  0  0  0  0  0  0  0  0  0  0
    2.0056    2.9343    1.5515 C   0  0  0  0  0  0  0  0  0  0  0  0
    2.9474    4.2835   -0.7065 C   0  0  0  0  0  0  0  0  0  0  0  0
    2.1395    4.3264    1.5745 C   0  0  0  0  0  0  0  0  0  0  0  0
    2.6094    5.0019    0.4446 C   0  0  0  0  0  0  0  0  0  0  0  0
   -1.1567    1.0043   -0.1928 H   0  0  0  0  0  0  0  0  0  0  0  0
    0.8562    0.8467   -1.2675 H   0  0  0  0  0  0  0  0  0  0  0  0
    3.0307    0.2971   -0.1779 H   0  0  0  0  0  0  0  0  0  0  0  0
    2.2561    0.2882    1.3896 H   0  0  0  0  0  0  0  0  0  0  0  0
    3.0818    2.3450   -1.6271 H   0  0  0  0  0  0  0  0  0  0  0  0
    1.6432    2.4170    2.4358 H   0  0  0  0  0  0  0  0  0  0  0  0
    3.3154    4.8077   -1.5840 H   0  0  0  0  0  0  0  0  0  0  0  0
    1.8817    4.8806    2.4722 H   0  0  0  0  0  0  0  0  0  0  0  0
    2.7149    6.0827    0.4620 H   0  0  0  0  0  0  0  0  0  0  0  0
    1.9245   -1.9773   -0.8389 N   0  0  0  0  0  0  0  0  0  0  0  0
    1.9012   -3.3976   -1.2246 C   0  0  2  0  0  0  0  0  0  0  0  0
    1.4198   -4.3175   -0.0751 C   0  0  0  0  0  0  0  0  0  0  0  0
    2.1395   -5.1905    0.3951 O   0  0  0  0  0  0  0  0  0  0  0  0
    3.3053   -3.7545   -1.7284 C   0  0  0  0  0  0  0  0  0  0  0  0
    2.7760   -1.6147   -0.4202 H   0  0  0  0  0  0  0  0  0  0  0  0
    1.2047   -3.5389   -2.0580 H   0  0  0  0  0  0  0  0  0  0  0  0
    4.0439   -3.6386   -0.9286 H   0  0  0  0  0  0  0  0  0  0  0  0
    3.3307   -4.7929   -2.0742 H   0  0  0  0  0  0  0  0  0  0  0  0
    3.5869   -3.1062   -2.5636 H   0  0  0  0  0  0  0  0  0  0  0  0
    0.1488   -4.1451    0.4361 N   0  0  0  0  0  0  0  0  0  0  0  0
   -0.3927   -4.9066    1.5529 C   0  0  0  0  0  0  0  0  0  0  0  0
   -0.3916   -3.3675    0.0482 H   0  0  0  0  0  0  0  0  0  0  0  0
   -0.4317   -5.9725    1.3055 H   0  0  0  0  0  0  0  0  0  0  0  0
    0.2283   -4.7729    2.4446 H   0  0  0  0  0  0  0  0  0  0  0  0
   -1.4073   -4.5680    1.7835 H   0  0  0  0  0  0  0  0  0  0  0  0
  1  2  2  0  0  0  0
  1  3  1  0  0  0  0
  1  7  1  0  0  0  0
  3  4  1  0  0  0  0
  3  5  1  0  0  0  0
  3  6  1  0  0  0  0
  7  8  1  0  0  0  0
  7 12  1  0  0  0  0
  8  9  1  0  0  0  0
  8 11  1  0  0  0  0
  8 13  1  0  0  0  0
  9 10  2  0  0  0  0
  9 17  1  0  0  0  0
 11 14  1  0  0  0  0
 11 15  1  0  0  0  0
 11 16  1  0  0  0  0
 17 18  1  0  0  0  0
 17 28  1  0  0  0  0
 18 19  1  0  0  0  0
 18 21  1  0  0  0  0
 18 29  1  0  0  0  0
 19 20  2  0  0  0  0
 19 37  1  0  0  0  0
 21 22  1  0  0  0  0
 21 30  1  0  0  0  0
 21 31  1  0  0  0  0
 22 23  1  0  0  0  0
 22 24  2  0  0  0  0
 23 25  2  0  0  0  0
 23 32  1  0  0  0  0
 24 26  1  0  0  0  0
 24 33  1  0  0  0  0
 25 27  1  0  0  0  0
 25 34  1  0  0  0  0
 26 27  2  0  0  0  0
 26 35  1  0  0  0  0
 27 36  1  0  0  0  0
 37 38  1  0  0  0  0
 37 42  1  0  0  0  0
 38 39  1  0  0  0  0
 38 41  1  0  0  0  0
 38 43  1  0  0  0  0
 39 40  2  0  0  0  0
 39 47  1  0  0  0  0
 41 44  1  0  0  0  0
 41 45  1  0  0  0  0
 41 46  1  0  0  0  0
 47 48  1  0  0  0  0
 47 49  1  0  0  0  0
 48 50  1  0  0  0  0
 48 51  1  0  0  0  0
 48 52  1  0  0  0  0
M  END
$$$$

  -OEChem-05262217163D

 52 52  0     1  0  0  0  0  0999 V2000
   -3.5328    0.4673    4.1204 C   0  0  0  0  0  0  0  0  0  0  0  0
   -4.5055    0.7986    3.4615 O   0  0  0  0  0  0  0  0  0  0  0  0
   -3.7173   -0.2076    5.4665 C   0  0  0  0  0  0  0  0  0  0  0  0
   -4.7803   -0.3759    5.6611 H   0  0  0  0  0  0  0  0  0  0  0  0
   -3.2013   -1.1708    5.4753 H   0  0  0  0  0  0  0  0  0  0  0  0
   -3.3090    0.4239    6.2592 H   0  0  0  0  0  0  0  0  0  0  0  0
   -2.2626    0.6944    3.6351 N   0  0  0  0  0  0  0  0  0  0  0  0
   -1.9703    1.1731    2.2776 C   0  0  2  0  0  0  0  0  0  0  0  0
   -0.6436    0.5965    1.7423 C   0  0  0  0  0  0  0  0  0  0  0  0
    0.1385    0.0582    2.5179 O   0  0  0  0  0  0  0  0  0  0  0  0
   -1.9125    2.7033    2.3041 C   0  0  0  0  0  0  0  0  0  0  0  0
   -1.4855    0.2859    4.1534 H   0  0  0  0  0  0  0  0  0  0  0  0
   -2.7651    0.8529    1.5948 H   0  0  0  0  0  0  0  0  0  0  0  0
   -1.1248    3.0446    2.9831 H   0  0  0  0  0  0  0  0  0  0  0  0
   -1.7061    3.0990    1.3049 H   0  0  0  0  0  0  0  0  0  0  0  0
   -2.8691    3.1114    2.6456 H   0  0  0  0  0  0  0  0  0  0  0  0
   -0.3751    0.6453    0.3854 N   0  0  0  0  0  0  0  0  0  0  0  0
    0.8810    0.2758   -0.3023 C   0  0  2  0  0  0  0  0  0  0  0  0
    0.8501   -1.2204   -0.6858 C   0  0  0  0  0  0  0  0  0  0  0  0
   -0.1476   -1.6812   -1.2302 O   0  0  0  0  0  0  0  0  0  0  0  0
    2.1893    0.7231    0.3970 C   0  0  0  0  0  0  0  0  0  0  0  0
    2.3088    2.2284    0.3868 C   0  0  0  0  0  0  0  0  0  0  0  0
    2.7756    2.9042   -0.7513 C   0  0  0  0  0  0  0  0  0  0  0  0
    1.9515    2.9716    1.5214 C   0  0  0  0  0  0  0  0  0  0  0  0
    2.8744    4.3002   -0.7568 C   0  0  0  0  0  0  0  0  0  0  0  0
    2.0498    4.3668    1.5178 C   0  0  0  0  0  0  0  0  0  0  0  0
    2.5102    5.0323    0.3777 C   0  0  0  0  0  0  0  0  0  0  0  0
   -1.1312    0.9924   -0.1990 H   0  0  0  0  0  0  0  0  0  0  0  0
    0.8724    0.7982   -1.2639 H   0  0  0  0  0  0  0  0  0  0  0  0
    3.0473    0.3211   -0.1507 H   0  0  0  0  0  0  0  0  0  0  0  0
    2.2647    0.3336    1.4147 H   0  0  0  0  0  0  0  0  0  0  0  0
    3.0636    2.3477   -1.6380 H   0  0  0  0  0  0  0  0  0  0  0  0
    1.5973    2.4623    2.4134 H   0  0  0  0  0  0  0  0  0  0  0  0
    3.2353    4.8160   -1.6421 H   0  0  0  0  0  0  0  0  0  0  0  0
    1.7713    4.9318    2.4024 H   0  0  0  0  0  0  0  0  0  0  0  0
    2.5880    6.1159    0.3752 H   0  0  0  0  0  0  0  0  0  0  0  0
    1.9293   -2.0613   -0.4752 N   0  0  0  0  0  0  0  0  0  0  0  0
    1.9230   -3.4988   -0.7906 C   0  0  2  0  0  0  0  0  0  0  0  0
    1.1370   -4.3307    0.2524 C   0  0  0  0  0  0  0  0  0  0  0  0
    1.6829   -5.1896    0.9346 O   0  0  0  0  0  0  0  0  0  0  0  0
    3.3849   -3.9420   -0.9275 C   0  0  0  0  0  0  0  0  0  0  0  0
    2.6585   -1.7152    0.1423 H   0  0  0  0  0  0  0  0  0  0  0  0
    1.4361   -3.6587   -1.7587 H   0  0  0  0  0  0  0  0  0  0  0  0
    3.9189   -3.8087    0.0190 H   0  0  0  0  0  0  0  0  0  0  0  0
    3.4350   -4.9996   -1.2062 H   0  0  0  0  0  0  0  0  0  0  0  0
    3.8902   -3.3569   -1.7019 H   0  0  0  0  0  0  0  0  0  0  0  0
   -0.2132   -4.0955    0.4196 N   0  0  0  0  0  0  0  0  0  0  0  0
   -1.0372   -4.7603    1.4194 C   0  0  0  0  0  0  0  0  0  0  0  0
   -0.6059   -3.3225   -0.1235 H   0  0  0  0  0  0  0  0  0  0  0  0
   -0.9953   -5.8466    1.2892 H   0  0  0  0  0  0  0  0  0  0  0  0
   -0.6900   -4.5118    2.4275 H   0  0  0  0  0  0  0  0  0  0  0  0
   -2.0793   -4.4415    1.3219 H   0  0  0  0  0  0  0  0  0  0  0  0
  1  2  2  0  0  0  0
  1  3  1  0  0  0  0
  1  7  1  0  0  0  0
  3  4  1  0  0  0  0
  3  5  1  0  0  0  0
  3  6  1  0  0  0  0
  7  8  1  0  0  0  0
  7 12  1  0  0  0  0
  8  9  1  0  0  0  0
  8 11  1  0  0  0  0
  8 13  1  0  0  0  0
  9 10  2  0  0  0  0
  9 17  1  0  0  0  0
 11 14  1  0  0  0  0
 11 15  1  0  0  0  0
 11 16  1  0  0  0  0
 17 18  1  0  0  0  0
 17 28  1  0  0  0  0
 18 19  1  0  0  0  0
 18 21  1  0  0  0  0
 18 29  1  0  0  0  0
 19 20  2  0  0  0  0
 19 37  1  0  0  0  0
 21 22  1  0  0  0  0
 21 30  1  0  0  0  0
 21 31  1  0  0  0  0
 22 23  1  0  0  0  0
 22 24  2  0  0  0  0
 23 25  2  0  0  0  0
 23 32  1  0  0  0  0
 24 26  1  0  0  0  0
 24 33  1  0  0  0  0
 25 27  1  0  0  0  0
 25 34  1  0  0  0  0
 26 27  2  0  0  0  0
 26 35  1  0  0  0  0
 27 36  1  0  0  0  0
 37 38  1  0  0  0  0
 37 42  1  0  0  0  0
 38 39  1  0  0  0  0
 38 41  1  0  0  0  0
 38 43  1  0  0  0  0
 39 40  2  0  0  0  0
 39 47  1  0  0  0  0
 41 44  1  0  0  0  0
 41 45  1  0  0  0  0
 41 46  1  0  0  0  0
 47 48  1  0  0  0  0
 47 49  1  0  0  0  0
 48 50  1  0  0  0  0
 48 51  1  0  0  0  0
 48 52  1  0  0  0  0
M  END
$$$$

  -OEChem-05262217163D

 52 52  0     1  0  0  0  0  0999 V2000
   -3.5458    0.5546    4.1101 C   0  0  0  0  0  0  0  0  0  0  0  0
   -4.4974    0.9525    3.4571 O   0  0  0  0  0  0  0  0  0  0  0  0
   -3.7685   -0.1111    5.4551 C   0  0  0  0  0  0  0  0  0  0  0  0
   -4.8375   -0.1545    5.6818 H   0  0  0  0  0  0  0  0  0  0  0  0
   -3.3711   -1.1288    5.4387 H   0  0  0  0  0  0  0  0  0  0  0  0
   -3.2644    0.4568    6.2406 H   0  0  0  0  0  0  0  0  0  0  0  0
   -2.2657    0.6988    3.6186 N   0  0  0  0  0  0  0  0  0  0  0  0
   -1.9480    1.1794    2.2673 C   0  0  2  0  0  0  0  0  0  0  0  0
   -0.6489    0.5480    1.7259 C   0  0  0  0  0  0  0  0  0  0  0  0
    0.1175   -0.0223    2.4945 O   0  0  0  0  0  0  0  0  0  0  0  0
   -1.8186    2.7054    2.3122 C   0  0  0  0  0  0  0  0  0  0  0  0
   -1.5127    0.2440    4.1341 H   0  0  0  0  0  0  0  0  0  0  0  0
   -2.7555    0.9054    1.5795 H   0  0  0  0  0  0  0  0  0  0  0  0
   -1.0281    3.0030    3.0083 H   0  0  0  0  0  0  0  0  0  0  0  0
   -1.5767    3.1014    1.3210 H   0  0  0  0  0  0  0  0  0  0  0  0
   -2.7605    3.1551    2.6422 H   0  0  0  0  0  0  0  0  0  0  0  0
   -0.3822    0.5808    0.3687 N   0  0  0  0  0  0  0  0  0  0  0  0
    0.8887    0.2330   -0.3000 C   0  0  2  0  0  0  0  0  0  0  0  0
    0.8984   -1.2687   -0.6496 C   0  0  0  0  0  0  0  0  0  0  0  0
    0.0336   -1.7184   -1.3931 O   0  0  0  0  0  0  0  0  0  0  0  0
    2.1798    0.7189    0.4034 C   0  0  0  0  0  0  0  0  0  0  0  0
    2.2627    2.2258    0.3726 C   0  0  0  0  0  0  0  0  0  0  0  0
    2.7221    2.8979   -0.7704 C   0  0  0  0  0  0  0  0  0  0  0  0
    1.8771    2.9737    1.4947 C   0  0  0  0  0  0  0  0  0  0  0  0
    2.7863    4.2957   -0.7918 C   0  0  0  0  0  0  0  0  0  0  0  0
    1.9387    4.3707    1.4742 C   0  0  0  0  0  0  0  0  0  0  0  0
    2.3930    5.0325    0.3296 C   0  0  0  0  0  0  0  0  0  0  0  0
   -1.1074    0.9928   -0.2126 H   0  0  0  0  0  0  0  0  0  0  0  0
    0.8776    0.7366   -1.2716 H   0  0  0  0  0  0  0  0  0  0  0  0
    3.0488    0.3233   -0.1325 H   0  0  0  0  0  0  0  0  0  0  0  0
    2.2559    0.3493    1.4284 H   0  0  0  0  0  0  0  0  0  0  0  0
    3.0304    2.3374   -1.6480 H   0  0  0  0  0  0  0  0  0  0  0  0
    1.5297    2.4665    2.3903 H   0  0  0  0  0  0  0  0  0  0  0  0
    3.1433    4.8098   -1.6793 H   0  0  0  0  0  0  0  0  0  0  0  0
    1.6381    4.9401    2.3490 H   0  0  0  0  0  0  0  0  0  0  0  0
    2.4443    6.1174    0.3131 H   0  0  0  0  0  0  0  0  0  0  0  0
    1.8559   -2.1306   -0.1449 N   0  0  0  0  0  0  0  0  0  0  0  0
    1.8540   -3.5828   -0.3817 C   0  0  2  0  0  0  0  0  0  0  0  0
    0.8039   -4.3230    0.4830 C   0  0  0  0  0  0  0  0  0  0  0  0
    1.1280   -5.1668    1.3103 O   0  0  0  0  0  0  0  0  0  0  0  0
    3.2837   -4.0839   -0.1439 C   0  0  0  0  0  0  0  0  0  0  0  0
    2.4027   -1.7800    0.6377 H   0  0  0  0  0  0  0  0  0  0  0  0
    1.6025   -3.7817   -1.4288 H   0  0  0  0  0  0  0  0  0  0  0  0
    3.5868   -3.9088    0.8935 H   0  0  0  0  0  0  0  0  0  0  0  0
    3.3471   -5.1582   -0.3452 H   0  0  0  0  0  0  0  0  0  0  0  0
    3.9839   -3.5665   -0.8066 H   0  0  0  0  0  0  0  0  0  0  0  0
   -0.5337   -4.0242    0.3157 N   0  0  0  0  0  0  0  0  0  0  0  0
   -1.6028   -4.5969    1.1218 C   0  0  0  0  0  0  0  0  0  0  0  0
   -0.7470   -3.2700   -0.3417 H   0  0  0  0  0  0  0  0  0  0  0  0
   -1.5856   -5.6902    1.0610 H   0  0  0  0  0  0  0  0  0  0  0  0
   -1.4918   -4.2998    2.1697 H   0  0  0  0  0  0  0  0  0  0  0  0
   -2.5756   -4.2477    0.7624 H   0  0  0  0  0  0  0  0  0  0  0  0
  1  2  2  0  0  0  0
  1  3  1  0  0  0  0
  1  7  1  0  0  0  0
  3  4  1  0  0  0  0
  3  5  1  0  0  0  0
  3  6  1  0  0  0  0
  7  8  1  0  0  0  0
  7 12  1  0  0  0  0
  8  9  1  0  0  0  0
  8 11  1  0  0  0  0
  8 13  1  0  0  0  0
  9 10  2  0  0  0  0
  9 17  1  0  0  0  0
 11 14  1  0  0  0  0
 11 15  1  0  0  0  0
 11 16  1  0  0  0  0
 17 18  1  0  0  0  0
 17 28  1  0  0  0  0
 18 19  1  0  0  0  0
 18 21  1  0  0  0  0
 18 29  1  0  0  0  0
 19 20  2  0  0  0  0
 19 37  1  0  0  0  0
 21 22  1  0  0  0  0
 21 30  1  0  0  0  0
 21 31  1  0  0  0  0
 22 23  1  0  0  0  0
 22 24  2  0  0  0  0
 23 25  2  0  0  0  0
 23 32  1  0  0  0  0
 24 26  1  0  0  0  0
 24 33  1  0  0  0  0
 25 27  1  0  0  0  0
 25 34  1  0  0  0  0
 26 27  2  0  0  0  0
 26 35  1  0  0  0  0
 27 36  1  0  0  0  0
 37 38  1  0  0  0  0
 37 42  1  0  0  0  0
 38 39  1  0  0  0  0
 38 41  1  0  0  0  0
 38 43  1  0  0  0  0
 39 40  2  0  0  0  0
 39 47  1  0  0  0  0
 41 44  1  0  0  0  0
 41 45  1  0  0  0  0
 41 46  1  0  0  0  0
 47 48  1  0  0  0  0
 47 49  1  0  0  0  0
 48 50  1  0  0  0  0
 48 51  1  0  0  0  0
 48 52  1  0  0  0  0
M  END
$$$$

  -OEChem-05262217163D

 52 52  0     1  0  0  0  0  0999 V2000
   -3.5346    0.6361    4.1434 C   0  0  0  0  0  0  0  0  0  0  0  0
   -4.4811    1.0539    3.4954 O   0  0  0  0  0  0  0  0  0  0  0  0
   -3.7600    0.0217    5.5119 C   0  0  0  0  0  0  0  0  0  0  0  0
   -4.8210    0.0644    5.7738 H   0  0  0  0  0  0  0  0  0  0  0  0
   -3.4400   -1.0232    5.5102 H   0  0  0  0  0  0  0  0  0  0  0  0
   -3.1892    0.5698    6.2654 H   0  0  0  0  0  0  0  0  0  0  0  0
   -2.2582    0.7204    3.6288 N   0  0  0  0  0  0  0  0  0  0  0  0
   -1.9430    1.1780    2.2693 C   0  0  2  0  0  0  0  0  0  0  0  0
   -0.6536    0.5266    1.7286 C   0  0  0  0  0  0  0  0  0  0  0  0
    0.1080   -0.0537    2.4954 O   0  0  0  0  0  0  0  0  0  0  0  0
   -1.7992    2.7035    2.2886 C   0  0  0  0  0  0  0  0  0  0  0  0
   -1.5124    0.2543    4.1445 H   0  0  0  0  0  0  0  0  0  0  0  0
   -2.7585    0.9011    1.5920 H   0  0  0  0  0  0  0  0  0  0  0  0
   -1.0013    3.0044    2.9747 H   0  0  0  0  0  0  0  0  0  0  0  0
   -1.5616    3.0815    1.2895 H   0  0  0  0  0  0  0  0  0  0  0  0
   -2.7339    3.1681    2.6179 H   0  0  0  0  0  0  0  0  0  0  0  0
   -0.3914    0.5373    0.3701 N   0  0  0  0  0  0  0  0  0  0  0  0
    0.8910    0.1993   -0.2792 C   0  0  2  0  0  0  0  0  0  0  0  0
    0.9236   -1.3083   -0.5871 C   0  0  0  0  0  0  0  0  0  0  0  0
    0.2500   -1.7540   -1.5090 O   0  0  0  0  0  0  0  0  0  0  0  0
    2.1736    0.7143    0.4185 C   0  0  0  0  0  0  0  0  0  0  0  0
    2.2371    2.2211    0.3592 C   0  0  0  0  0  0  0  0  0  0  0  0
    2.6911    2.8767   -0.7952 C   0  0  0  0  0  0  0  0  0  0  0  0
    1.8414    2.9858    1.4664 C   0  0  0  0  0  0  0  0  0  0  0  0
    2.7350    4.2746   -0.8450 C   0  0  0  0  0  0  0  0  0  0  0  0
    1.8844    4.3827    1.4180 C   0  0  0  0  0  0  0  0  0  0  0  0
    2.3301    5.0282    0.2610 C   0  0  0  0  0  0  0  0  0  0  0  0
   -1.0954    0.9850   -0.2113 H   0  0  0  0  0  0  0  0  0  0  0  0
    0.8799    0.6797   -1.2627 H   0  0  0  0  0  0  0  0  0  0  0  0
    3.0473    0.3132   -0.1060 H   0  0  0  0  0  0  0  0  0  0  0  0
    2.2503    0.3687    1.4516 H   0  0  0  0  0  0  0  0  0  0  0  0
    3.0100    2.3026   -1.6602 H   0  0  0  0  0  0  0  0  0  0  0  0
    1.5014    2.4925    2.3725 H   0  0  0  0  0  0  0  0  0  0  0  0
    3.0856    4.7753   -1.7429 H   0  0  0  0  0  0  0  0  0  0  0  0
    1.5755    4.9655    2.2807 H   0  0  0  0  0  0  0  0  0  0  0  0
    2.3673    6.1133    0.2231 H   0  0  0  0  0  0  0  0  0  0  0  0
    1.6829   -2.1758    0.1761 N   0  0  0  0  0  0  0  0  0  0  0  0
    1.6787   -3.6363    0.0003 C   0  0  2  0  0  0  0  0  0  0  0  0
    0.4071   -4.3027    0.5826 C   0  0  0  0  0  0  0  0  0  0  0  0
    0.4667   -5.1255    1.4886 O   0  0  0  0  0  0  0  0  0  0  0  0
    2.9720   -4.1703    0.6281 C   0  0  0  0  0  0  0  0  0  0  0  0
    1.9928   -1.8094    1.0743 H   0  0  0  0  0  0  0  0  0  0  0  0
    1.7043   -3.8754   -1.0683 H   0  0  0  0  0  0  0  0  0  0  0  0
    2.9916   -3.9644    1.7033 H   0  0  0  0  0  0  0  0  0  0  0  0
    3.0456   -5.2527    0.4819 H   0  0  0  0  0  0  0  0  0  0  0  0
    3.8443   -3.6998    0.1644 H   0  0  0  0  0  0  0  0  0  0  0  0
   -0.8276   -3.9649    0.0645 N   0  0  0  0  0  0  0  0  0  0  0  0
   -2.0921   -4.4852    0.5657 C   0  0  0  0  0  0  0  0  0  0  0  0
   -0.8300   -3.2407   -0.6581 H   0  0  0  0  0  0  0  0  0  0  0  0
   -2.0993   -5.5795    0.5265 H   0  0  0  0  0  0  0  0  0  0  0  0
   -2.2517   -4.1683    1.6014 H   0  0  0  0  0  0  0  0  0  0  0  0
   -2.9212   -4.1135   -0.0438 H   0  0  0  0  0  0  0  0  0  0  0  0
  1  2  2  0  0  0  0
  1  3  1  0  0  0  0
  1  7  1  0  0  0  0
  3  4  1  0  0  0  0
  3  5  1  0  0  0  0
  3  6  1  0  0  0  0
  7  8  1  0  0  0  0
  7 12  1  0  0  0  0
  8  9  1  0  0  0  0
  8 11  1  0  0  0  0
  8 13  1  0  0  0  0
  9 10  2  0  0  0  0
  9 17  1  0  0  0  0
 11 14  1  0  0  0  0
 11 15  1  0  0  0  0
 11 16  1  0  0  0  0
 17 18  1  0  0  0  0
 17 28  1  0  0  0  0
 18 19  1  0  0  0  0
 18 21  1  0  0  0  0
 18 29  1  0  0  0  0
 19 20  2  0  0  0  0
 19 37  1  0  0  0  0
 21 22  1  0  0  0  0
 21 30  1  0  0  0  0
 21 31  1  0  0  0  0
 22 23  1  0  0  0  0
 22 24  2  0  0  0  0
 23 25  2  0  0  0  0
 23 32  1  0  0  0  0
 24 26  1  0  0  0  0
 24 33  1  0  0  0  0
 25 27  1  0  0  0  0
 25 34  1  0  0  0  0
 26 27  2  0  0  0  0
 26 35  1  0  0  0  0
 27 36  1  0  0  0  0
 37 38  1  0  0  0  0
 37 42  1  0  0  0  0
 38 39  1  0  0  0  0
 38 41  1  0  0  0  0
 38 43  1  0  0  0  0
 39 40  2  0  0  0  0
 39 47  1  0  0  0  0
 41 44  1  0  0  0  0
 41 45  1  0  0  0  0
 41 46  1  0  0  0  0
 47 48  1  0  0  0  0
 47 49  1  0  0  0  0
 48 50  1  0  0  0  0
 48 51  1  0  0  0  0
 48 52  1  0  0  0  0
M  END
$$$$

  -OEChem-05262217163D

 52 52  0     1  0  0  0  0  0999 V2000
   -3.5303    0.6622    4.1350 C   0  0  0  0  0  0  0  0  0  0  0  0
   -4.4677    1.1073    3.4918 O   0  0  0  0  0  0  0  0  0  0  0  0
   -3.7674    0.0364    5.4964 C   0  0  0  0  0  0  0  0  0  0  0  0
   -4.8179    0.1417    5.7817 H   0  0  0  0  0  0  0  0  0  0  0  0
   -3.5152   -1.0265    5.4675 H   0  0  0  0  0  0  0  0  0  0  0  0
   -3.1480    0.5315    6.2481 H   0  0  0  0  0  0  0  0  0  0  0  0
   -2.2529    0.7232    3.6194 N   0  0  0  0  0  0  0  0  0  0  0  0
   -1.9326    1.1784    2.2601 C   0  0  2  0  0  0  0  0  0  0  0  0
   -0.6535    0.5095    1.7164 C   0  0  0  0  0  0  0  0  0  0  0  0
    0.1005   -0.0903    2.4770 O   0  0  0  0  0  0  0  0  0  0  0  0
   -1.7701    2.7018    2.2799 C   0  0  0  0  0  0  0  0  0  0  0  0
   -1.5183    0.2342    4.1300 H   0  0  0  0  0  0  0  0  0  0  0  0
   -2.7523    0.9119    1.5838 H   0  0  0  0  0  0  0  0  0  0  0  0
   -0.9727    2.9927    2.9707 H   0  0  0  0  0  0  0  0  0  0  0  0
   -1.5217    3.0760    1.2821 H   0  0  0  0  0  0  0  0  0  0  0  0
   -2.7007    3.1784    2.6041 H   0  0  0  0  0  0  0  0  0  0  0  0
   -0.4017    0.4952    0.3561 N   0  0  0  0  0  0  0  0  0  0  0  0
    0.8899    0.1669   -0.2799 C   0  0  2  0  0  0  0  0  0  0  0  0
    0.9449   -1.3455   -0.5431 C   0  0  0  0  0  0  0  0  0  0  0  0
    0.4938   -1.8103   -1.5833 O   0  0  0  0  0  0  0  0  0  0  0  0
    2.1667    0.7049    0.4097 C   0  0  0  0  0  0  0  0  0  0  0  0
    2.2167    2.2109    0.3290 C   0  0  0  0  0  0  0  0  0  0  0  0
    2.6654    2.8521   -0.8357 C   0  0  0  0  0  0  0  0  0  0  0  0
    1.8172    2.9888    1.4254 C   0  0  0  0  0  0  0  0  0  0  0  0
    2.6985    4.2491   -0.9070 C   0  0  0  0  0  0  0  0  0  0  0  0
    1.8487    4.3852    1.3555 C   0  0  0  0  0  0  0  0  0  0  0  0
    2.2882    5.0161    0.1878 C   0  0  0  0  0  0  0  0  0  0  0  0
   -1.0861    0.9778   -0.2209 H   0  0  0  0  0  0  0  0  0  0  0  0
    0.8761    0.6246   -1.2744 H   0  0  0  0  0  0  0  0  0  0  0  0
    3.0431    0.3018   -0.1083 H   0  0  0  0  0  0  0  0  0  0  0  0
    2.2476    0.3748    1.4477 H   0  0  0  0  0  0  0  0  0  0  0  0
    2.9889    2.2669   -1.6917 H   0  0  0  0  0  0  0  0  0  0  0  0
    1.4835    2.5062    2.3396 H   0  0  0  0  0  0  0  0  0  0  0  0
    3.0448    4.7389   -1.8124 H   0  0  0  0  0  0  0  0  0  0  0  0
    1.5366    4.9790    2.2097 H   0  0  0  0  0  0  0  0  0  0  0  0
    2.3158    6.1007    0.1328 H   0  0  0  0  0  0  0  0  0  0  0  0
    1.4558   -2.1907    0.4231 N   0  0  0  0  0  0  0  0  0  0  0  0
    1.4052   -3.6569    0.3303 C   0  0  2  0  0  0  0  0  0  0  0  0
   -0.0078   -4.2159    0.6292 C   0  0  0  0  0  0  0  0  0  0  0  0
   -0.2227   -4.9548    1.5826 O   0  0  0  0  0  0  0  0  0  0  0  0
    2.4794   -4.2076    1.2763 C   0  0  0  0  0  0  0  0  0  0  0  0
    1.5245   -1.7793    1.3549 H   0  0  0  0  0  0  0  0  0  0  0  0
    1.6653   -3.9682   -0.6870 H   0  0  0  0  0  0  0  0  0  0  0  0
    2.2605   -3.9286    2.3120 H   0  0  0  0  0  0  0  0  0  0  0  0
    2.5170   -5.2997    1.2125 H   0  0  0  0  0  0  0  0  0  0  0  0
    3.4636   -3.8120    1.0077 H   0  0  0  0  0  0  0  0  0  0  0  0
   -1.0576   -3.8652   -0.1969 N   0  0  0  0  0  0  0  0  0  0  0  0
   -2.4385   -4.2728    0.0220 C   0  0  0  0  0  0  0  0  0  0  0  0
   -0.8394   -3.2042   -0.9466 H   0  0  0  0  0  0  0  0  0  0  0  0
   -2.5118   -5.3640    0.0790 H   0  0  0  0  0  0  0  0  0  0  0  0
   -2.8208   -3.8446    0.9544 H   0  0  0  0  0  0  0  0  0  0  0  0
   -3.0690   -3.9282   -0.8032 H   0  0  0  0  0  0  0  0  0  0  0  0
  1  2  2  0  0  0  0
  1  3  1  0  0  0  0
  1  7  1  0  0  0  0
  3  4  1  0  0  0  0
  3  5  1  0  0  0  0
  3  6  1  0  0  0  0
  7  8  1  0  0  0  0
  7 12  1  0  0  0  0
  8  9  1  0  0  0  0
  8 11  1  0  0  0  0
  8 13  1  0  0  0  0
  9 10  2  0  0  0  0
  9 17  1  0  0  0  0
 11 14  1  0  0  0  0
 11 15  1  0  0  0  0
 11 16  1  0  0  0  0
 17 18  1  0  0  0  0
 17 28  1  0  0  0  0
 18 19  1  0  0  0  0
 18 21  1  0  0  0  0
 18 29  1  0  0  0  0
 19 20  2  0  0  0  0
 19 37  1  0  0  0  0
 21 22  1  0  0  0  0
 21 30  1  0  0  0  0
 21 31  1  0  0  0  0
 22 23  1  0  0  0  0
 22 24  2  0  0  0  0
 23 25  2  0  0  0  0
 23 32  1  0  0  0  0
 24 26  1  0  0  0  0
 24 33  1  0  0  0  0
 25 27  1  0  0  0  0
 25 34  1  0  0  0  0
 26 27  2  0  0  0  0
 26 35  1  0  0  0  0
 27 36  1  0  0  0  0
 37 38  1  0  0  0  0
 37 42  1  0  0  0  0
 38 39  1  0  0  0  0
 38 41  1  0  0  0  0
 38 43  1  0  0  0  0
 39 40  2  0  0  0  0
 39 47  1  0  0  0  0
 41 44  1  0  0  0  0
 41 45  1  0  0  0  0
 41 46  1  0  0  0  0
 47 48  1  0  0  0  0
 47 49  1  0  0  0  0
 48 50  1  0  0  0  0
 48 51  1  0  0  0  0
 48 52  1  0  0  0  0
M  END
$$$$

  -OEChem-05262217163D

 52 52  0     1  0  0  0  0  0999 V2000
   -3.5651    0.6674    4.0754 C   0  0  0  0  0  0  0  0  0  0  0  0
   -4.4824    1.1249    3.4123 O   0  0  0  0  0  0  0  0  0  0  0  0
   -3.8464   -0.0113    5.4025 C   0  0  0  0  0  0  0  0  0  0  0  0
   -4.9199    0.0010    5.6120 H   0  0  0  0  0  0  0  0  0  0  0  0
   -3.5064   -1.0493    5.3704 H   0  0  0  0  0  0  0  0  0  0  0  0
   -3.3233    0.5114    6.2070 H   0  0  0  0  0  0  0  0  0  0  0  0
   -2.2693    0.7602    3.6128 N   0  0  0  0  0  0  0  0  0  0  0  0
   -1.9059    1.2412    2.2735 C   0  0  2  0  0  0  0  0  0  0  0  0
   -0.6401    0.5415    1.7378 C   0  0  0  0  0  0  0  0  0  0  0  0
    0.1029   -0.0642    2.5053 O   0  0  0  0  0  0  0  0  0  0  0  0
   -1.6956    2.7568    2.3400 C   0  0  0  0  0  0  0  0  0  0  0  0
   -1.5509    0.2618    4.1368 H   0  0  0  0  0  0  0  0  0  0  0  0
   -2.7185    1.0222    1.5722 H   0  0  0  0  0  0  0  0  0  0  0  0
   -0.9004    3.0037    3.0506 H   0  0  0  0  0  0  0  0  0  0  0  0
   -1.4207    3.1512    1.3568 H   0  0  0  0  0  0  0  0  0  0  0  0
   -2.6165    3.2522    2.6641 H   0  0  0  0  0  0  0  0  0  0  0  0
   -0.4015    0.4800    0.3763 N   0  0  0  0  0  0  0  0  0  0  0  0
    0.8877    0.1383   -0.2607 C   0  0  2  0  0  0  0  0  0  0  0  0
    0.9533   -1.3810   -0.4691 C   0  0  0  0  0  0  0  0  0  0  0  0
    0.7279   -1.8730   -1.5682 O   0  0  0  0  0  0  0  0  0  0  0  0
    2.1671    0.6938    0.4065 C   0  0  0  0  0  0  0  0  0  0  0  0
    2.2099    2.1972    0.2871 C   0  0  0  0  0  0  0  0  0  0  0  0
    2.6477    2.8084   -0.8973 C   0  0  0  0  0  0  0  0  0  0  0  0
    1.8143    3.0021    1.3651 C   0  0  0  0  0  0  0  0  0  0  0  0
    2.6694    4.2029   -1.0083 C   0  0  0  0  0  0  0  0  0  0  0  0
    1.8337    4.3963    1.2555 C   0  0  0  0  0  0  0  0  0  0  0  0
    2.2588    4.9972    0.0668 C   0  0  0  0  0  0  0  0  0  0  0  0
   -1.0803    0.9660   -0.2047 H   0  0  0  0  0  0  0  0  0  0  0  0
    0.8657    0.5659   -1.2685 H   0  0  0  0  0  0  0  0  0  0  0  0
    3.0415    0.2788   -0.1058 H   0  0  0  0  0  0  0  0  0  0  0  0
    2.2529    0.3888    1.4520 H   0  0  0  0  0  0  0  0  0  0  0  0
    2.9704    2.2016   -1.7384 H   0  0  0  0  0  0  0  0  0  0  0  0
    1.4939    2.5422    2.2955 H   0  0  0  0  0  0  0  0  0  0  0  0
    3.0073    4.6688   -1.9296 H   0  0  0  0  0  0  0  0  0  0  0  0
    1.5238    5.0117    2.0951 H   0  0  0  0  0  0  0  0  0  0  0  0
    2.2763    6.0799   -0.0194 H   0  0  0  0  0  0  0  0  0  0  0  0
    1.1831   -2.1970    0.6214 N   0  0  0  0  0  0  0  0  0  0  0  0
    1.0692   -3.6619    0.5869 C   0  0  2  0  0  0  0  0  0  0  0  0
   -0.4049   -4.1367    0.5721 C   0  0  0  0  0  0  0  0  0  0  0  0
   -0.8701   -4.8375    1.4630 O   0  0  0  0  0  0  0  0  0  0  0  0
    1.8598   -4.2053    1.7833 C   0  0  0  0  0  0  0  0  0  0  0  0
    1.0905   -1.7319    1.5282 H   0  0  0  0  0  0  0  0  0  0  0  0
    1.5390   -4.0428   -0.3261 H   0  0  0  0  0  0  0  0  0  0  0  0
    1.4231   -3.8553    2.7244 H   0  0  0  0  0  0  0  0  0  0  0  0
    1.8464   -5.2999    1.7812 H   0  0  0  0  0  0  0  0  0  0  0  0
    2.9011   -3.8726    1.7351 H   0  0  0  0  0  0  0  0  0  0  0  0
   -1.2225   -3.7521   -0.4724 N   0  0  0  0  0  0  0  0  0  0  0  0
   -2.6325   -4.0998   -0.5787 C   0  0  0  0  0  0  0  0  0  0  0  0
   -0.7967   -3.1467   -1.1787 H   0  0  0  0  0  0  0  0  0  0  0  0
   -2.7570   -5.1869   -0.6183 H   0  0  0  0  0  0  0  0  0  0  0  0
   -3.1882   -3.7115    0.2812 H   0  0  0  0  0  0  0  0  0  0  0  0
   -3.0590   -3.6695   -1.4899 H   0  0  0  0  0  0  0  0  0  0  0  0
  1  2  2  0  0  0  0
  1  3  1  0  0  0  0
  1  7  1  0  0  0  0
  3  4  1  0  0  0  0
  3  5  1  0  0  0  0
  3  6  1  0  0  0  0
  7  8  1  0  0  0  0
  7 12  1  0  0  0  0
  8  9  1  0  0  0  0
  8 11  1  0  0  0  0
  8 13  1  0  0  0  0
  9 10  2  0  0  0  0
  9 17  1  0  0  0  0
 11 14  1  0  0  0  0
 11 15  1  0  0  0  0
 11 16  1  0  0  0  0
 17 18  1  0  0  0  0
 17 28  1  0  0  0  0
 18 19  1  0  0  0  0
 18 21  1  0  0  0  0
 18 29  1  0  0  0  0
 19 20  2  0  0  0  0
 19 37  1  0  0  0  0
 21 22  1  0  0  0  0
 21 30  1  0  0  0  0
 21 31  1  0  0  0  0
 22 23  1  0  0  0  0
 22 24  2  0  0  0  0
 23 25  2  0  0  0  0
 23 32  1  0  0  0  0
 24 26  1  0  0  0  0
 24 33  1  0  0  0  0
 25 27  1  0  0  0  0
 25 34  1  0  0  0  0
 26 27  2  0  0  0  0
 26 35  1  0  0  0  0
 27 36  1  0  0  0  0
 37 38  1  0  0  0  0
 37 42  1  0  0  0  0
 38 39  1  0  0  0  0
 38 41  1  0  0  0  0
 38 43  1  0  0  0  0
 39 40  2  0  0  0  0
 39 47  1  0  0  0  0
 41 44  1  0  0  0  0
 41 45  1  0  0  0  0
 41 46  1  0  0  0  0
 47 48  1  0  0  0  0
 47 49  1  0  0  0  0
 48 50  1  0  0  0  0
 48 51  1  0  0  0  0
 48 52  1  0  0  0  0
M  END
$$$$

  -OEChem-05262217163D

 52 52  0     1  0  0  0  0  0999 V2000
   -3.5799    0.8615    4.1247 C   0  0  0  0  0  0  0  0  0  0  0  0
   -4.4767    1.3484    3.4545 O   0  0  0  0  0  0  0  0  0  0  0  0
   -3.8892    0.2287    5.4684 C   0  0  0  0  0  0  0  0  0  0  0  0
   -3.6335   -0.8334    5.4485 H   0  0  0  0  0  0  0  0  0  0  0  0
   -3.3129    0.7209    6.2554 H   0  0  0  0  0  0  0  0  0  0  0  0
   -4.9540    0.3304    5.6958 H   0  0  0  0  0  0  0  0  0  0  0  0
   -2.2835    0.8820    3.6546 N   0  0  0  0  0  0  0  0  0  0  0  0
   -1.9035    1.3278    2.3075 C   0  0  2  0  0  0  0  0  0  0  0  0
   -0.6642    0.5759    1.7804 C   0  0  0  0  0  0  0  0  0  0  0  0
    0.0606   -0.0413    2.5556 O   0  0  0  0  0  0  0  0  0  0  0  0
   -1.6384    2.8359    2.3482 C   0  0  0  0  0  0  0  0  0  0  0  0
   -1.5847    0.3673    4.1889 H   0  0  0  0  0  0  0  0  0  0  0  0
   -2.7256    1.1266    1.6116 H   0  0  0  0  0  0  0  0  0  0  0  0
   -0.8346    3.0654    3.0547 H   0  0  0  0  0  0  0  0  0  0  0  0
   -1.3496    3.2032    1.3585 H   0  0  0  0  0  0  0  0  0  0  0  0
   -2.5405    3.3700    2.6632 H   0  0  0  0  0  0  0  0  0  0  0  0
   -0.4436    0.4699    0.4188 N   0  0  0  0  0  0  0  0  0  0  0  0
    0.8281    0.0933   -0.2377 C   0  0  2  0  0  0  0  0  0  0  0  0
    0.8910   -1.4308   -0.4153 C   0  0  0  0  0  0  0  0  0  0  0  0
    0.8972   -1.9330   -1.5326 O   0  0  0  0  0  0  0  0  0  0  0  0
    2.1246    0.6363    0.4026 C   0  0  0  0  0  0  0  0  0  0  0  0
    2.1963    2.1371    0.2639 C   0  0  0  0  0  0  0  0  0  0  0  0
    2.6296    2.7241   -0.9343 C   0  0  0  0  0  0  0  0  0  0  0  0
    1.8448    2.9642    1.3404 C   0  0  0  0  0  0  0  0  0  0  0  0
    2.6895    4.1164   -1.0599 C   0  0  0  0  0  0  0  0  0  0  0  0
    1.9038    4.3561    1.2166 C   0  0  0  0  0  0  0  0  0  0  0  0
    2.3237    4.9330    0.0146 C   0  0  0  0  0  0  0  0  0  0  0  0
   -1.1164    0.9656   -0.1608 H   0  0  0  0  0  0  0  0  0  0  0  0
    0.7940    0.5030   -1.2525 H   0  0  0  0  0  0  0  0  0  0  0  0
    2.9848    0.1985   -0.1155 H   0  0  0  0  0  0  0  0  0  0  0  0
    2.2157    0.3408    1.4504 H   0  0  0  0  0  0  0  0  0  0  0  0
    2.9194    2.0997   -1.7746 H   0  0  0  0  0  0  0  0  0  0  0  0
    1.5301    2.5242    2.2823 H   0  0  0  0  0  0  0  0  0  0  0  0
    3.0233    4.5636   -1.9917 H   0  0  0  0  0  0  0  0  0  0  0  0
    1.6298    4.9886    2.0559 H   0  0  0  0  0  0  0  0  0  0  0  0
    2.3727    6.0138   -0.0827 H   0  0  0  0  0  0  0  0  0  0  0  0
    0.8318   -2.2367    0.7045 N   0  0  0  0  0  0  0  0  0  0  0  0
    0.6853   -3.6979    0.6733 C   0  0  2  0  0  0  0  0  0  0  0  0
   -0.7569   -4.1331    0.3150 C   0  0  0  0  0  0  0  0  0  0  0  0
   -1.4546   -4.7714    1.0944 O   0  0  0  0  0  0  0  0  0  0  0  0
    1.1471   -4.2275    2.0365 C   0  0  0  0  0  0  0  0  0  0  0  0
    0.6552   -1.7471    1.5865 H   0  0  0  0  0  0  0  0  0  0  0  0
    1.3485   -4.1144   -0.0917 H   0  0  0  0  0  0  0  0  0  0  0  0
    0.5110   -3.8359    2.8370 H   0  0  0  0  0  0  0  0  0  0  0  0
    1.0948   -5.3206    2.0567 H   0  0  0  0  0  0  0  0  0  0  0  0
    2.1809   -3.9271    2.2324 H   0  0  0  0  0  0  0  0  0  0  0  0
   -1.2797   -3.7740   -0.9119 N   0  0  0  0  0  0  0  0  0  0  0  0
   -2.6476   -4.0497   -1.3277 C   0  0  0  0  0  0  0  0  0  0  0  0
   -0.6789   -3.1961   -1.5052 H   0  0  0  0  0  0  0  0  0  0  0  0
   -2.8326   -5.1287   -1.3442 H   0  0  0  0  0  0  0  0  0  0  0  0
   -3.3582   -3.5796   -0.6399 H   0  0  0  0  0  0  0  0  0  0  0  0
   -2.8230   -3.6532   -2.3322 H   0  0  0  0  0  0  0  0  0  0  0  0
  1  2  2  0  0  0  0
  1  3  1  0  0  0  0
  1  7  1  0  0  0  0
  3  4  1  0  0  0  0
  3  5  1  0  0  0  0
  3  6  1  0  0  0  0
  7  8  1  0  0  0  0
  7 12  1  0  0  0  0
  8  9  1  0  0  0  0
  8 11  1  0  0  0  0
  8 13  1  0  0  0  0
  9 10  2  0  0  0  0
  9 17  1  0  0  0  0
 11 14  1  0  0  0  0
 11 15  1  0  0  0  0
 11 16  1  0  0  0  0
 17 18  1  0  0  0  0
 17 28  1  0  0  0  0
 18 19  1  0  0  0  0
 18 21  1  0  0  0  0
 18 29  1  0  0  0  0
 19 20  2  0  0  0  0
 19 37  1  0  0  0  0
 21 22  1  0  0  0  0
 21 30  1  0  0  0  0
 21 31  1  0  0  0  0
 22 23  1  0  0  0  0
 22 24  2  0  0  0  0
 23 25  2  0  0  0  0
 23 32  1  0  0  0  0
 24 26  1  0  0  0  0
 24 33  1  0  0  0  0
 25 27  1  0  0  0  0
 25 34  1  0  0  0  0
 26 27  2  0  0  0  0
 26 35  1  0  0  0  0
 27 36  1  0  0  0  0
 37 38  1  0  0  0  0
 37 42  1  0  0  0  0
 38 39  1  0  0  0  0
 38 41  1  0  0  0  0
 38 43  1  0  0  0  0
 39 40  2  0  0  0  0
 39 47  1  0  0  0  0
 41 44  1  0  0  0  0
 41 45  1  0  0  0  0
 41 46  1  0  0  0  0
 47 48  1  0  0  0  0
 47 49  1  0  0  0  0
 48 50  1  0  0  0  0
 48 51  1  0  0  0  0
 48 52  1  0  0  0  0
M  END
$$$$

  -OEChem-05262217163D

 52 52  0     1  0  0  0  0  0999 V2000
   -3.5734    1.1536    4.2657 C   0  0  0  0  0  0  0  0  0  0  0  0
   -4.4823    1.6459    3.6166 O   0  0  0  0  0  0  0  0  0  0  0  0
   -3.8446    0.5691    5.6389 C   0  0  0  0  0  0  0  0  0  0  0  0
   -4.9128    0.6239    5.8675 H   0  0  0  0  0  0  0  0  0  0  0  0
   -3.5330   -0.4780    5.6675 H   0  0  0  0  0  0  0  0  0  0  0  0
   -3.2921    1.1276    6.3984 H   0  0  0  0  0  0  0  0  0  0  0  0
   -2.2981    1.1143    3.7424 N   0  0  0  0  0  0  0  0  0  0  0  0
   -1.9647    1.4823    2.3600 C   0  0  2  0  0  0  0  0  0  0  0  0
   -0.7786    0.6577    1.8182 C   0  0  0  0  0  0  0  0  0  0  0  0
   -0.0943   -0.0166    2.5819 O   0  0  0  0  0  0  0  0  0  0  0  0
   -1.6487    2.9806    2.3159 C   0  0  0  0  0  0  0  0  0  0  0  0
   -1.5981    0.5872    4.2630 H   0  0  0  0  0  0  0  0  0  0  0  0
   -2.8229    1.2786    1.7101 H   0  0  0  0  0  0  0  0  0  0  0  0
   -0.8148    3.2170    2.9839 H   0  0  0  0  0  0  0  0  0  0  0  0
   -1.3817    3.2892    1.3004 H   0  0  0  0  0  0  0  0  0  0  0  0
   -2.5214    3.5606    2.6326 H   0  0  0  0  0  0  0  0  0  0  0  0
   -0.5792    0.5375    0.4547 N   0  0  0  0  0  0  0  0  0  0  0  0
    0.6691    0.1095   -0.2190 C   0  0  2  0  0  0  0  0  0  0  0  0
    0.6943   -1.4171   -0.4029 C   0  0  0  0  0  0  0  0  0  0  0  0
    0.9892   -1.9121   -1.4838 O   0  0  0  0  0  0  0  0  0  0  0  0
    1.9890    0.5992    0.4167 C   0  0  0  0  0  0  0  0  0  0  0  0
    2.1236    2.0968    0.2884 C   0  0  0  0  0  0  0  0  0  0  0  0
    2.5753    2.6744   -0.9074 C   0  0  0  0  0  0  0  0  0  0  0  0
    1.8205    2.9290    1.3757 C   0  0  0  0  0  0  0  0  0  0  0  0
    2.6950    4.0639   -1.0222 C   0  0  0  0  0  0  0  0  0  0  0  0
    1.9394    4.3181    1.2632 C   0  0  0  0  0  0  0  0  0  0  0  0
    2.3735    4.8866    0.0622 C   0  0  0  0  0  0  0  0  0  0  0  0
   -1.2250    1.0800   -0.1139 H   0  0  0  0  0  0  0  0  0  0  0  0
    0.6411    0.5239   -1.2322 H   0  0  0  0  0  0  0  0  0  0  0  0
    2.8289    0.1306   -0.1079 H   0  0  0  0  0  0  0  0  0  0  0  0
    2.0722    0.2924    1.4623 H   0  0  0  0  0  0  0  0  0  0  0  0
    2.8321    2.0446   -1.7545 H   0  0  0  0  0  0  0  0  0  0  0  0
    1.4979    2.4943    2.3174 H   0  0  0  0  0  0  0  0  0  0  0  0
    3.0415    4.5037   -1.9531 H   0  0  0  0  0  0  0  0  0  0  0  0
    1.7011    4.9544    2.1107 H   0  0  0  0  0  0  0  0  0  0  0  0
    2.4681    5.9652   -0.0257 H   0  0  0  0  0  0  0  0  0  0  0  0
    0.3249   -2.2348    0.6463 N   0  0  0  0  0  0  0  0  0  0  0  0
    0.3174   -3.7030    0.6131 C   0  0  2  0  0  0  0  0  0  0  0  0
   -0.9192   -4.2716   -0.1236 C   0  0  0  0  0  0  0  0  0  0  0  0
   -1.7233   -5.0098    0.4336 O   0  0  0  0  0  0  0  0  0  0  0  0
    0.4224   -4.1847    2.0652 C   0  0  0  0  0  0  0  0  0  0  0  0
    0.0907   -1.7585    1.5211 H   0  0  0  0  0  0  0  0  0  0  0  0
    1.2026   -4.0588    0.0759 H   0  0  0  0  0  0  0  0  0  0  0  0
   -0.4494   -3.8598    2.6424 H   0  0  0  0  0  0  0  0  0  0  0  0
    0.4731   -5.2776    2.1004 H   0  0  0  0  0  0  0  0  0  0  0  0
    1.3240   -3.7819    2.5367 H   0  0  0  0  0  0  0  0  0  0  0  0
   -1.1196   -3.9409   -1.4493 N   0  0  0  0  0  0  0  0  0  0  0  0
   -2.2618   -4.3830   -2.2375 C   0  0  0  0  0  0  0  0  0  0  0  0
   -0.4418   -3.2931   -1.8592 H   0  0  0  0  0  0  0  0  0  0  0  0
   -2.3230   -5.4763   -2.2432 H   0  0  0  0  0  0  0  0  0  0  0  0
   -3.1919   -3.9799   -1.8237 H   0  0  0  0  0  0  0  0  0  0  0  0
   -2.1628   -4.0378   -3.2709 H   0  0  0  0  0  0  0  0  0  0  0  0
  1  2  2  0  0  0  0
  1  3  1  0  0  0  0
  1  7  1  0  0  0  0
  3  4  1  0  0  0  0
  3  5  1  0  0  0  0
  3  6  1  0  0  0  0
  7  8  1  0  0  0  0
  7 12  1  0  0  0  0
  8  9  1  0  0  0  0
  8 11  1  0  0  0  0
  8 13  1  0  0  0  0
  9 10  2  0  0  0  0
  9 17  1  0  0  0  0
 11 14  1  0  0  0  0
 11 15  1  0  0  0  0
 11 16  1  0  0  0  0
 17 18  1  0  0  0  0
 17 28  1  0  0  0  0
 18 19  1  0  0  0  0
 18 21  1  0  0  0  0
 18 29  1  0  0  0  0
 19 20  2  0  0  0  0
 19 37  1  0  0  0  0
 21 22  1  0  0  0  0
 21 30  1  0  0  0  0
 21 31  1  0  0  0  0
 22 23  1  0  0  0  0
 22 24  2  0  0  0  0
 23 25  2  0  0  0  0
 23 32  1  0  0  0  0
 24 26  1  0  0  0  0
 24 33  1  0  0  0  0
 25 27  1  0  0  0  0
 25 34  1  0  0  0  0
 26 27  2  0  0  0  0
 26 35  1  0  0  0  0
 27 36  1  0  0  0  0
 37 38  1  0  0  0  0
 37 42  1  0  0  0  0
 38 39  1  0  0  0  0
 38 41  1  0  0  0  0
 38 43  1  0  0  0  0
 39 40  2  0  0  0  0
 39 47  1  0  0  0  0
 41 44  1  0  0  0  0
 41 45  1  0  0  0  0
 41 46  1  0  0  0  0
 47 48  1  0  0  0  0
 47 49  1  0  0  0  0
 48 50  1  0  0  0  0
 48 51  1  0  0  0  0
 48 52  1  0  0  0  0
M  END
$$$$

  -OEChem-05262217163D

 52 52  0     1  0  0  0  0  0999 V2000
   -2.9091   -0.3807    3.6761 C   0  0  0  0  0  0  0  0  0  0  0  0
   -2.8633   -1.3798    2.9750 O   0  0  0  0  0  0  0  0  0  0  0  0
   -3.1155   -0.5163    5.1728 C   0  0  0  0  0  0  0  0  0  0  0  0
   -3.2657   -1.5661    5.4398 H   0  0  0  0  0  0  0  0  0  0  0  0
   -2.2380   -0.1402    5.7047 H   0  0  0  0  0  0  0  0  0  0  0  0
   -3.9942    0.0548    5.4818 H   0  0  0  0  0  0  0  0  0  0  0  0
   -2.7319    0.8721    3.1246 N   0  0  0  0  0  0  0  0  0  0  0  0
   -2.2167    1.0514    1.7582 C   0  0  2  0  0  0  0  0  0  0  0  0
   -0.6835    0.8768    1.6678 C   0  0  0  0  0  0  0  0  0  0  0  0
   -0.0130    0.8644    2.6925 O   0  0  0  0  0  0  0  0  0  0  0  0
   -2.6216    2.4473    1.2803 C   0  0  0  0  0  0  0  0  0  0  0  0
   -2.5405    1.6133    3.7917 H   0  0  0  0  0  0  0  0  0  0  0  0
   -2.6798    0.3134    1.0929 H   0  0  0  0  0  0  0  0  0  0  0  0
   -2.1658    3.2174    1.9106 H   0  0  0  0  0  0  0  0  0  0  0  0
   -2.2955    2.6057    0.2475 H   0  0  0  0  0  0  0  0  0  0  0  0
   -3.7095    2.5607    1.3190 H   0  0  0  0  0  0  0  0  0  0  0  0
   -0.1122    0.5886    0.4410 N   0  0  0  0  0  0  0  0  0  0  0  0
    1.2856    0.1923    0.1416 C   0  0  2  0  0  0  0  0  0  0  0  0
    1.4083   -1.3400    0.2018 C   0  0  0  0  0  0  0  0  0  0  0  0
    2.0377   -1.9345   -0.6642 O   0  0  0  0  0  0  0  0  0  0  0  0
    2.4193    0.8762    0.9350 C   0  0  0  0  0  0  0  0  0  0  0  0
    2.5097    2.3434    0.5862 C   0  0  0  0  0  0  0  0  0  0  0  0
    3.1771    2.7542   -0.5777 C   0  0  0  0  0  0  0  0  0  0  0  0
    1.9369    3.3142    1.4206 C   0  0  0  0  0  0  0  0  0  0  0  0
    3.2595    4.1113   -0.9080 C   0  0  0  0  0  0  0  0  0  0  0  0
    2.0178    4.6717    1.0924 C   0  0  0  0  0  0  0  0  0  0  0  0
    2.6782    5.0708   -0.0736 C   0  0  0  0  0  0  0  0  0  0  0  0
   -0.7982    0.3040   -0.2627 H   0  0  0  0  0  0  0  0  0  0  0  0
    1.4564    0.4537   -0.9075 H   0  0  0  0  0  0  0  0  0  0  0  0
    3.3687    0.4002    0.6685 H   0  0  0  0  0  0  0  0  0  0  0  0
    2.3025    0.7367    2.0118 H   0  0  0  0  0  0  0  0  0  0  0  0
    3.6319    2.0160   -1.2321 H   0  0  0  0  0  0  0  0  0  0  0  0
    1.4276    3.0126    2.3309 H   0  0  0  0  0  0  0  0  0  0  0  0
    3.7761    4.4185   -1.8123 H   0  0  0  0  0  0  0  0  0  0  0  0
    1.5695    5.4141    1.7457 H   0  0  0  0  0  0  0  0  0  0  0  0
    2.7425    6.1243   -0.3288 H   0  0  0  0  0  0  0  0  0  0  0  0
    0.5806   -2.0464    1.0550 N   0  0  0  0  0  0  0  0  0  0  0  0
   -0.1399   -3.2237    0.5561 C   0  0  2  0  0  0  0  0  0  0  0  0
   -1.3409   -2.8428   -0.3500 C   0  0  0  0  0  0  0  0  0  0  0  0
   -1.6638   -1.6692   -0.5337 O   0  0  0  0  0  0  0  0  0  0  0  0
   -0.6040   -4.0270    1.7731 C   0  0  0  0  0  0  0  0  0  0  0  0
    0.0468   -1.4412    1.6778 H   0  0  0  0  0  0  0  0  0  0  0  0
    0.5385   -3.8519   -0.0312 H   0  0  0  0  0  0  0  0  0  0  0  0
   -1.3081   -3.4429    2.3731 H   0  0  0  0  0  0  0  0  0  0  0  0
   -1.0982   -4.9513    1.4601 H   0  0  0  0  0  0  0  0  0  0  0  0
    0.2525   -4.2898    2.4014 H   0  0  0  0  0  0  0  0  0  0  0  0
   -2.0452   -3.8312   -1.0129 N   0  0  0  0  0  0  0  0  0  0  0  0
   -3.1736   -3.5600   -1.8948 C   0  0  0  0  0  0  0  0  0  0  0  0
   -1.7533   -4.7929   -0.8672 H   0  0  0  0  0  0  0  0  0  0  0  0
   -3.9670   -3.0356   -1.3514 H   0  0  0  0  0  0  0  0  0  0  0  0
   -2.8577   -2.9425   -2.7422 H   0  0  0  0  0  0  0  0  0  0  0  0
   -3.5824   -4.4972   -2.2843 H   0  0  0  0  0  0  0  0  0  0  0  0
  1  2  2  0  0  0  0
  1  3  1  0  0  0  0
  1  7  1  0  0  0  0
  3  4  1  0  0  0  0
  3  5  1  0  0  0  0
  3  6  1  0  0  0  0
  7  8  1  0  0  0  0
  7 12  1  0  0  0  0
  8  9  1  0  0  0  0
  8 11  1  0  0  0  0
  8 13  1  0  0  0  0
  9 10  2  0  0  0  0
  9 17  1  0  0  0  0
 11 14  1  0  0  0  0
 11 15  1  0  0  0  0
 11 16  1  0  0  0  0
 17 18  1  0  0  0  0
 17 28  1  0  0  0  0
 18 19  1  0  0  0  0
 18 21  1  0  0  0  0
 18 29  1  0  0  0  0
 19 20  2  0  0  0  0
 19 37  1  0  0  0  0
 21 22  1  0  0  0  0
 21 30  1  0  0  0  0
 21 31  1  0  0  0  0
 22 23  1  0  0  0  0
 22 24  2  0  0  0  0
 23 25  2  0  0  0  0
 23 32  1  0  0  0  0
 24 26  1  0  0  0  0
 24 33  1  0  0  0  0
 25 27  1  0  0  0  0
 25 34  1  0  0  0  0
 26 27  2  0  0  0  0
 26 35  1  0  0  0  0
 27 36  1  0  0  0  0
 37 38  1  0  0  0  0
 37 42  1  0  0  0  0
 38 39  1  0  0  0  0
 38 41  1  0  0  0  0
 38 43  1  0  0  0  0
 39 40  2  0  0  0  0
 39 47  1  0  0  0  0
 41 44  1  0  0  0  0
 41 45  1  0  0  0  0
 41 46  1  0  0  0  0
 47 48  1  0  0  0  0
 47 49  1  0  0  0  0
 48 50  1  0  0  0  0
 48 51  1  0  0  0  0
 48 52  1  0  0  0  0
M  END
$$$$

  -OEChem-05262217163D

 52 52  0     1  0  0  0  0  0999 V2000
   -3.1817   -0.0860    3.0112 C   0  0  0  0  0  0  0  0  0  0  0  0
   -3.0586   -0.4429    1.8476 O   0  0  0  0  0  0  0  0  0  0  0  0
   -3.7805   -1.0233    4.0418 C   0  0  0  0  0  0  0  0  0  0  0  0
   -4.2491   -1.8786    3.5468 H   0  0  0  0  0  0  0  0  0  0  0  0
   -2.9984   -1.3877    4.7125 H   0  0  0  0  0  0  0  0  0  0  0  0
   -4.5400   -0.5002    4.6280 H   0  0  0  0  0  0  0  0  0  0  0  0
   -2.7109    1.1550    3.3908 N   0  0  0  0  0  0  0  0  0  0  0  0
   -1.9499    2.0135    2.4725 C   0  0  2  0  0  0  0  0  0  0  0  0
   -0.6510    1.3309    1.9912 C   0  0  0  0  0  0  0  0  0  0  0  0
    0.1636    0.9508    2.8208 O   0  0  0  0  0  0  0  0  0  0  0  0
   -1.6365    3.3317    3.1853 C   0  0  0  0  0  0  0  0  0  0  0  0
   -2.6200    1.3195    4.3894 H   0  0  0  0  0  0  0  0  0  0  0  0
   -2.5684    2.2353    1.5966 H   0  0  0  0  0  0  0  0  0  0  0  0
   -1.0289    3.1531    4.0786 H   0  0  0  0  0  0  0  0  0  0  0  0
   -1.0822    3.9998    2.5183 H   0  0  0  0  0  0  0  0  0  0  0  0
   -2.5622    3.8322    3.4859 H   0  0  0  0  0  0  0  0  0  0  0  0
   -0.5185    1.0198    0.6473 N   0  0  0  0  0  0  0  0  0  0  0  0
    0.6003    0.3244   -0.0293 C   0  0  2  0  0  0  0  0  0  0  0  0
    0.3901   -1.2043   -0.0593 C   0  0  0  0  0  0  0  0  0  0  0  0
    1.0672   -1.8931   -0.8145 O   0  0  0  0  0  0  0  0  0  0  0  0
    2.0228    0.6860    0.4594 C   0  0  0  0  0  0  0  0  0  0  0  0
    2.3579    2.1187    0.1168 C   0  0  0  0  0  0  0  0  0  0  0  0
    2.7957    2.4592   -1.1719 C   0  0  0  0  0  0  0  0  0  0  0  0
    2.2378    3.1271    1.0843 C   0  0  0  0  0  0  0  0  0  0  0  0
    3.0969    3.7880   -1.4908 C   0  0  0  0  0  0  0  0  0  0  0  0
    2.5372    4.4563    0.7666 C   0  0  0  0  0  0  0  0  0  0  0  0
    2.9654    4.7879   -0.5223 C   0  0  0  0  0  0  0  0  0  0  0  0
   -1.3316    1.2377    0.0763 H   0  0  0  0  0  0  0  0  0  0  0  0
    0.5588    0.6286   -1.0796 H   0  0  0  0  0  0  0  0  0  0  0  0
    2.7478    0.0382   -0.0451 H   0  0  0  0  0  0  0  0  0  0  0  0
    2.1474    0.4985    1.5279 H   0  0  0  0  0  0  0  0  0  0  0  0
    2.9045    1.6887   -1.9298 H   0  0  0  0  0  0  0  0  0  0  0  0
    1.9136    2.8755    2.0903 H   0  0  0  0  0  0  0  0  0  0  0  0
    3.4370    4.0417   -2.4903 H   0  0  0  0  0  0  0  0  0  0  0  0
    2.4420    5.2290    1.5234 H   0  0  0  0  0  0  0  0  0  0  0  0
    3.2017    5.8189   -0.7691 H   0  0  0  0  0  0  0  0  0  0  0  0
   -0.5506   -1.8288    0.7412 N   0  0  0  0  0  0  0  0  0  0  0  0
   -0.7399   -3.2853    0.8291 C   0  0  2  0  0  0  0  0  0  0  0  0
   -1.5370   -3.8714   -0.3627 C   0  0  0  0  0  0  0  0  0  0  0  0
   -2.5223   -4.5823   -0.1983 O   0  0  0  0  0  0  0  0  0  0  0  0
   -1.3977   -3.5770    2.1831 C   0  0  0  0  0  0  0  0  0  0  0  0
   -1.2010   -1.2245    1.2485 H   0  0  0  0  0  0  0  0  0  0  0  0
    0.2404   -3.7730    0.8244 H   0  0  0  0  0  0  0  0  0  0  0  0
   -2.4028   -3.1466    2.2204 H   0  0  0  0  0  0  0  0  0  0  0  0
   -1.4791   -4.6571    2.3408 H   0  0  0  0  0  0  0  0  0  0  0  0
   -0.8018   -3.1524    2.9967 H   0  0  0  0  0  0  0  0  0  0  0  0
   -1.0909   -3.6383   -1.6486 N   0  0  0  0  0  0  0  0  0  0  0  0
   -1.7010   -4.2047   -2.8429 C   0  0  0  0  0  0  0  0  0  0  0  0
   -0.2299   -3.0917   -1.7306 H   0  0  0  0  0  0  0  0  0  0  0  0
   -1.6343   -5.2972   -2.8247 H   0  0  0  0  0  0  0  0  0  0  0  0
   -2.7550   -3.9158   -2.9089 H   0  0  0  0  0  0  0  0  0  0  0  0
   -1.1865   -3.8405   -3.7371 H   0  0  0  0  0  0  0  0  0  0  0  0
  1  2  2  0  0  0  0
  1  3  1  0  0  0  0
  1  7  1  0  0  0  0
  3  4  1  0  0  0  0
  3  5  1  0  0  0  0
  3  6  1  0  0  0  0
  7  8  1  0  0  0  0
  7 12  1  0  0  0  0
  8  9  1  0  0  0  0
  8 11  1  0  0  0  0
  8 13  1  0  0  0  0
  9 10  2  0  0  0  0
  9 17  1  0  0  0  0
 11 14  1  0  0  0  0
 11 15  1  0  0  0  0
 11 16  1  0  0  0  0
 17 18  1  0  0  0  0
 17 28  1  0  0  0  0
 18 19  1  0  0  0  0
 18 21  1  0  0  0  0
 18 29  1  0  0  0  0
 19 20  2  0  0  0  0
 19 37  1  0  0  0  0
 21 22  1  0  0  0  0
 21 30  1  0  0  0  0
 21 31  1  0  0  0  0
 22 23  1  0  0  0  0
 22 24  2  0  0  0  0
 23 25  2  0  0  0  0
 23 32  1  0  0  0  0
 24 26  1  0  0  0  0
 24 33  1  0  0  0  0
 25 27  1  0  0  0  0
 25 34  1  0  0  0  0
 26 27  2  0  0  0  0
 26 35  1  0  0  0  0
 27 36  1  0  0  0  0
 37 38  1  0  0  0  0
 37 42  1  0  0  0  0
 38 39  1  0  0  0  0
 38 41  1  0  0  0  0
 38 43  1  0  0  0  0
 39 40  2  0  0  0  0
 39 47  1  0  0  0  0
 41 44  1  0  0  0  0
 41 45  1  0  0  0  0
 41 46  1  0  0  0  0
 47 48  1  0  0  0  0
 47 49  1  0  0  0  0
 48 50  1  0  0  0  0
 48 51  1  0  0  0  0
 48 52  1  0  0  0  0
M  END
$$$$

  -OEChem-05262217163D

 52 52  0     1  0  0  0  0  0999 V2000
   -3.2537    0.0088    2.7782 C   0  0  0  0  0  0  0  0  0  0  0  0
   -3.1106   -0.1854    1.5786 O   0  0  0  0  0  0  0  0  0  0  0  0
   -4.0223   -0.9820    3.6313 C   0  0  0  0  0  0  0  0  0  0  0  0
   -4.5567   -1.6932    2.9949 H   0  0  0  0  0  0  0  0  0  0  0  0
   -3.3330   -1.5330    4.2760 H   0  0  0  0  0  0  0  0  0  0  0  0
   -4.7501   -0.4559    4.2538 H   0  0  0  0  0  0  0  0  0  0  0  0
   -2.6590    1.1096    3.3598 N   0  0  0  0  0  0  0  0  0  0  0  0
   -1.7904    2.0304    2.6142 C   0  0  2  0  0  0  0  0  0  0  0  0
   -0.5294    1.3230    2.0693 C   0  0  0  0  0  0  0  0  0  0  0  0
    0.3245    0.9259    2.8495 O   0  0  0  0  0  0  0  0  0  0  0  0
   -1.4191    3.1949    3.5378 C   0  0  0  0  0  0  0  0  0  0  0  0
   -2.6322    1.1354    4.3753 H   0  0  0  0  0  0  0  0  0  0  0  0
   -2.3467    2.4383    1.7637 H   0  0  0  0  0  0  0  0  0  0  0  0
   -0.8810    2.8331    4.4200 H   0  0  0  0  0  0  0  0  0  0  0  0
   -0.7772    3.9071    3.0096 H   0  0  0  0  0  0  0  0  0  0  0  0
   -2.3198    3.7211    3.8689 H   0  0  0  0  0  0  0  0  0  0  0  0
   -0.4739    1.0270    0.7169 N   0  0  0  0  0  0  0  0  0  0  0  0
    0.5981    0.3360   -0.0356 C   0  0  2  0  0  0  0  0  0  0  0  0
    0.3732   -1.1919   -0.0702 C   0  0  0  0  0  0  0  0  0  0  0  0
    1.1424   -1.9124   -0.6971 O   0  0  0  0  0  0  0  0  0  0  0  0
    2.0480    0.6944    0.3727 C   0  0  0  0  0  0  0  0  0  0  0  0
    2.3603    2.1305    0.0256 C   0  0  0  0  0  0  0  0  0  0  0  0
    2.7207    2.4870   -1.2827 C   0  0  0  0  0  0  0  0  0  0  0  0
    2.3026    3.1257    1.0118 C   0  0  0  0  0  0  0  0  0  0  0  0
    3.0007    3.8200   -1.6031 C   0  0  0  0  0  0  0  0  0  0  0  0
    2.5834    4.4585    0.6939 C   0  0  0  0  0  0  0  0  0  0  0  0
    2.9297    4.8069   -0.6150 C   0  0  0  0  0  0  0  0  0  0  0  0
   -1.3276    1.2395    0.2046 H   0  0  0  0  0  0  0  0  0  0  0  0
    0.4936    0.6517   -1.0777 H   0  0  0  0  0  0  0  0  0  0  0  0
    2.7462    0.0557   -0.1786 H   0  0  0  0  0  0  0  0  0  0  0  0
    2.2334    0.4968    1.4306 H   0  0  0  0  0  0  0  0  0  0  0  0
    2.7835    1.7265   -2.0557 H   0  0  0  0  0  0  0  0  0  0  0  0
    2.0435    2.8603    2.0329 H   0  0  0  0  0  0  0  0  0  0  0  0
    3.2770    4.0868   -2.6190 H   0  0  0  0  0  0  0  0  0  0  0  0
    2.5377    5.2204    1.4661 H   0  0  0  0  0  0  0  0  0  0  0  0
    3.1498    5.8412   -0.8620 H   0  0  0  0  0  0  0  0  0  0  0  0
   -0.7188   -1.7784    0.5470 N   0  0  0  0  0  0  0  0  0  0  0  0
   -0.9550   -3.2286    0.6237 C   0  0  2  0  0  0  0  0  0  0  0  0
   -1.5439   -3.8188   -0.6815 C   0  0  0  0  0  0  0  0  0  0  0  0
   -2.5794   -4.4753   -0.6875 O   0  0  0  0  0  0  0  0  0  0  0  0
   -1.8488   -3.4789    1.8433 C   0  0  0  0  0  0  0  0  0  0  0  0
   -1.4094   -1.1497    0.9643 H   0  0  0  0  0  0  0  0  0  0  0  0
   -0.0017   -3.7374    0.8009 H   0  0  0  0  0  0  0  0  0  0  0  0
   -2.8357   -3.0318    1.6904 H   0  0  0  0  0  0  0  0  0  0  0  0
   -1.9777   -4.5537    2.0051 H   0  0  0  0  0  0  0  0  0  0  0  0
   -1.3994   -3.0454    2.7419 H   0  0  0  0  0  0  0  0  0  0  0  0
   -0.8626   -3.6385   -1.8691 N   0  0  0  0  0  0  0  0  0  0  0  0
   -1.2909   -4.1808   -3.1505 C   0  0  0  0  0  0  0  0  0  0  0  0
    0.0140   -3.1139   -1.8081 H   0  0  0  0  0  0  0  0  0  0  0  0
   -1.3454   -5.2733   -3.1046 H   0  0  0  0  0  0  0  0  0  0  0  0
   -2.2765   -3.7887   -3.4213 H   0  0  0  0  0  0  0  0  0  0  0  0
   -0.5799   -3.9022   -3.9340 H   0  0  0  0  0  0  0  0  0  0  0  0
  1  2  2  0  0  0  0
  1  3  1  0  0  0  0
  1  7  1  0  0  0  0
  3  4  1  0  0  0  0
  3  5  1  0  0  0  0
  3  6  1  0  0  0  0
  7  8  1  0  0  0  0
  7 12  1  0  0  0  0
  8  9  1  0  0  0  0
  8 11  1  0  0  0  0
  8 13  1  0  0  0  0
  9 10  2  0  0  0  0
  9 17  1  0  0  0  0
 11 14  1  0  0  0  0
 11 15  1  0  0  0  0
 11 16  1  0  0  0  0
 17 18  1  0  0  0  0
 17 28  1  0  0  0  0
 18 19  1  0  0  0  0
 18 21  1  0  0  0  0
 18 29  1  0  0  0  0
 19 20  2  0  0  0  0
 19 37  1  0  0  0  0
 21 22  1  0  0  0  0
 21 30  1  0  0  0  0
 21 31  1  0  0  0  0
 22 23  1  0  0  0  0
 22 24  2  0  0  0  0
 23 25  2  0  0  0  0
 23 32  1  0  0  0  0
 24 26  1  0  0  0  0
 24 33  1  0  0  0  0
 25 27  1  0  0  0  0
 25 34  1  0  0  0  0
 26 27  2  0  0  0  0
 26 35  1  0  0  0  0
 27 36  1  0  0  0  0
 37 38  1  0  0  0  0
 37 42  1  0  0  0  0
 38 39  1  0  0  0  0
 38 41  1  0  0  0  0
 38 43  1  0  0  0  0
 39 40  2  0  0  0  0
 39 47  1  0  0  0  0
 41 44  1  0  0  0  0
 41 45  1  0  0  0  0
 41 46  1  0  0  0  0
 47 48  1  0  0  0  0
 47 49  1  0  0  0  0
 48 50  1  0  0  0  0
 48 51  1  0  0  0  0
 48 52  1  0  0  0  0
M  END
$$$$

  -OEChem-05262217163D

 52 52  0     1  0  0  0  0  0999 V2000
   -3.3047    0.0977    2.5097 C   0  0  0  0  0  0  0  0  0  0  0  0
   -3.0907    0.0356    1.3062 O   0  0  0  0  0  0  0  0  0  0  0  0
   -4.2518   -0.8838    3.1733 C   0  0  0  0  0  0  0  0  0  0  0  0
   -4.7672   -1.4826    2.4171 H   0  0  0  0  0  0  0  0  0  0  0  0
   -3.6943   -1.5525    3.8339 H   0  0  0  0  0  0  0  0  0  0  0  0
   -5.0001   -0.3447    3.7598 H   0  0  0  0  0  0  0  0  0  0  0  0
   -2.6426    1.0406    3.2689 N   0  0  0  0  0  0  0  0  0  0  0  0
   -1.6819    2.0054    2.7153 C   0  0  2  0  0  0  0  0  0  0  0  0
   -0.4169    1.3207    2.1483 C   0  0  0  0  0  0  0  0  0  0  0  0
    0.4830    0.9747    2.9003 O   0  0  0  0  0  0  0  0  0  0  0  0
   -1.3361    3.0134    3.8168 C   0  0  0  0  0  0  0  0  0  0  0  0
   -2.7358    0.9741    4.2788 H   0  0  0  0  0  0  0  0  0  0  0  0
   -2.1577    2.5560    1.8971 H   0  0  0  0  0  0  0  0  0  0  0  0
   -0.8861    2.5086    4.6781 H   0  0  0  0  0  0  0  0  0  0  0  0
   -0.6231    3.7536    3.4400 H   0  0  0  0  0  0  0  0  0  0  0  0
   -2.2363    3.5388    4.1505 H   0  0  0  0  0  0  0  0  0  0  0  0
   -0.4025    1.0061    0.7998 N   0  0  0  0  0  0  0  0  0  0  0  0
    0.6480    0.3178    0.0168 C   0  0  2  0  0  0  0  0  0  0  0  0
    0.4263   -1.2119    0.0182 C   0  0  0  0  0  0  0  0  0  0  0  0
    1.2733   -1.9683   -0.4446 O   0  0  0  0  0  0  0  0  0  0  0  0
    2.1072    0.7097    0.3584 C   0  0  0  0  0  0  0  0  0  0  0  0
    2.3814    2.1440   -0.0291 C   0  0  0  0  0  0  0  0  0  0  0  0
    2.6830    2.4774   -1.3583 C   0  0  0  0  0  0  0  0  0  0  0  0
    2.3468    3.1602    0.9368 C   0  0  0  0  0  0  0  0  0  0  0  0
    2.9334    3.8063   -1.7178 C   0  0  0  0  0  0  0  0  0  0  0  0
    2.5967    4.4896    0.5798 C   0  0  0  0  0  0  0  0  0  0  0  0
    2.8884    4.8136   -0.7489 C   0  0  0  0  0  0  0  0  0  0  0  0
   -1.2959    1.1588    0.3321 H   0  0  0  0  0  0  0  0  0  0  0  0
    0.4974    0.6141   -1.0254 H   0  0  0  0  0  0  0  0  0  0  0  0
    2.7949    0.0741   -0.2085 H   0  0  0  0  0  0  0  0  0  0  0  0
    2.3381    0.5359    1.4114 H   0  0  0  0  0  0  0  0  0  0  0  0
    2.7258    1.7008   -2.1162 H   0  0  0  0  0  0  0  0  0  0  0  0
    2.1303    2.9133    1.9724 H   0  0  0  0  0  0  0  0  0  0  0  0
    3.1671    4.0542   -2.7490 H   0  0  0  0  0  0  0  0  0  0  0  0
    2.5702    5.2678    1.3369 H   0  0  0  0  0  0  0  0  0  0  0  0
    3.0859    5.8449   -1.0268 H   0  0  0  0  0  0  0  0  0  0  0  0
   -0.7843   -1.7557    0.4162 N   0  0  0  0  0  0  0  0  0  0  0  0
   -1.0921   -3.1946    0.4198 C   0  0  2  0  0  0  0  0  0  0  0  0
   -1.4399   -3.7399   -0.9875 C   0  0  0  0  0  0  0  0  0  0  0  0
   -2.5066   -4.2969   -1.2217 O   0  0  0  0  0  0  0  0  0  0  0  0
   -2.2186   -3.4179    1.4344 C   0  0  0  0  0  0  0  0  0  0  0  0
   -1.5128   -1.1014    0.7111 H   0  0  0  0  0  0  0  0  0  0  0  0
   -0.2149   -3.7493    0.7695 H   0  0  0  0  0  0  0  0  0  0  0  0
   -3.1293   -2.9036    1.1120 H   0  0  0  0  0  0  0  0  0  0  0  0
   -2.4390   -4.4862    1.5270 H   0  0  0  0  0  0  0  0  0  0  0  0
   -1.9265   -3.0389    2.4182 H   0  0  0  0  0  0  0  0  0  0  0  0
   -0.5114   -3.6215   -2.0023 N   0  0  0  0  0  0  0  0  0  0  0  0
   -0.7148   -4.1054   -3.3601 C   0  0  0  0  0  0  0  0  0  0  0  0
    0.3609   -3.1443   -1.7592 H   0  0  0  0  0  0  0  0  0  0  0  0
   -0.9198   -5.1811   -3.3564 H   0  0  0  0  0  0  0  0  0  0  0  0
   -1.5570   -3.5861   -3.8288 H   0  0  0  0  0  0  0  0  0  0  0  0
    0.1815   -3.9267   -3.9615 H   0  0  0  0  0  0  0  0  0  0  0  0
  1  2  2  0  0  0  0
  1  3  1  0  0  0  0
  1  7  1  0  0  0  0
  3  4  1  0  0  0  0
  3  5  1  0  0  0  0
  3  6  1  0  0  0  0
  7  8  1  0  0  0  0
  7 12  1  0  0  0  0
  8  9  1  0  0  0  0
  8 11  1  0  0  0  0
  8 13  1  0  0  0  0
  9 10  2  0  0  0  0
  9 17  1  0  0  0  0
 11 14  1  0  0  0  0
 11 15  1  0  0  0  0
 11 16  1  0  0  0  0
 17 18  1  0  0  0  0
 17 28  1  0  0  0  0
 18 19  1  0  0  0  0
 18 21  1  0  0  0  0
 18 29  1  0  0  0  0
 19 20  2  0  0  0  0
 19 37  1  0  0  0  0
 21 22  1  0  0  0  0
 21 30  1  0  0  0  0
 21 31  1  0  0  0  0
 22 23  1  0  0  0  0
 22 24  2  0  0  0  0
 23 25  2  0  0  0  0
 23 32  1  0  0  0  0
 24 26  1  0  0  0  0
 24 33  1  0  0  0  0
 25 27  1  0  0  0  0
 25 34  1  0  0  0  0
 26 27  2  0  0  0  0
 26 35  1  0  0  0  0
 27 36  1  0  0  0  0
 37 38  1  0  0  0  0
 37 42  1  0  0  0  0
 38 39  1  0  0  0  0
 38 41  1  0  0  0  0
 38 43  1  0  0  0  0
 39 40  2  0  0  0  0
 39 47  1  0  0  0  0
 41 44  1  0  0  0  0
 41 45  1  0  0  0  0
 41 46  1  0  0  0  0
 47 48  1  0  0  0  0
 47 49  1  0  0  0  0
 48 50  1  0  0  0  0
 48 51  1  0  0  0  0
 48 52  1  0  0  0  0
M  END
$$$$

  -OEChem-05262217163D

 52 52  0     1  0  0  0  0  0999 V2000
   -3.2935    0.1752    2.3504 C   0  0  0  0  0  0  0  0  0  0  0  0
   -3.0558    0.2220    1.1501 O   0  0  0  0  0  0  0  0  0  0  0  0
   -4.3337   -0.7898    2.8868 C   0  0  0  0  0  0  0  0  0  0  0  0
   -4.8193   -1.3203    2.0625 H   0  0  0  0  0  0  0  0  0  0  0  0
   -3.8613   -1.5212    3.5473 H   0  0  0  0  0  0  0  0  0  0  0  0
   -5.0961   -0.2432    3.4475 H   0  0  0  0  0  0  0  0  0  0  0  0
   -2.5882    0.9811    3.2214 N   0  0  0  0  0  0  0  0  0  0  0  0
   -1.5797    1.9677    2.8049 C   0  0  2  0  0  0  0  0  0  0  0  0
   -0.3137    1.3109    2.2057 C   0  0  0  0  0  0  0  0  0  0  0  0
    0.6225    0.9921    2.9241 O   0  0  0  0  0  0  0  0  0  0  0  0
   -1.2537    2.8466    4.0184 C   0  0  0  0  0  0  0  0  0  0  0  0
   -2.7423    0.8384    4.2160 H   0  0  0  0  0  0  0  0  0  0  0  0
   -2.0091    2.6158    2.0334 H   0  0  0  0  0  0  0  0  0  0  0  0
   -0.8458    2.2439    4.8366 H   0  0  0  0  0  0  0  0  0  0  0  0
   -0.5129    3.6056    3.7466 H   0  0  0  0  0  0  0  0  0  0  0  0
   -2.1547    3.3555    4.3742 H   0  0  0  0  0  0  0  0  0  0  0  0
   -0.3423    0.9989    0.8583 N   0  0  0  0  0  0  0  0  0  0  0  0
    0.6727    0.3128    0.0304 C   0  0  2  0  0  0  0  0  0  0  0  0
    0.4310   -1.2134    0.0437 C   0  0  0  0  0  0  0  0  0  0  0  0
    1.3225   -2.0039   -0.2468 O   0  0  0  0  0  0  0  0  0  0  0  0
    2.1463    0.6955    0.3151 C   0  0  0  0  0  0  0  0  0  0  0  0
    2.4135    2.1308   -0.0732 C   0  0  0  0  0  0  0  0  0  0  0  0
    2.6633    2.4704   -1.4116 C   0  0  0  0  0  0  0  0  0  0  0  0
    2.4265    3.1410    0.8993 C   0  0  0  0  0  0  0  0  0  0  0  0
    2.9085    3.7997   -1.7732 C   0  0  0  0  0  0  0  0  0  0  0  0
    2.6711    4.4707    0.5400 C   0  0  0  0  0  0  0  0  0  0  0  0
    2.9113    4.8010   -0.7973 C   0  0  0  0  0  0  0  0  0  0  0  0
   -1.2618    1.1325    0.4346 H   0  0  0  0  0  0  0  0  0  0  0  0
    0.4825    0.6131   -1.0039 H   0  0  0  0  0  0  0  0  0  0  0  0
    2.8076    0.0604   -0.2829 H   0  0  0  0  0  0  0  0  0  0  0  0
    2.4157    0.5128    1.3577 H   0  0  0  0  0  0  0  0  0  0  0  0
    2.6691    1.6987   -2.1757 H   0  0  0  0  0  0  0  0  0  0  0  0
    2.2507    2.8890    1.9412 H   0  0  0  0  0  0  0  0  0  0  0  0
    3.1006    4.0520   -2.8118 H   0  0  0  0  0  0  0  0  0  0  0  0
    2.6794    5.2442    1.3019 H   0  0  0  0  0  0  0  0  0  0  0  0
    3.1054    5.8325   -1.0765 H   0  0  0  0  0  0  0  0  0  0  0  0
   -0.8527   -1.7123    0.1946 N   0  0  0  0  0  0  0  0  0  0  0  0
   -1.2004   -3.1408    0.1434 C   0  0  2  0  0  0  0  0  0  0  0  0
   -1.2968   -3.6790   -1.3052 C   0  0  0  0  0  0  0  0  0  0  0  0
   -2.3258   -4.1810   -1.7429 O   0  0  0  0  0  0  0  0  0  0  0  0
   -2.4997   -3.3235    0.9347 C   0  0  0  0  0  0  0  0  0  0  0  0
   -1.5936   -1.0372    0.3952 H   0  0  0  0  0  0  0  0  0  0  0  0
   -0.4206   -3.7218    0.6471 H   0  0  0  0  0  0  0  0  0  0  0  0
   -3.3136   -2.7568    0.4710 H   0  0  0  0  0  0  0  0  0  0  0  0
   -2.7835   -4.3804    0.9600 H   0  0  0  0  0  0  0  0  0  0  0  0
   -2.3680   -2.9769    1.9637 H   0  0  0  0  0  0  0  0  0  0  0  0
   -0.1860   -3.6073   -2.1221 N   0  0  0  0  0  0  0  0  0  0  0  0
   -0.1520   -4.0664   -3.5033 C   0  0  0  0  0  0  0  0  0  0  0  0
    0.6434   -3.1675   -1.7138 H   0  0  0  0  0  0  0  0  0  0  0  0
   -0.3695   -5.1382   -3.5557 H   0  0  0  0  0  0  0  0  0  0  0  0
   -0.8904   -3.5257   -4.1043 H   0  0  0  0  0  0  0  0  0  0  0  0
    0.8393   -3.8930   -3.9331 H   0  0  0  0  0  0  0  0  0  0  0  0
  1  2  2  0  0  0  0
  1  3  1  0  0  0  0
  1  7  1  0  0  0  0
  3  4  1  0  0  0  0
  3  5  1  0  0  0  0
  3  6  1  0  0  0  0
  7  8  1  0  0  0  0
  7 12  1  0  0  0  0
  8  9  1  0  0  0  0
  8 11  1  0  0  0  0
  8 13  1  0  0  0  0
  9 10  2  0  0  0  0
  9 17  1  0  0  0  0
 11 14  1  0  0  0  0
 11 15  1  0  0  0  0
 11 16  1  0  0  0  0
 17 18  1  0  0  0  0
 17 28  1  0  0  0  0
 18 19  1  0  0  0  0
 18 21  1  0  0  0  0
 18 29  1  0  0  0  0
 19 20  2  0  0  0  0
 19 37  1  0  0  0  0
 21 22  1  0  0  0  0
 21 30  1  0  0  0  0
 21 31  1  0  0  0  0
 22 23  1  0  0  0  0
 22 24  2  0  0  0  0
 23 25  2  0  0  0  0
 23 32  1  0  0  0  0
 24 26  1  0  0  0  0
 24 33  1  0  0  0  0
 25 27  1  0  0  0  0
 25 34  1  0  0  0  0
 26 27  2  0  0  0  0
 26 35  1  0  0  0  0
 27 36  1  0  0  0  0
 37 38  1  0  0  0  0
 37 42  1  0  0  0  0
 38 39  1  0  0  0  0
 38 41  1  0  0  0  0
 38 43  1  0  0  0  0
 39 40  2  0  0  0  0
 39 47  1  0  0  0  0
 41 44  1  0  0  0  0
 41 45  1  0  0  0  0
 41 46  1  0  0  0  0
 47 48  1  0  0  0  0
 47 49  1  0  0  0  0
 48 50  1  0  0  0  0
 48 51  1  0  0  0  0
 48 52  1  0  0  0  0
M  END
$$$$

  -OEChem-05262217163D

 52 52  0     1  0  0  0  0  0999 V2000
   -3.2629    0.2149    2.2586 C   0  0  0  0  0  0  0  0  0  0  0  0
   -3.0297    0.3549    1.0643 O   0  0  0  0  0  0  0  0  0  0  0  0
   -4.3194   -0.7714    2.7181 C   0  0  0  0  0  0  0  0  0  0  0  0
   -4.7867   -1.2550    1.8555 H   0  0  0  0  0  0  0  0  0  0  0  0
   -3.8661   -1.5393    3.3500 H   0  0  0  0  0  0  0  0  0  0  0  0
   -5.0923   -0.2507    3.2886 H   0  0  0  0  0  0  0  0  0  0  0  0
   -2.5444    0.9343    3.1931 N   0  0  0  0  0  0  0  0  0  0  0  0
   -1.5232    1.9428    2.8675 C   0  0  2  0  0  0  0  0  0  0  0  0
   -0.2477    1.3231    2.2482 C   0  0  0  0  0  0  0  0  0  0  0  0
    0.7109    1.0292    2.9473 O   0  0  0  0  0  0  0  0  0  0  0  0
   -1.2244    2.7312    4.1485 C   0  0  0  0  0  0  0  0  0  0  0  0
   -2.7038    0.7115    4.1720 H   0  0  0  0  0  0  0  0  0  0  0  0
   -1.9332    2.6455    2.1342 H   0  0  0  0  0  0  0  0  0  0  0  0
   -0.8381    2.0689    4.9303 H   0  0  0  0  0  0  0  0  0  0  0  0
   -0.4747    3.5042    3.9503 H   0  0  0  0  0  0  0  0  0  0  0  0
   -2.1324    3.2172    4.5187 H   0  0  0  0  0  0  0  0  0  0  0  0
   -0.3013    1.0067    0.9036 N   0  0  0  0  0  0  0  0  0  0  0  0
    0.6878    0.3128    0.0539 C   0  0  2  0  0  0  0  0  0  0  0  0
    0.4191   -1.2075    0.0870 C   0  0  0  0  0  0  0  0  0  0  0  0
    1.3265   -2.0279    0.0008 O   0  0  0  0  0  0  0  0  0  0  0  0
    2.1707    0.6821    0.3025 C   0  0  0  0  0  0  0  0  0  0  0  0
    2.4423    2.1142   -0.0938 C   0  0  0  0  0  0  0  0  0  0  0  0
    2.6632    2.4488   -1.4385 C   0  0  0  0  0  0  0  0  0  0  0  0
    2.4869    3.1261    0.8757 C   0  0  0  0  0  0  0  0  0  0  0  0
    2.9141    3.7746   -1.8090 C   0  0  0  0  0  0  0  0  0  0  0  0
    2.7372    4.4522    0.5079 C   0  0  0  0  0  0  0  0  0  0  0  0
    2.9495    4.7774   -0.8353 C   0  0  0  0  0  0  0  0  0  0  0  0
   -1.2334    1.1335    0.5041 H   0  0  0  0  0  0  0  0  0  0  0  0
    0.4790    0.6112   -0.9774 H   0  0  0  0  0  0  0  0  0  0  0  0
    2.8111    0.0380   -0.3089 H   0  0  0  0  0  0  0  0  0  0  0  0
    2.4610    0.4997    1.3397 H   0  0  0  0  0  0  0  0  0  0  0  0
    2.6431    1.6759   -2.2011 H   0  0  0  0  0  0  0  0  0  0  0  0
    2.3319    2.8788    1.9221 H   0  0  0  0  0  0  0  0  0  0  0  0
    3.0849    4.0233   -2.8524 H   0  0  0  0  0  0  0  0  0  0  0  0
    2.7717    5.2269    1.2678 H   0  0  0  0  0  0  0  0  0  0  0  0
    3.1472    5.8061   -1.1213 H   0  0  0  0  0  0  0  0  0  0  0  0
   -0.8816   -1.6669   -0.0391 N   0  0  0  0  0  0  0  0  0  0  0  0
   -1.2535   -3.0846   -0.1630 C   0  0  2  0  0  0  0  0  0  0  0  0
   -1.0594   -3.6235   -1.6017 C   0  0  0  0  0  0  0  0  0  0  0  0
   -1.9900   -4.0866   -2.2510 O   0  0  0  0  0  0  0  0  0  0  0  0
   -2.6955   -3.2225    0.3376 C   0  0  0  0  0  0  0  0  0  0  0  0
   -1.6282   -0.9759    0.0518 H   0  0  0  0  0  0  0  0  0  0  0  0
   -0.6150   -3.6872    0.4918 H   0  0  0  0  0  0  0  0  0  0  0  0
   -3.3738   -2.6121   -0.2677 H   0  0  0  0  0  0  0  0  0  0  0  0
   -3.0212   -4.2658    0.2779 H   0  0  0  0  0  0  0  0  0  0  0  0
   -2.7649   -2.8998    1.3798 H   0  0  0  0  0  0  0  0  0  0  0  0
    0.2012   -3.5935   -2.1645 N   0  0  0  0  0  0  0  0  0  0  0  0
    0.5109   -4.0603   -3.5086 C   0  0  0  0  0  0  0  0  0  0  0  0
    0.9409   -3.1824   -1.5884 H   0  0  0  0  0  0  0  0  0  0  0  0
    0.2423   -5.1159   -3.6193 H   0  0  0  0  0  0  0  0  0  0  0  0
   -0.0391   -3.4756   -4.2531 H   0  0  0  0  0  0  0  0  0  0  0  0
    1.5818   -3.9543   -3.7067 H   0  0  0  0  0  0  0  0  0  0  0  0
  1  2  2  0  0  0  0
  1  3  1  0  0  0  0
  1  7  1  0  0  0  0
  3  4  1  0  0  0  0
  3  5  1  0  0  0  0
  3  6  1  0  0  0  0
  7  8  1  0  0  0  0
  7 12  1  0  0  0  0
  8  9  1  0  0  0  0
  8 11  1  0  0  0  0
  8 13  1  0  0  0  0
  9 10  2  0  0  0  0
  9 17  1  0  0  0  0
 11 14  1  0  0  0  0
 11 15  1  0  0  0  0
 11 16  1  0  0  0  0
 17 18  1  0  0  0  0
 17 28  1  0  0  0  0
 18 19  1  0  0  0  0
 18 21  1  0  0  0  0
 18 29  1  0  0  0  0
 19 20  2  0  0  0  0
 19 37  1  0  0  0  0
 21 22  1  0  0  0  0
 21 30  1  0  0  0  0
 21 31  1  0  0  0  0
 22 23  1  0  0  0  0
 22 24  2  0  0  0  0
 23 25  2  0  0  0  0
 23 32  1  0  0  0  0
 24 26  1  0  0  0  0
 24 33  1  0  0  0  0
 25 27  1  0  0  0  0
 25 34  1  0  0  0  0
 26 27  2  0  0  0  0
 26 35  1  0  0  0  0
 27 36  1  0  0  0  0
 37 38  1  0  0  0  0
 37 42  1  0  0  0  0
 38 39  1  0  0  0  0
 38 41  1  0  0  0  0
 38 43  1  0  0  0  0
 39 40  2  0  0  0  0
 39 47  1  0  0  0  0
 41 44  1  0  0  0  0
 41 45  1  0  0  0  0
 41 46  1  0  0  0  0
 47 48  1  0  0  0  0
 47 49  1  0  0  0  0
 48 50  1  0  0  0  0
 48 51  1  0  0  0  0
 48 52  1  0  0  0  0
M  END
$$$$

  -OEChem-05262217163D

 52 52  0     1  0  0  0  0  0999 V2000
   -3.2465    0.3099    2.1653 C   0  0  0  0  0  0  0  0  0  0  0  0
   -3.0464    0.6139    0.9962 O   0  0  0  0  0  0  0  0  0  0  0  0
   -4.2994   -0.7253    2.5118 C   0  0  0  0  0  0  0  0  0  0  0  0
   -4.8349   -1.0372    1.6105 H   0  0  0  0  0  0  0  0  0  0  0  0
   -3.8287   -1.6021    2.9635 H   0  0  0  0  0  0  0  0  0  0  0  0
   -5.0191   -0.3037    3.2180 H   0  0  0  0  0  0  0  0  0  0  0  0
   -2.4883    0.8797    3.1694 N   0  0  0  0  0  0  0  0  0  0  0  0
   -1.4438    1.8955    2.9581 C   0  0  2  0  0  0  0  0  0  0  0  0
   -0.1790    1.3112    2.2838 C   0  0  0  0  0  0  0  0  0  0  0  0
    0.8043    1.0110    2.9448 O   0  0  0  0  0  0  0  0  0  0  0  0
   -1.1430    2.5394    4.3177 C   0  0  0  0  0  0  0  0  0  0  0  0
   -2.6165    0.5134    4.1090 H   0  0  0  0  0  0  0  0  0  0  0  0
   -1.8304    2.6800    2.2988 H   0  0  0  0  0  0  0  0  0  0  0  0
   -0.7692    1.7932    5.0266 H   0  0  0  0  0  0  0  0  0  0  0  0
   -0.3837    3.3200    4.2066 H   0  0  0  0  0  0  0  0  0  0  0  0
   -2.0471    2.9944    4.7333 H   0  0  0  0  0  0  0  0  0  0  0  0
   -0.2718    1.0316    0.9333 N   0  0  0  0  0  0  0  0  0  0  0  0
    0.6840    0.3530    0.0361 C   0  0  2  0  0  0  0  0  0  0  0  0
    0.3907   -1.1619    0.0432 C   0  0  0  0  0  0  0  0  0  0  0  0
    1.2704   -2.0014    0.2007 O   0  0  0  0  0  0  0  0  0  0  0  0
    2.1781    0.6942    0.2498 C   0  0  0  0  0  0  0  0  0  0  0  0
    2.4562    2.1347   -0.1126 C   0  0  0  0  0  0  0  0  0  0  0  0
    2.6402    2.5072   -1.4530 C   0  0  0  0  0  0  0  0  0  0  0  0
    2.5392    3.1177    0.8840 C   0  0  0  0  0  0  0  0  0  0  0  0
    2.8877    3.8420   -1.7919 C   0  0  0  0  0  0  0  0  0  0  0  0
    2.7883    4.4525    0.5479 C   0  0  0  0  0  0  0  0  0  0  0  0
    2.9590    4.8161   -0.7913 C   0  0  0  0  0  0  0  0  0  0  0  0
   -1.2144    1.1799    0.5654 H   0  0  0  0  0  0  0  0  0  0  0  0
    0.4516    0.6842   -0.9800 H   0  0  0  0  0  0  0  0  0  0  0  0
    2.7883    0.0564   -0.3981 H   0  0  0  0  0  0  0  0  0  0  0  0
    2.4954    0.4781    1.2729 H   0  0  0  0  0  0  0  0  0  0  0  0
    2.5930    1.7573   -2.2366 H   0  0  0  0  0  0  0  0  0  0  0  0
    2.4140    2.8411    1.9271 H   0  0  0  0  0  0  0  0  0  0  0  0
    3.0277    4.1209   -2.8321 H   0  0  0  0  0  0  0  0  0  0  0  0
    2.8527    5.2035    1.3295 H   0  0  0  0  0  0  0  0  0  0  0  0
    3.1529    5.8521   -1.0532 H   0  0  0  0  0  0  0  0  0  0  0  0
   -0.8590   -1.5980   -0.3634 N   0  0  0  0  0  0  0  0  0  0  0  0
   -1.2464   -3.0115   -0.4879 C   0  0  2  0  0  0  0  0  0  0  0  0
   -0.7409   -3.6522   -1.8037 C   0  0  0  0  0  0  0  0  0  0  0  0
   -1.5124   -4.1149   -2.6360 O   0  0  0  0  0  0  0  0  0  0  0  0
   -2.7712   -3.0805   -0.3413 C   0  0  0  0  0  0  0  0  0  0  0  0
   -1.5860   -0.8900   -0.4530 H   0  0  0  0  0  0  0  0  0  0  0  0
   -0.8056   -3.5837    0.3355 H   0  0  0  0  0  0  0  0  0  0  0  0
   -3.2613   -2.5129   -1.1392 H   0  0  0  0  0  0  0  0  0  0  0  0
   -3.1108   -4.1197   -0.3968 H   0  0  0  0  0  0  0  0  0  0  0  0
   -3.0793   -2.6688    0.6231 H   0  0  0  0  0  0  0  0  0  0  0  0
    0.6172   -3.7095   -2.0435 N   0  0  0  0  0  0  0  0  0  0  0  0
    1.2122   -4.2542   -3.2555 C   0  0  0  0  0  0  0  0  0  0  0  0
    1.2166   -3.2716   -1.3383 H   0  0  0  0  0  0  0  0  0  0  0  0
    0.9009   -5.2939   -3.4017 H   0  0  0  0  0  0  0  0  0  0  0  0
    0.9066   -3.6677   -4.1280 H   0  0  0  0  0  0  0  0  0  0  0  0
    2.3038   -4.2274   -3.1838 H   0  0  0  0  0  0  0  0  0  0  0  0
  1  2  2  0  0  0  0
  1  3  1  0  0  0  0
  1  7  1  0  0  0  0
  3  4  1  0  0  0  0
  3  5  1  0  0  0  0
  3  6  1  0  0  0  0
  7  8  1  0  0  0  0
  7 12  1  0  0  0  0
  8  9  1  0  0  0  0
  8 11  1  0  0  0  0
  8 13  1  0  0  0  0
  9 10  2  0  0  0  0
  9 17  1  0  0  0  0
 11 14  1  0  0  0  0
 11 15  1  0  0  0  0
 11 16  1  0  0  0  0
 17 18  1  0  0  0  0
 17 28  1  0  0  0  0
 18 19  1  0  0  0  0
 18 21  1  0  0  0  0
 18 29  1  0  0  0  0
 19 20  2  0  0  0  0
 19 37  1  0  0  0  0
 21 22  1  0  0  0  0
 21 30  1  0  0  0  0
 21 31  1  0  0  0  0
 22 23  1  0  0  0  0
 22 24  2  0  0  0  0
 23 25  2  0  0  0  0
 23 32  1  0  0  0  0
 24 26  1  0  0  0  0
 24 33  1  0  0  0  0
 25 27  1  0  0  0  0
 25 34  1  0  0  0  0
 26 27  2  0  0  0  0
 26 35  1  0  0  0  0
 27 36  1  0  0  0  0
 37 38  1  0  0  0  0
 37 42  1  0  0  0  0
 38 39  1  0  0  0  0
 38 41  1  0  0  0  0
 38 43  1  0  0  0  0
 39 40  2  0  0  0  0
 39 47  1  0  0  0  0
 41 44  1  0  0  0  0
 41 45  1  0  0  0  0
 41 46  1  0  0  0  0
 47 48  1  0  0  0  0
 47 49  1  0  0  0  0
 48 50  1  0  0  0  0
 48 51  1  0  0  0  0
 48 52  1  0  0  0  0
M  END
$$$$

  -OEChem-05262217163D

 52 52  0     1  0  0  0  0  0999 V2000
   -3.6348    0.7998    3.9431 C   0  0  0  0  0  0  0  0  0  0  0  0
   -4.4609    0.9672    3.0596 O   0  0  0  0  0  0  0  0  0  0  0  0
   -4.0047    0.0198    5.1904 C   0  0  0  0  0  0  0  0  0  0  0  0
   -5.0704   -0.2253    5.1799 H   0  0  0  0  0  0  0  0  0  0  0  0
   -3.4295   -0.9085    5.2330 H   0  0  0  0  0  0  0  0  0  0  0  0
   -3.7895    0.6146    6.0813 H   0  0  0  0  0  0  0  0  0  0  0  0
   -2.3545    1.2941    3.8036 N   0  0  0  0  0  0  0  0  0  0  0  0
   -1.8171    1.8052    2.5348 C   0  0  2  0  0  0  0  0  0  0  0  0
   -0.7619    0.8487    1.9419 C   0  0  0  0  0  0  0  0  0  0  0  0
   -0.0754    0.1774    2.7000 O   0  0  0  0  0  0  0  0  0  0  0  0
   -1.2065    3.1818    2.8044 C   0  0  0  0  0  0  0  0  0  0  0  0
   -1.6707    0.9317    4.4657 H   0  0  0  0  0  0  0  0  0  0  0  0
   -2.6156    1.9230    1.7953 H   0  0  0  0  0  0  0  0  0  0  0  0
   -0.3976    3.1069    3.5383 H   0  0  0  0  0  0  0  0  0  0  0  0
   -0.8017    3.6086    1.8816 H   0  0  0  0  0  0  0  0  0  0  0  0
   -1.9691    3.8630    3.1946 H   0  0  0  0  0  0  0  0  0  0  0  0
   -0.6302    0.7470    0.5663 N   0  0  0  0  0  0  0  0  0  0  0  0
    0.4836    0.1281   -0.1891 C   0  0  2  0  0  0  0  0  0  0  0  0
    0.2122   -1.3729   -0.4359 C   0  0  0  0  0  0  0  0  0  0  0  0
    0.9227   -2.2494    0.0426 O   0  0  0  0  0  0  0  0  0  0  0  0
    1.8992    0.3881    0.3820 C   0  0  0  0  0  0  0  0  0  0  0  0
    2.2653    1.8477    0.2597 C   0  0  0  0  0  0  0  0  0  0  0  0
    2.7428    2.3678   -0.9526 C   0  0  0  0  0  0  0  0  0  0  0  0
    2.1444    2.6997    1.3667 C   0  0  0  0  0  0  0  0  0  0  0  0
    3.0736    3.7230   -1.0611 C   0  0  0  0  0  0  0  0  0  0  0  0
    2.4736    4.0549    1.2603 C   0  0  0  0  0  0  0  0  0  0  0  0
    2.9361    4.5679    0.0446 C   0  0  0  0  0  0  0  0  0  0  0  0
   -1.2366    1.3735    0.0448 H   0  0  0  0  0  0  0  0  0  0  0  0
    0.4835    0.5824   -1.1838 H   0  0  0  0  0  0  0  0  0  0  0  0
    2.6270   -0.1957   -0.1910 H   0  0  0  0  0  0  0  0  0  0  0  0
    1.9874    0.0478    1.4167 H   0  0  0  0  0  0  0  0  0  0  0  0
    2.8608    1.7188   -1.8153 H   0  0  0  0  0  0  0  0  0  0  0  0
    1.8000    2.3033    2.3177 H   0  0  0  0  0  0  0  0  0  0  0  0
    3.4431    4.1176   -2.0030 H   0  0  0  0  0  0  0  0  0  0  0  0
    2.3777    4.7063    2.1240 H   0  0  0  0  0  0  0  0  0  0  0  0
    3.1973    5.6190   -0.0383 H   0  0  0  0  0  0  0  0  0  0  0  0
   -0.7152   -1.7475   -1.3930 N   0  0  0  0  0  0  0  0  0  0  0  0
   -1.0026   -3.1416   -1.7670 C   0  0  2  0  0  0  0  0  0  0  0  0
    0.0449   -3.7177   -2.7511 C   0  0  0  0  0  0  0  0  0  0  0  0
   -0.2606   -4.0747   -3.8828 O   0  0  0  0  0  0  0  0  0  0  0  0
   -2.4301   -3.1815   -2.3264 C   0  0  0  0  0  0  0  0  0  0  0  0
   -1.2720   -1.0128   -1.8176 H   0  0  0  0  0  0  0  0  0  0  0  0
   -0.9801   -3.7711   -0.8707 H   0  0  0  0  0  0  0  0  0  0  0  0
   -2.5046   -2.5789   -3.2373 H   0  0  0  0  0  0  0  0  0  0  0  0
   -2.7117   -4.2111   -2.5695 H   0  0  0  0  0  0  0  0  0  0  0  0
   -3.1409   -2.7951   -1.5896 H   0  0  0  0  0  0  0  0  0  0  0  0
    1.3618   -3.8166   -2.3491 N   0  0  0  0  0  0  0  0  0  0  0  0
    2.4387   -4.3210   -3.1896 C   0  0  0  0  0  0  0  0  0  0  0  0
    1.5741   -3.4634   -1.4116 H   0  0  0  0  0  0  0  0  0  0  0  0
    2.2415   -5.3573   -3.4828 H   0  0  0  0  0  0  0  0  0  0  0  0
    2.5376   -3.7109   -4.0933 H   0  0  0  0  0  0  0  0  0  0  0  0
    3.3874   -4.2901   -2.6454 H   0  0  0  0  0  0  0  0  0  0  0  0
  1  2  2  0  0  0  0
  1  3  1  0  0  0  0
  1  7  1  0  0  0  0
  3  4  1  0  0  0  0
  3  5  1  0  0  0  0
  3  6  1  0  0  0  0
  7  8  1  0  0  0  0
  7 12  1  0  0  0  0
  8  9  1  0  0  0  0
  8 11  1  0  0  0  0
  8 13  1  0  0  0  0
  9 10  2  0  0  0  0
  9 17  1  0  0  0  0
 11 14  1  0  0  0  0
 11 15  1  0  0  0  0
 11 16  1  0  0  0  0
 17 18  1  0  0  0  0
 17 28  1  0  0  0  0
 18 19  1  0  0  0  0
 18 21  1  0  0  0  0
 18 29  1  0  0  0  0
 19 20  2  0  0  0  0
 19 37  1  0  0  0  0
 21 22  1  0  0  0  0
 21 30  1  0  0  0  0
 21 31  1  0  0  0  0
 22 23  1  0  0  0  0
 22 24  2  0  0  0  0
 23 25  2  0  0  0  0
 23 32  1  0  0  0  0
 24 26  1  0  0  0  0
 24 33  1  0  0  0  0
 25 27  1  0  0  0  0
 25 34  1  0  0  0  0
 26 27  2  0  0  0  0
 26 35  1  0  0  0  0
 27 36  1  0  0  0  0
 37 38  1  0  0  0  0
 37 42  1  0  0  0  0
 38 39  1  0  0  0  0
 38 41  1  0  0  0  0
 38 43  1  0  0  0  0
 39 40  2  0  0  0  0
 39 47  1  0  0  0  0
 41 44  1  0  0  0  0
 41 45  1  0  0  0  0
 41 46  1  0  0  0  0
 47 48  1  0  0  0  0
 47 49  1  0  0  0  0
 48 50  1  0  0  0  0
 48 51  1  0  0  0  0
 48 52  1  0  0  0  0
M  END
$$$$

  -OEChem-05262217163D

 52 52  0     1  0  0  0  0  0999 V2000
   -3.6109    0.8029    4.0785 C   0  0  0  0  0  0  0  0  0  0  0  0
   -4.5089    1.0538    3.2900 O   0  0  0  0  0  0  0  0  0  0  0  0
   -3.9090    0.0238    5.3457 C   0  0  0  0  0  0  0  0  0  0  0  0
   -4.9700   -0.2380    5.3874 H   0  0  0  0  0  0  0  0  0  0  0  0
   -3.3192   -0.8959    5.3651 H   0  0  0  0  0  0  0  0  0  0  0  0
   -3.6605    0.6270    6.2221 H   0  0  0  0  0  0  0  0  0  0  0  0
   -2.3189    1.2091    3.8162 N   0  0  0  0  0  0  0  0  0  0  0  0
   -1.8703    1.7104    2.5092 C   0  0  2  0  0  0  0  0  0  0  0  0
   -0.7820    0.8035    1.8997 C   0  0  0  0  0  0  0  0  0  0  0  0
   -0.0723    0.1453    2.6483 O   0  0  0  0  0  0  0  0  0  0  0  0
   -1.3332    3.1299    2.7037 C   0  0  0  0  0  0  0  0  0  0  0  0
   -1.5981    0.7931    4.4042 H   0  0  0  0  0  0  0  0  0  0  0  0
   -2.7051    1.7468    1.8018 H   0  0  0  0  0  0  0  0  0  0  0  0
   -0.4913    3.1292    3.4034 H   0  0  0  0  0  0  0  0  0  0  0  0
   -0.9923    3.5453    1.7502 H   0  0  0  0  0  0  0  0  0  0  0  0
   -2.1189    3.7787    3.1030 H   0  0  0  0  0  0  0  0  0  0  0  0
   -0.6375    0.7546    0.5221 N   0  0  0  0  0  0  0  0  0  0  0  0
    0.4744    0.1625   -0.2565 C   0  0  2  0  0  0  0  0  0  0  0  0
    0.1983   -1.3241   -0.5706 C   0  0  0  0  0  0  0  0  0  0  0  0
    0.6768   -2.2286    0.1026 O   0  0  0  0  0  0  0  0  0  0  0  0
    1.8909    0.3722    0.3288 C   0  0  0  0  0  0  0  0  0  0  0  0
    2.2764    1.8318    0.2813 C   0  0  0  0  0  0  0  0  0  0  0  0
    2.7633    2.4096   -0.9012 C   0  0  0  0  0  0  0  0  0  0  0  0
    2.1561    2.6278    1.4296 C   0  0  0  0  0  0  0  0  0  0  0  0
    3.1027    3.7670   -0.9388 C   0  0  0  0  0  0  0  0  0  0  0  0
    2.4966    3.9837    1.3947 C   0  0  0  0  0  0  0  0  0  0  0  0
    2.9663    4.5551    0.2085 C   0  0  0  0  0  0  0  0  0  0  0  0
   -1.2780    1.3569    0.0134 H   0  0  0  0  0  0  0  0  0  0  0  0
    0.4833    0.6686   -1.2258 H   0  0  0  0  0  0  0  0  0  0  0  0
    2.6099   -0.1950   -0.2713 H   0  0  0  0  0  0  0  0  0  0  0  0
    1.9707   -0.0210    1.3452 H   0  0  0  0  0  0  0  0  0  0  0  0
    2.8814    1.8054   -1.7957 H   0  0  0  0  0  0  0  0  0  0  0  0
    1.8013    2.1872    2.3574 H   0  0  0  0  0  0  0  0  0  0  0  0
    3.4773    4.2088   -1.8576 H   0  0  0  0  0  0  0  0  0  0  0  0
    2.4019    4.5892    2.2914 H   0  0  0  0  0  0  0  0  0  0  0  0
    3.2333    5.6075    0.1811 H   0  0  0  0  0  0  0  0  0  0  0  0
   -0.4728   -1.6664   -1.7321 N   0  0  0  0  0  0  0  0  0  0  0  0
   -0.7409   -3.0501   -2.1544 C   0  0  2  0  0  0  0  0  0  0  0  0
    0.4980   -3.7246   -2.7928 C   0  0  0  0  0  0  0  0  0  0  0  0
    0.5202   -4.0429   -3.9758 O   0  0  0  0  0  0  0  0  0  0  0  0
   -1.9521   -3.0140   -3.0949 C   0  0  0  0  0  0  0  0  0  0  0  0
   -0.7991   -0.9122   -2.3276 H   0  0  0  0  0  0  0  0  0  0  0  0
   -1.0174   -3.6506   -1.2807 H   0  0  0  0  0  0  0  0  0  0  0  0
   -1.7292   -2.4246   -3.9900 H   0  0  0  0  0  0  0  0  0  0  0  0
   -2.2185   -4.0287   -3.4076 H   0  0  0  0  0  0  0  0  0  0  0  0
   -2.8157   -2.5720   -2.5890 H   0  0  0  0  0  0  0  0  0  0  0  0
    1.6126   -3.9575   -2.0123 N   0  0  0  0  0  0  0  0  0  0  0  0
    2.8510   -4.5399   -2.5096 C   0  0  0  0  0  0  0  0  0  0  0  0
    1.5748   -3.5945   -1.0553 H   0  0  0  0  0  0  0  0  0  0  0  0
    2.6665   -5.5374   -2.9216 H   0  0  0  0  0  0  0  0  0  0  0  0
    3.2836   -3.9085   -3.2924 H   0  0  0  0  0  0  0  0  0  0  0  0
    3.5769   -4.6316   -1.6961 H   0  0  0  0  0  0  0  0  0  0  0  0
  1  2  2  0  0  0  0
  1  3  1  0  0  0  0
  1  7  1  0  0  0  0
  3  4  1  0  0  0  0
  3  5  1  0  0  0  0
  3  6  1  0  0  0  0
  7  8  1  0  0  0  0
  7 12  1  0  0  0  0
  8  9  1  0  0  0  0
  8 11  1  0  0  0  0
  8 13  1  0  0  0  0
  9 10  2  0  0  0  0
  9 17  1  0  0  0  0
 11 14  1  0  0  0  0
 11 15  1  0  0  0  0
 11 16  1  0  0  0  0
 17 18  1  0  0  0  0
 17 28  1  0  0  0  0
 18 19  1  0  0  0  0
 18 21  1  0  0  0  0
 18 29  1  0  0  0  0
 19 20  2  0  0  0  0
 19 37  1  0  0  0  0
 21 22  1  0  0  0  0
 21 30  1  0  0  0  0
 21 31  1  0  0  0  0
 22 23  1  0  0  0  0
 22 24  2  0  0  0  0
 23 25  2  0  0  0  0
 23 32  1  0  0  0  0
 24 26  1  0  0  0  0
 24 33  1  0  0  0  0
 25 27  1  0  0  0  0
 25 34  1  0  0  0  0
 26 27  2  0  0  0  0
 26 35  1  0  0  0  0
 27 36  1  0  0  0  0
 37 38  1  0  0  0  0
 37 42  1  0  0  0  0
 38 39  1  0  0  0  0
 38 41  1  0  0  0  0
 38 43  1  0  0  0  0
 39 40  2  0  0  0  0
 39 47  1  0  0  0  0
 41 44  1  0  0  0  0
 41 45  1  0  0  0  0
 41 46  1  0  0  0  0
 47 48  1  0  0  0  0
 47 49  1  0  0  0  0
 48 50  1  0  0  0  0
 48 51  1  0  0  0  0
 48 52  1  0  0  0  0
M  END
$$$$

  -OEChem-05262217163D

 52 52  0     1  0  0  0  0  0999 V2000
   -3.6181    0.9076    4.2401 C   0  0  0  0  0  0  0  0  0  0  0  0
   -4.5286    1.3899    3.5849 O   0  0  0  0  0  0  0  0  0  0  0  0
   -3.9185    0.1621    5.5268 C   0  0  0  0  0  0  0  0  0  0  0  0
   -4.9993    0.0672    5.6642 H   0  0  0  0  0  0  0  0  0  0  0  0
   -3.4802   -0.8383    5.4910 H   0  0  0  0  0  0  0  0  0  0  0  0
   -3.5008    0.7054    6.3779 H   0  0  0  0  0  0  0  0  0  0  0  0
   -2.3150    1.0345    3.8078 N   0  0  0  0  0  0  0  0  0  0  0  0
   -1.9321    1.5512    2.4873 C   0  0  2  0  0  0  0  0  0  0  0  0
   -0.7850    0.7283    1.8665 C   0  0  0  0  0  0  0  0  0  0  0  0
   -0.0511    0.0878    2.6073 O   0  0  0  0  0  0  0  0  0  0  0  0
   -1.5120    3.0145    2.6475 C   0  0  0  0  0  0  0  0  0  0  0  0
   -1.6078    0.4941    4.3057 H   0  0  0  0  0  0  0  0  0  0  0  0
   -2.7838    1.4946    1.8012 H   0  0  0  0  0  0  0  0  0  0  0  0
   -0.6588    3.0954    3.3287 H   0  0  0  0  0  0  0  0  0  0  0  0
   -1.2271    3.4412    1.6809 H   0  0  0  0  0  0  0  0  0  0  0  0
   -2.3407    3.6024    3.0548 H   0  0  0  0  0  0  0  0  0  0  0  0
   -0.6244    0.7309    0.4890 N   0  0  0  0  0  0  0  0  0  0  0  0
    0.4915    0.1677   -0.3055 C   0  0  2  0  0  0  0  0  0  0  0  0
    0.2250   -1.3037   -0.6875 C   0  0  0  0  0  0  0  0  0  0  0  0
    0.4251   -2.2201    0.0991 O   0  0  0  0  0  0  0  0  0  0  0  0
    1.9056    0.3419    0.2938 C   0  0  0  0  0  0  0  0  0  0  0  0
    2.2981    1.8003    0.3097 C   0  0  0  0  0  0  0  0  0  0  0  0
    2.7930    2.4225   -0.8467 C   0  0  0  0  0  0  0  0  0  0  0  0
    2.1683    2.5529    1.4861 C   0  0  0  0  0  0  0  0  0  0  0  0
    3.1368    3.7788   -0.8299 C   0  0  0  0  0  0  0  0  0  0  0  0
    2.5108    3.9087    1.5047 C   0  0  0  0  0  0  0  0  0  0  0  0
    2.9932    4.5230    0.3453 C   0  0  0  0  0  0  0  0  0  0  0  0
   -1.2955    1.3062   -0.0112 H   0  0  0  0  0  0  0  0  0  0  0  0
    0.5052    0.7190   -1.2494 H   0  0  0  0  0  0  0  0  0  0  0  0
    2.6243   -0.2035   -0.3267 H   0  0  0  0  0  0  0  0  0  0  0  0
    1.9787   -0.0942    1.2932 H   0  0  0  0  0  0  0  0  0  0  0  0
    2.9153    1.8534   -1.7632 H   0  0  0  0  0  0  0  0  0  0  0  0
    1.8026    2.0797    2.3935 H   0  0  0  0  0  0  0  0  0  0  0  0
    3.5198    4.2532   -1.7288 H   0  0  0  0  0  0  0  0  0  0  0  0
    2.4071    4.4816    2.4215 H   0  0  0  0  0  0  0  0  0  0  0  0
    3.2622    5.5753    0.3595 H   0  0  0  0  0  0  0  0  0  0  0  0
   -0.1423   -1.6295   -1.9821 N   0  0  0  0  0  0  0  0  0  0  0  0
   -0.3726   -3.0055   -2.4507 C   0  0  2  0  0  0  0  0  0  0  0  0
    0.9493   -3.7564   -2.7418 C   0  0  0  0  0  0  0  0  0  0  0  0
    1.2526   -4.1092   -3.8753 O   0  0  0  0  0  0  0  0  0  0  0  0
   -1.2967   -2.9269   -3.6723 C   0  0  0  0  0  0  0  0  0  0  0  0
   -0.2121   -0.8757   -2.6584 H   0  0  0  0  0  0  0  0  0  0  0  0
   -0.8984   -3.5723   -1.6745 H   0  0  0  0  0  0  0  0  0  0  0  0
   -0.8180   -2.3697   -4.4840 H   0  0  0  0  0  0  0  0  0  0  0  0
   -1.5297   -3.9331   -4.0352 H   0  0  0  0  0  0  0  0  0  0  0  0
   -2.2355   -2.4298   -3.4099 H   0  0  0  0  0  0  0  0  0  0  0  0
    1.8197   -4.0099   -1.7008 N   0  0  0  0  0  0  0  0  0  0  0  0
    3.1171   -4.6515   -1.8591 C   0  0  0  0  0  0  0  0  0  0  0  0
    1.5554   -3.6258   -0.7888 H   0  0  0  0  0  0  0  0  0  0  0  0
    3.0011   -5.6447   -2.3056 H   0  0  0  0  0  0  0  0  0  0  0  0
    3.7660   -4.0481   -2.5022 H   0  0  0  0  0  0  0  0  0  0  0  0
    3.6020   -4.7656   -0.8848 H   0  0  0  0  0  0  0  0  0  0  0  0
  1  2  2  0  0  0  0
  1  3  1  0  0  0  0
  1  7  1  0  0  0  0
  3  4  1  0  0  0  0
  3  5  1  0  0  0  0
  3  6  1  0  0  0  0
  7  8  1  0  0  0  0
  7 12  1  0  0  0  0
  8  9  1  0  0  0  0
  8 11  1  0  0  0  0
  8 13  1  0  0  0  0
  9 10  2  0  0  0  0
  9 17  1  0  0  0  0
 11 14  1  0  0  0  0
 11 15  1  0  0  0  0
 11 16  1  0  0  0  0
 17 18  1  0  0  0  0
 17 28  1  0  0  0  0
 18 19  1  0  0  0  0
 18 21  1  0  0  0  0
 18 29  1  0  0  0  0
 19 20  2  0  0  0  0
 19 37  1  0  0  0  0
 21 22  1  0  0  0  0
 21 30  1  0  0  0  0
 21 31  1  0  0  0  0
 22 23  1  0  0  0  0
 22 24  2  0  0  0  0
 23 25  2  0  0  0  0
 23 32  1  0  0  0  0
 24 26  1  0  0  0  0
 24 33  1  0  0  0  0
 25 27  1  0  0  0  0
 25 34  1  0  0  0  0
 26 27  2  0  0  0  0
 26 35  1  0  0  0  0
 27 36  1  0  0  0  0
 37 38  1  0  0  0  0
 37 42  1  0  0  0  0
 38 39  1  0  0  0  0
 38 41  1  0  0  0  0
 38 43  1  0  0  0  0
 39 40  2  0  0  0  0
 39 47  1  0  0  0  0
 41 44  1  0  0  0  0
 41 45  1  0  0  0  0
 41 46  1  0  0  0  0
 47 48  1  0  0  0  0
 47 49  1  0  0  0  0
 48 50  1  0  0  0  0
 48 51  1  0  0  0  0
 48 52  1  0  0  0  0
M  END
$$$$

  -OEChem-05262217163D

 52 52  0     1  0  0  0  0  0999 V2000
   -3.6132    0.8328    4.2767 C   0  0  0  0  0  0  0  0  0  0  0  0
   -4.5336    1.3440    3.6578 O   0  0  0  0  0  0  0  0  0  0  0  0
   -3.8821    0.1045    5.5799 C   0  0  0  0  0  0  0  0  0  0  0  0
   -4.9470    0.1502    5.8243 H   0  0  0  0  0  0  0  0  0  0  0  0
   -3.5861   -0.9435    5.4895 H   0  0  0  0  0  0  0  0  0  0  0  0
   -3.3150    0.5685    6.3905 H   0  0  0  0  0  0  0  0  0  0  0  0
   -2.3274    0.9095    3.7862 N   0  0  0  0  0  0  0  0  0  0  0  0
   -1.9787    1.4453    2.4647 C   0  0  2  0  0  0  0  0  0  0  0  0
   -0.7725    0.7092    1.8470 C   0  0  0  0  0  0  0  0  0  0  0  0
   -0.0013    0.1130    2.5881 O   0  0  0  0  0  0  0  0  0  0  0  0
   -1.6710    2.9379    2.6149 C   0  0  0  0  0  0  0  0  0  0  0  0
   -1.6091    0.3660    4.2642 H   0  0  0  0  0  0  0  0  0  0  0  0
   -2.8247    1.3169    1.7810 H   0  0  0  0  0  0  0  0  0  0  0  0
   -0.8323    3.0878    3.3023 H   0  0  0  0  0  0  0  0  0  0  0  0
   -1.4101    3.3768    1.6471 H   0  0  0  0  0  0  0  0  0  0  0  0
   -2.5448    3.4659    3.0100 H   0  0  0  0  0  0  0  0  0  0  0  0
   -0.6008    0.7482    0.4711 N   0  0  0  0  0  0  0  0  0  0  0  0
    0.5173    0.2039   -0.3329 C   0  0  2  0  0  0  0  0  0  0  0  0
    0.2615   -1.2547   -0.7654 C   0  0  0  0  0  0  0  0  0  0  0  0
    0.1162   -2.1538    0.0525 O   0  0  0  0  0  0  0  0  0  0  0  0
    1.9329    0.3598    0.2654 C   0  0  0  0  0  0  0  0  0  0  0  0
    2.3284    1.8170    0.3127 C   0  0  0  0  0  0  0  0  0  0  0  0
    2.8207    2.4612   -0.8330 C   0  0  0  0  0  0  0  0  0  0  0  0
    2.1984    2.5487    1.5019 C   0  0  0  0  0  0  0  0  0  0  0  0
    3.1659    3.8165   -0.7921 C   0  0  0  0  0  0  0  0  0  0  0  0
    2.5412    3.9041    1.5444 C   0  0  0  0  0  0  0  0  0  0  0  0
    3.0234    4.5395    0.3961 C   0  0  0  0  0  0  0  0  0  0  0  0
   -1.3204    1.2596   -0.0309 H   0  0  0  0  0  0  0  0  0  0  0  0
    0.5257    0.7859   -1.2582 H   0  0  0  0  0  0  0  0  0  0  0  0
    2.6493   -0.1727   -0.3688 H   0  0  0  0  0  0  0  0  0  0  0  0
    2.0071   -0.0999    1.2539 H   0  0  0  0  0  0  0  0  0  0  0  0
    2.9411    1.9100   -1.7605 H   0  0  0  0  0  0  0  0  0  0  0  0
    1.8311    2.0606    2.4005 H   0  0  0  0  0  0  0  0  0  0  0  0
    3.5486    4.3072   -1.6821 H   0  0  0  0  0  0  0  0  0  0  0  0
    2.4365    4.4601    2.4716 H   0  0  0  0  0  0  0  0  0  0  0  0
    3.2924    5.5913    0.4290 H   0  0  0  0  0  0  0  0  0  0  0  0
    0.2162   -1.5824   -2.1099 N   0  0  0  0  0  0  0  0  0  0  0  0
    0.0309   -2.9522   -2.6140 C   0  0  2  0  0  0  0  0  0  0  0  0
    1.3255   -3.7939   -2.5083 C   0  0  0  0  0  0  0  0  0  0  0  0
    1.9341   -4.1653   -3.5047 O   0  0  0  0  0  0  0  0  0  0  0  0
   -0.4966   -2.8464   -4.0503 C   0  0  0  0  0  0  0  0  0  0  0  0
    0.4454   -0.8548   -2.7801 H   0  0  0  0  0  0  0  0  0  0  0  0
   -0.7333   -3.4626   -2.0175 H   0  0  0  0  0  0  0  0  0  0  0  0
    0.2321   -2.3424   -4.6934 H   0  0  0  0  0  0  0  0  0  0  0  0
   -0.6845   -3.8449   -4.4582 H   0  0  0  0  0  0  0  0  0  0  0  0
   -1.4343   -2.2829   -4.0723 H   0  0  0  0  0  0  0  0  0  0  0  0
    1.8244   -4.1014   -1.2584 N   0  0  0  0  0  0  0  0  0  0  0  0
    3.0738   -4.8141   -1.0329 C   0  0  0  0  0  0  0  0  0  0  0  0
    1.3327   -3.6844   -0.4625 H   0  0  0  0  0  0  0  0  0  0  0  0
    3.0471   -5.7958   -1.5174 H   0  0  0  0  0  0  0  0  0  0  0  0
    3.9177   -4.2442   -1.4351 H   0  0  0  0  0  0  0  0  0  0  0  0
    3.2340   -4.9626    0.0394 H   0  0  0  0  0  0  0  0  0  0  0  0
  1  2  2  0  0  0  0
  1  3  1  0  0  0  0
  1  7  1  0  0  0  0
  3  4  1  0  0  0  0
  3  5  1  0  0  0  0
  3  6  1  0  0  0  0
  7  8  1  0  0  0  0
  7 12  1  0  0  0  0
  8  9  1  0  0  0  0
  8 11  1  0  0  0  0
  8 13  1  0  0  0  0
  9 10  2  0  0  0  0
  9 17  1  0  0  0  0
 11 14  1  0  0  0  0
 11 15  1  0  0  0  0
 11 16  1  0  0  0  0
 17 18  1  0  0  0  0
 17 28  1  0  0  0  0
 18 19  1  0  0  0  0
 18 21  1  0  0  0  0
 18 29  1  0  0  0  0
 19 20  2  0  0  0  0
 19 37  1  0  0  0  0
 21 22  1  0  0  0  0
 21 30  1  0  0  0  0
 21 31  1  0  0  0  0
 22 23  1  0  0  0  0
 22 24  2  0  0  0  0
 23 25  2  0  0  0  0
 23 32  1  0  0  0  0
 24 26  1  0  0  0  0
 24 33  1  0  0  0  0
 25 27  1  0  0  0  0
 25 34  1  0  0  0  0
 26 27  2  0  0  0  0
 26 35  1  0  0  0  0
 27 36  1  0  0  0  0
 37 38  1  0  0  0  0
 37 42  1  0  0  0  0
 38 39  1  0  0  0  0
 38 41  1  0  0  0  0
 38 43  1  0  0  0  0
 39 40  2  0  0  0  0
 39 47  1  0  0  0  0
 41 44  1  0  0  0  0
 41 45  1  0  0  0  0
 41 46  1  0  0  0  0
 47 48  1  0  0  0  0
 47 49  1  0  0  0  0
 48 50  1  0  0  0  0
 48 51  1  0  0  0  0
 48 52  1  0  0  0  0
M  END
$$$$

  -OEChem-05262217163D

 52 52  0     1  0  0  0  0  0999 V2000
   -3.5732    0.7384    4.2930 C   0  0  0  0  0  0  0  0  0  0  0  0
   -4.5265    1.2222    3.7028 O   0  0  0  0  0  0  0  0  0  0  0  0
   -3.7770    0.0182    5.6124 C   0  0  0  0  0  0  0  0  0  0  0  0
   -4.8313    0.0502    5.9011 H   0  0  0  0  0  0  0  0  0  0  0  0
   -3.4678   -1.0258    5.5186 H   0  0  0  0  0  0  0  0  0  0  0  0
   -3.1833    0.4976    6.3943 H   0  0  0  0  0  0  0  0  0  0  0  0
   -2.3076    0.8387    3.7565 N   0  0  0  0  0  0  0  0  0  0  0  0
   -2.0170    1.3616    2.4159 C   0  0  2  0  0  0  0  0  0  0  0  0
   -0.7691    0.6935    1.8025 C   0  0  0  0  0  0  0  0  0  0  0  0
    0.0197    0.1194    2.5439 O   0  0  0  0  0  0  0  0  0  0  0  0
   -1.8129    2.8766    2.5173 C   0  0  0  0  0  0  0  0  0  0  0  0
   -1.5608    0.3155    4.2135 H   0  0  0  0  0  0  0  0  0  0  0  0
   -2.8616    1.1526    1.7505 H   0  0  0  0  0  0  0  0  0  0  0  0
   -0.9703    3.1054    3.1777 H   0  0  0  0  0  0  0  0  0  0  0  0
   -1.6086    3.3049    1.5313 H   0  0  0  0  0  0  0  0  0  0  0  0
   -2.7118    3.3534    2.9208 H   0  0  0  0  0  0  0  0  0  0  0  0
   -0.5800    0.7613    0.4302 N   0  0  0  0  0  0  0  0  0  0  0  0
    0.5589    0.2480   -0.3650 C   0  0  2  0  0  0  0  0  0  0  0  0
    0.3342   -1.2071   -0.8279 C   0  0  0  0  0  0  0  0  0  0  0  0
   -0.1480   -2.0526   -0.0848 O   0  0  0  0  0  0  0  0  0  0  0  0
    1.9666    0.4117    0.2510 C   0  0  0  0  0  0  0  0  0  0  0  0
    2.3485    1.8717    0.3307 C   0  0  0  0  0  0  0  0  0  0  0  0
    2.8475    2.5443   -0.7961 C   0  0  0  0  0  0  0  0  0  0  0  0
    2.2033    2.5770    1.5341 C   0  0  0  0  0  0  0  0  0  0  0  0
    3.1830    3.9010   -0.7221 C   0  0  0  0  0  0  0  0  0  0  0  0
    2.5366    3.9332    1.6096 C   0  0  0  0  0  0  0  0  0  0  0  0
    3.0251    4.5968    0.4804 C   0  0  0  0  0  0  0  0  0  0  0  0
   -1.3329    1.2114   -0.0814 H   0  0  0  0  0  0  0  0  0  0  0  0
    0.5664    0.8457   -1.2806 H   0  0  0  0  0  0  0  0  0  0  0  0
    2.6960   -0.1001   -0.3853 H   0  0  0  0  0  0  0  0  0  0  0  0
    2.0377   -0.0660    1.2312 H   0  0  0  0  0  0  0  0  0  0  0  0
    2.9805    2.0158   -1.7350 H   0  0  0  0  0  0  0  0  0  0  0  0
    1.8307    2.0682    2.4186 H   0  0  0  0  0  0  0  0  0  0  0  0
    3.5695    4.4144   -1.5975 H   0  0  0  0  0  0  0  0  0  0  0  0
    2.4190    4.4683    2.5476 H   0  0  0  0  0  0  0  0  0  0  0  0
    3.2869    5.6495    0.5396 H   0  0  0  0  0  0  0  0  0  0  0  0
    0.6198   -1.5748   -2.1318 N   0  0  0  0  0  0  0  0  0  0  0  0
    0.4553   -2.9422   -2.6508 C   0  0  2  0  0  0  0  0  0  0  0  0
    1.5802   -3.8916   -2.1707 C   0  0  0  0  0  0  0  0  0  0  0  0
    2.3846   -4.3831   -2.9531 O   0  0  0  0  0  0  0  0  0  0  0  0
    0.3670   -2.8456   -4.1788 C   0  0  0  0  0  0  0  0  0  0  0  0
    1.1085   -0.9005   -2.7130 H   0  0  0  0  0  0  0  0  0  0  0  0
   -0.4915   -3.3592   -2.2905 H   0  0  0  0  0  0  0  0  0  0  0  0
    1.2939   -2.4378   -4.5947 H   0  0  0  0  0  0  0  0  0  0  0  0
    0.2022   -3.8379   -4.6109 H   0  0  0  0  0  0  0  0  0  0  0  0
   -0.4649   -2.1985   -4.4735 H   0  0  0  0  0  0  0  0  0  0  0  0
    1.6992   -4.1625   -0.8223 N   0  0  0  0  0  0  0  0  0  0  0  0
    2.7577   -4.9771   -0.2433 C   0  0  0  0  0  0  0  0  0  0  0  0
    1.0538   -3.6633   -0.2031 H   0  0  0  0  0  0  0  0  0  0  0  0
    2.7235   -5.9938   -0.6484 H   0  0  0  0  0  0  0  0  0  0  0  0
    3.7384   -4.5418   -0.4613 H   0  0  0  0  0  0  0  0  0  0  0  0
    2.6369   -5.0336    0.8429 H   0  0  0  0  0  0  0  0  0  0  0  0
  1  2  2  0  0  0  0
  1  3  1  0  0  0  0
  1  7  1  0  0  0  0
  3  4  1  0  0  0  0
  3  5  1  0  0  0  0
  3  6  1  0  0  0  0
  7  8  1  0  0  0  0
  7 12  1  0  0  0  0
  8  9  1  0  0  0  0
  8 11  1  0  0  0  0
  8 13  1  0  0  0  0
  9 10  2  0  0  0  0
  9 17  1  0  0  0  0
 11 14  1  0  0  0  0
 11 15  1  0  0  0  0
 11 16  1  0  0  0  0
 17 18  1  0  0  0  0
 17 28  1  0  0  0  0
 18 19  1  0  0  0  0
 18 21  1  0  0  0  0
 18 29  1  0  0  0  0
 19 20  2  0  0  0  0
 19 37  1  0  0  0  0
 21 22  1  0  0  0  0
 21 30  1  0  0  0  0
 21 31  1  0  0  0  0
 22 23  1  0  0  0  0
 22 24  2  0  0  0  0
 23 25  2  0  0  0  0
 23 32  1  0  0  0  0
 24 26  1  0  0  0  0
 24 33  1  0  0  0  0
 25 27  1  0  0  0  0
 25 34  1  0  0  0  0
 26 27  2  0  0  0  0
 26 35  1  0  0  0  0
 27 36  1  0  0  0  0
 37 38  1  0  0  0  0
 37 42  1  0  0  0  0
 38 39  1  0  0  0  0
 38 41  1  0  0  0  0
 38 43  1  0  0  0  0
 39 40  2  0  0  0  0
 39 47  1  0  0  0  0
 41 44  1  0  0  0  0
 41 45  1  0  0  0  0
 41 46  1  0  0  0  0
 47 48  1  0  0  0  0
 47 49  1  0  0  0  0
 48 50  1  0  0  0  0
 48 51  1  0  0  0  0
 48 52  1  0  0  0  0
M  END
$$$$

  -OEChem-05262217163D

 52 52  0     1  0  0  0  0  0999 V2000
   -3.5490    0.6718    4.2906 C   0  0  0  0  0  0  0  0  0  0  0  0
   -4.5209    1.1193    3.7021 O   0  0  0  0  0  0  0  0  0  0  0  0
   -3.7217   -0.0283    5.6251 C   0  0  0  0  0  0  0  0  0  0  0  0
   -4.7699    0.0049    5.9350 H   0  0  0  0  0  0  0  0  0  0  0  0
   -3.4121   -1.0728    5.5409 H   0  0  0  0  0  0  0  0  0  0  0  0
   -3.1132    0.4645    6.3870 H   0  0  0  0  0  0  0  0  0  0  0  0
   -2.2919    0.7940    3.7387 N   0  0  0  0  0  0  0  0  0  0  0  0
   -2.0289    1.2964    2.3846 C   0  0  2  0  0  0  0  0  0  0  0  0
   -0.7516    0.6745    1.7823 C   0  0  0  0  0  0  0  0  0  0  0  0
    0.0449    0.1152    2.5275 O   0  0  0  0  0  0  0  0  0  0  0  0
   -1.8975    2.8218    2.4485 C   0  0  0  0  0  0  0  0  0  0  0  0
   -1.5269    0.3014    4.1989 H   0  0  0  0  0  0  0  0  0  0  0  0
   -2.8644    1.0299    1.7280 H   0  0  0  0  0  0  0  0  0  0  0  0
   -1.0674    3.1064    3.1031 H   0  0  0  0  0  0  0  0  0  0  0  0
   -1.7132    3.2348    1.4521 H   0  0  0  0  0  0  0  0  0  0  0  0
   -2.8186    3.2657    2.8399 H   0  0  0  0  0  0  0  0  0  0  0  0
   -0.5457    0.7571    0.4135 N   0  0  0  0  0  0  0  0  0  0  0  0
    0.6131    0.2693   -0.3702 C   0  0  2  0  0  0  0  0  0  0  0  0
    0.4235   -1.1861   -0.8493 C   0  0  0  0  0  0  0  0  0  0  0  0
   -0.3212   -1.9656   -0.2667 O   0  0  0  0  0  0  0  0  0  0  0  0
    2.0095    0.4613    0.2644 C   0  0  0  0  0  0  0  0  0  0  0  0
    2.3559    1.9292    0.3511 C   0  0  0  0  0  0  0  0  0  0  0  0
    2.8530    2.6161   -0.7675 C   0  0  0  0  0  0  0  0  0  0  0  0
    2.1778    2.6276    1.5542 C   0  0  0  0  0  0  0  0  0  0  0  0
    3.1572    3.9794   -0.6854 C   0  0  0  0  0  0  0  0  0  0  0  0
    2.4795    3.9906    1.6377 C   0  0  0  0  0  0  0  0  0  0  0  0
    2.9689    4.6677    0.5170 C   0  0  0  0  0  0  0  0  0  0  0  0
   -1.3144    1.1661   -0.1092 H   0  0  0  0  0  0  0  0  0  0  0  0
    0.6183    0.8694   -1.2844 H   0  0  0  0  0  0  0  0  0  0  0  0
    2.7602   -0.0306   -0.3622 H   0  0  0  0  0  0  0  0  0  0  0  0
    2.0790   -0.0168    1.2442 H   0  0  0  0  0  0  0  0  0  0  0  0
    3.0079    2.0943   -1.7064 H   0  0  0  0  0  0  0  0  0  0  0  0
    1.8041    2.1080    2.4322 H   0  0  0  0  0  0  0  0  0  0  0  0
    3.5426    4.5042   -1.5547 H   0  0  0  0  0  0  0  0  0  0  0  0
    2.3364    4.5201    2.5751 H   0  0  0  0  0  0  0  0  0  0  0  0
    3.2066    5.7256    0.5825 H   0  0  0  0  0  0  0  0  0  0  0  0
    1.0126   -1.6107   -2.0280 N   0  0  0  0  0  0  0  0  0  0  0  0
    0.8861   -2.9779   -2.5587 C   0  0  2  0  0  0  0  0  0  0  0  0
    1.7582   -3.9935   -1.7800 C   0  0  0  0  0  0  0  0  0  0  0  0
    2.7046   -4.5650   -2.3079 O   0  0  0  0  0  0  0  0  0  0  0  0
    1.2239   -2.9230   -4.0541 C   0  0  0  0  0  0  0  0  0  0  0  0
    1.6975   -0.9951   -2.4563 H   0  0  0  0  0  0  0  0  0  0  0  0
   -0.1534   -3.3116   -2.4668 H   0  0  0  0  0  0  0  0  0  0  0  0
    2.2590   -2.6003   -4.2056 H   0  0  0  0  0  0  0  0  0  0  0  0
    1.1015   -3.9127   -4.5059 H   0  0  0  0  0  0  0  0  0  0  0  0
    0.5587   -2.2242   -4.5703 H   0  0  0  0  0  0  0  0  0  0  0  0
    1.4811   -4.2367   -0.4492 N   0  0  0  0  0  0  0  0  0  0  0  0
    2.2861   -5.0963    0.4072 C   0  0  0  0  0  0  0  0  0  0  0  0
    0.7398   -3.6665   -0.0315 H   0  0  0  0  0  0  0  0  0  0  0  0
    2.3392   -6.1085   -0.0068 H   0  0  0  0  0  0  0  0  0  0  0  0
    3.3018   -4.6989    0.5016 H   0  0  0  0  0  0  0  0  0  0  0  0
    1.8422   -5.1552    1.4056 H   0  0  0  0  0  0  0  0  0  0  0  0
  1  2  2  0  0  0  0
  1  3  1  0  0  0  0
  1  7  1  0  0  0  0
  3  4  1  0  0  0  0
  3  5  1  0  0  0  0
  3  6  1  0  0  0  0
  7  8  1  0  0  0  0
  7 12  1  0  0  0  0
  8  9  1  0  0  0  0
  8 11  1  0  0  0  0
  8 13  1  0  0  0  0
  9 10  2  0  0  0  0
  9 17  1  0  0  0  0
 11 14  1  0  0  0  0
 11 15  1  0  0  0  0
 11 16  1  0  0  0  0
 17 18  1  0  0  0  0
 17 28  1  0  0  0  0
 18 19  1  0  0  0  0
 18 21  1  0  0  0  0
 18 29  1  0  0  0  0
 19 20  2  0  0  0  0
 19 37  1  0  0  0  0
 21 22  1  0  0  0  0
 21 30  1  0  0  0  0
 21 31  1  0  0  0  0
 22 23  1  0  0  0  0
 22 24  2  0  0  0  0
 23 25  2  0  0  0  0
 23 32  1  0  0  0  0
 24 26  1  0  0  0  0
 24 33  1  0  0  0  0
 25 27  1  0  0  0  0
 25 34  1  0  0  0  0
 26 27  2  0  0  0  0
 26 35  1  0  0  0  0
 27 36  1  0  0  0  0
 37 38  1  0  0  0  0
 37 42  1  0  0  0  0
 38 39  1  0  0  0  0
 38 41  1  0  0  0  0
 38 43  1  0  0  0  0
 39 40  2  0  0  0  0
 39 47  1  0  0  0  0
 41 44  1  0  0  0  0
 41 45  1  0  0  0  0
 41 46  1  0  0  0  0
 47 48  1  0  0  0  0
 47 49  1  0  0  0  0
 48 50  1  0  0  0  0
 48 51  1  0  0  0  0
 48 52  1  0  0  0  0
M  END
$$$$

  -OEChem-05262217163D

 52 52  0     1  0  0  0  0  0999 V2000
   -3.5427    0.6147    4.2674 C   0  0  0  0  0  0  0  0  0  0  0  0
   -4.5226    1.0332    3.6709 O   0  0  0  0  0  0  0  0  0  0  0  0
   -3.7031   -0.0722    5.6105 C   0  0  0  0  0  0  0  0  0  0  0  0
   -4.7529   -0.0620    5.9167 H   0  0  0  0  0  0  0  0  0  0  0  0
   -3.3659   -1.1094    5.5413 H   0  0  0  0  0  0  0  0  0  0  0  0
   -3.1108    0.4465    6.3681 H   0  0  0  0  0  0  0  0  0  0  0  0
   -2.2867    0.7591    3.7183 N   0  0  0  0  0  0  0  0  0  0  0  0
   -2.0288    1.2540    2.3599 C   0  0  2  0  0  0  0  0  0  0  0  0
   -0.7331    0.6577    1.7699 C   0  0  0  0  0  0  0  0  0  0  0  0
    0.0597    0.0974    2.5186 O   0  0  0  0  0  0  0  0  0  0  0  0
   -1.9386    2.7833    2.4066 C   0  0  0  0  0  0  0  0  0  0  0  0
   -1.5135    0.2877    4.1869 H   0  0  0  0  0  0  0  0  0  0  0  0
   -2.8533    0.9595    1.7014 H   0  0  0  0  0  0  0  0  0  0  0  0
   -1.1170    3.0983    3.0577 H   0  0  0  0  0  0  0  0  0  0  0  0
   -1.7654    3.1903    1.4058 H   0  0  0  0  0  0  0  0  0  0  0  0
   -2.8713    3.2068    2.7930 H   0  0  0  0  0  0  0  0  0  0  0  0
   -0.5110    0.7468    0.4044 N   0  0  0  0  0  0  0  0  0  0  0  0
    0.6658    0.2811   -0.3665 C   0  0  2  0  0  0  0  0  0  0  0  0
    0.5066   -1.1778   -0.8512 C   0  0  0  0  0  0  0  0  0  0  0  0
   -0.4214   -1.8843   -0.4729 O   0  0  0  0  0  0  0  0  0  0  0  0
    2.0483    0.5115    0.2903 C   0  0  0  0  0  0  0  0  0  0  0  0
    2.3547    1.9878    0.3747 C   0  0  0  0  0  0  0  0  0  0  0  0
    2.8516    2.6810   -0.7403 C   0  0  0  0  0  0  0  0  0  0  0  0
    2.1427    2.6869    1.5719 C   0  0  0  0  0  0  0  0  0  0  0  0
    3.1189    4.0523   -0.6621 C   0  0  0  0  0  0  0  0  0  0  0  0
    2.4077    4.0577    1.6514 C   0  0  0  0  0  0  0  0  0  0  0  0
    2.8944    4.7416    0.5335 C   0  0  0  0  0  0  0  0  0  0  0  0
   -1.2889    1.1218   -0.1305 H   0  0  0  0  0  0  0  0  0  0  0  0
    0.6705    0.8768   -1.2838 H   0  0  0  0  0  0  0  0  0  0  0  0
    2.8256    0.0399   -0.3184 H   0  0  0  0  0  0  0  0  0  0  0  0
    2.1150    0.0410    1.2736 H   0  0  0  0  0  0  0  0  0  0  0  0
    3.0334    2.1584   -1.6740 H   0  0  0  0  0  0  0  0  0  0  0  0
    1.7714    2.1624    2.4482 H   0  0  0  0  0  0  0  0  0  0  0  0
    3.5034    4.5822   -1.5288 H   0  0  0  0  0  0  0  0  0  0  0  0
    2.2381    4.5885    2.5836 H   0  0  0  0  0  0  0  0  0  0  0  0
    3.1024    5.8059    0.5958 H   0  0  0  0  0  0  0  0  0  0  0  0
    1.3449   -1.6813   -1.8315 N   0  0  0  0  0  0  0  0  0  0  0  0
    1.2664   -3.0559   -2.3524 C   0  0  2  0  0  0  0  0  0  0  0  0
    1.8380   -4.0948   -1.3567 C   0  0  0  0  0  0  0  0  0  0  0  0
    2.8405   -4.7497   -1.6159 O   0  0  0  0  0  0  0  0  0  0  0  0
    1.9834   -3.0738   -3.7087 C   0  0  0  0  0  0  0  0  0  0  0  0
    2.1622   -1.1281   -2.0716 H   0  0  0  0  0  0  0  0  0  0  0  0
    0.2184   -3.3225   -2.5270 H   0  0  0  0  0  0  0  0  0  0  0  0
    3.0408   -2.8151   -3.5906 H   0  0  0  0  0  0  0  0  0  0  0  0
    1.9208   -4.0708   -4.1568 H   0  0  0  0  0  0  0  0  0  0  0  0
    1.5211   -2.3580   -4.3952 H   0  0  0  0  0  0  0  0  0  0  0  0
    1.2193   -4.2639   -0.1342 N   0  0  0  0  0  0  0  0  0  0  0  0
    1.7219   -5.1344    0.9191 C   0  0  0  0  0  0  0  0  0  0  0  0
    0.4411   -3.6300    0.0686 H   0  0  0  0  0  0  0  0  0  0  0  0
    1.7807   -6.1691    0.5658 H   0  0  0  0  0  0  0  0  0  0  0  0
    2.7185   -4.8125    1.2383 H   0  0  0  0  0  0  0  0  0  0  0  0
    1.0533   -5.1026    1.7847 H   0  0  0  0  0  0  0  0  0  0  0  0
  1  2  2  0  0  0  0
  1  3  1  0  0  0  0
  1  7  1  0  0  0  0
  3  4  1  0  0  0  0
  3  5  1  0  0  0  0
  3  6  1  0  0  0  0
  7  8  1  0  0  0  0
  7 12  1  0  0  0  0
  8  9  1  0  0  0  0
  8 11  1  0  0  0  0
  8 13  1  0  0  0  0
  9 10  2  0  0  0  0
  9 17  1  0  0  0  0
 11 14  1  0  0  0  0
 11 15  1  0  0  0  0
 11 16  1  0  0  0  0
 17 18  1  0  0  0  0
 17 28  1  0  0  0  0
 18 19  1  0  0  0  0
 18 21  1  0  0  0  0
 18 29  1  0  0  0  0
 19 20  2  0  0  0  0
 19 37  1  0  0  0  0
 21 22  1  0  0  0  0
 21 30  1  0  0  0  0
 21 31  1  0  0  0  0
 22 23  1  0  0  0  0
 22 24  2  0  0  0  0
 23 25  2  0  0  0  0
 23 32  1  0  0  0  0
 24 26  1  0  0  0  0
 24 33  1  0  0  0  0
 25 27  1  0  0  0  0
 25 34  1  0  0  0  0
 26 27  2  0  0  0  0
 26 35  1  0  0  0  0
 27 36  1  0  0  0  0
 37 38  1  0  0  0  0
 37 42  1  0  0  0  0
 38 39  1  0  0  0  0
 38 41  1  0  0  0  0
 38 43  1  0  0  0  0
 39 40  2  0  0  0  0
 39 47  1  0  0  0  0
 41 44  1  0  0  0  0
 41 45  1  0  0  0  0
 41 46  1  0  0  0  0
 47 48  1  0  0  0  0
 47 49  1  0  0  0  0
 48 50  1  0  0  0  0
 48 51  1  0  0  0  0
 48 52  1  0  0  0  0
M  END
$$$$

  -OEChem-05262217163D

 52 52  0     1  0  0  0  0  0999 V2000
   -3.6463    0.6390    4.2092 C   0  0  0  0  0  0  0  0  0  0  0  0
   -4.5809    1.1232    3.5906 O   0  0  0  0  0  0  0  0  0  0  0  0
   -3.8882   -0.0515    5.5382 C   0  0  0  0  0  0  0  0  0  0  0  0
   -4.9472    0.0056    5.8052 H   0  0  0  0  0  0  0  0  0  0  0  0
   -3.5980   -1.1027    5.4705 H   0  0  0  0  0  0  0  0  0  0  0  0
   -3.3010    0.4321    6.3224 H   0  0  0  0  0  0  0  0  0  0  0  0
   -2.3687    0.7115    3.6967 N   0  0  0  0  0  0  0  0  0  0  0  0
   -2.0421    1.2121    2.3550 C   0  0  2  0  0  0  0  0  0  0  0  0
   -0.7663    0.5523    1.7900 C   0  0  0  0  0  0  0  0  0  0  0  0
   -0.0511   -0.1029    2.5396 O   0  0  0  0  0  0  0  0  0  0  0  0
   -1.8624    2.7320    2.4317 C   0  0  0  0  0  0  0  0  0  0  0  0
   -1.6392    0.1881    4.1797 H   0  0  0  0  0  0  0  0  0  0  0  0
   -2.8631    0.9782    1.6684 H   0  0  0  0  0  0  0  0  0  0  0  0
   -1.0407    2.9867    3.1088 H   0  0  0  0  0  0  0  0  0  0  0  0
   -1.6393    3.1439    1.4429 H   0  0  0  0  0  0  0  0  0  0  0  0
   -2.7781    3.2045    2.8014 H   0  0  0  0  0  0  0  0  0  0  0  0
   -0.4992    0.6530    0.4347 N   0  0  0  0  0  0  0  0  0  0  0  0
    0.7098    0.2404   -0.3178 C   0  0  2  0  0  0  0  0  0  0  0  0
    0.4624   -1.0598   -1.1191 C   0  0  0  0  0  0  0  0  0  0  0  0
   -0.6566   -1.5585   -1.1800 O   0  0  0  0  0  0  0  0  0  0  0  0
    2.0631    0.2419    0.4407 C   0  0  0  0  0  0  0  0  0  0  0  0
    2.4771    1.6508    0.8055 C   0  0  0  0  0  0  0  0  0  0  0  0
    3.0952    2.4700   -0.1530 C   0  0  0  0  0  0  0  0  0  0  0  0
    2.2896    2.1523    2.1025 C   0  0  0  0  0  0  0  0  0  0  0  0
    3.4871    3.7737    0.1691 C   0  0  0  0  0  0  0  0  0  0  0  0
    2.6810    3.4551    2.4274 C   0  0  0  0  0  0  0  0  0  0  0  0
    3.2763    4.2685    1.4592 C   0  0  0  0  0  0  0  0  0  0  0  0
   -1.2578    1.0441   -0.1174 H   0  0  0  0  0  0  0  0  0  0  0  0
    0.8294    1.0009   -1.0948 H   0  0  0  0  0  0  0  0  0  0  0  0
    2.8472   -0.1770   -0.1959 H   0  0  0  0  0  0  0  0  0  0  0  0
    2.0238   -0.3976    1.3258 H   0  0  0  0  0  0  0  0  0  0  0  0
    3.2708    2.0993   -1.1580 H   0  0  0  0  0  0  0  0  0  0  0  0
    1.8448    1.5286    2.8714 H   0  0  0  0  0  0  0  0  0  0  0  0
    3.9579    4.4014   -0.5819 H   0  0  0  0  0  0  0  0  0  0  0  0
    2.5269    3.8309    3.4347 H   0  0  0  0  0  0  0  0  0  0  0  0
    3.5814    5.2799    1.7116 H   0  0  0  0  0  0  0  0  0  0  0  0
    1.4607   -1.6254   -1.8945 N   0  0  0  0  0  0  0  0  0  0  0  0
    1.2849   -2.8405   -2.7064 C   0  0  2  0  0  0  0  0  0  0  0  0
    1.2821   -4.1283   -1.8469 C   0  0  0  0  0  0  0  0  0  0  0  0
    2.1566   -4.9787   -1.9609 O   0  0  0  0  0  0  0  0  0  0  0  0
    2.3858   -2.8413   -3.7745 C   0  0  0  0  0  0  0  0  0  0  0  0
    2.4034   -1.2681   -1.7721 H   0  0  0  0  0  0  0  0  0  0  0  0
    0.3204   -2.7991   -3.2241 H   0  0  0  0  0  0  0  0  0  0  0  0
    3.3753   -2.8957   -3.3091 H   0  0  0  0  0  0  0  0  0  0  0  0
    2.2683   -3.7048   -4.4372 H   0  0  0  0  0  0  0  0  0  0  0  0
    2.3318   -1.9320   -4.3804 H   0  0  0  0  0  0  0  0  0  0  0  0
    0.2820   -4.3104   -0.9129 N   0  0  0  0  0  0  0  0  0  0  0  0
    0.2290   -5.4328    0.0132 C   0  0  0  0  0  0  0  0  0  0  0  0
   -0.3751   -3.5339   -0.7990 H   0  0  0  0  0  0  0  0  0  0  0  0
    0.2073   -6.3806   -0.5345 H   0  0  0  0  0  0  0  0  0  0  0  0
    1.1030   -5.4260    0.6726 H   0  0  0  0  0  0  0  0  0  0  0  0
   -0.6727   -5.3700    0.6297 H   0  0  0  0  0  0  0  0  0  0  0  0
  1  2  2  0  0  0  0
  1  3  1  0  0  0  0
  1  7  1  0  0  0  0
  3  4  1  0  0  0  0
  3  5  1  0  0  0  0
  3  6  1  0  0  0  0
  7  8  1  0  0  0  0
  7 12  1  0  0  0  0
  8  9  1  0  0  0  0
  8 11  1  0  0  0  0
  8 13  1  0  0  0  0
  9 10  2  0  0  0  0
  9 17  1  0  0  0  0
 11 14  1  0  0  0  0
 11 15  1  0  0  0  0
 11 16  1  0  0  0  0
 17 18  1  0  0  0  0
 17 28  1  0  0  0  0
 18 19  1  0  0  0  0
 18 21  1  0  0  0  0
 18 29  1  0  0  0  0
 19 20  2  0  0  0  0
 19 37  1  0  0  0  0
 21 22  1  0  0  0  0
 21 30  1  0  0  0  0
 21 31  1  0  0  0  0
 22 23  1  0  0  0  0
 22 24  2  0  0  0  0
 23 25  2  0  0  0  0
 23 32  1  0  0  0  0
 24 26  1  0  0  0  0
 24 33  1  0  0  0  0
 25 27  1  0  0  0  0
 25 34  1  0  0  0  0
 26 27  2  0  0  0  0
 26 35  1  0  0  0  0
 27 36  1  0  0  0  0
 37 38  1  0  0  0  0
 37 42  1  0  0  0  0
 38 39  1  0  0  0  0
 38 41  1  0  0  0  0
 38 43  1  0  0  0  0
 39 40  2  0  0  0  0
 39 47  1  0  0  0  0
 41 44  1  0  0  0  0
 41 45  1  0  0  0  0
 41 46  1  0  0  0  0
 47 48  1  0  0  0  0
 47 49  1  0  0  0  0
 48 50  1  0  0  0  0
 48 51  1  0  0  0  0
 48 52  1  0  0  0  0
M  END
$$$$

  -OEChem-05262217163D

 52 52  0     1  0  0  0  0  0999 V2000
   -3.6324    0.5616    4.1472 C   0  0  0  0  0  0  0  0  0  0  0  0
   -4.5789    0.9831    3.5018 O   0  0  0  0  0  0  0  0  0  0  0  0
   -3.8641   -0.1391    5.4724 C   0  0  0  0  0  0  0  0  0  0  0  0
   -4.9360   -0.2209    5.6736 H   0  0  0  0  0  0  0  0  0  0  0  0
   -3.4346   -1.1435    5.4442 H   0  0  0  0  0  0  0  0  0  0  0  0
   -3.3955    0.4283    6.2802 H   0  0  0  0  0  0  0  0  0  0  0  0
   -2.3489    0.7124    3.6683 N   0  0  0  0  0  0  0  0  0  0  0  0
   -2.0216    1.2028    2.3230 C   0  0  2  0  0  0  0  0  0  0  0  0
   -0.7308    0.5553    1.7796 C   0  0  0  0  0  0  0  0  0  0  0  0
   -0.0191   -0.0886    2.5422 O   0  0  0  0  0  0  0  0  0  0  0  0
   -1.8681    2.7258    2.3843 C   0  0  0  0  0  0  0  0  0  0  0  0
   -1.6058    0.2244    4.1675 H   0  0  0  0  0  0  0  0  0  0  0  0
   -2.8317    0.9484    1.6306 H   0  0  0  0  0  0  0  0  0  0  0  0
   -1.0557    3.0017    3.0642 H   0  0  0  0  0  0  0  0  0  0  0  0
   -1.6444    3.1304    1.3926 H   0  0  0  0  0  0  0  0  0  0  0  0
   -2.7949    3.1855    2.7421 H   0  0  0  0  0  0  0  0  0  0  0  0
   -0.4479    0.6397    0.4269 N   0  0  0  0  0  0  0  0  0  0  0  0
    0.7829    0.2472   -0.2988 C   0  0  2  0  0  0  0  0  0  0  0  0
    0.5570   -1.0762   -1.0704 C   0  0  0  0  0  0  0  0  0  0  0  0
   -0.5816   -1.4439   -1.3425 O   0  0  0  0  0  0  0  0  0  0  0  0
    2.1214    0.3045    0.4855 C   0  0  0  0  0  0  0  0  0  0  0  0
    2.4851    1.7332    0.8293 C   0  0  0  0  0  0  0  0  0  0  0  0
    3.0968    2.5567   -0.1300 C   0  0  0  0  0  0  0  0  0  0  0  0
    2.2505    2.2514    2.1124 C   0  0  0  0  0  0  0  0  0  0  0  0
    3.4360    3.8792    0.1775 C   0  0  0  0  0  0  0  0  0  0  0  0
    2.5878    3.5731    2.4216 C   0  0  0  0  0  0  0  0  0  0  0  0
    3.1772    4.3895    1.4526 C   0  0  0  0  0  0  0  0  0  0  0  0
   -1.1989    1.0215   -0.1424 H   0  0  0  0  0  0  0  0  0  0  0  0
    0.8987    0.9899   -1.0934 H   0  0  0  0  0  0  0  0  0  0  0  0
    2.9301   -0.0949   -0.1323 H   0  0  0  0  0  0  0  0  0  0  0  0
    2.0883   -0.3208    1.3809 H   0  0  0  0  0  0  0  0  0  0  0  0
    3.3095    2.1745   -1.1236 H   0  0  0  0  0  0  0  0  0  0  0  0
    1.8106    1.6258    2.8829 H   0  0  0  0  0  0  0  0  0  0  0  0
    3.9027    4.5101   -0.5734 H   0  0  0  0  0  0  0  0  0  0  0  0
    2.3964    3.9617    3.4176 H   0  0  0  0  0  0  0  0  0  0  0  0
    3.4402    5.4157    1.6927 H   0  0  0  0  0  0  0  0  0  0  0  0
    1.6082   -1.8229   -1.5757 N   0  0  0  0  0  0  0  0  0  0  0  0
    1.4397   -3.0717   -2.3377 C   0  0  2  0  0  0  0  0  0  0  0  0
    1.0832   -4.2781   -1.4338 C   0  0  0  0  0  0  0  0  0  0  0  0
    1.8068   -5.2641   -1.3623 O   0  0  0  0  0  0  0  0  0  0  0  0
    2.7254   -3.2909   -3.1447 C   0  0  0  0  0  0  0  0  0  0  0  0
    2.5431   -1.5797   -1.2621 H   0  0  0  0  0  0  0  0  0  0  0  0
    0.6171   -2.9557   -3.0517 H   0  0  0  0  0  0  0  0  0  0  0  0
    3.5822   -3.4274   -2.4770 H   0  0  0  0  0  0  0  0  0  0  0  0
    2.6308   -4.1838   -3.7711 H   0  0  0  0  0  0  0  0  0  0  0  0
    2.9195   -2.4329   -3.7954 H   0  0  0  0  0  0  0  0  0  0  0  0
   -0.0795   -4.2422   -0.6901 N   0  0  0  0  0  0  0  0  0  0  0  0
   -0.5164   -5.3110    0.1971 C   0  0  0  0  0  0  0  0  0  0  0  0
   -0.6333   -3.3844   -0.7570 H   0  0  0  0  0  0  0  0  0  0  0  0
   -0.7114   -6.2247   -0.3741 H   0  0  0  0  0  0  0  0  0  0  0  0
    0.2489   -5.5220    0.9513 H   0  0  0  0  0  0  0  0  0  0  0  0
   -1.4375   -5.0206    0.7118 H   0  0  0  0  0  0  0  0  0  0  0  0
  1  2  2  0  0  0  0
  1  3  1  0  0  0  0
  1  7  1  0  0  0  0
  3  4  1  0  0  0  0
  3  5  1  0  0  0  0
  3  6  1  0  0  0  0
  7  8  1  0  0  0  0
  7 12  1  0  0  0  0
  8  9  1  0  0  0  0
  8 11  1  0  0  0  0
  8 13  1  0  0  0  0
  9 10  2  0  0  0  0
  9 17  1  0  0  0  0
 11 14  1  0  0  0  0
 11 15  1  0  0  0  0
 11 16  1  0  0  0  0
 17 18  1  0  0  0  0
 17 28  1  0  0  0  0
 18 19  1  0  0  0  0
 18 21  1  0  0  0  0
 18 29  1  0  0  0  0
 19 20  2  0  0  0  0
 19 37  1  0  0  0  0
 21 22  1  0  0  0  0
 21 30  1  0  0  0  0
 21 31  1  0  0  0  0
 22 23  1  0  0  0  0
 22 24  2  0  0  0  0
 23 25  2  0  0  0  0
 23 32  1  0  0  0  0
 24 26  1  0  0  0  0
 24 33  1  0  0  0  0
 25 27  1  0  0  0  0
 25 34  1  0  0  0  0
 26 27  2  0  0  0  0
 26 35  1  0  0  0  0
 27 36  1  0  0  0  0
 37 38  1  0  0  0  0
 37 42  1  0  0  0  0
 38 39  1  0  0  0  0
 38 41  1  0  0  0  0
 38 43  1  0  0  0  0
 39 40  2  0  0  0  0
 39 47  1  0  0  0  0
 41 44  1  0  0  0  0
 41 45  1  0  0  0  0
 41 46  1  0  0  0  0
 47 48  1  0  0  0  0
 47 49  1  0  0  0  0
 48 50  1  0  0  0  0
 48 51  1  0  0  0  0
 48 52  1  0  0  0  0
M  END
$$$$

  -OEChem-05262217163D

 52 52  0     1  0  0  0  0  0999 V2000
   -3.6551    0.5772    4.1216 C   0  0  0  0  0  0  0  0  0  0  0  0
   -4.5867    1.0073    3.4602 O   0  0  0  0  0  0  0  0  0  0  0  0
   -3.9151   -0.1051    5.4512 C   0  0  0  0  0  0  0  0  0  0  0  0
   -4.9909   -0.1779    5.6337 H   0  0  0  0  0  0  0  0  0  0  0  0
   -3.4909   -1.1122    5.4437 H   0  0  0  0  0  0  0  0  0  0  0  0
   -3.4581    0.4697    6.2604 H   0  0  0  0  0  0  0  0  0  0  0  0
   -2.3634    0.7024    3.6569 N   0  0  0  0  0  0  0  0  0  0  0  0
   -2.0111    1.1923    2.3179 C   0  0  2  0  0  0  0  0  0  0  0  0
   -0.7210    0.5328    1.7866 C   0  0  0  0  0  0  0  0  0  0  0  0
   -0.0087   -0.0993    2.5583 O   0  0  0  0  0  0  0  0  0  0  0  0
   -1.8415    2.7133    2.3876 C   0  0  0  0  0  0  0  0  0  0  0  0
   -1.6316    0.2155    4.1733 H   0  0  0  0  0  0  0  0  0  0  0  0
   -2.8149    0.9498    1.6142 H   0  0  0  0  0  0  0  0  0  0  0  0
   -1.0408    2.9779    3.0856 H   0  0  0  0  0  0  0  0  0  0  0  0
   -1.5923    3.1191    1.4024 H   0  0  0  0  0  0  0  0  0  0  0  0
   -2.7702    3.1824    2.7281 H   0  0  0  0  0  0  0  0  0  0  0  0
   -0.4326    0.5992    0.4343 N   0  0  0  0  0  0  0  0  0  0  0  0
    0.8110    0.2220   -0.2760 C   0  0  2  0  0  0  0  0  0  0  0  0
    0.6131   -1.1189   -1.0209 C   0  0  0  0  0  0  0  0  0  0  0  0
   -0.4829   -1.3875   -1.5022 O   0  0  0  0  0  0  0  0  0  0  0  0
    2.1430    0.3263    0.5123 C   0  0  0  0  0  0  0  0  0  0  0  0
    2.4705    1.7692    0.8289 C   0  0  0  0  0  0  0  0  0  0  0  0
    3.0670    2.5885   -0.1435 C   0  0  0  0  0  0  0  0  0  0  0  0
    2.2168    2.3051    2.1007 C   0  0  0  0  0  0  0  0  0  0  0  0
    3.3763    3.9231    0.1415 C   0  0  0  0  0  0  0  0  0  0  0  0
    2.5255    3.6388    2.3878 C   0  0  0  0  0  0  0  0  0  0  0  0
    3.1017    4.4501    1.4066 C   0  0  0  0  0  0  0  0  0  0  0  0
   -1.1750    0.9850   -0.1436 H   0  0  0  0  0  0  0  0  0  0  0  0
    0.9158    0.9497   -1.0860 H   0  0  0  0  0  0  0  0  0  0  0  0
    2.9622   -0.0642   -0.0981 H   0  0  0  0  0  0  0  0  0  0  0  0
    2.1215   -0.2818    1.4199 H   0  0  0  0  0  0  0  0  0  0  0  0
    3.2902    2.1931   -1.1299 H   0  0  0  0  0  0  0  0  0  0  0  0
    1.7843    1.6843    2.8793 H   0  0  0  0  0  0  0  0  0  0  0  0
    3.8323    4.5503   -0.6189 H   0  0  0  0  0  0  0  0  0  0  0  0
    2.3225    4.0410    3.3761 H   0  0  0  0  0  0  0  0  0  0  0  0
    3.3423    5.4855    1.6298 H   0  0  0  0  0  0  0  0  0  0  0  0
    1.6522   -2.0066   -1.2429 N   0  0  0  0  0  0  0  0  0  0  0  0
    1.5074   -3.2820   -1.9636 C   0  0  2  0  0  0  0  0  0  0  0  0
    0.8356   -4.3802   -1.1025 C   0  0  0  0  0  0  0  0  0  0  0  0
    1.4116   -5.4263   -0.8294 O   0  0  0  0  0  0  0  0  0  0  0  0
    2.9013   -3.6826   -2.4631 C   0  0  0  0  0  0  0  0  0  0  0  0
    2.5114   -1.8491   -0.7243 H   0  0  0  0  0  0  0  0  0  0  0  0
    0.8710   -3.1342   -2.8430 H   0  0  0  0  0  0  0  0  0  0  0  0
    3.5791   -3.8544   -1.6210 H   0  0  0  0  0  0  0  0  0  0  0  0
    2.8419   -4.6035   -3.0521 H   0  0  0  0  0  0  0  0  0  0  0  0
    3.3203   -2.8950   -3.0968 H   0  0  0  0  0  0  0  0  0  0  0  0
   -0.4448   -4.1739   -0.6288 N   0  0  0  0  0  0  0  0  0  0  0  0
   -1.1633   -5.1139    0.2203 C   0  0  0  0  0  0  0  0  0  0  0  0
   -0.8663   -3.2674   -0.8469 H   0  0  0  0  0  0  0  0  0  0  0  0
   -1.2907   -6.0727   -0.2928 H   0  0  0  0  0  0  0  0  0  0  0  0
   -0.6167   -5.2826    1.1538 H   0  0  0  0  0  0  0  0  0  0  0  0
   -2.1538   -4.7187    0.4653 H   0  0  0  0  0  0  0  0  0  0  0  0
  1  2  2  0  0  0  0
  1  3  1  0  0  0  0
  1  7  1  0  0  0  0
  3  4  1  0  0  0  0
  3  5  1  0  0  0  0
  3  6  1  0  0  0  0
  7  8  1  0  0  0  0
  7 12  1  0  0  0  0
  8  9  1  0  0  0  0
  8 11  1  0  0  0  0
  8 13  1  0  0  0  0
  9 10  2  0  0  0  0
  9 17  1  0  0  0  0
 11 14  1  0  0  0  0
 11 15  1  0  0  0  0
 11 16  1  0  0  0  0
 17 18  1  0  0  0  0
 17 28  1  0  0  0  0
 18 19  1  0  0  0  0
 18 21  1  0  0  0  0
 18 29  1  0  0  0  0
 19 20  2  0  0  0  0
 19 37  1  0  0  0  0
 21 22  1  0  0  0  0
 21 30  1  0  0  0  0
 21 31  1  0  0  0  0
 22 23  1  0  0  0  0
 22 24  2  0  0  0  0
 23 25  2  0  0  0  0
 23 32  1  0  0  0  0
 24 26  1  0  0  0  0
 24 33  1  0  0  0  0
 25 27  1  0  0  0  0
 25 34  1  0  0  0  0
 26 27  2  0  0  0  0
 26 35  1  0  0  0  0
 27 36  1  0  0  0  0
 37 38  1  0  0  0  0
 37 42  1  0  0  0  0
 38 39  1  0  0  0  0
 38 41  1  0  0  0  0
 38 43  1  0  0  0  0
 39 40  2  0  0  0  0
 39 47  1  0  0  0  0
 41 44  1  0  0  0  0
 41 45  1  0  0  0  0
 41 46  1  0  0  0  0
 47 48  1  0  0  0  0
 47 49  1  0  0  0  0
 48 50  1  0  0  0  0
 48 51  1  0  0  0  0
 48 52  1  0  0  0  0
M  END
$$$$

  -OEChem-05262217163D

 52 52  0     1  0  0  0  0  0999 V2000
   -3.6435    0.6202    4.1259 C   0  0  0  0  0  0  0  0  0  0  0  0
   -4.5734    1.0502    3.4624 O   0  0  0  0  0  0  0  0  0  0  0  0
   -3.9047   -0.0437    5.4650 C   0  0  0  0  0  0  0  0  0  0  0  0
   -4.9810   -0.1153    5.6467 H   0  0  0  0  0  0  0  0  0  0  0  0
   -3.4792   -1.0502    5.4729 H   0  0  0  0  0  0  0  0  0  0  0  0
   -3.4499    0.5433    6.2667 H   0  0  0  0  0  0  0  0  0  0  0  0
   -2.3525    0.7304    3.6552 N   0  0  0  0  0  0  0  0  0  0  0  0
   -2.0016    1.1966    2.3071 C   0  0  2  0  0  0  0  0  0  0  0  0
   -0.7267    0.5083    1.7766 C   0  0  0  0  0  0  0  0  0  0  0  0
   -0.0233   -0.1325    2.5494 O   0  0  0  0  0  0  0  0  0  0  0  0
   -1.8042    2.7149    2.3548 C   0  0  0  0  0  0  0  0  0  0  0  0
   -1.6236    0.2428    4.1747 H   0  0  0  0  0  0  0  0  0  0  0  0
   -2.8145    0.9595    1.6122 H   0  0  0  0  0  0  0  0  0  0  0  0
   -0.9948    2.9747    3.0445 H   0  0  0  0  0  0  0  0  0  0  0  0
   -1.5531    3.1021    1.3626 H   0  0  0  0  0  0  0  0  0  0  0  0
   -2.7222    3.2057    2.6934 H   0  0  0  0  0  0  0  0  0  0  0  0
   -0.4365    0.5571    0.4240 N   0  0  0  0  0  0  0  0  0  0  0  0
    0.8219    0.1945   -0.2654 C   0  0  2  0  0  0  0  0  0  0  0  0
    0.6530   -1.1646   -0.9791 C   0  0  0  0  0  0  0  0  0  0  0  0
   -0.3455   -1.3630   -1.6631 O   0  0  0  0  0  0  0  0  0  0  0  0
    2.1444    0.3378    0.5316 C   0  0  0  0  0  0  0  0  0  0  0  0
    2.4417    1.7914    0.8281 C   0  0  0  0  0  0  0  0  0  0  0  0
    3.0308    2.6093   -0.1497 C   0  0  0  0  0  0  0  0  0  0  0  0
    2.1584    2.3410    2.0877 C   0  0  0  0  0  0  0  0  0  0  0  0
    3.3073    3.9547    0.1187 C   0  0  0  0  0  0  0  0  0  0  0  0
    2.4324    3.6858    2.3581 C   0  0  0  0  0  0  0  0  0  0  0  0
    3.0046    4.4946    1.3721 C   0  0  0  0  0  0  0  0  0  0  0  0
   -1.1555    0.9827   -0.1558 H   0  0  0  0  0  0  0  0  0  0  0  0
    0.9209    0.9069   -1.0899 H   0  0  0  0  0  0  0  0  0  0  0  0
    2.9724   -0.0483   -0.0710 H   0  0  0  0  0  0  0  0  0  0  0  0
    2.1301   -0.2553    1.4493 H   0  0  0  0  0  0  0  0  0  0  0  0
    3.2745    2.2039   -1.1270 H   0  0  0  0  0  0  0  0  0  0  0  0
    1.7280    1.7214    2.8686 H   0  0  0  0  0  0  0  0  0  0  0  0
    3.7597    4.5801   -0.6455 H   0  0  0  0  0  0  0  0  0  0  0  0
    2.2054    4.0994    3.3366 H   0  0  0  0  0  0  0  0  0  0  0  0
    3.2197    5.5385    1.5822 H   0  0  0  0  0  0  0  0  0  0  0  0
    1.6110   -2.1617   -0.9118 N   0  0  0  0  0  0  0  0  0  0  0  0
    1.4833   -3.4731   -1.5683 C   0  0  2  0  0  0  0  0  0  0  0  0
    0.5219   -4.4276   -0.8174 C   0  0  0  0  0  0  0  0  0  0  0  0
    0.9084   -5.4899   -0.3449 O   0  0  0  0  0  0  0  0  0  0  0  0
    2.8976   -4.0483   -1.7155 C   0  0  0  0  0  0  0  0  0  0  0  0
    2.3357   -2.0509   -0.2078 H   0  0  0  0  0  0  0  0  0  0  0  0
    1.0746   -3.3378   -2.5754 H   0  0  0  0  0  0  0  0  0  0  0  0
    3.3514   -4.2131   -0.7329 H   0  0  0  0  0  0  0  0  0  0  0  0
    2.8633   -5.0061   -2.2448 H   0  0  0  0  0  0  0  0  0  0  0  0
    3.5318   -3.3622   -2.2852 H   0  0  0  0  0  0  0  0  0  0  0  0
   -0.8063   -4.0753   -0.6828 N   0  0  0  0  0  0  0  0  0  0  0  0
   -1.7930   -4.8725    0.0329 C   0  0  0  0  0  0  0  0  0  0  0  0
   -1.0683   -3.1554   -1.0462 H   0  0  0  0  0  0  0  0  0  0  0  0
   -1.8611   -5.8762   -0.3996 H   0  0  0  0  0  0  0  0  0  0  0  0
   -1.5203   -4.9608    1.0896 H   0  0  0  0  0  0  0  0  0  0  0  0
   -2.7781   -4.4011   -0.0333 H   0  0  0  0  0  0  0  0  0  0  0  0
  1  2  2  0  0  0  0
  1  3  1  0  0  0  0
  1  7  1  0  0  0  0
  3  4  1  0  0  0  0
  3  5  1  0  0  0  0
  3  6  1  0  0  0  0
  7  8  1  0  0  0  0
  7 12  1  0  0  0  0
  8  9  1  0  0  0  0
  8 11  1  0  0  0  0
  8 13  1  0  0  0  0
  9 10  2  0  0  0  0
  9 17  1  0  0  0  0
 11 14  1  0  0  0  0
 11 15  1  0  0  0  0
 11 16  1  0  0  0  0
 17 18  1  0  0  0  0
 17 28  1  0  0  0  0
 18 19  1  0  0  0  0
 18 21  1  0  0  0  0
 18 29  1  0  0  0  0
 19 20  2  0  0  0  0
 19 37  1  0  0  0  0
 21 22  1  0  0  0  0
 21 30  1  0  0  0  0
 21 31  1  0  0  0  0
 22 23  1  0  0  0  0
 22 24  2  0  0  0  0
 23 25  2  0  0  0  0
 23 32  1  0  0  0  0
 24 26  1  0  0  0  0
 24 33  1  0  0  0  0
 25 27  1  0  0  0  0
 25 34  1  0  0  0  0
 26 27  2  0  0  0  0
 26 35  1  0  0  0  0
 27 36  1  0  0  0  0
 37 38  1  0  0  0  0
 37 42  1  0  0  0  0
 38 39  1  0  0  0  0
 38 41  1  0  0  0  0
 38 43  1  0  0  0  0
 39 40  2  0  0  0  0
 39 47  1  0  0  0  0
 41 44  1  0  0  0  0
 41 45  1  0  0  0  0
 41 46  1  0  0  0  0
 47 48  1  0  0  0  0
 47 49  1  0  0  0  0
 48 50  1  0  0  0  0
 48 51  1  0  0  0  0
 48 52  1  0  0  0  0
M  END
$$$$

  -OEChem-05262217163D

 52 52  0     1  0  0  0  0  0999 V2000
   -3.6449    0.7009    4.1418 C   0  0  0  0  0  0  0  0  0  0  0  0
   -4.5622    1.1664    3.4846 O   0  0  0  0  0  0  0  0  0  0  0  0
   -3.9184    0.0670    5.4927 C   0  0  0  0  0  0  0  0  0  0  0  0
   -4.9911    0.0791    5.7053 H   0  0  0  0  0  0  0  0  0  0  0  0
   -3.5705   -0.9689    5.4962 H   0  0  0  0  0  0  0  0  0  0  0  0
   -3.3976    0.6220    6.2768 H   0  0  0  0  0  0  0  0  0  0  0  0
   -2.3562    0.7457    3.6540 N   0  0  0  0  0  0  0  0  0  0  0  0
   -1.9973    1.1992    2.3038 C   0  0  2  0  0  0  0  0  0  0  0  0
   -0.7408    0.4783    1.7728 C   0  0  0  0  0  0  0  0  0  0  0  0
   -0.0439   -0.1701    2.5455 O   0  0  0  0  0  0  0  0  0  0  0  0
   -1.7621    2.7128    2.3454 C   0  0  0  0  0  0  0  0  0  0  0  0
   -1.6420    0.2350    4.1718 H   0  0  0  0  0  0  0  0  0  0  0  0
   -2.8181    0.9796    1.6122 H   0  0  0  0  0  0  0  0  0  0  0  0
   -0.9454    2.9548    3.0327 H   0  0  0  0  0  0  0  0  0  0  0  0
   -1.5033    3.0906    1.3516 H   0  0  0  0  0  0  0  0  0  0  0  0
   -2.6672    3.2274    2.6838 H   0  0  0  0  0  0  0  0  0  0  0  0
   -0.4551    0.5083    0.4188 N   0  0  0  0  0  0  0  0  0  0  0  0
    0.8129    0.1565   -0.2567 C   0  0  2  0  0  0  0  0  0  0  0  0
    0.6745   -1.2168   -0.9411 C   0  0  0  0  0  0  0  0  0  0  0  0
   -0.1758   -1.3700   -1.8109 O   0  0  0  0  0  0  0  0  0  0  0  0
    2.1315    0.3281    0.5386 C   0  0  0  0  0  0  0  0  0  0  0  0
    2.4058    1.7886    0.8144 C   0  0  0  0  0  0  0  0  0  0  0  0
    2.9828    2.5998   -0.1751 C   0  0  0  0  0  0  0  0  0  0  0  0
    2.1144    2.3498    2.0669 C   0  0  0  0  0  0  0  0  0  0  0  0
    3.2357    3.9531    0.0736 C   0  0  0  0  0  0  0  0  0  0  0  0
    2.3666    3.7025    2.3176 C   0  0  0  0  0  0  0  0  0  0  0  0
    2.9237    4.5062    1.3189 C   0  0  0  0  0  0  0  0  0  0  0  0
   -1.1527    0.9724   -0.1576 H   0  0  0  0  0  0  0  0  0  0  0  0
    0.9035    0.8563   -1.0934 H   0  0  0  0  0  0  0  0  0  0  0  0
    2.9624   -0.0609   -0.0591 H   0  0  0  0  0  0  0  0  0  0  0  0
    2.1237   -0.2490    1.4662 H   0  0  0  0  0  0  0  0  0  0  0  0
    3.2326    2.1833   -1.1465 H   0  0  0  0  0  0  0  0  0  0  0  0
    1.6946    1.7336    2.8567 H   0  0  0  0  0  0  0  0  0  0  0  0
    3.6766    4.5744   -0.7005 H   0  0  0  0  0  0  0  0  0  0  0  0
    2.1341    4.1258    3.2905 H   0  0  0  0  0  0  0  0  0  0  0  0
    3.1206    5.5567    1.5123 H   0  0  0  0  0  0  0  0  0  0  0  0
    1.4876   -2.2856   -0.6069 N   0  0  0  0  0  0  0  0  0  0  0  0
    1.3680   -3.6270   -1.2003 C   0  0  2  0  0  0  0  0  0  0  0  0
    0.1692   -4.4257   -0.6318 C   0  0  0  0  0  0  0  0  0  0  0  0
    0.3245   -5.4779   -0.0237 O   0  0  0  0  0  0  0  0  0  0  0  0
    2.7104   -4.3396   -0.9933 C   0  0  0  0  0  0  0  0  0  0  0  0
    2.0257   -2.1913    0.2511 H   0  0  0  0  0  0  0  0  0  0  0  0
    1.2053   -3.5332   -2.2792 H   0  0  0  0  0  0  0  0  0  0  0  0
    2.9149   -4.4750    0.0737 H   0  0  0  0  0  0  0  0  0  0  0  0
    2.6926   -5.3253   -1.4691 H   0  0  0  0  0  0  0  0  0  0  0  0
    3.5244   -3.7575   -1.4359 H   0  0  0  0  0  0  0  0  0  0  0  0
   -1.1091   -3.9394   -0.8204 N   0  0  0  0  0  0  0  0  0  0  0  0
   -2.3104   -4.5719   -0.2945 C   0  0  0  0  0  0  0  0  0  0  0  0
   -1.1800   -3.0291   -1.2821 H   0  0  0  0  0  0  0  0  0  0  0  0
   -2.3902   -5.6025   -0.6561 H   0  0  0  0  0  0  0  0  0  0  0  0
   -2.2897   -4.5818    0.8002 H   0  0  0  0  0  0  0  0  0  0  0  0
   -3.1988   -4.0224   -0.6208 H   0  0  0  0  0  0  0  0  0  0  0  0
  1  2  2  0  0  0  0
  1  3  1  0  0  0  0
  1  7  1  0  0  0  0
  3  4  1  0  0  0  0
  3  5  1  0  0  0  0
  3  6  1  0  0  0  0
  7  8  1  0  0  0  0
  7 12  1  0  0  0  0
  8  9  1  0  0  0  0
  8 11  1  0  0  0  0
  8 13  1  0  0  0  0
  9 10  2  0  0  0  0
  9 17  1  0  0  0  0
 11 14  1  0  0  0  0
 11 15  1  0  0  0  0
 11 16  1  0  0  0  0
 17 18  1  0  0  0  0
 17 28  1  0  0  0  0
 18 19  1  0  0  0  0
 18 21  1  0  0  0  0
 18 29  1  0  0  0  0
 19 20  2  0  0  0  0
 19 37  1  0  0  0  0
 21 22  1  0  0  0  0
 21 30  1  0  0  0  0
 21 31  1  0  0  0  0
 22 23  1  0  0  0  0
 22 24  2  0  0  0  0
 23 25  2  0  0  0  0
 23 32  1  0  0  0  0
 24 26  1  0  0  0  0
 24 33  1  0  0  0  0
 25 27  1  0  0  0  0
 25 34  1  0  0  0  0
 26 27  2  0  0  0  0
 26 35  1  0  0  0  0
 27 36  1  0  0  0  0
 37 38  1  0  0  0  0
 37 42  1  0  0  0  0
 38 39  1  0  0  0  0
 38 41  1  0  0  0  0
 38 43  1  0  0  0  0
 39 40  2  0  0  0  0
 39 47  1  0  0  0  0
 41 44  1  0  0  0  0
 41 45  1  0  0  0  0
 41 46  1  0  0  0  0
 47 48  1  0  0  0  0
 47 49  1  0  0  0  0
 48 50  1  0  0  0  0
 48 51  1  0  0  0  0
 48 52  1  0  0  0  0
M  END
$$$$

  -OEChem-05262217163D

 52 52  0     1  0  0  0  0  0999 V2000
   -3.6276    0.7846    4.1706 C   0  0  0  0  0  0  0  0  0  0  0  0
   -4.5388    1.2746    3.5226 O   0  0  0  0  0  0  0  0  0  0  0  0
   -3.9016    0.1696    5.5299 C   0  0  0  0  0  0  0  0  0  0  0  0
   -4.9644    0.2521    5.7743 H   0  0  0  0  0  0  0  0  0  0  0  0
   -3.6230   -0.8870    5.5246 H   0  0  0  0  0  0  0  0  0  0  0  0
   -3.3220    0.6884    6.2975 H   0  0  0  0  0  0  0  0  0  0  0  0
   -2.3456    0.7827    3.6635 N   0  0  0  0  0  0  0  0  0  0  0  0
   -1.9909    1.2148    2.3053 C   0  0  2  0  0  0  0  0  0  0  0  0
   -0.7553    0.4625    1.7688 C   0  0  0  0  0  0  0  0  0  0  0  0
   -0.0687   -0.2026    2.5368 O   0  0  0  0  0  0  0  0  0  0  0  0
   -1.7236    2.7232    2.3295 C   0  0  0  0  0  0  0  0  0  0  0  0
   -1.6398    0.2573    4.1783 H   0  0  0  0  0  0  0  0  0  0  0  0
   -2.8231    1.0054    1.6243 H   0  0  0  0  0  0  0  0  0  0  0  0
   -0.9008    2.9554    3.0131 H   0  0  0  0  0  0  0  0  0  0  0  0
   -1.4585    3.0847    1.3314 H   0  0  0  0  0  0  0  0  0  0  0  0
   -2.6165    3.2609    2.6641 H   0  0  0  0  0  0  0  0  0  0  0  0
   -0.4782    0.4716    0.4129 N   0  0  0  0  0  0  0  0  0  0  0  0
    0.7971    0.1234   -0.2496 C   0  0  2  0  0  0  0  0  0  0  0  0
    0.6792   -1.2648   -0.9016 C   0  0  0  0  0  0  0  0  0  0  0  0
    0.0221   -1.3975   -1.9276 O   0  0  0  0  0  0  0  0  0  0  0  0
    2.1126    0.3176    0.5451 C   0  0  0  0  0  0  0  0  0  0  0  0
    2.3737    1.7844    0.8003 C   0  0  0  0  0  0  0  0  0  0  0  0
    2.9456    2.5866   -0.1995 C   0  0  0  0  0  0  0  0  0  0  0  0
    2.0688    2.3621    2.0419 C   0  0  0  0  0  0  0  0  0  0  0  0
    3.1851    3.9460    0.0299 C   0  0  0  0  0  0  0  0  0  0  0  0
    2.3054    3.7214    2.2724 C   0  0  0  0  0  0  0  0  0  0  0  0
    2.8618    4.5149    1.2652 C   0  0  0  0  0  0  0  0  0  0  0  0
   -1.1548    0.9708   -0.1593 H   0  0  0  0  0  0  0  0  0  0  0  0
    0.8846    0.8085   -1.0990 H   0  0  0  0  0  0  0  0  0  0  0  0
    2.9445   -0.0779   -0.0473 H   0  0  0  0  0  0  0  0  0  0  0  0
    2.1109   -0.2448    1.4817 H   0  0  0  0  0  0  0  0  0  0  0  0
    3.2047    2.1572   -1.1628 H   0  0  0  0  0  0  0  0  0  0  0  0
    1.6505    1.7535    2.8383 H   0  0  0  0  0  0  0  0  0  0  0  0
    3.6248    4.5597   -0.7509 H   0  0  0  0  0  0  0  0  0  0  0  0
    2.0620    4.1586    3.2364 H   0  0  0  0  0  0  0  0  0  0  0  0
    3.0492    5.5698    1.4444 H   0  0  0  0  0  0  0  0  0  0  0  0
    1.2810   -2.3741   -0.3364 N   0  0  0  0  0  0  0  0  0  0  0  0
    1.1504   -3.7403   -0.8662 C   0  0  2  0  0  0  0  0  0  0  0  0
   -0.2246   -4.3779   -0.5463 C   0  0  0  0  0  0  0  0  0  0  0  0
   -0.3240   -5.3884    0.1393 O   0  0  0  0  0  0  0  0  0  0  0  0
    2.3273   -4.5548   -0.3147 C   0  0  0  0  0  0  0  0  0  0  0  0
    1.6142   -2.2628    0.6189 H   0  0  0  0  0  0  0  0  0  0  0  0
    1.2445   -3.7172   -1.9572 H   0  0  0  0  0  0  0  0  0  0  0  0
    2.2777   -4.6135    0.7774 H   0  0  0  0  0  0  0  0  0  0  0  0
    2.3050   -5.5727   -0.7170 H   0  0  0  0  0  0  0  0  0  0  0  0
    3.2774   -4.0927   -0.5987 H   0  0  0  0  0  0  0  0  0  0  0  0
   -1.3691   -3.7963   -1.0543 N   0  0  0  0  0  0  0  0  0  0  0  0
   -2.7172   -4.2755   -0.7835 C   0  0  0  0  0  0  0  0  0  0  0  0
   -1.2385   -2.9232   -1.5715 H   0  0  0  0  0  0  0  0  0  0  0  0
   -2.8178   -5.3248   -1.0800 H   0  0  0  0  0  0  0  0  0  0  0  0
   -2.9471   -4.1863    0.2832 H   0  0  0  0  0  0  0  0  0  0  0  0
   -3.4471   -3.6870   -1.3478 H   0  0  0  0  0  0  0  0  0  0  0  0
  1  2  2  0  0  0  0
  1  3  1  0  0  0  0
  1  7  1  0  0  0  0
  3  4  1  0  0  0  0
  3  5  1  0  0  0  0
  3  6  1  0  0  0  0
  7  8  1  0  0  0  0
  7 12  1  0  0  0  0
  8  9  1  0  0  0  0
  8 11  1  0  0  0  0
  8 13  1  0  0  0  0
  9 10  2  0  0  0  0
  9 17  1  0  0  0  0
 11 14  1  0  0  0  0
 11 15  1  0  0  0  0
 11 16  1  0  0  0  0
 17 18  1  0  0  0  0
 17 28  1  0  0  0  0
 18 19  1  0  0  0  0
 18 21  1  0  0  0  0
 18 29  1  0  0  0  0
 19 20  2  0  0  0  0
 19 37  1  0  0  0  0
 21 22  1  0  0  0  0
 21 30  1  0  0  0  0
 21 31  1  0  0  0  0
 22 23  1  0  0  0  0
 22 24  2  0  0  0  0
 23 25  2  0  0  0  0
 23 32  1  0  0  0  0
 24 26  1  0  0  0  0
 24 33  1  0  0  0  0
 25 27  1  0  0  0  0
 25 34  1  0  0  0  0
 26 27  2  0  0  0  0
 26 35  1  0  0  0  0
 27 36  1  0  0  0  0
 37 38  1  0  0  0  0
 37 42  1  0  0  0  0
 38 39  1  0  0  0  0
 38 41  1  0  0  0  0
 38 43  1  0  0  0  0
 39 40  2  0  0  0  0
 39 47  1  0  0  0  0
 41 44  1  0  0  0  0
 41 45  1  0  0  0  0
 41 46  1  0  0  0  0
 47 48  1  0  0  0  0
 47 49  1  0  0  0  0
 48 50  1  0  0  0  0
 48 51  1  0  0  0  0
 48 52  1  0  0  0  0
M  END
$$$$

  -OEChem-05262217163D

 52 52  0     1  0  0  0  0  0999 V2000
   -3.6483    0.8416    4.1222 C   0  0  0  0  0  0  0  0  0  0  0  0
   -4.5268    1.3841    3.4710 O   0  0  0  0  0  0  0  0  0  0  0  0
   -3.9705    0.2195    5.4676 C   0  0  0  0  0  0  0  0  0  0  0  0
   -5.0080    0.4305    5.7413 H   0  0  0  0  0  0  0  0  0  0  0  0
   -3.8314   -0.8633    5.4202 H   0  0  0  0  0  0  0  0  0  0  0  0
   -3.3132    0.6314    6.2373 H   0  0  0  0  0  0  0  0  0  0  0  0
   -2.3612    0.7889    3.6304 N   0  0  0  0  0  0  0  0  0  0  0  0
   -1.9723    1.2360    2.2866 C   0  0  2  0  0  0  0  0  0  0  0  0
   -0.7553    0.4555    1.7489 C   0  0  0  0  0  0  0  0  0  0  0  0
   -0.0830   -0.2315    2.5109 O   0  0  0  0  0  0  0  0  0  0  0  0
   -1.6583    2.7346    2.3420 C   0  0  0  0  0  0  0  0  0  0  0  0
   -1.6844    0.2270    4.1454 H   0  0  0  0  0  0  0  0  0  0  0  0
   -2.8016    1.0665    1.5912 H   0  0  0  0  0  0  0  0  0  0  0  0
   -0.8442    2.9300    3.0469 H   0  0  0  0  0  0  0  0  0  0  0  0
   -1.3604    3.1029    1.3557 H   0  0  0  0  0  0  0  0  0  0  0  0
   -2.5409    3.2948    2.6667 H   0  0  0  0  0  0  0  0  0  0  0  0
   -0.4911    0.4414    0.3911 N   0  0  0  0  0  0  0  0  0  0  0  0
    0.7888    0.0997   -0.2649 C   0  0  2  0  0  0  0  0  0  0  0  0
    0.6848   -1.3033   -0.8796 C   0  0  0  0  0  0  0  0  0  0  0  0
    0.2324   -1.4484   -2.0089 O   0  0  0  0  0  0  0  0  0  0  0  0
    2.1033    0.3083    0.5255 C   0  0  0  0  0  0  0  0  0  0  0  0
    2.3572    1.7775    0.7714 C   0  0  0  0  0  0  0  0  0  0  0  0
    2.9230    2.5757   -0.2349 C   0  0  0  0  0  0  0  0  0  0  0  0
    2.0558    2.3607    2.0112 C   0  0  0  0  0  0  0  0  0  0  0  0
    3.1574    3.9374   -0.0151 C   0  0  0  0  0  0  0  0  0  0  0  0
    2.2881    3.7223    2.2327 C   0  0  0  0  0  0  0  0  0  0  0  0
    2.8359    4.5124    1.2178 C   0  0  0  0  0  0  0  0  0  0  0  0
   -1.1525    0.9668   -0.1753 H   0  0  0  0  0  0  0  0  0  0  0  0
    0.8711    0.7705   -1.1263 H   0  0  0  0  0  0  0  0  0  0  0  0
    2.9355   -0.0891   -0.0650 H   0  0  0  0  0  0  0  0  0  0  0  0
    2.1063   -0.2467    1.4664 H   0  0  0  0  0  0  0  0  0  0  0  0
    3.1810    2.1412   -1.1963 H   0  0  0  0  0  0  0  0  0  0  0  0
    1.6434    1.7546    2.8125 H   0  0  0  0  0  0  0  0  0  0  0  0
    3.5916    4.5477   -0.8017 H   0  0  0  0  0  0  0  0  0  0  0  0
    2.0481    4.1646    3.1953 H   0  0  0  0  0  0  0  0  0  0  0  0
    3.0185    5.5696    1.3891 H   0  0  0  0  0  0  0  0  0  0  0  0
    1.0322   -2.4147   -0.1352 N   0  0  0  0  0  0  0  0  0  0  0  0
    0.8562   -3.7995   -0.5983 C   0  0  2  0  0  0  0  0  0  0  0  0
   -0.6148   -4.2730   -0.5037 C   0  0  0  0  0  0  0  0  0  0  0  0
   -0.9457   -5.2217    0.1973 O   0  0  0  0  0  0  0  0  0  0  0  0
    1.8203   -4.6761    0.2098 C   0  0  0  0  0  0  0  0  0  0  0  0
    1.1579   -2.2555    0.8637 H   0  0  0  0  0  0  0  0  0  0  0  0
    1.1467   -3.8707   -1.6519 H   0  0  0  0  0  0  0  0  0  0  0  0
    1.5690   -4.6447    1.2749 H   0  0  0  0  0  0  0  0  0  0  0  0
    1.7621   -5.7153   -0.1292 H   0  0  0  0  0  0  0  0  0  0  0  0
    2.8501   -4.3291    0.0817 H   0  0  0  0  0  0  0  0  0  0  0  0
   -1.5809   -3.6077   -1.2322 N   0  0  0  0  0  0  0  0  0  0  0  0
   -2.9986   -3.9394   -1.2021 C   0  0  0  0  0  0  0  0  0  0  0  0
   -1.2609   -2.8032   -1.7770 H   0  0  0  0  0  0  0  0  0  0  0  0
   -3.1553   -4.9791   -1.5079 H   0  0  0  0  0  0  0  0  0  0  0  0
   -3.4021   -3.8036   -0.1933 H   0  0  0  0  0  0  0  0  0  0  0  0
   -3.5528   -3.2915   -1.8881 H   0  0  0  0  0  0  0  0  0  0  0  0
  1  2  2  0  0  0  0
  1  3  1  0  0  0  0
  1  7  1  0  0  0  0
  3  4  1  0  0  0  0
  3  5  1  0  0  0  0
  3  6  1  0  0  0  0
  7  8  1  0  0  0  0
  7 12  1  0  0  0  0
  8  9  1  0  0  0  0
  8 11  1  0  0  0  0
  8 13  1  0  0  0  0
  9 10  2  0  0  0  0
  9 17  1  0  0  0  0
 11 14  1  0  0  0  0
 11 15  1  0  0  0  0
 11 16  1  0  0  0  0
 17 18  1  0  0  0  0
 17 28  1  0  0  0  0
 18 19  1  0  0  0  0
 18 21  1  0  0  0  0
 18 29  1  0  0  0  0
 19 20  2  0  0  0  0
 19 37  1  0  0  0  0
 21 22  1  0  0  0  0
 21 30  1  0  0  0  0
 21 31  1  0  0  0  0
 22 23  1  0  0  0  0
 22 24  2  0  0  0  0
 23 25  2  0  0  0  0
 23 32  1  0  0  0  0
 24 26  1  0  0  0  0
 24 33  1  0  0  0  0
 25 27  1  0  0  0  0
 25 34  1  0  0  0  0
 26 27  2  0  0  0  0
 26 35  1  0  0  0  0
 27 36  1  0  0  0  0
 37 38  1  0  0  0  0
 37 42  1  0  0  0  0
 38 39  1  0  0  0  0
 38 41  1  0  0  0  0
 38 43  1  0  0  0  0
 39 40  2  0  0  0  0
 39 47  1  0  0  0  0
 41 44  1  0  0  0  0
 41 45  1  0  0  0  0
 41 46  1  0  0  0  0
 47 48  1  0  0  0  0
 47 49  1  0  0  0  0
 48 50  1  0  0  0  0
 48 51  1  0  0  0  0
 48 52  1  0  0  0  0
M  END
$$$$

  -OEChem-05262217163D

 52 52  0     1  0  0  0  0  0999 V2000
   -3.6465    0.8747    4.0822 C   0  0  0  0  0  0  0  0  0  0  0  0
   -4.5238    1.4096    3.4229 O   0  0  0  0  0  0  0  0  0  0  0  0
   -3.9751    0.2531    5.4267 C   0  0  0  0  0  0  0  0  0  0  0  0
   -5.0423    0.3612    5.6409 H   0  0  0  0  0  0  0  0  0  0  0  0
   -3.7244   -0.8105    5.4182 H   0  0  0  0  0  0  0  0  0  0  0  0
   -3.4055    0.7486    6.2169 H   0  0  0  0  0  0  0  0  0  0  0  0
   -2.3556    0.8282    3.5989 N   0  0  0  0  0  0  0  0  0  0  0  0
   -1.9658    1.2553    2.2484 C   0  0  2  0  0  0  0  0  0  0  0  0
   -0.7602    0.4530    1.7167 C   0  0  0  0  0  0  0  0  0  0  0  0
   -0.1039   -0.2500    2.4787 O   0  0  0  0  0  0  0  0  0  0  0  0
   -1.6359    2.7510    2.2848 C   0  0  0  0  0  0  0  0  0  0  0  0
   -1.6834    0.2633    4.1167 H   0  0  0  0  0  0  0  0  0  0  0  0
   -2.7993    1.0874    1.5572 H   0  0  0  0  0  0  0  0  0  0  0  0
   -0.8177    2.9463    2.9848 H   0  0  0  0  0  0  0  0  0  0  0  0
   -1.3376    3.1046    1.2930 H   0  0  0  0  0  0  0  0  0  0  0  0
   -2.5116    3.3242    2.6055 H   0  0  0  0  0  0  0  0  0  0  0  0
   -0.5044    0.4042    0.3586 N   0  0  0  0  0  0  0  0  0  0  0  0
    0.7835    0.0698   -0.2872 C   0  0  2  0  0  0  0  0  0  0  0  0
    0.6952   -1.3540   -0.8497 C   0  0  0  0  0  0  0  0  0  0  0  0
    0.4811   -1.5466   -2.0404 O   0  0  0  0  0  0  0  0  0  0  0  0
    2.0937    0.2950    0.5044 C   0  0  0  0  0  0  0  0  0  0  0  0
    2.3374    1.7670    0.7417 C   0  0  0  0  0  0  0  0  0  0  0  0
    2.8998    2.5637   -0.2673 C   0  0  0  0  0  0  0  0  0  0  0  0
    2.0409    2.3514    1.9821 C   0  0  0  0  0  0  0  0  0  0  0  0
    3.1340    3.9259   -0.0500 C   0  0  0  0  0  0  0  0  0  0  0  0
    2.2733    3.7132    2.2012 C   0  0  0  0  0  0  0  0  0  0  0  0
    2.8168    4.5022    1.1834 C   0  0  0  0  0  0  0  0  0  0  0  0
   -1.1552    0.9409   -0.2095 H   0  0  0  0  0  0  0  0  0  0  0  0
    0.8632    0.7193   -1.1652 H   0  0  0  0  0  0  0  0  0  0  0  0
    2.9301   -0.1014   -0.0815 H   0  0  0  0  0  0  0  0  0  0  0  0
    2.0983   -0.2546    1.4489 H   0  0  0  0  0  0  0  0  0  0  0  0
    3.1558    2.1271   -1.2283 H   0  0  0  0  0  0  0  0  0  0  0  0
    1.6352    1.7452    2.7869 H   0  0  0  0  0  0  0  0  0  0  0  0
    3.5665    4.5355   -0.8383 H   0  0  0  0  0  0  0  0  0  0  0  0
    2.0393    4.1559    3.1650 H   0  0  0  0  0  0  0  0  0  0  0  0
    3.0012    5.5590    1.3534 H   0  0  0  0  0  0  0  0  0  0  0  0
    0.7588   -2.4215    0.0245 N   0  0  0  0  0  0  0  0  0  0  0  0
    0.5104   -3.8171   -0.3628 C   0  0  2  0  0  0  0  0  0  0  0  0
   -0.9973   -4.1112   -0.5506 C   0  0  0  0  0  0  0  0  0  0  0  0
   -1.5966   -4.9059    0.1635 O   0  0  0  0  0  0  0  0  0  0  0  0
    1.1663   -4.7087    0.6983 C   0  0  0  0  0  0  0  0  0  0  0  0
    0.7020   -2.1790    1.0146 H   0  0  0  0  0  0  0  0  0  0  0  0
    0.9999   -4.0230   -1.3206 H   0  0  0  0  0  0  0  0  0  0  0  0
    0.7100   -4.5404    1.6792 H   0  0  0  0  0  0  0  0  0  0  0  0
    1.0430   -5.7642    0.4357 H   0  0  0  0  0  0  0  0  0  0  0  0
    2.2368   -4.4937    0.7684 H   0  0  0  0  0  0  0  0  0  0  0  0
   -1.6895   -3.4461   -1.5431 N   0  0  0  0  0  0  0  0  0  0  0  0
   -3.1212   -3.5847   -1.7699 C   0  0  0  0  0  0  0  0  0  0  0  0
   -1.1596   -2.7485   -2.0717 H   0  0  0  0  0  0  0  0  0  0  0  0
   -3.3781   -4.6306   -1.9676 H   0  0  0  0  0  0  0  0  0  0  0  0
   -3.6817   -3.2429   -0.8937 H   0  0  0  0  0  0  0  0  0  0  0  0
   -3.4261   -2.9854   -2.6330 H   0  0  0  0  0  0  0  0  0  0  0  0
  1  2  2  0  0  0  0
  1  3  1  0  0  0  0
  1  7  1  0  0  0  0
  3  4  1  0  0  0  0
  3  5  1  0  0  0  0
  3  6  1  0  0  0  0
  7  8  1  0  0  0  0
  7 12  1  0  0  0  0
  8  9  1  0  0  0  0
  8 11  1  0  0  0  0
  8 13  1  0  0  0  0
  9 10  2  0  0  0  0
  9 17  1  0  0  0  0
 11 14  1  0  0  0  0
 11 15  1  0  0  0  0
 11 16  1  0  0  0  0
 17 18  1  0  0  0  0
 17 28  1  0  0  0  0
 18 19  1  0  0  0  0
 18 21  1  0  0  0  0
 18 29  1  0  0  0  0
 19 20  2  0  0  0  0
 19 37  1  0  0  0  0
 21 22  1  0  0  0  0
 21 30  1  0  0  0  0
 21 31  1  0  0  0  0
 22 23  1  0  0  0  0
 22 24  2  0  0  0  0
 23 25  2  0  0  0  0
 23 32  1  0  0  0  0
 24 26  1  0  0  0  0
 24 33  1  0  0  0  0
 25 27  1  0  0  0  0
 25 34  1  0  0  0  0
 26 27  2  0  0  0  0
 26 35  1  0  0  0  0
 27 36  1  0  0  0  0
 37 38  1  0  0  0  0
 37 42  1  0  0  0  0
 38 39  1  0  0  0  0
 38 41  1  0  0  0  0
 38 43  1  0  0  0  0
 39 40  2  0  0  0  0
 39 47  1  0  0  0  0
 41 44  1  0  0  0  0
 41 45  1  0  0  0  0
 41 46  1  0  0  0  0
 47 48  1  0  0  0  0
 47 49  1  0  0  0  0
 48 50  1  0  0  0  0
 48 51  1  0  0  0  0
 48 52  1  0  0  0  0
M  END
$$$$

  -OEChem-05262217163D

 52 52  0     1  0  0  0  0  0999 V2000
   -3.6477    1.0202    4.1073 C   0  0  0  0  0  0  0  0  0  0  0  0
   -4.4955    1.6039    3.4511 O   0  0  0  0  0  0  0  0  0  0  0  0
   -4.0108    0.4025    5.4446 C   0  0  0  0  0  0  0  0  0  0  0  0
   -5.0758    0.5459    5.6482 H   0  0  0  0  0  0  0  0  0  0  0  0
   -3.7969   -0.6690    5.4317 H   0  0  0  0  0  0  0  0  0  0  0  0
   -3.4328    0.8733    6.2435 H   0  0  0  0  0  0  0  0  0  0  0  0
   -2.3597    0.9142    3.6255 N   0  0  0  0  0  0  0  0  0  0  0  0
   -1.9460    1.3341    2.2799 C   0  0  2  0  0  0  0  0  0  0  0  0
   -0.7788    0.4794    1.7432 C   0  0  0  0  0  0  0  0  0  0  0  0
   -0.1483   -0.2522    2.4997 O   0  0  0  0  0  0  0  0  0  0  0  0
   -1.5474    2.8122    2.3303 C   0  0  0  0  0  0  0  0  0  0  0  0
   -1.7134    0.3215    4.1450 H   0  0  0  0  0  0  0  0  0  0  0  0
   -2.7845    1.2124    1.5854 H   0  0  0  0  0  0  0  0  0  0  0  0
   -0.7375    2.9663    3.0500 H   0  0  0  0  0  0  0  0  0  0  0  0
   -1.2102    3.1550    1.3472 H   0  0  0  0  0  0  0  0  0  0  0  0
   -2.4023    3.4248    2.6341 H   0  0  0  0  0  0  0  0  0  0  0  0
   -0.5470    0.3929    0.3832 N   0  0  0  0  0  0  0  0  0  0  0  0
    0.7329    0.0411   -0.2730 C   0  0  2  0  0  0  0  0  0  0  0  0
    0.6442   -1.3981   -0.7944 C   0  0  0  0  0  0  0  0  0  0  0  0
    0.6871   -1.6395   -1.9944 O   0  0  0  0  0  0  0  0  0  0  0  0
    2.0501    0.2747    0.5020 C   0  0  0  0  0  0  0  0  0  0  0  0
    2.3014    1.7495    0.7123 C   0  0  0  0  0  0  0  0  0  0  0  0
    2.8571    2.5266   -0.3154 C   0  0  0  0  0  0  0  0  0  0  0  0
    2.0208    2.3551    1.9462 C   0  0  0  0  0  0  0  0  0  0  0  0
    3.0975    3.8916   -0.1235 C   0  0  0  0  0  0  0  0  0  0  0  0
    2.2598    3.7197    2.1402 C   0  0  0  0  0  0  0  0  0  0  0  0
    2.7952    4.4895    1.1035 C   0  0  0  0  0  0  0  0  0  0  0  0
   -1.1873    0.9465   -0.1810 H   0  0  0  0  0  0  0  0  0  0  0  0
    0.8043    0.6690   -1.1671 H   0  0  0  0  0  0  0  0  0  0  0  0
    2.8796   -0.1359   -0.0838 H   0  0  0  0  0  0  0  0  0  0  0  0
    2.0578   -0.2601    1.4550 H   0  0  0  0  0  0  0  0  0  0  0  0
    3.1008    2.0721   -1.2714 H   0  0  0  0  0  0  0  0  0  0  0  0
    1.6214    1.7634    2.7650 H   0  0  0  0  0  0  0  0  0  0  0  0
    3.5226    4.4865   -0.9269 H   0  0  0  0  0  0  0  0  0  0  0  0
    2.0361    4.1789    3.0988 H   0  0  0  0  0  0  0  0  0  0  0  0
    2.9839    5.5485    1.2537 H   0  0  0  0  0  0  0  0  0  0  0  0
    0.4115   -2.4148    0.1108 N   0  0  0  0  0  0  0  0  0  0  0  0
    0.1496   -3.8132   -0.2568 C   0  0  2  0  0  0  0  0  0  0  0  0
   -1.2890   -4.0208   -0.7895 C   0  0  0  0  0  0  0  0  0  0  0  0
   -2.0883   -4.7600   -0.2276 O   0  0  0  0  0  0  0  0  0  0  0  0
    0.4605   -4.6725    0.9745 C   0  0  0  0  0  0  0  0  0  0  0  0
    0.2304   -2.1181    1.0717 H   0  0  0  0  0  0  0  0  0  0  0  0
    0.8348   -4.1137   -1.0565 H   0  0  0  0  0  0  0  0  0  0  0  0
   -0.2059   -4.4130    1.8035 H   0  0  0  0  0  0  0  0  0  0  0  0
    0.3252   -5.7332    0.7405 H   0  0  0  0  0  0  0  0  0  0  0  0
    1.4952   -4.5190    1.2957 H   0  0  0  0  0  0  0  0  0  0  0  0
   -1.6861   -3.3455   -1.9266 N   0  0  0  0  0  0  0  0  0  0  0  0
   -3.0228   -3.4257   -2.4985 C   0  0  0  0  0  0  0  0  0  0  0  0
   -0.9955   -2.7147   -2.3410 H   0  0  0  0  0  0  0  0  0  0  0  0
   -3.2554   -4.4569   -2.7843 H   0  0  0  0  0  0  0  0  0  0  0  0
   -3.7701   -3.0825   -1.7754 H   0  0  0  0  0  0  0  0  0  0  0  0
   -3.0894   -2.7961   -3.3909 H   0  0  0  0  0  0  0  0  0  0  0  0
  1  2  2  0  0  0  0
  1  3  1  0  0  0  0
  1  7  1  0  0  0  0
  3  4  1  0  0  0  0
  3  5  1  0  0  0  0
  3  6  1  0  0  0  0
  7  8  1  0  0  0  0
  7 12  1  0  0  0  0
  8  9  1  0  0  0  0
  8 11  1  0  0  0  0
  8 13  1  0  0  0  0
  9 10  2  0  0  0  0
  9 17  1  0  0  0  0
 11 14  1  0  0  0  0
 11 15  1  0  0  0  0
 11 16  1  0  0  0  0
 17 18  1  0  0  0  0
 17 28  1  0  0  0  0
 18 19  1  0  0  0  0
 18 21  1  0  0  0  0
 18 29  1  0  0  0  0
 19 20  2  0  0  0  0
 19 37  1  0  0  0  0
 21 22  1  0  0  0  0
 21 30  1  0  0  0  0
 21 31  1  0  0  0  0
 22 23  1  0  0  0  0
 22 24  2  0  0  0  0
 23 25  2  0  0  0  0
 23 32  1  0  0  0  0
 24 26  1  0  0  0  0
 24 33  1  0  0  0  0
 25 27  1  0  0  0  0
 25 34  1  0  0  0  0
 26 27  2  0  0  0  0
 26 35  1  0  0  0  0
 27 36  1  0  0  0  0
 37 38  1  0  0  0  0
 37 42  1  0  0  0  0
 38 39  1  0  0  0  0
 38 41  1  0  0  0  0
 38 43  1  0  0  0  0
 39 40  2  0  0  0  0
 39 47  1  0  0  0  0
 41 44  1  0  0  0  0
 41 45  1  0  0  0  0
 41 46  1  0  0  0  0
 47 48  1  0  0  0  0
 47 49  1  0  0  0  0
 48 50  1  0  0  0  0
 48 51  1  0  0  0  0
 48 52  1  0  0  0  0
M  END
$$$$

  -OEChem-05262217163D

 52 52  0     1  0  0  0  0  0999 V2000
   -3.6774    0.8207    3.8775 C   0  0  0  0  0  0  0  0  0  0  0  0
   -4.5779    1.2077    3.1500 O   0  0  0  0  0  0  0  0  0  0  0  0
   -3.9884    0.3493    5.2857 C   0  0  0  0  0  0  0  0  0  0  0  0
   -5.0464    0.5097    5.5114 H   0  0  0  0  0  0  0  0  0  0  0  0
   -3.7652   -0.7161    5.3801 H   0  0  0  0  0  0  0  0  0  0  0  0
   -3.3864    0.9062    6.0080 H   0  0  0  0  0  0  0  0  0  0  0  0
   -2.3749    0.8115    3.4258 N   0  0  0  0  0  0  0  0  0  0  0  0
   -1.9737    1.1014    2.0427 C   0  0  2  0  0  0  0  0  0  0  0  0
   -0.6277    0.4367    1.6872 C   0  0  0  0  0  0  0  0  0  0  0  0
    0.0257   -0.1298    2.5578 O   0  0  0  0  0  0  0  0  0  0  0  0
   -1.8716    2.6208    1.8652 C   0  0  0  0  0  0  0  0  0  0  0  0
   -1.6758    0.3715    4.0224 H   0  0  0  0  0  0  0  0  0  0  0  0
   -2.7272    0.7034    1.3535 H   0  0  0  0  0  0  0  0  0  0  0  0
   -1.1297    3.0374    2.5534 H   0  0  0  0  0  0  0  0  0  0  0  0
   -1.5751    2.8700    0.8419 H   0  0  0  0  0  0  0  0  0  0  0  0
   -2.8376    3.0943    2.0671 H   0  0  0  0  0  0  0  0  0  0  0  0
   -0.2318    0.3410    0.3669 N   0  0  0  0  0  0  0  0  0  0  0  0
    1.1170    0.0572   -0.1770 C   0  0  2  0  0  0  0  0  0  0  0  0
    1.1423   -1.3911   -0.6817 C   0  0  0  0  0  0  0  0  0  0  0  0
    1.4549   -1.6473   -1.8374 O   0  0  0  0  0  0  0  0  0  0  0  0
    2.3461    0.3775    0.7016 C   0  0  0  0  0  0  0  0  0  0  0  0
    2.4907    1.8687    0.9063 C   0  0  0  0  0  0  0  0  0  0  0  0
    3.0859    2.6632   -0.0859 C   0  0  0  0  0  0  0  0  0  0  0  0
    2.0619    2.4777    2.0954 C   0  0  0  0  0  0  0  0  0  0  0  0
    3.2216    4.0443    0.0947 C   0  0  0  0  0  0  0  0  0  0  0  0
    2.1975    3.8577    2.2790 C   0  0  0  0  0  0  0  0  0  0  0  0
    2.7733    4.6428    1.2761 C   0  0  0  0  0  0  0  0  0  0  0  0
   -0.9395    0.6211   -0.3091 H   0  0  0  0  0  0  0  0  0  0  0  0
    1.2248    0.6787   -1.0718 H   0  0  0  0  0  0  0  0  0  0  0  0
    3.2450    0.0093    0.1962 H   0  0  0  0  0  0  0  0  0  0  0  0
    2.2997   -0.1446    1.6605 H   0  0  0  0  0  0  0  0  0  0  0  0
    3.4415    2.2085   -1.0061 H   0  0  0  0  0  0  0  0  0  0  0  0
    1.6257    1.8775    2.8881 H   0  0  0  0  0  0  0  0  0  0  0  0
    3.6781    4.6510   -0.6821 H   0  0  0  0  0  0  0  0  0  0  0  0
    1.8599    4.3166    3.2035 H   0  0  0  0  0  0  0  0  0  0  0  0
    2.8795    5.7143    1.4179 H   0  0  0  0  0  0  0  0  0  0  0  0
    0.5870   -2.3643    0.1255 N   0  0  0  0  0  0  0  0  0  0  0  0
   -0.1510   -3.4850   -0.4643 C   0  0  2  0  0  0  0  0  0  0  0  0
   -1.5448   -3.0475   -0.9729 C   0  0  0  0  0  0  0  0  0  0  0  0
   -2.1231   -2.0874   -0.4702 O   0  0  0  0  0  0  0  0  0  0  0  0
   -0.2894   -4.5659    0.6096 C   0  0  0  0  0  0  0  0  0  0  0  0
    0.2016   -1.9803    0.9896 H   0  0  0  0  0  0  0  0  0  0  0  0
    0.4123   -3.8988   -1.3075 H   0  0  0  0  0  0  0  0  0  0  0  0
   -0.8507   -4.1833    1.4687 H   0  0  0  0  0  0  0  0  0  0  0  0
   -0.8172   -5.4371    0.2096 H   0  0  0  0  0  0  0  0  0  0  0  0
    0.6988   -4.8869    0.9538 H   0  0  0  0  0  0  0  0  0  0  0  0
   -2.1612   -3.7451   -1.9950 N   0  0  0  0  0  0  0  0  0  0  0  0
   -3.4451   -3.3567   -2.5659 C   0  0  0  0  0  0  0  0  0  0  0  0
   -1.6231   -4.4757   -2.4513 H   0  0  0  0  0  0  0  0  0  0  0  0
   -4.2272   -3.3750   -1.7997 H   0  0  0  0  0  0  0  0  0  0  0  0
   -3.3880   -2.3475   -2.9872 H   0  0  0  0  0  0  0  0  0  0  0  0
   -3.7290   -4.0495   -3.3640 H   0  0  0  0  0  0  0  0  0  0  0  0
  1  2  2  0  0  0  0
  1  3  1  0  0  0  0
  1  7  1  0  0  0  0
  3  4  1  0  0  0  0
  3  5  1  0  0  0  0
  3  6  1  0  0  0  0
  7  8  1  0  0  0  0
  7 12  1  0  0  0  0
  8  9  1  0  0  0  0
  8 11  1  0  0  0  0
  8 13  1  0  0  0  0
  9 10  2  0  0  0  0
  9 17  1  0  0  0  0
 11 14  1  0  0  0  0
 11 15  1  0  0  0  0
 11 16  1  0  0  0  0
 17 18  1  0  0  0  0
 17 28  1  0  0  0  0
 18 19  1  0  0  0  0
 18 21  1  0  0  0  0
 18 29  1  0  0  0  0
 19 20  2  0  0  0  0
 19 37  1  0  0  0  0
 21 22  1  0  0  0  0
 21 30  1  0  0  0  0
 21 31  1  0  0  0  0
 22 23  1  0  0  0  0
 22 24  2  0  0  0  0
 23 25  2  0  0  0  0
 23 32  1  0  0  0  0
 24 26  1  0  0  0  0
 24 33  1  0  0  0  0
 25 27  1  0  0  0  0
 25 34  1  0  0  0  0
 26 27  2  0  0  0  0
 26 35  1  0  0  0  0
 27 36  1  0  0  0  0
 37 38  1  0  0  0  0
 37 42  1  0  0  0  0
 38 39  1  0  0  0  0
 38 41  1  0  0  0  0
 38 43  1  0  0  0  0
 39 40  2  0  0  0  0
 39 47  1  0  0  0  0
 41 44  1  0  0  0  0
 41 45  1  0  0  0  0
 41 46  1  0  0  0  0
 47 48  1  0  0  0  0
 47 49  1  0  0  0  0
 48 50  1  0  0  0  0
 48 51  1  0  0  0  0
 48 52  1  0  0  0  0
M  END
$$$$

  -OEChem-05262217163D

 52 52  0     1  0  0  0  0  0999 V2000
   -3.7795    0.8091    3.7611 C   0  0  0  0  0  0  0  0  0  0  0  0
   -4.6805    1.0059    2.9618 O   0  0  0  0  0  0  0  0  0  0  0  0
   -4.1045    0.4576    5.2007 C   0  0  0  0  0  0  0  0  0  0  0  0
   -5.1845    0.5050    5.3658 H   0  0  0  0  0  0  0  0  0  0  0  0
   -3.7577   -0.5542    5.4246 H   0  0  0  0  0  0  0  0  0  0  0  0
   -3.6143    1.1620    5.8773 H   0  0  0  0  0  0  0  0  0  0  0  0
   -2.4638    0.8916    3.3583 N   0  0  0  0  0  0  0  0  0  0  0  0
   -2.0313    1.0580    1.9640 C   0  0  2  0  0  0  0  0  0  0  0  0
   -0.6234    0.4713    1.7297 C   0  0  0  0  0  0  0  0  0  0  0  0
    0.0160    0.0265    2.6766 O   0  0  0  0  0  0  0  0  0  0  0  0
   -2.0441    2.5510    1.6181 C   0  0  0  0  0  0  0  0  0  0  0  0
   -1.7513    0.5992    4.0258 H   0  0  0  0  0  0  0  0  0  0  0  0
   -2.7223    0.5258    1.3000 H   0  0  0  0  0  0  0  0  0  0  0  0
   -1.3506    3.1001    2.2630 H   0  0  0  0  0  0  0  0  0  0  0  0
   -1.7482    2.7065    0.5762 H   0  0  0  0  0  0  0  0  0  0  0  0
   -3.0486    2.9641    1.7538 H   0  0  0  0  0  0  0  0  0  0  0  0
   -0.1643    0.2890    0.4393 N   0  0  0  0  0  0  0  0  0  0  0  0
    1.2017   -0.0324   -0.0416 C   0  0  2  0  0  0  0  0  0  0  0  0
    1.2600   -1.5088   -0.4631 C   0  0  0  0  0  0  0  0  0  0  0  0
    1.8155   -1.8306   -1.5054 O   0  0  0  0  0  0  0  0  0  0  0  0
    2.4001    0.3495    0.8544 C   0  0  0  0  0  0  0  0  0  0  0  0
    2.5418    1.8516    0.9615 C   0  0  0  0  0  0  0  0  0  0  0  0
    3.1735    2.5722   -0.0638 C   0  0  0  0  0  0  0  0  0  0  0  0
    2.0781    2.5447    2.0900 C   0  0  0  0  0  0  0  0  0  0  0  0
    3.3126    3.9618    0.0236 C   0  0  0  0  0  0  0  0  0  0  0  0
    2.2136    3.9341    2.1788 C   0  0  0  0  0  0  0  0  0  0  0  0
    2.8276    4.6445    1.1432 C   0  0  0  0  0  0  0  0  0  0  0  0
   -0.8770    0.4042   -0.2819 H   0  0  0  0  0  0  0  0  0  0  0  0
    1.3375    0.5347   -0.9680 H   0  0  0  0  0  0  0  0  0  0  0  0
    3.3161   -0.0526    0.4084 H   0  0  0  0  0  0  0  0  0  0  0  0
    2.3171   -0.1055    1.8445 H   0  0  0  0  0  0  0  0  0  0  0  0
    3.5558    2.0519   -0.9374 H   0  0  0  0  0  0  0  0  0  0  0  0
    1.6148    2.0039    2.9095 H   0  0  0  0  0  0  0  0  0  0  0  0
    3.7992    4.5096   -0.7781 H   0  0  0  0  0  0  0  0  0  0  0  0
    1.8469    4.4586    3.0561 H   0  0  0  0  0  0  0  0  0  0  0  0
    2.9347    5.7232    1.2120 H   0  0  0  0  0  0  0  0  0  0  0  0
    0.4335   -2.4058    0.1854 N   0  0  0  0  0  0  0  0  0  0  0  0
   -0.3195   -3.4065   -0.5773 C   0  0  2  0  0  0  0  0  0  0  0  0
   -1.5728   -2.7891   -1.2434 C   0  0  0  0  0  0  0  0  0  0  0  0
   -2.0232   -1.7116   -0.8586 O   0  0  0  0  0  0  0  0  0  0  0  0
   -0.7183   -4.5208    0.3926 C   0  0  0  0  0  0  0  0  0  0  0  0
   -0.0726   -1.9703    0.9557 H   0  0  0  0  0  0  0  0  0  0  0  0
    0.3119   -3.8358   -1.3627 H   0  0  0  0  0  0  0  0  0  0  0  0
   -1.3659   -4.1276    1.1833 H   0  0  0  0  0  0  0  0  0  0  0  0
   -1.2562   -5.3147   -0.1344 H   0  0  0  0  0  0  0  0  0  0  0  0
    0.1731   -4.9553    0.8561 H   0  0  0  0  0  0  0  0  0  0  0  0
   -2.2084   -3.4516   -2.2768 N   0  0  0  0  0  0  0  0  0  0  0  0
   -3.3803   -2.9249   -2.9655 C   0  0  0  0  0  0  0  0  0  0  0  0
   -1.7824   -4.3085   -2.6177 H   0  0  0  0  0  0  0  0  0  0  0  0
   -4.2018   -2.7666   -2.2586 H   0  0  0  0  0  0  0  0  0  0  0  0
   -3.1445   -1.9722   -3.4514 H   0  0  0  0  0  0  0  0  0  0  0  0
   -3.7166   -3.6304   -3.7313 H   0  0  0  0  0  0  0  0  0  0  0  0
  1  2  2  0  0  0  0
  1  3  1  0  0  0  0
  1  7  1  0  0  0  0
  3  4  1  0  0  0  0
  3  5  1  0  0  0  0
  3  6  1  0  0  0  0
  7  8  1  0  0  0  0
  7 12  1  0  0  0  0
  8  9  1  0  0  0  0
  8 11  1  0  0  0  0
  8 13  1  0  0  0  0
  9 10  2  0  0  0  0
  9 17  1  0  0  0  0
 11 14  1  0  0  0  0
 11 15  1  0  0  0  0
 11 16  1  0  0  0  0
 17 18  1  0  0  0  0
 17 28  1  0  0  0  0
 18 19  1  0  0  0  0
 18 21  1  0  0  0  0
 18 29  1  0  0  0  0
 19 20  2  0  0  0  0
 19 37  1  0  0  0  0
 21 22  1  0  0  0  0
 21 30  1  0  0  0  0
 21 31  1  0  0  0  0
 22 23  1  0  0  0  0
 22 24  2  0  0  0  0
 23 25  2  0  0  0  0
 23 32  1  0  0  0  0
 24 26  1  0  0  0  0
 24 33  1  0  0  0  0
 25 27  1  0  0  0  0
 25 34  1  0  0  0  0
 26 27  2  0  0  0  0
 26 35  1  0  0  0  0
 27 36  1  0  0  0  0
 37 38  1  0  0  0  0
 37 42  1  0  0  0  0
 38 39  1  0  0  0  0
 38 41  1  0  0  0  0
 38 43  1  0  0  0  0
 39 40  2  0  0  0  0
 39 47  1  0  0  0  0
 41 44  1  0  0  0  0
 41 45  1  0  0  0  0
 41 46  1  0  0  0  0
 47 48  1  0  0  0  0
 47 49  1  0  0  0  0
 48 50  1  0  0  0  0
 48 51  1  0  0  0  0
 48 52  1  0  0  0  0
M  END
$$$$

  -OEChem-05262217163D

 52 52  0     1  0  0  0  0  0999 V2000
   -3.3155   -0.0439    2.7234 C   0  0  0  0  0  0  0  0  0  0  0  0
   -3.1665   -0.2063    1.5198 O   0  0  0  0  0  0  0  0  0  0  0  0
   -4.0508   -1.0814    3.5495 C   0  0  0  0  0  0  0  0  0  0  0  0
   -4.6052   -1.7606    2.8956 H   0  0  0  0  0  0  0  0  0  0  0  0
   -3.3366   -1.6622    4.1388 H   0  0  0  0  0  0  0  0  0  0  0  0
   -4.7579   -0.5925    4.2241 H   0  0  0  0  0  0  0  0  0  0  0  0
   -2.7443    1.0537    3.3354 N   0  0  0  0  0  0  0  0  0  0  0  0
   -1.8552    1.9808    2.6214 C   0  0  2  0  0  0  0  0  0  0  0  0
   -0.5866    1.2687    2.1014 C   0  0  0  0  0  0  0  0  0  0  0  0
    0.2116    0.8128    2.9080 O   0  0  0  0  0  0  0  0  0  0  0  0
   -1.4949    3.1307    3.5673 C   0  0  0  0  0  0  0  0  0  0  0  0
   -2.7088    1.0419    4.3510 H   0  0  0  0  0  0  0  0  0  0  0  0
   -2.3892    2.4020    1.7630 H   0  0  0  0  0  0  0  0  0  0  0  0
   -0.9700    2.7548    4.4516 H   0  0  0  0  0  0  0  0  0  0  0  0
   -0.8437    3.8486    3.0587 H   0  0  0  0  0  0  0  0  0  0  0  0
   -2.3992    3.6537    3.8930 H   0  0  0  0  0  0  0  0  0  0  0  0
   -0.5070    0.9743    0.7499 N   0  0  0  0  0  0  0  0  0  0  0  0
    0.5722    0.2893    0.0016 C   0  0  2  0  0  0  0  0  0  0  0  0
    0.1726   -1.1558   -0.3599 C   0  0  0  0  0  0  0  0  0  0  0  0
    0.8140   -1.7756   -1.2009 O   0  0  0  0  0  0  0  0  0  0  0  0
    2.0165    0.3730    0.5529 C   0  0  0  0  0  0  0  0  0  0  0  0
    2.5497    1.7875    0.4750 C   0  0  0  0  0  0  0  0  0  0  0  0
    3.0617    2.2723   -0.7386 C   0  0  0  0  0  0  0  0  0  0  0  0
    2.5833    2.6208    1.6037 C   0  0  0  0  0  0  0  0  0  0  0  0
    3.5662    3.5738   -0.8311 C   0  0  0  0  0  0  0  0  0  0  0  0
    3.0862    3.9230    1.5143 C   0  0  0  0  0  0  0  0  0  0  0  0
    3.5750    4.4018    0.2953 C   0  0  0  0  0  0  0  0  0  0  0  0
   -1.3457    1.2099    0.2226 H   0  0  0  0  0  0  0  0  0  0  0  0
    0.6147    0.7980   -0.9662 H   0  0  0  0  0  0  0  0  0  0  0  0
    2.6683   -0.2679   -0.0503 H   0  0  0  0  0  0  0  0  0  0  0  0
    2.0751   -0.0133    1.5732 H   0  0  0  0  0  0  0  0  0  0  0  0
    3.0659    1.6347   -1.6182 H   0  0  0  0  0  0  0  0  0  0  0  0
    2.2276    2.2564    2.5621 H   0  0  0  0  0  0  0  0  0  0  0  0
    3.9553    3.9381   -1.7773 H   0  0  0  0  0  0  0  0  0  0  0  0
    3.1037    4.5574    2.3955 H   0  0  0  0  0  0  0  0  0  0  0  0
    3.9697    5.4111    0.2263 H   0  0  0  0  0  0  0  0  0  0  0  0
   -0.9030   -1.7799    0.2477 N   0  0  0  0  0  0  0  0  0  0  0  0
   -1.3061   -3.1747    0.0102 C   0  0  2  0  0  0  0  0  0  0  0  0
   -2.0684   -3.3720   -1.3238 C   0  0  0  0  0  0  0  0  0  0  0  0
   -3.1726   -3.9026   -1.3684 O   0  0  0  0  0  0  0  0  0  0  0  0
   -2.1220   -3.6224    1.2289 C   0  0  0  0  0  0  0  0  0  0  0  0
   -1.5101   -1.1924    0.8246 H   0  0  0  0  0  0  0  0  0  0  0  0
   -0.4102   -3.8023   -0.0401 H   0  0  0  0  0  0  0  0  0  0  0  0
   -3.0560   -3.0557    1.2928 H   0  0  0  0  0  0  0  0  0  0  0  0
   -2.3680   -4.6861    1.1500 H   0  0  0  0  0  0  0  0  0  0  0  0
   -1.5517   -3.4667    2.1496 H   0  0  0  0  0  0  0  0  0  0  0  0
   -1.4672   -2.9858   -2.5055 N   0  0  0  0  0  0  0  0  0  0  0  0
   -2.0528   -3.1794   -3.8243 C   0  0  0  0  0  0  0  0  0  0  0  0
   -0.5302   -2.5834   -2.4215 H   0  0  0  0  0  0  0  0  0  0  0  0
   -2.2181   -4.2446   -4.0166 H   0  0  0  0  0  0  0  0  0  0  0  0
   -3.0102   -2.6537   -3.8984 H   0  0  0  0  0  0  0  0  0  0  0  0
   -1.3821   -2.7882   -4.5952 H   0  0  0  0  0  0  0  0  0  0  0  0
  1  2  2  0  0  0  0
  1  3  1  0  0  0  0
  1  7  1  0  0  0  0
  3  4  1  0  0  0  0
  3  5  1  0  0  0  0
  3  6  1  0  0  0  0
  7  8  1  0  0  0  0
  7 12  1  0  0  0  0
  8  9  1  0  0  0  0
  8 11  1  0  0  0  0
  8 13  1  0  0  0  0
  9 10  2  0  0  0  0
  9 17  1  0  0  0  0
 11 14  1  0  0  0  0
 11 15  1  0  0  0  0
 11 16  1  0  0  0  0
 17 18  1  0  0  0  0
 17 28  1  0  0  0  0
 18 19  1  0  0  0  0
 18 21  1  0  0  0  0
 18 29  1  0  0  0  0
 19 20  2  0  0  0  0
 19 37  1  0  0  0  0
 21 22  1  0  0  0  0
 21 30  1  0  0  0  0
 21 31  1  0  0  0  0
 22 23  1  0  0  0  0
 22 24  2  0  0  0  0
 23 25  2  0  0  0  0
 23 32  1  0  0  0  0
 24 26  1  0  0  0  0
 24 33  1  0  0  0  0
 25 27  1  0  0  0  0
 25 34  1  0  0  0  0
 26 27  2  0  0  0  0
 26 35  1  0  0  0  0
 27 36  1  0  0  0  0
 37 38  1  0  0  0  0
 37 42  1  0  0  0  0
 38 39  1  0  0  0  0
 38 41  1  0  0  0  0
 38 43  1  0  0  0  0
 39 40  2  0  0  0  0
 39 47  1  0  0  0  0
 41 44  1  0  0  0  0
 41 45  1  0  0  0  0
 41 46  1  0  0  0  0
 47 48  1  0  0  0  0
 47 49  1  0  0  0  0
 48 50  1  0  0  0  0
 48 51  1  0  0  0  0
 48 52  1  0  0  0  0
M  END
$$$$

  -OEChem-05262217163D

 52 52  0     1  0  0  0  0  0999 V2000
   -3.3851    0.0898    2.5320 C   0  0  0  0  0  0  0  0  0  0  0  0
   -3.2132    0.0512    1.3207 O   0  0  0  0  0  0  0  0  0  0  0  0
   -4.2544   -0.9476    3.2167 C   0  0  0  0  0  0  0  0  0  0  0  0
   -4.8163   -1.5206    2.4737 H   0  0  0  0  0  0  0  0  0  0  0  0
   -3.6307   -1.6343    3.7946 H   0  0  0  0  0  0  0  0  0  0  0  0
   -4.9640   -0.4584    3.8886 H   0  0  0  0  0  0  0  0  0  0  0  0
   -2.7263    1.0438    3.2808 N   0  0  0  0  0  0  0  0  0  0  0  0
   -1.7506    1.9801    2.7053 C   0  0  2  0  0  0  0  0  0  0  0  0
   -0.5074    1.2476    2.1527 C   0  0  0  0  0  0  0  0  0  0  0  0
    0.3088    0.7756    2.9311 O   0  0  0  0  0  0  0  0  0  0  0  0
   -1.3692    2.9976    3.7855 C   0  0  0  0  0  0  0  0  0  0  0  0
   -2.7429    0.9274    4.2903 H   0  0  0  0  0  0  0  0  0  0  0  0
   -2.2182    2.5266    1.8794 H   0  0  0  0  0  0  0  0  0  0  0  0
   -0.9082    2.4983    4.6440 H   0  0  0  0  0  0  0  0  0  0  0  0
   -0.6552    3.7241    3.3845 H   0  0  0  0  0  0  0  0  0  0  0  0
   -2.2562    3.5377    4.1304 H   0  0  0  0  0  0  0  0  0  0  0  0
   -0.4696    0.9684    0.7969 N   0  0  0  0  0  0  0  0  0  0  0  0
    0.5813    0.2963   -0.0013 C   0  0  2  0  0  0  0  0  0  0  0  0
    0.1642   -1.1455   -0.3649 C   0  0  0  0  0  0  0  0  0  0  0  0
    0.8842   -1.8388   -1.0749 O   0  0  0  0  0  0  0  0  0  0  0  0
    2.0425    0.3801    0.5073 C   0  0  0  0  0  0  0  0  0  0  0  0
    2.5695    1.7971    0.4352 C   0  0  0  0  0  0  0  0  0  0  0  0
    3.0440    2.3035   -0.7849 C   0  0  0  0  0  0  0  0  0  0  0  0
    2.6457    2.6076    1.5783 C   0  0  0  0  0  0  0  0  0  0  0  0
    3.5516    3.6046   -0.8685 C   0  0  0  0  0  0  0  0  0  0  0  0
    3.1526    3.9090    1.4976 C   0  0  0  0  0  0  0  0  0  0  0  0
    3.6022    4.4100    0.2727 C   0  0  0  0  0  0  0  0  0  0  0  0
   -1.3241    1.2198    0.3015 H   0  0  0  0  0  0  0  0  0  0  0  0
    0.5899    0.8169   -0.9635 H   0  0  0  0  0  0  0  0  0  0  0  0
    2.6815   -0.2479   -0.1216 H   0  0  0  0  0  0  0  0  0  0  0  0
    2.1318   -0.0201    1.5201 H   0  0  0  0  0  0  0  0  0  0  0  0
    3.0178    1.6833   -1.6761 H   0  0  0  0  0  0  0  0  0  0  0  0
    2.3230    2.2245    2.5413 H   0  0  0  0  0  0  0  0  0  0  0  0
    3.9116    3.9861   -1.8192 H   0  0  0  0  0  0  0  0  0  0  0  0
    3.2046    4.5252    2.3901 H   0  0  0  0  0  0  0  0  0  0  0  0
    3.9989    5.4189    0.2097 H   0  0  0  0  0  0  0  0  0  0  0  0
   -1.0530   -1.6663    0.0417 N   0  0  0  0  0  0  0  0  0  0  0  0
   -1.4996   -3.0451   -0.2111 C   0  0  2  0  0  0  0  0  0  0  0  0
   -2.0312   -3.2583   -1.6501 C   0  0  0  0  0  0  0  0  0  0  0  0
   -3.1438   -3.7248   -1.8672 O   0  0  0  0  0  0  0  0  0  0  0  0
   -2.5410   -3.3873    0.8607 C   0  0  0  0  0  0  0  0  0  0  0  0
   -1.6823   -1.0376    0.5470 H   0  0  0  0  0  0  0  0  0  0  0  0
   -0.6516   -3.7252   -0.0806 H   0  0  0  0  0  0  0  0  0  0  0  0
   -3.4307   -2.7611    0.7416 H   0  0  0  0  0  0  0  0  0  0  0  0
   -2.8429   -4.4359    0.7760 H   0  0  0  0  0  0  0  0  0  0  0  0
   -2.1274   -3.2266    1.8607 H   0  0  0  0  0  0  0  0  0  0  0  0
   -1.2150   -2.9560   -2.7220 N   0  0  0  0  0  0  0  0  0  0  0  0
   -1.5792   -3.1726   -4.1150 C   0  0  0  0  0  0  0  0  0  0  0  0
   -0.2813   -2.6064   -2.4908 H   0  0  0  0  0  0  0  0  0  0  0  0
   -1.7551   -4.2368   -4.3026 H   0  0  0  0  0  0  0  0  0  0  0  0
   -2.4874   -2.6147   -4.3649 H   0  0  0  0  0  0  0  0  0  0  0  0
   -0.7729   -2.8328   -4.7719 H   0  0  0  0  0  0  0  0  0  0  0  0
  1  2  2  0  0  0  0
  1  3  1  0  0  0  0
  1  7  1  0  0  0  0
  3  4  1  0  0  0  0
  3  5  1  0  0  0  0
  3  6  1  0  0  0  0
  7  8  1  0  0  0  0
  7 12  1  0  0  0  0
  8  9  1  0  0  0  0
  8 11  1  0  0  0  0
  8 13  1  0  0  0  0
  9 10  2  0  0  0  0
  9 17  1  0  0  0  0
 11 14  1  0  0  0  0
 11 15  1  0  0  0  0
 11 16  1  0  0  0  0
 17 18  1  0  0  0  0
 17 28  1  0  0  0  0
 18 19  1  0  0  0  0
 18 21  1  0  0  0  0
 18 29  1  0  0  0  0
 19 20  2  0  0  0  0
 19 37  1  0  0  0  0
 21 22  1  0  0  0  0
 21 30  1  0  0  0  0
 21 31  1  0  0  0  0
 22 23  1  0  0  0  0
 22 24  2  0  0  0  0
 23 25  2  0  0  0  0
 23 32  1  0  0  0  0
 24 26  1  0  0  0  0
 24 33  1  0  0  0  0
 25 27  1  0  0  0  0
 25 34  1  0  0  0  0
 26 27  2  0  0  0  0
 26 35  1  0  0  0  0
 27 36  1  0  0  0  0
 37 38  1  0  0  0  0
 37 42  1  0  0  0  0
 38 39  1  0  0  0  0
 38 41  1  0  0  0  0
 38 43  1  0  0  0  0
 39 40  2  0  0  0  0
 39 47  1  0  0  0  0
 41 44  1  0  0  0  0
 41 45  1  0  0  0  0
 41 46  1  0  0  0  0
 47 48  1  0  0  0  0
 47 49  1  0  0  0  0
 48 50  1  0  0  0  0
 48 51  1  0  0  0  0
 48 52  1  0  0  0  0
M  END
$$$$

  -OEChem-05262217163D

 52 52  0     1  0  0  0  0  0999 V2000
   -3.3987    0.2196    2.3270 C   0  0  0  0  0  0  0  0  0  0  0  0
   -3.1694    0.3126    1.1279 O   0  0  0  0  0  0  0  0  0  0  0  0
   -4.4329   -0.7659    2.8366 C   0  0  0  0  0  0  0  0  0  0  0  0
   -4.9696   -1.2201    1.9990 H   0  0  0  0  0  0  0  0  0  0  0  0
   -3.9440   -1.5557    3.4125 H   0  0  0  0  0  0  0  0  0  0  0  0
   -5.1554   -0.2530    3.4765 H   0  0  0  0  0  0  0  0  0  0  0  0
   -2.6722    0.9783    3.2220 N   0  0  0  0  0  0  0  0  0  0  0  0
   -1.6119    1.9198    2.8321 C   0  0  2  0  0  0  0  0  0  0  0  0
   -0.3775    1.2024    2.2374 C   0  0  0  0  0  0  0  0  0  0  0  0
    0.4891    0.7562    2.9752 O   0  0  0  0  0  0  0  0  0  0  0  0
   -1.2512    2.7573    4.0642 C   0  0  0  0  0  0  0  0  0  0  0  0
   -2.7943    0.7719    4.2098 H   0  0  0  0  0  0  0  0  0  0  0  0
   -1.9986    2.6024    2.0677 H   0  0  0  0  0  0  0  0  0  0  0  0
   -0.8793    2.1189    4.8723 H   0  0  0  0  0  0  0  0  0  0  0  0
   -0.4721    3.4836    3.8116 H   0  0  0  0  0  0  0  0  0  0  0  0
   -2.1284    3.3028    4.4252 H   0  0  0  0  0  0  0  0  0  0  0  0
   -0.3961    0.9286    0.8812 N   0  0  0  0  0  0  0  0  0  0  0  0
    0.6177    0.2733    0.0246 C   0  0  2  0  0  0  0  0  0  0  0  0
    0.1848   -1.1692   -0.3216 C   0  0  0  0  0  0  0  0  0  0  0  0
    0.9512   -1.9369   -0.8931 O   0  0  0  0  0  0  0  0  0  0  0  0
    2.1032    0.3783    0.4553 C   0  0  0  0  0  0  0  0  0  0  0  0
    2.6072    1.8026    0.3597 C   0  0  0  0  0  0  0  0  0  0  0  0
    3.0098    2.3176   -0.8827 C   0  0  0  0  0  0  0  0  0  0  0  0
    2.7335    2.6119    1.4988 C   0  0  0  0  0  0  0  0  0  0  0  0
    3.4970    3.6248   -0.9902 C   0  0  0  0  0  0  0  0  0  0  0  0
    3.2212    3.9191    1.3947 C   0  0  0  0  0  0  0  0  0  0  0  0
    3.5997    4.4280    0.1489 C   0  0  0  0  0  0  0  0  0  0  0  0
   -1.2852    1.1610    0.4365 H   0  0  0  0  0  0  0  0  0  0  0  0
    0.5689    0.7971   -0.9342 H   0  0  0  0  0  0  0  0  0  0  0  0
    2.7191   -0.2375   -0.2079 H   0  0  0  0  0  0  0  0  0  0  0  0
    2.2493   -0.0229    1.4612 H   0  0  0  0  0  0  0  0  0  0  0  0
    2.9439    1.6985   -1.7728 H   0  0  0  0  0  0  0  0  0  0  0  0
    2.4650    2.2234    2.4760 H   0  0  0  0  0  0  0  0  0  0  0  0
    3.8013    4.0122   -1.9580 H   0  0  0  0  0  0  0  0  0  0  0  0
    3.3135    4.5341    2.2849 H   0  0  0  0  0  0  0  0  0  0  0  0
    3.9826    5.4409    0.0679 H   0  0  0  0  0  0  0  0  0  0  0  0
   -1.1205   -1.5870   -0.1172 N   0  0  0  0  0  0  0  0  0  0  0  0
   -1.6249   -2.9330   -0.4302 C   0  0  2  0  0  0  0  0  0  0  0  0
   -1.9337   -3.1240   -1.9357 C   0  0  0  0  0  0  0  0  0  0  0  0
   -3.0431   -3.4633   -2.3315 O   0  0  0  0  0  0  0  0  0  0  0  0
   -2.8470   -3.1800    0.4619 C   0  0  0  0  0  0  0  0  0  0  0  0
   -1.7663   -0.9116    0.2975 H   0  0  0  0  0  0  0  0  0  0  0  0
   -0.8634   -3.6735   -0.1644 H   0  0  0  0  0  0  0  0  0  0  0  0
   -3.6474   -2.4742    0.2181 H   0  0  0  0  0  0  0  0  0  0  0  0
   -3.2249   -4.1964    0.3138 H   0  0  0  0  0  0  0  0  0  0  0  0
   -2.5798   -3.0612    1.5159 H   0  0  0  0  0  0  0  0  0  0  0  0
   -0.9253   -2.9312   -2.8589 N   0  0  0  0  0  0  0  0  0  0  0  0
   -1.0890   -3.0910   -4.2966 C   0  0  0  0  0  0  0  0  0  0  0  0
   -0.0157   -2.6544   -2.4796 H   0  0  0  0  0  0  0  0  0  0  0  0
   -1.3962   -4.1145   -4.5356 H   0  0  0  0  0  0  0  0  0  0  0  0
   -1.8467   -2.3969   -4.6744 H   0  0  0  0  0  0  0  0  0  0  0  0
   -0.1443   -2.8848   -4.8086 H   0  0  0  0  0  0  0  0  0  0  0  0
  1  2  2  0  0  0  0
  1  3  1  0  0  0  0
  1  7  1  0  0  0  0
  3  4  1  0  0  0  0
  3  5  1  0  0  0  0
  3  6  1  0  0  0  0
  7  8  1  0  0  0  0
  7 12  1  0  0  0  0
  8  9  1  0  0  0  0
  8 11  1  0  0  0  0
  8 13  1  0  0  0  0
  9 10  2  0  0  0  0
  9 17  1  0  0  0  0
 11 14  1  0  0  0  0
 11 15  1  0  0  0  0
 11 16  1  0  0  0  0
 17 18  1  0  0  0  0
 17 28  1  0  0  0  0
 18 19  1  0  0  0  0
 18 21  1  0  0  0  0
 18 29  1  0  0  0  0
 19 20  2  0  0  0  0
 19 37  1  0  0  0  0
 21 22  1  0  0  0  0
 21 30  1  0  0  0  0
 21 31  1  0  0  0  0
 22 23  1  0  0  0  0
 22 24  2  0  0  0  0
 23 25  2  0  0  0  0
 23 32  1  0  0  0  0
 24 26  1  0  0  0  0
 24 33  1  0  0  0  0
 25 27  1  0  0  0  0
 25 34  1  0  0  0  0
 26 27  2  0  0  0  0
 26 35  1  0  0  0  0
 27 36  1  0  0  0  0
 37 38  1  0  0  0  0
 37 42  1  0  0  0  0
 38 39  1  0  0  0  0
 38 41  1  0  0  0  0
 38 43  1  0  0  0  0
 39 40  2  0  0  0  0
 39 47  1  0  0  0  0
 41 44  1  0  0  0  0
 41 45  1  0  0  0  0
 41 46  1  0  0  0  0
 47 48  1  0  0  0  0
 47 49  1  0  0  0  0
 48 50  1  0  0  0  0
 48 51  1  0  0  0  0
 48 52  1  0  0  0  0
M  END
$$$$

  -OEChem-05262217163D

 52 52  0     1  0  0  0  0  0999 V2000
   -3.3964    0.3429    2.1534 C   0  0  0  0  0  0  0  0  0  0  0  0
   -3.1205    0.5227    0.9738 O   0  0  0  0  0  0  0  0  0  0  0  0
   -4.5136   -0.6075    2.5389 C   0  0  0  0  0  0  0  0  0  0  0  0
   -5.0164   -0.9847    1.6437 H   0  0  0  0  0  0  0  0  0  0  0  0
   -4.1080   -1.4541    3.0987 H   0  0  0  0  0  0  0  0  0  0  0  0
   -5.2482   -0.0879    3.1595 H   0  0  0  0  0  0  0  0  0  0  0  0
   -2.6582    0.9700    3.1376 N   0  0  0  0  0  0  0  0  0  0  0  0
   -1.5455    1.8985    2.8816 C   0  0  2  0  0  0  0  0  0  0  0  0
   -0.3050    1.1876    2.2897 C   0  0  0  0  0  0  0  0  0  0  0  0
    0.5772    0.7611    3.0203 O   0  0  0  0  0  0  0  0  0  0  0  0
   -1.2305    2.6198    4.1977 C   0  0  0  0  0  0  0  0  0  0  0  0
   -2.8478    0.7020    4.0997 H   0  0  0  0  0  0  0  0  0  0  0  0
   -1.8661    2.6552    2.1573 H   0  0  0  0  0  0  0  0  0  0  0  0
   -0.9218    1.9050    4.9676 H   0  0  0  0  0  0  0  0  0  0  0  0
   -0.4189    3.3391    4.0493 H   0  0  0  0  0  0  0  0  0  0  0  0
   -2.1110    3.1615    4.5567 H   0  0  0  0  0  0  0  0  0  0  0  0
   -0.3390    0.9000    0.9380 N   0  0  0  0  0  0  0  0  0  0  0  0
    0.6560    0.2386    0.0670 C   0  0  2  0  0  0  0  0  0  0  0  0
    0.2006   -1.2034   -0.2512 C   0  0  0  0  0  0  0  0  0  0  0  0
    0.9950   -2.0573   -0.6297 O   0  0  0  0  0  0  0  0  0  0  0  0
    2.1490    0.3512    0.4676 C   0  0  0  0  0  0  0  0  0  0  0  0
    2.6446    1.7767    0.3474 C   0  0  0  0  0  0  0  0  0  0  0  0
    3.0201    2.2800   -0.9083 C   0  0  0  0  0  0  0  0  0  0  0  0
    2.7841    2.6007    1.4745 C   0  0  0  0  0  0  0  0  0  0  0  0
    3.4935    3.5899   -1.0403 C   0  0  0  0  0  0  0  0  0  0  0  0
    3.2559    3.9116    1.3455 C   0  0  0  0  0  0  0  0  0  0  0  0
    3.6076    4.4083    0.0871 C   0  0  0  0  0  0  0  0  0  0  0  0
   -1.2314    1.1435    0.5039 H   0  0  0  0  0  0  0  0  0  0  0  0
    0.5886    0.7528   -0.8959 H   0  0  0  0  0  0  0  0  0  0  0  0
    2.7541   -0.2701   -0.2004 H   0  0  0  0  0  0  0  0  0  0  0  0
    2.3134   -0.0378    1.4757 H   0  0  0  0  0  0  0  0  0  0  0  0
    2.9427    1.6503   -1.7897 H   0  0  0  0  0  0  0  0  0  0  0  0
    2.5374    2.2212    2.4610 H   0  0  0  0  0  0  0  0  0  0  0  0
    3.7766    3.9692   -2.0178 H   0  0  0  0  0  0  0  0  0  0  0  0
    3.3566    4.5387    2.2263 H   0  0  0  0  0  0  0  0  0  0  0  0
    3.9774    5.4244   -0.0134 H   0  0  0  0  0  0  0  0  0  0  0  0
   -1.1503   -1.5084   -0.3034 N   0  0  0  0  0  0  0  0  0  0  0  0
   -1.6950   -2.8205   -0.6839 C   0  0  2  0  0  0  0  0  0  0  0  0
   -1.7203   -3.0294   -2.2177 C   0  0  0  0  0  0  0  0  0  0  0  0
   -2.7612   -3.2536   -2.8246 O   0  0  0  0  0  0  0  0  0  0  0  0
   -3.0822   -2.9397   -0.0426 C   0  0  0  0  0  0  0  0  0  0  0  0
   -1.8040   -0.7817   -0.0058 H   0  0  0  0  0  0  0  0  0  0  0  0
   -1.0645   -3.6117   -0.2644 H   0  0  0  0  0  0  0  0  0  0  0  0
   -3.7513   -2.1631   -0.4278 H   0  0  0  0  0  0  0  0  0  0  0  0
   -3.5213   -3.9175   -0.2652 H   0  0  0  0  0  0  0  0  0  0  0  0
   -3.0082   -2.8351    1.0435 H   0  0  0  0  0  0  0  0  0  0  0  0
   -0.5333   -2.9724   -2.9206 N   0  0  0  0  0  0  0  0  0  0  0  0
   -0.4266   -3.1311   -4.3639 C   0  0  0  0  0  0  0  0  0  0  0  0
    0.3047   -2.7664   -2.3702 H   0  0  0  0  0  0  0  0  0  0  0  0
   -0.8245   -4.1031   -4.6728 H   0  0  0  0  0  0  0  0  0  0  0  0
   -0.9845   -2.3415   -4.8776 H   0  0  0  0  0  0  0  0  0  0  0  0
    0.6214   -3.0731   -4.6728 H   0  0  0  0  0  0  0  0  0  0  0  0
  1  2  2  0  0  0  0
  1  3  1  0  0  0  0
  1  7  1  0  0  0  0
  3  4  1  0  0  0  0
  3  5  1  0  0  0  0
  3  6  1  0  0  0  0
  7  8  1  0  0  0  0
  7 12  1  0  0  0  0
  8  9  1  0  0  0  0
  8 11  1  0  0  0  0
  8 13  1  0  0  0  0
  9 10  2  0  0  0  0
  9 17  1  0  0  0  0
 11 14  1  0  0  0  0
 11 15  1  0  0  0  0
 11 16  1  0  0  0  0
 17 18  1  0  0  0  0
 17 28  1  0  0  0  0
 18 19  1  0  0  0  0
 18 21  1  0  0  0  0
 18 29  1  0  0  0  0
 19 20  2  0  0  0  0
 19 37  1  0  0  0  0
 21 22  1  0  0  0  0
 21 30  1  0  0  0  0
 21 31  1  0  0  0  0
 22 23  1  0  0  0  0
 22 24  2  0  0  0  0
 23 25  2  0  0  0  0
 23 32  1  0  0  0  0
 24 26  1  0  0  0  0
 24 33  1  0  0  0  0
 25 27  1  0  0  0  0
 25 34  1  0  0  0  0
 26 27  2  0  0  0  0
 26 35  1  0  0  0  0
 27 36  1  0  0  0  0
 37 38  1  0  0  0  0
 37 42  1  0  0  0  0
 38 39  1  0  0  0  0
 38 41  1  0  0  0  0
 38 43  1  0  0  0  0
 39 40  2  0  0  0  0
 39 47  1  0  0  0  0
 41 44  1  0  0  0  0
 41 45  1  0  0  0  0
 41 46  1  0  0  0  0
 47 48  1  0  0  0  0
 47 49  1  0  0  0  0
 48 50  1  0  0  0  0
 48 51  1  0  0  0  0
 48 52  1  0  0  0  0
M  END
$$$$

  -OEChem-05262217163D

 52 52  0     1  0  0  0  0  0999 V2000
   -3.3660    0.4474    2.0595 C   0  0  0  0  0  0  0  0  0  0  0  0
   -3.0758    0.7587    0.9111 O   0  0  0  0  0  0  0  0  0  0  0  0
   -4.5436   -0.4714    2.3215 C   0  0  0  0  0  0  0  0  0  0  0  0
   -4.1943   -1.4114    2.7558 H   0  0  0  0  0  0  0  0  0  0  0  0
   -5.2424    0.0038    3.0145 H   0  0  0  0  0  0  0  0  0  0  0  0
   -5.0703   -0.6877    1.3877 H   0  0  0  0  0  0  0  0  0  0  0  0
   -2.5960    0.8939    3.1161 N   0  0  0  0  0  0  0  0  0  0  0  0
   -1.4389    1.7973    2.9929 C   0  0  2  0  0  0  0  0  0  0  0  0
   -0.2114    1.1130    2.3437 C   0  0  0  0  0  0  0  0  0  0  0  0
    0.7027    0.6747    3.0265 O   0  0  0  0  0  0  0  0  0  0  0  0
   -1.1307    2.3494    4.3899 C   0  0  0  0  0  0  0  0  0  0  0  0
   -2.8216    0.5286    4.0377 H   0  0  0  0  0  0  0  0  0  0  0  0
   -1.7114    2.6450    2.3551 H   0  0  0  0  0  0  0  0  0  0  0  0
   -0.8685    1.5392    5.0783 H   0  0  0  0  0  0  0  0  0  0  0  0
   -0.2888    3.0474    4.3424 H   0  0  0  0  0  0  0  0  0  0  0  0
   -1.9986    2.8822    4.7901 H   0  0  0  0  0  0  0  0  0  0  0  0
   -0.2914    0.8775    0.9853 N   0  0  0  0  0  0  0  0  0  0  0  0
    0.6697    0.2697    0.0440 C   0  0  2  0  0  0  0  0  0  0  0  0
    0.1986   -1.1603   -0.2988 C   0  0  0  0  0  0  0  0  0  0  0  0
    0.9899   -2.0752   -0.4993 O   0  0  0  0  0  0  0  0  0  0  0  0
    2.1768    0.3744    0.3868 C   0  0  0  0  0  0  0  0  0  0  0  0
    2.6607    1.8076    0.3182 C   0  0  0  0  0  0  0  0  0  0  0  0
    2.9813    2.3773   -0.9243 C   0  0  0  0  0  0  0  0  0  0  0  0
    2.8508    2.5718    1.4796 C   0  0  0  0  0  0  0  0  0  0  0  0
    3.4468    3.6942   -1.0074 C   0  0  0  0  0  0  0  0  0  0  0  0
    3.3172    3.8883    1.3997 C   0  0  0  0  0  0  0  0  0  0  0  0
    3.6115    4.4521    0.1552 C   0  0  0  0  0  0  0  0  0  0  0  0
   -1.1951    1.1533    0.5943 H   0  0  0  0  0  0  0  0  0  0  0  0
    0.5595    0.8214   -0.8935 H   0  0  0  0  0  0  0  0  0  0  0  0
    2.7543   -0.2108   -0.3363 H   0  0  0  0  0  0  0  0  0  0  0  0
    2.3833   -0.0618    1.3676 H   0  0  0  0  0  0  0  0  0  0  0  0
    2.8666    1.7955   -1.8340 H   0  0  0  0  0  0  0  0  0  0  0  0
    2.6496    2.1403    2.4550 H   0  0  0  0  0  0  0  0  0  0  0  0
    3.6850    4.1258   -1.9750 H   0  0  0  0  0  0  0  0  0  0  0  0
    3.4585    4.4675    2.3071 H   0  0  0  0  0  0  0  0  0  0  0  0
    3.9769    5.4728    0.0929 H   0  0  0  0  0  0  0  0  0  0  0  0
   -1.1372   -1.3818   -0.5933 N   0  0  0  0  0  0  0  0  0  0  0  0
   -1.6940   -2.6838   -0.9912 C   0  0  2  0  0  0  0  0  0  0  0  0
   -1.4632   -2.9925   -2.4906 C   0  0  0  0  0  0  0  0  0  0  0  0
   -2.3952   -3.1905   -3.2613 O   0  0  0  0  0  0  0  0  0  0  0  0
   -3.1771   -2.6846   -0.6016 C   0  0  0  0  0  0  0  0  0  0  0  0
   -1.7867   -0.6195   -0.3983 H   0  0  0  0  0  0  0  0  0  0  0  0
   -1.2013   -3.4800   -0.4227 H   0  0  0  0  0  0  0  0  0  0  0  0
   -3.7155   -1.8926   -1.1322 H   0  0  0  0  0  0  0  0  0  0  0  0
   -3.6355   -3.6457   -0.8557 H   0  0  0  0  0  0  0  0  0  0  0  0
   -3.2868   -2.5253    0.4746 H   0  0  0  0  0  0  0  0  0  0  0  0
   -0.1701   -3.0587   -2.9703 N   0  0  0  0  0  0  0  0  0  0  0  0
    0.1764   -3.3241   -4.3595 C   0  0  0  0  0  0  0  0  0  0  0  0
    0.5713   -2.8609   -2.2927 H   0  0  0  0  0  0  0  0  0  0  0  0
   -0.2662   -4.2689   -4.6917 H   0  0  0  0  0  0  0  0  0  0  0  0
   -0.1867   -2.5179   -5.0049 H   0  0  0  0  0  0  0  0  0  0  0  0
    1.2627   -3.3952   -4.4700 H   0  0  0  0  0  0  0  0  0  0  0  0
  1  2  2  0  0  0  0
  1  3  1  0  0  0  0
  1  7  1  0  0  0  0
  3  4  1  0  0  0  0
  3  5  1  0  0  0  0
  3  6  1  0  0  0  0
  7  8  1  0  0  0  0
  7 12  1  0  0  0  0
  8  9  1  0  0  0  0
  8 11  1  0  0  0  0
  8 13  1  0  0  0  0
  9 10  2  0  0  0  0
  9 17  1  0  0  0  0
 11 14  1  0  0  0  0
 11 15  1  0  0  0  0
 11 16  1  0  0  0  0
 17 18  1  0  0  0  0
 17 28  1  0  0  0  0
 18 19  1  0  0  0  0
 18 21  1  0  0  0  0
 18 29  1  0  0  0  0
 19 20  2  0  0  0  0
 19 37  1  0  0  0  0
 21 22  1  0  0  0  0
 21 30  1  0  0  0  0
 21 31  1  0  0  0  0
 22 23  1  0  0  0  0
 22 24  2  0  0  0  0
 23 25  2  0  0  0  0
 23 32  1  0  0  0  0
 24 26  1  0  0  0  0
 24 33  1  0  0  0  0
 25 27  1  0  0  0  0
 25 34  1  0  0  0  0
 26 27  2  0  0  0  0
 26 35  1  0  0  0  0
 27 36  1  0  0  0  0
 37 38  1  0  0  0  0
 37 42  1  0  0  0  0
 38 39  1  0  0  0  0
 38 41  1  0  0  0  0
 38 43  1  0  0  0  0
 39 40  2  0  0  0  0
 39 47  1  0  0  0  0
 41 44  1  0  0  0  0
 41 45  1  0  0  0  0
 41 46  1  0  0  0  0
 47 48  1  0  0  0  0
 47 49  1  0  0  0  0
 48 50  1  0  0  0  0
 48 51  1  0  0  0  0
 48 52  1  0  0  0  0
M  END
$$$$

  -OEChem-05262217163D

 52 52  0     1  0  0  0  0  0999 V2000
   -3.3442    0.5059    2.0195 C   0  0  0  0  0  0  0  0  0  0  0  0
   -3.0919    0.9468    0.9052 O   0  0  0  0  0  0  0  0  0  0  0  0
   -4.4681   -0.4957    2.2025 C   0  0  0  0  0  0  0  0  0  0  0  0
   -4.0555   -1.4783    2.4451 H   0  0  0  0  0  0  0  0  0  0  0  0
   -5.1277   -0.1752    3.0128 H   0  0  0  0  0  0  0  0  0  0  0  0
   -5.0563   -0.5759    1.2839 H   0  0  0  0  0  0  0  0  0  0  0  0
   -2.5659    0.8707    3.1010 N   0  0  0  0  0  0  0  0  0  0  0  0
   -1.4140    1.7852    3.0314 C   0  0  2  0  0  0  0  0  0  0  0  0
   -0.1879    1.1319    2.3488 C   0  0  0  0  0  0  0  0  0  0  0  0
    0.7375    0.6862    3.0110 O   0  0  0  0  0  0  0  0  0  0  0  0
   -1.1125    2.2635    4.4570 C   0  0  0  0  0  0  0  0  0  0  0  0
   -2.7393    0.3862    3.9779 H   0  0  0  0  0  0  0  0  0  0  0  0
   -1.6857    2.6652    2.4385 H   0  0  0  0  0  0  0  0  0  0  0  0
   -0.8414    1.4198    5.1001 H   0  0  0  0  0  0  0  0  0  0  0  0
   -0.2786    2.9726    4.4487 H   0  0  0  0  0  0  0  0  0  0  0  0
   -1.9865    2.7636    4.8851 H   0  0  0  0  0  0  0  0  0  0  0  0
   -0.2842    0.9234    0.9865 N   0  0  0  0  0  0  0  0  0  0  0  0
    0.6655    0.3281    0.0252 C   0  0  2  0  0  0  0  0  0  0  0  0
    0.1787   -1.0901   -0.3355 C   0  0  0  0  0  0  0  0  0  0  0  0
    0.9102   -2.0716   -0.2714 O   0  0  0  0  0  0  0  0  0  0  0  0
    2.1767    0.4076    0.3539 C   0  0  0  0  0  0  0  0  0  0  0  0
    2.6785    1.8354    0.3124 C   0  0  0  0  0  0  0  0  0  0  0  0
    2.9936    2.4283   -0.9205 C   0  0  0  0  0  0  0  0  0  0  0  0
    2.8873    2.5720    1.4882 C   0  0  0  0  0  0  0  0  0  0  0  0
    3.4720    3.7417   -0.9795 C   0  0  0  0  0  0  0  0  0  0  0  0
    3.3647    3.8855    1.4324 C   0  0  0  0  0  0  0  0  0  0  0  0
    3.6535    4.4731    0.1976 C   0  0  0  0  0  0  0  0  0  0  0  0
   -1.1970    1.1964    0.6144 H   0  0  0  0  0  0  0  0  0  0  0  0
    0.5557    0.9009   -0.9001 H   0  0  0  0  0  0  0  0  0  0  0  0
    2.7364   -0.1716   -0.3880 H   0  0  0  0  0  0  0  0  0  0  0  0
    2.3873   -0.0524    1.3231 H   0  0  0  0  0  0  0  0  0  0  0  0
    2.8655    1.8675   -1.8414 H   0  0  0  0  0  0  0  0  0  0  0  0
    2.6910    2.1220    2.4562 H   0  0  0  0  0  0  0  0  0  0  0  0
    3.7067    4.1909   -1.9399 H   0  0  0  0  0  0  0  0  0  0  0  0
    3.5184    4.4431    2.3514 H   0  0  0  0  0  0  0  0  0  0  0  0
    4.0273    5.4917    0.1545 H   0  0  0  0  0  0  0  0  0  0  0  0
   -1.0688   -1.2417   -0.9167 N   0  0  0  0  0  0  0  0  0  0  0  0
   -1.6523   -2.5366   -1.2988 C   0  0  2  0  0  0  0  0  0  0  0  0
   -1.1230   -3.0517   -2.6596 C   0  0  0  0  0  0  0  0  0  0  0  0
   -1.8722   -3.2637   -3.6060 O   0  0  0  0  0  0  0  0  0  0  0  0
   -3.1767   -2.3683   -1.2775 C   0  0  0  0  0  0  0  0  0  0  0  0
   -1.6766   -0.4250   -0.9183 H   0  0  0  0  0  0  0  0  0  0  0  0
   -1.3889   -3.2901   -0.5487 H   0  0  0  0  0  0  0  0  0  0  0  0
   -3.4928   -1.6272   -2.0187 H   0  0  0  0  0  0  0  0  0  0  0  0
   -3.6661   -3.3196   -1.5096 H   0  0  0  0  0  0  0  0  0  0  0  0
   -3.5108   -2.0400   -0.2893 H   0  0  0  0  0  0  0  0  0  0  0  0
    0.2286   -3.2904   -2.8080 N   0  0  0  0  0  0  0  0  0  0  0  0
    0.8465   -3.7532   -4.0427 C   0  0  0  0  0  0  0  0  0  0  0  0
    0.8168   -3.0641   -2.0011 H   0  0  0  0  0  0  0  0  0  0  0  0
    0.4039   -4.7034   -4.3598 H   0  0  0  0  0  0  0  0  0  0  0  0
    0.7075   -3.0152   -4.8395 H   0  0  0  0  0  0  0  0  0  0  0  0
    1.9198   -3.9049   -3.8934 H   0  0  0  0  0  0  0  0  0  0  0  0
  1  2  2  0  0  0  0
  1  3  1  0  0  0  0
  1  7  1  0  0  0  0
  3  4  1  0  0  0  0
  3  5  1  0  0  0  0
  3  6  1  0  0  0  0
  7  8  1  0  0  0  0
  7 12  1  0  0  0  0
  8  9  1  0  0  0  0
  8 11  1  0  0  0  0
  8 13  1  0  0  0  0
  9 10  2  0  0  0  0
  9 17  1  0  0  0  0
 11 14  1  0  0  0  0
 11 15  1  0  0  0  0
 11 16  1  0  0  0  0
 17 18  1  0  0  0  0
 17 28  1  0  0  0  0
 18 19  1  0  0  0  0
 18 21  1  0  0  0  0
 18 29  1  0  0  0  0
 19 20  2  0  0  0  0
 19 37  1  0  0  0  0
 21 22  1  0  0  0  0
 21 30  1  0  0  0  0
 21 31  1  0  0  0  0
 22 23  1  0  0  0  0
 22 24  2  0  0  0  0
 23 25  2  0  0  0  0
 23 32  1  0  0  0  0
 24 26  1  0  0  0  0
 24 33  1  0  0  0  0
 25 27  1  0  0  0  0
 25 34  1  0  0  0  0
 26 27  2  0  0  0  0
 26 35  1  0  0  0  0
 27 36  1  0  0  0  0
 37 38  1  0  0  0  0
 37 42  1  0  0  0  0
 38 39  1  0  0  0  0
 38 41  1  0  0  0  0
 38 43  1  0  0  0  0
 39 40  2  0  0  0  0
 39 47  1  0  0  0  0
 41 44  1  0  0  0  0
 41 45  1  0  0  0  0
 41 46  1  0  0  0  0
 47 48  1  0  0  0  0
 47 49  1  0  0  0  0
 48 50  1  0  0  0  0
 48 51  1  0  0  0  0
 48 52  1  0  0  0  0
M  END
$$$$

  -OEChem-05262217163D

 52 52  0     1  0  0  0  0  0999 V2000
   -3.6539    0.9423    4.1458 C   0  0  0  0  0  0  0  0  0  0  0  0
   -4.5187    1.3681    3.3964 O   0  0  0  0  0  0  0  0  0  0  0  0
   -4.0403    0.1461    5.3779 C   0  0  0  0  0  0  0  0  0  0  0  0
   -5.1290    0.0904    5.4655 H   0  0  0  0  0  0  0  0  0  0  0  0
   -3.6404   -0.8686    5.3067 H   0  0  0  0  0  0  0  0  0  0  0  0
   -3.6394    0.6260    6.2739 H   0  0  0  0  0  0  0  0  0  0  0  0
   -2.3213    1.1630    3.8668 N   0  0  0  0  0  0  0  0  0  0  0  0
   -1.8275    1.6721    2.5796 C   0  0  2  0  0  0  0  0  0  0  0  0
   -0.8197    0.6976    1.9358 C   0  0  0  0  0  0  0  0  0  0  0  0
   -0.1869   -0.0616    2.6577 O   0  0  0  0  0  0  0  0  0  0  0  0
   -1.1711    3.0321    2.8271 C   0  0  0  0  0  0  0  0  0  0  0  0
   -1.6556    0.6239    4.4190 H   0  0  0  0  0  0  0  0  0  0  0  0
   -2.6548    1.8034    1.8745 H   0  0  0  0  0  0  0  0  0  0  0  0
   -0.3408    2.9348    3.5338 H   0  0  0  0  0  0  0  0  0  0  0  0
   -0.7839    3.4478    1.8915 H   0  0  0  0  0  0  0  0  0  0  0  0
   -1.9017    3.7336    3.2420 H   0  0  0  0  0  0  0  0  0  0  0  0
   -0.6984    0.6605    0.5555 N   0  0  0  0  0  0  0  0  0  0  0  0
    0.4113    0.0941   -0.2487 C   0  0  2  0  0  0  0  0  0  0  0  0
   -0.0023   -1.2549   -0.8760 C   0  0  0  0  0  0  0  0  0  0  0  0
    0.5195   -2.3118   -0.5416 O   0  0  0  0  0  0  0  0  0  0  0  0
    1.8155    0.0442    0.4039 C   0  0  0  0  0  0  0  0  0  0  0  0
    2.3645    1.4369    0.6212 C   0  0  0  0  0  0  0  0  0  0  0  0
    2.9659    2.1328   -0.4391 C   0  0  0  0  0  0  0  0  0  0  0  0
    2.3138    2.0416    1.8861 C   0  0  0  0  0  0  0  0  0  0  0  0
    3.4775    3.4208   -0.2459 C   0  0  0  0  0  0  0  0  0  0  0  0
    2.8230    3.3297    2.0816 C   0  0  0  0  0  0  0  0  0  0  0  0
    3.4021    4.0218    1.0142 C   0  0  0  0  0  0  0  0  0  0  0  0
   -1.3000    1.3255    0.0785 H   0  0  0  0  0  0  0  0  0  0  0  0
    0.5342    0.7657   -1.1029 H   0  0  0  0  0  0  0  0  0  0  0  0
    2.4986   -0.4921   -0.2632 H   0  0  0  0  0  0  0  0  0  0  0  0
    1.8023   -0.5231    1.3380 H   0  0  0  0  0  0  0  0  0  0  0  0
    3.0392    1.6736   -1.4203 H   0  0  0  0  0  0  0  0  0  0  0  0
    1.8859    1.5054    2.7282 H   0  0  0  0  0  0  0  0  0  0  0  0
    3.9385    3.9523   -1.0734 H   0  0  0  0  0  0  0  0  0  0  0  0
    2.7758    3.7871    3.0655 H   0  0  0  0  0  0  0  0  0  0  0  0
    3.8023    5.0201    1.1665 H   0  0  0  0  0  0  0  0  0  0  0  0
   -0.8638   -1.2721   -1.9598 N   0  0  0  0  0  0  0  0  0  0  0  0
   -1.2738   -2.4931   -2.6716 C   0  0  2  0  0  0  0  0  0  0  0  0
   -0.1914   -2.9927   -3.6595 C   0  0  0  0  0  0  0  0  0  0  0  0
   -0.3758   -2.9957   -4.8708 O   0  0  0  0  0  0  0  0  0  0  0  0
   -2.6136   -2.1957   -3.3570 C   0  0  0  0  0  0  0  0  0  0  0  0
   -1.2369   -0.3839   -2.2786 H   0  0  0  0  0  0  0  0  0  0  0  0
   -1.4432   -3.2978   -1.9475 H   0  0  0  0  0  0  0  0  0  0  0  0
   -2.5003   -1.3969   -4.0969 H   0  0  0  0  0  0  0  0  0  0  0  0
   -2.9836   -3.0898   -3.8688 H   0  0  0  0  0  0  0  0  0  0  0  0
   -3.3605   -1.8880   -2.6189 H   0  0  0  0  0  0  0  0  0  0  0  0
    1.0215   -3.4262   -3.1629 N   0  0  0  0  0  0  0  0  0  0  0  0
    2.1318   -3.8730   -3.9924 C   0  0  0  0  0  0  0  0  0  0  0  0
    1.1536   -3.3299   -2.1519 H   0  0  0  0  0  0  0  0  0  0  0  0
    1.8282   -4.7225   -4.6133 H   0  0  0  0  0  0  0  0  0  0  0  0
    2.4730   -3.0627   -4.6448 H   0  0  0  0  0  0  0  0  0  0  0  0
    2.9692   -4.1881   -3.3625 H   0  0  0  0  0  0  0  0  0  0  0  0
  1  2  2  0  0  0  0
  1  3  1  0  0  0  0
  1  7  1  0  0  0  0
  3  4  1  0  0  0  0
  3  5  1  0  0  0  0
  3  6  1  0  0  0  0
  7  8  1  0  0  0  0
  7 12  1  0  0  0  0
  8  9  1  0  0  0  0
  8 11  1  0  0  0  0
  8 13  1  0  0  0  0
  9 10  2  0  0  0  0
  9 17  1  0  0  0  0
 11 14  1  0  0  0  0
 11 15  1  0  0  0  0
 11 16  1  0  0  0  0
 17 18  1  0  0  0  0
 17 28  1  0  0  0  0
 18 19  1  0  0  0  0
 18 21  1  0  0  0  0
 18 29  1  0  0  0  0
 19 20  2  0  0  0  0
 19 37  1  0  0  0  0
 21 22  1  0  0  0  0
 21 30  1  0  0  0  0
 21 31  1  0  0  0  0
 22 23  1  0  0  0  0
 22 24  2  0  0  0  0
 23 25  2  0  0  0  0
 23 32  1  0  0  0  0
 24 26  1  0  0  0  0
 24 33  1  0  0  0  0
 25 27  1  0  0  0  0
 25 34  1  0  0  0  0
 26 27  2  0  0  0  0
 26 35  1  0  0  0  0
 27 36  1  0  0  0  0
 37 38  1  0  0  0  0
 37 42  1  0  0  0  0
 38 39  1  0  0  0  0
 38 41  1  0  0  0  0
 38 43  1  0  0  0  0
 39 40  2  0  0  0  0
 39 47  1  0  0  0  0
 41 44  1  0  0  0  0
 41 45  1  0  0  0  0
 41 46  1  0  0  0  0
 47 48  1  0  0  0  0
 47 49  1  0  0  0  0
 48 50  1  0  0  0  0
 48 51  1  0  0  0  0
 48 52  1  0  0  0  0
M  END
$$$$

  -OEChem-05262217163D

 52 52  0     1  0  0  0  0  0999 V2000
   -3.6223    1.0591    4.2958 C   0  0  0  0  0  0  0  0  0  0  0  0
   -4.4656    1.6803    3.6681 O   0  0  0  0  0  0  0  0  0  0  0  0
   -4.0130    0.2961    5.5478 C   0  0  0  0  0  0  0  0  0  0  0  0
   -5.0908    0.3742    5.7159 H   0  0  0  0  0  0  0  0  0  0  0  0
   -3.7499   -0.7592    5.4396 H   0  0  0  0  0  0  0  0  0  0  0  0
   -3.4903    0.7082    6.4144 H   0  0  0  0  0  0  0  0  0  0  0  0
   -2.3149    1.0360    3.8585 N   0  0  0  0  0  0  0  0  0  0  0  0
   -1.8742    1.5482    2.5545 C   0  0  2  0  0  0  0  0  0  0  0  0
   -0.8510    0.6059    1.8878 C   0  0  0  0  0  0  0  0  0  0  0  0
   -0.2192   -0.1738    2.5886 O   0  0  0  0  0  0  0  0  0  0  0  0
   -1.2612    2.9349    2.7667 C   0  0  0  0  0  0  0  0  0  0  0  0
   -1.6833    0.3876    4.3279 H   0  0  0  0  0  0  0  0  0  0  0  0
   -2.7299    1.6333    1.8764 H   0  0  0  0  0  0  0  0  0  0  0  0
   -0.4055    2.8749    3.4468 H   0  0  0  0  0  0  0  0  0  0  0  0
   -0.9200    3.3545    1.8154 H   0  0  0  0  0  0  0  0  0  0  0  0
   -2.0032    3.6139    3.1988 H   0  0  0  0  0  0  0  0  0  0  0  0
   -0.7127    0.6279    0.5086 N   0  0  0  0  0  0  0  0  0  0  0  0
    0.4062    0.1019   -0.3089 C   0  0  2  0  0  0  0  0  0  0  0  0
    0.0062   -1.2186   -0.9996 C   0  0  0  0  0  0  0  0  0  0  0  0
    0.2972   -2.3077   -0.5212 O   0  0  0  0  0  0  0  0  0  0  0  0
    1.8027    0.0135    0.3540 C   0  0  0  0  0  0  0  0  0  0  0  0
    2.3494    1.3929    0.6480 C   0  0  0  0  0  0  0  0  0  0  0  0
    2.9618    2.1433   -0.3683 C   0  0  0  0  0  0  0  0  0  0  0  0
    2.2811    1.9326    1.9410 C   0  0  0  0  0  0  0  0  0  0  0  0
    3.4635    3.4227   -0.1041 C   0  0  0  0  0  0  0  0  0  0  0  0
    2.7803    3.2115    2.2072 C   0  0  0  0  0  0  0  0  0  0  0  0
    3.3676    3.9597    1.1832 C   0  0  0  0  0  0  0  0  0  0  0  0
   -1.3256    1.2942    0.0484 H   0  0  0  0  0  0  0  0  0  0  0  0
    0.5385    0.8167   -1.1256 H   0  0  0  0  0  0  0  0  0  0  0  0
    2.4911   -0.4905   -0.3323 H   0  0  0  0  0  0  0  0  0  0  0  0
    1.7770   -0.6001    1.2581 H   0  0  0  0  0  0  0  0  0  0  0  0
    3.0497    1.7354   -1.3708 H   0  0  0  0  0  0  0  0  0  0  0  0
    1.8465    1.3528    2.7501 H   0  0  0  0  0  0  0  0  0  0  0  0
    3.9320    3.9977   -0.8976 H   0  0  0  0  0  0  0  0  0  0  0  0
    2.7197    3.6178    3.2126 H   0  0  0  0  0  0  0  0  0  0  0  0
    3.7593    4.9512    1.3909 H   0  0  0  0  0  0  0  0  0  0  0  0
   -0.5762   -1.1953   -2.2556 N   0  0  0  0  0  0  0  0  0  0  0  0
   -0.9391   -2.4009   -3.0175 C   0  0  2  0  0  0  0  0  0  0  0  0
    0.2849   -3.0580   -3.7000 C   0  0  0  0  0  0  0  0  0  0  0  0
    0.4039   -3.0857   -4.9190 O   0  0  0  0  0  0  0  0  0  0  0  0
   -2.0342   -2.0020   -4.0146 C   0  0  0  0  0  0  0  0  0  0  0  0
   -0.7299   -0.2905   -2.6892 H   0  0  0  0  0  0  0  0  0  0  0  0
   -1.3655   -3.1475   -2.3385 H   0  0  0  0  0  0  0  0  0  0  0  0
   -1.6621   -1.2492   -4.7171 H   0  0  0  0  0  0  0  0  0  0  0  0
   -2.3611   -2.8762   -4.5869 H   0  0  0  0  0  0  0  0  0  0  0  0
   -2.9008   -1.5931   -3.4860 H   0  0  0  0  0  0  0  0  0  0  0  0
    1.2789   -3.6044   -2.9134 N   0  0  0  0  0  0  0  0  0  0  0  0
    2.5059   -4.1862   -3.4387 C   0  0  0  0  0  0  0  0  0  0  0  0
    1.1746   -3.4757   -1.9026 H   0  0  0  0  0  0  0  0  0  0  0  0
    2.2766   -5.0091   -4.1237 H   0  0  0  0  0  0  0  0  0  0  0  0
    3.0882   -3.4310   -3.9765 H   0  0  0  0  0  0  0  0  0  0  0  0
    3.1170   -4.5782   -2.6201 H   0  0  0  0  0  0  0  0  0  0  0  0
  1  2  2  0  0  0  0
  1  3  1  0  0  0  0
  1  7  1  0  0  0  0
  3  4  1  0  0  0  0
  3  5  1  0  0  0  0
  3  6  1  0  0  0  0
  7  8  1  0  0  0  0
  7 12  1  0  0  0  0
  8  9  1  0  0  0  0
  8 11  1  0  0  0  0
  8 13  1  0  0  0  0
  9 10  2  0  0  0  0
  9 17  1  0  0  0  0
 11 14  1  0  0  0  0
 11 15  1  0  0  0  0
 11 16  1  0  0  0  0
 17 18  1  0  0  0  0
 17 28  1  0  0  0  0
 18 19  1  0  0  0  0
 18 21  1  0  0  0  0
 18 29  1  0  0  0  0
 19 20  2  0  0  0  0
 19 37  1  0  0  0  0
 21 22  1  0  0  0  0
 21 30  1  0  0  0  0
 21 31  1  0  0  0  0
 22 23  1  0  0  0  0
 22 24  2  0  0  0  0
 23 25  2  0  0  0  0
 23 32  1  0  0  0  0
 24 26  1  0  0  0  0
 24 33  1  0  0  0  0
 25 27  1  0  0  0  0
 25 34  1  0  0  0  0
 26 27  2  0  0  0  0
 26 35  1  0  0  0  0
 27 36  1  0  0  0  0
 37 38  1  0  0  0  0
 37 42  1  0  0  0  0
 38 39  1  0  0  0  0
 38 41  1  0  0  0  0
 38 43  1  0  0  0  0
 39 40  2  0  0  0  0
 39 47  1  0  0  0  0
 41 44  1  0  0  0  0
 41 45  1  0  0  0  0
 41 46  1  0  0  0  0
 47 48  1  0  0  0  0
 47 49  1  0  0  0  0
 48 50  1  0  0  0  0
 48 51  1  0  0  0  0
 48 52  1  0  0  0  0
M  END
$$$$

  -OEChem-05262217163D

 52 52  0     1  0  0  0  0  0999 V2000
   -3.6431    0.9753    4.2983 C   0  0  0  0  0  0  0  0  0  0  0  0
   -4.4969    1.6113    3.7002 O   0  0  0  0  0  0  0  0  0  0  0  0
   -4.0066    0.2029    5.5523 C   0  0  0  0  0  0  0  0  0  0  0  0
   -5.0644    0.3461    5.7901 H   0  0  0  0  0  0  0  0  0  0  0  0
   -3.8208   -0.8632    5.4006 H   0  0  0  0  0  0  0  0  0  0  0  0
   -3.4058    0.5545    6.3945 H   0  0  0  0  0  0  0  0  0  0  0  0
   -2.3482    0.9459    3.8261 N   0  0  0  0  0  0  0  0  0  0  0  0
   -1.9315    1.4897    2.5274 C   0  0  2  0  0  0  0  0  0  0  0  0
   -0.8531    0.6101    1.8620 C   0  0  0  0  0  0  0  0  0  0  0  0
   -0.1931   -0.1470    2.5621 O   0  0  0  0  0  0  0  0  0  0  0  0
   -1.3996    2.9090    2.7465 C   0  0  0  0  0  0  0  0  0  0  0  0
   -1.7049    0.2926    4.2729 H   0  0  0  0  0  0  0  0  0  0  0  0
   -2.7896    1.5266    1.8479 H   0  0  0  0  0  0  0  0  0  0  0  0
   -0.5355    2.8943    3.4189 H   0  0  0  0  0  0  0  0  0  0  0  0
   -1.0931    3.3561    1.7959 H   0  0  0  0  0  0  0  0  0  0  0  0
   -2.1766    3.5396    3.1906 H   0  0  0  0  0  0  0  0  0  0  0  0
   -0.6978    0.6635    0.4854 N   0  0  0  0  0  0  0  0  0  0  0  0
    0.4229    0.1500   -0.3370 C   0  0  2  0  0  0  0  0  0  0  0  0
    0.0276   -1.1483   -1.0691 C   0  0  0  0  0  0  0  0  0  0  0  0
    0.0175   -2.2284   -0.4929 O   0  0  0  0  0  0  0  0  0  0  0  0
    1.8170    0.0291    0.3228 C   0  0  0  0  0  0  0  0  0  0  0  0
    2.3811    1.3938    0.6551 C   0  0  0  0  0  0  0  0  0  0  0  0
    3.0028    2.1616   -0.3426 C   0  0  0  0  0  0  0  0  0  0  0  0
    2.3184    1.9050    1.9602 C   0  0  0  0  0  0  0  0  0  0  0  0
    3.5231    3.4268   -0.0482 C   0  0  0  0  0  0  0  0  0  0  0  0
    2.8351    3.1704    2.2565 C   0  0  0  0  0  0  0  0  0  0  0  0
    3.4347    3.9341    1.2513 C   0  0  0  0  0  0  0  0  0  0  0  0
   -1.3479    1.2901    0.0201 H   0  0  0  0  0  0  0  0  0  0  0  0
    0.5613    0.8913   -1.1285 H   0  0  0  0  0  0  0  0  0  0  0  0
    2.4994   -0.4657   -0.3760 H   0  0  0  0  0  0  0  0  0  0  0  0
    1.7817   -0.6077    1.2107 H   0  0  0  0  0  0  0  0  0  0  0  0
    3.0864    1.7768   -1.3542 H   0  0  0  0  0  0  0  0  0  0  0  0
    1.8739    1.3145    2.7559 H   0  0  0  0  0  0  0  0  0  0  0  0
    4.0006    4.0139   -0.8275 H   0  0  0  0  0  0  0  0  0  0  0  0
    2.7766    3.5543    3.2706 H   0  0  0  0  0  0  0  0  0  0  0  0
    3.8402    4.9149    1.4824 H   0  0  0  0  0  0  0  0  0  0  0  0
   -0.2447   -1.1294   -2.4266 N   0  0  0  0  0  0  0  0  0  0  0  0
   -0.5714   -2.3285   -3.2145 C   0  0  2  0  0  0  0  0  0  0  0  0
    0.6841   -3.1681   -3.5542 C   0  0  0  0  0  0  0  0  0  0  0  0
    1.0838   -3.2909   -4.7058 O   0  0  0  0  0  0  0  0  0  0  0  0
   -1.3375   -1.8668   -4.4607 C   0  0  0  0  0  0  0  0  0  0  0  0
   -0.1266   -0.2502   -2.9205 H   0  0  0  0  0  0  0  0  0  0  0  0
   -1.2411   -2.9746   -2.6363 H   0  0  0  0  0  0  0  0  0  0  0  0
   -0.7110   -1.2192   -5.0824 H   0  0  0  0  0  0  0  0  0  0  0  0
   -1.6409   -2.7314   -5.0598 H   0  0  0  0  0  0  0  0  0  0  0  0
   -2.2373   -1.3146   -4.1730 H   0  0  0  0  0  0  0  0  0  0  0  0
    1.3859   -3.7693   -2.5283 N   0  0  0  0  0  0  0  0  0  0  0  0
    2.6087   -4.5376   -2.7149 C   0  0  0  0  0  0  0  0  0  0  0  0
    1.0572   -3.5686   -1.5792 H   0  0  0  0  0  0  0  0  0  0  0  0
    2.4185   -5.4110   -3.3472 H   0  0  0  0  0  0  0  0  0  0  0  0
    3.3811   -3.9212   -3.1861 H   0  0  0  0  0  0  0  0  0  0  0  0
    2.9854   -4.8857   -1.7484 H   0  0  0  0  0  0  0  0  0  0  0  0
  1  2  2  0  0  0  0
  1  3  1  0  0  0  0
  1  7  1  0  0  0  0
  3  4  1  0  0  0  0
  3  5  1  0  0  0  0
  3  6  1  0  0  0  0
  7  8  1  0  0  0  0
  7 12  1  0  0  0  0
  8  9  1  0  0  0  0
  8 11  1  0  0  0  0
  8 13  1  0  0  0  0
  9 10  2  0  0  0  0
  9 17  1  0  0  0  0
 11 14  1  0  0  0  0
 11 15  1  0  0  0  0
 11 16  1  0  0  0  0
 17 18  1  0  0  0  0
 17 28  1  0  0  0  0
 18 19  1  0  0  0  0
 18 21  1  0  0  0  0
 18 29  1  0  0  0  0
 19 20  2  0  0  0  0
 19 37  1  0  0  0  0
 21 22  1  0  0  0  0
 21 30  1  0  0  0  0
 21 31  1  0  0  0  0
 22 23  1  0  0  0  0
 22 24  2  0  0  0  0
 23 25  2  0  0  0  0
 23 32  1  0  0  0  0
 24 26  1  0  0  0  0
 24 33  1  0  0  0  0
 25 27  1  0  0  0  0
 25 34  1  0  0  0  0
 26 27  2  0  0  0  0
 26 35  1  0  0  0  0
 27 36  1  0  0  0  0
 37 38  1  0  0  0  0
 37 42  1  0  0  0  0
 38 39  1  0  0  0  0
 38 41  1  0  0  0  0
 38 43  1  0  0  0  0
 39 40  2  0  0  0  0
 39 47  1  0  0  0  0
 41 44  1  0  0  0  0
 41 45  1  0  0  0  0
 41 46  1  0  0  0  0
 47 48  1  0  0  0  0
 47 49  1  0  0  0  0
 48 50  1  0  0  0  0
 48 51  1  0  0  0  0
 48 52  1  0  0  0  0
M  END
$$$$

  -OEChem-05262217163D

 52 52  0     1  0  0  0  0  0999 V2000
   -3.6438    0.9072    4.3165 C   0  0  0  0  0  0  0  0  0  0  0  0
   -4.5103    1.5523    3.7471 O   0  0  0  0  0  0  0  0  0  0  0  0
   -3.9701    0.1523    5.5916 C   0  0  0  0  0  0  0  0  0  0  0  0
   -4.9959    0.3666    5.9044 H   0  0  0  0  0  0  0  0  0  0  0  0
   -3.8702   -0.9229    5.4239 H   0  0  0  0  0  0  0  0  0  0  0  0
   -3.2888    0.4545    6.3906 H   0  0  0  0  0  0  0  0  0  0  0  0
   -2.3696    0.8546    3.7925 N   0  0  0  0  0  0  0  0  0  0  0  0
   -1.9899    1.4057    2.4851 C   0  0  2  0  0  0  0  0  0  0  0  0
   -0.8541    0.5938    1.8281 C   0  0  0  0  0  0  0  0  0  0  0  0
   -0.1703   -0.1405    2.5303 O   0  0  0  0  0  0  0  0  0  0  0  0
   -1.5559    2.8621    2.6780 C   0  0  0  0  0  0  0  0  0  0  0  0
   -1.7102    0.2082    4.2254 H   0  0  0  0  0  0  0  0  0  0  0  0
   -2.8514    1.3706    1.8096 H   0  0  0  0  0  0  0  0  0  0  0  0
   -0.6953    2.9185    3.3523 H   0  0  0  0  0  0  0  0  0  0  0  0
   -1.2766    3.3118    1.7205 H   0  0  0  0  0  0  0  0  0  0  0  0
   -2.3751    3.4473    3.1079 H   0  0  0  0  0  0  0  0  0  0  0  0
   -0.6751    0.6783    0.4557 N   0  0  0  0  0  0  0  0  0  0  0  0
    0.4603    0.1904   -0.3622 C   0  0  2  0  0  0  0  0  0  0  0  0
    0.0940   -1.0926   -1.1351 C   0  0  0  0  0  0  0  0  0  0  0  0
   -0.2356   -2.1163   -0.5505 O   0  0  0  0  0  0  0  0  0  0  0  0
    1.8488    0.0622    0.3066 C   0  0  0  0  0  0  0  0  0  0  0  0
    2.4045    1.4212    0.6752 C   0  0  0  0  0  0  0  0  0  0  0  0
    3.0312    2.2137   -0.3001 C   0  0  0  0  0  0  0  0  0  0  0  0
    2.3356    1.9005    1.9922 C   0  0  0  0  0  0  0  0  0  0  0  0
    3.5469    3.4725    0.0275 C   0  0  0  0  0  0  0  0  0  0  0  0
    2.8488    3.1590    2.3220 C   0  0  0  0  0  0  0  0  0  0  0  0
    3.4507    3.9482    1.3384 C   0  0  0  0  0  0  0  0  0  0  0  0
   -1.3532    1.2682   -0.0174 H   0  0  0  0  0  0  0  0  0  0  0  0
    0.5961    0.9538   -1.1328 H   0  0  0  0  0  0  0  0  0  0  0  0
    2.5408   -0.4137   -0.3961 H   0  0  0  0  0  0  0  0  0  0  0  0
    1.8077   -0.5948    1.1795 H   0  0  0  0  0  0  0  0  0  0  0  0
    3.1225    1.8543   -1.3203 H   0  0  0  0  0  0  0  0  0  0  0  0
    1.8901    1.2913    2.7726 H   0  0  0  0  0  0  0  0  0  0  0  0
    4.0278    4.0789   -0.7347 H   0  0  0  0  0  0  0  0  0  0  0  0
    2.7860    3.5175    3.3451 H   0  0  0  0  0  0  0  0  0  0  0  0
    3.8525    4.9241    1.5954 H   0  0  0  0  0  0  0  0  0  0  0  0
    0.1493   -1.1187   -2.5184 N   0  0  0  0  0  0  0  0  0  0  0  0
   -0.1467   -2.3112   -3.3290 C   0  0  2  0  0  0  0  0  0  0  0  0
    1.0154   -3.3346   -3.3206 C   0  0  0  0  0  0  0  0  0  0  0  0
    1.6414   -3.6057   -4.3382 O   0  0  0  0  0  0  0  0  0  0  0  0
   -0.5078   -1.8283   -4.7395 C   0  0  0  0  0  0  0  0  0  0  0  0
    0.5229   -0.3013   -2.9909 H   0  0  0  0  0  0  0  0  0  0  0  0
   -1.0246   -2.8227   -2.9195 H   0  0  0  0  0  0  0  0  0  0  0  0
    0.3393   -1.3096   -5.1998 H   0  0  0  0  0  0  0  0  0  0  0  0
   -0.7766   -2.6795   -5.3732 H   0  0  0  0  0  0  0  0  0  0  0  0
   -1.3608   -1.1440   -4.7024 H   0  0  0  0  0  0  0  0  0  0  0  0
    1.3669   -3.9409   -2.1311 N   0  0  0  0  0  0  0  0  0  0  0  0
    2.4608   -4.8914   -1.9886 C   0  0  0  0  0  0  0  0  0  0  0  0
    0.8547   -3.6342   -1.2989 H   0  0  0  0  0  0  0  0  0  0  0  0
    2.2710   -5.7864   -2.5899 H   0  0  0  0  0  0  0  0  0  0  0  0
    3.4048   -4.4413   -2.3126 H   0  0  0  0  0  0  0  0  0  0  0  0
    2.5625   -5.1932   -0.9417 H   0  0  0  0  0  0  0  0  0  0  0  0
  1  2  2  0  0  0  0
  1  3  1  0  0  0  0
  1  7  1  0  0  0  0
  3  4  1  0  0  0  0
  3  5  1  0  0  0  0
  3  6  1  0  0  0  0
  7  8  1  0  0  0  0
  7 12  1  0  0  0  0
  8  9  1  0  0  0  0
  8 11  1  0  0  0  0
  8 13  1  0  0  0  0
  9 10  2  0  0  0  0
  9 17  1  0  0  0  0
 11 14  1  0  0  0  0
 11 15  1  0  0  0  0
 11 16  1  0  0  0  0
 17 18  1  0  0  0  0
 17 28  1  0  0  0  0
 18 19  1  0  0  0  0
 18 21  1  0  0  0  0
 18 29  1  0  0  0  0
 19 20  2  0  0  0  0
 19 37  1  0  0  0  0
 21 22  1  0  0  0  0
 21 30  1  0  0  0  0
 21 31  1  0  0  0  0
 22 23  1  0  0  0  0
 22 24  2  0  0  0  0
 23 25  2  0  0  0  0
 23 32  1  0  0  0  0
 24 26  1  0  0  0  0
 24 33  1  0  0  0  0
 25 27  1  0  0  0  0
 25 34  1  0  0  0  0
 26 27  2  0  0  0  0
 26 35  1  0  0  0  0
 27 36  1  0  0  0  0
 37 38  1  0  0  0  0
 37 42  1  0  0  0  0
 38 39  1  0  0  0  0
 38 41  1  0  0  0  0
 38 43  1  0  0  0  0
 39 40  2  0  0  0  0
 39 47  1  0  0  0  0
 41 44  1  0  0  0  0
 41 45  1  0  0  0  0
 41 46  1  0  0  0  0
 47 48  1  0  0  0  0
 47 49  1  0  0  0  0
 48 50  1  0  0  0  0
 48 51  1  0  0  0  0
 48 52  1  0  0  0  0
M  END
$$$$

  -OEChem-05262217163D

 52 52  0     1  0  0  0  0  0999 V2000
   -3.6461    0.8684    4.3046 C   0  0  0  0  0  0  0  0  0  0  0  0
   -4.5162    1.5132    3.7404 O   0  0  0  0  0  0  0  0  0  0  0  0
   -3.9604    0.1265    5.5902 C   0  0  0  0  0  0  0  0  0  0  0  0
   -4.9991    0.3034    5.8836 H   0  0  0  0  0  0  0  0  0  0  0  0
   -3.8133   -0.9469    5.4474 H   0  0  0  0  0  0  0  0  0  0  0  0
   -3.3044    0.4741    6.3920 H   0  0  0  0  0  0  0  0  0  0  0  0
   -2.3772    0.8085    3.7690 N   0  0  0  0  0  0  0  0  0  0  0  0
   -2.0072    1.3553    2.4575 C   0  0  2  0  0  0  0  0  0  0  0  0
   -0.8505    0.5656    1.8101 C   0  0  0  0  0  0  0  0  0  0  0  0
   -0.1620   -0.1625    2.5150 O   0  0  0  0  0  0  0  0  0  0  0  0
   -1.6073    2.8235    2.6358 C   0  0  0  0  0  0  0  0  0  0  0  0
   -1.7145    0.1643    4.1997 H   0  0  0  0  0  0  0  0  0  0  0  0
   -2.8665    1.2928    1.7812 H   0  0  0  0  0  0  0  0  0  0  0  0
   -0.7468    2.9065    3.3074 H   0  0  0  0  0  0  0  0  0  0  0  0
   -1.3412    3.2697    1.6728 H   0  0  0  0  0  0  0  0  0  0  0  0
   -2.4385    3.3944    3.0618 H   0  0  0  0  0  0  0  0  0  0  0  0
   -0.6519    0.6696    0.4421 N   0  0  0  0  0  0  0  0  0  0  0  0
    0.4962    0.1992   -0.3684 C   0  0  2  0  0  0  0  0  0  0  0  0
    0.1592   -1.0743   -1.1701 C   0  0  0  0  0  0  0  0  0  0  0  0
   -0.4670   -2.0001   -0.6701 O   0  0  0  0  0  0  0  0  0  0  0  0
    1.8779    0.0781    0.3154 C   0  0  0  0  0  0  0  0  0  0  0  0
    2.4140    1.4400    0.7008 C   0  0  0  0  0  0  0  0  0  0  0  0
    3.0434    2.2459   -0.2617 C   0  0  0  0  0  0  0  0  0  0  0  0
    2.3196    1.9118    2.0187 C   0  0  0  0  0  0  0  0  0  0  0  0
    3.5381    3.5097    0.0793 C   0  0  0  0  0  0  0  0  0  0  0  0
    2.8102    3.1759    2.3614 C   0  0  0  0  0  0  0  0  0  0  0  0
    3.4160    3.9780    1.3905 C   0  0  0  0  0  0  0  0  0  0  0  0
   -1.3491    1.2281   -0.0411 H   0  0  0  0  0  0  0  0  0  0  0  0
    0.6291    0.9749   -1.1273 H   0  0  0  0  0  0  0  0  0  0  0  0
    2.5841   -0.3843   -0.3817 H   0  0  0  0  0  0  0  0  0  0  0  0
    1.8327   -0.5857    1.1826 H   0  0  0  0  0  0  0  0  0  0  0  0
    3.1530    1.8933   -1.2824 H   0  0  0  0  0  0  0  0  0  0  0  0
    1.8699    1.2930    2.7890 H   0  0  0  0  0  0  0  0  0  0  0  0
    4.0215    4.1262   -0.6731 H   0  0  0  0  0  0  0  0  0  0  0  0
    2.7257    3.5291    3.3849 H   0  0  0  0  0  0  0  0  0  0  0  0
    3.7995    4.9585    1.6575 H   0  0  0  0  0  0  0  0  0  0  0  0
    0.5296   -1.1787   -2.4999 N   0  0  0  0  0  0  0  0  0  0  0  0
    0.2731   -2.3669   -3.3293 C   0  0  2  0  0  0  0  0  0  0  0  0
    1.2532   -3.5226   -3.0124 C   0  0  0  0  0  0  0  0  0  0  0  0
    2.0796   -3.9072   -3.8311 O   0  0  0  0  0  0  0  0  0  0  0  0
    0.3258   -1.9249   -4.7972 C   0  0  0  0  0  0  0  0  0  0  0  0
    1.1435   -0.4610   -2.8732 H   0  0  0  0  0  0  0  0  0  0  0  0
   -0.7378   -2.7404   -3.1323 H   0  0  0  0  0  0  0  0  0  0  0  0
    1.3188   -1.5394   -5.0496 H   0  0  0  0  0  0  0  0  0  0  0  0
    0.1068   -2.7719   -5.4556 H   0  0  0  0  0  0  0  0  0  0  0  0
   -0.4140   -1.1415   -4.9867 H   0  0  0  0  0  0  0  0  0  0  0  0
    1.2191   -4.1074   -1.7622 N   0  0  0  0  0  0  0  0  0  0  0  0
    2.1458   -5.1402   -1.3204 C   0  0  0  0  0  0  0  0  0  0  0  0
    0.5730   -3.6897   -1.0862 H   0  0  0  0  0  0  0  0  0  0  0  0
    2.0843   -6.0157   -1.9750 H   0  0  0  0  0  0  0  0  0  0  0  0
    3.1731   -4.7619   -1.3312 H   0  0  0  0  0  0  0  0  0  0  0  0
    1.9015   -5.4539   -0.3010 H   0  0  0  0  0  0  0  0  0  0  0  0
  1  2  2  0  0  0  0
  1  3  1  0  0  0  0
  1  7  1  0  0  0  0
  3  4  1  0  0  0  0
  3  5  1  0  0  0  0
  3  6  1  0  0  0  0
  7  8  1  0  0  0  0
  7 12  1  0  0  0  0
  8  9  1  0  0  0  0
  8 11  1  0  0  0  0
  8 13  1  0  0  0  0
  9 10  2  0  0  0  0
  9 17  1  0  0  0  0
 11 14  1  0  0  0  0
 11 15  1  0  0  0  0
 11 16  1  0  0  0  0
 17 18  1  0  0  0  0
 17 28  1  0  0  0  0
 18 19  1  0  0  0  0
 18 21  1  0  0  0  0
 18 29  1  0  0  0  0
 19 20  2  0  0  0  0
 19 37  1  0  0  0  0
 21 22  1  0  0  0  0
 21 30  1  0  0  0  0
 21 31  1  0  0  0  0
 22 23  1  0  0  0  0
 22 24  2  0  0  0  0
 23 25  2  0  0  0  0
 23 32  1  0  0  0  0
 24 26  1  0  0  0  0
 24 33  1  0  0  0  0
 25 27  1  0  0  0  0
 25 34  1  0  0  0  0
 26 27  2  0  0  0  0
 26 35  1  0  0  0  0
 27 36  1  0  0  0  0
 37 38  1  0  0  0  0
 37 42  1  0  0  0  0
 38 39  1  0  0  0  0
 38 41  1  0  0  0  0
 38 43  1  0  0  0  0
 39 40  2  0  0  0  0
 39 47  1  0  0  0  0
 41 44  1  0  0  0  0
 41 45  1  0  0  0  0
 41 46  1  0  0  0  0
 47 48  1  0  0  0  0
 47 49  1  0  0  0  0
 48 50  1  0  0  0  0
 48 51  1  0  0  0  0
 48 52  1  0  0  0  0
M  END
$$$$

  -OEChem-05262217163D

 52 52  0     1  0  0  0  0  0999 V2000
   -3.6408    0.7430    4.2785 C   0  0  0  0  0  0  0  0  0  0  0  0
   -4.5658    1.2865    3.6956 O   0  0  0  0  0  0  0  0  0  0  0  0
   -3.8843    0.0177    5.5886 C   0  0  0  0  0  0  0  0  0  0  0  0
   -4.9339    0.1099    5.8814 H   0  0  0  0  0  0  0  0  0  0  0  0
   -3.6401   -1.0419    5.4794 H   0  0  0  0  0  0  0  0  0  0  0  0
   -3.2600    0.4492    6.3747 H   0  0  0  0  0  0  0  0  0  0  0  0
   -2.3709    0.7808    3.7440 N   0  0  0  0  0  0  0  0  0  0  0  0
   -2.0508    1.2984    2.4075 C   0  0  2  0  0  0  0  0  0  0  0  0
   -0.8245    0.5858    1.7982 C   0  0  0  0  0  0  0  0  0  0  0  0
   -0.1144   -0.0992    2.5252 O   0  0  0  0  0  0  0  0  0  0  0  0
   -1.7929    2.8052    2.5167 C   0  0  0  0  0  0  0  0  0  0  0  0
   -1.6573    0.2072    4.1931 H   0  0  0  0  0  0  0  0  0  0  0  0
   -2.8982    1.1237    1.7358 H   0  0  0  0  0  0  0  0  0  0  0  0
   -0.9416    3.0004    3.1766 H   0  0  0  0  0  0  0  0  0  0  0  0
   -1.5757    3.2319    1.5329 H   0  0  0  0  0  0  0  0  0  0  0  0
   -2.6734    3.3126    2.9241 H   0  0  0  0  0  0  0  0  0  0  0  0
   -0.5949    0.6881    0.4354 N   0  0  0  0  0  0  0  0  0  0  0  0
    0.5769    0.2311   -0.3490 C   0  0  2  0  0  0  0  0  0  0  0  0
    0.2777   -1.0496   -1.1569 C   0  0  0  0  0  0  0  0  0  0  0  0
   -0.6026   -1.8324   -0.8200 O   0  0  0  0  0  0  0  0  0  0  0  0
    1.9501    0.1437    0.3597 C   0  0  0  0  0  0  0  0  0  0  0  0
    2.4550    1.5194    0.7393 C   0  0  0  0  0  0  0  0  0  0  0  0
    3.0854    2.3269   -0.2215 C   0  0  0  0  0  0  0  0  0  0  0  0
    2.3394    1.9992    2.0530 C   0  0  0  0  0  0  0  0  0  0  0  0
    3.5551    3.6010    0.1149 C   0  0  0  0  0  0  0  0  0  0  0  0
    2.8083    3.2727    2.3916 C   0  0  0  0  0  0  0  0  0  0  0  0
    3.4119    4.0768    1.4211 C   0  0  0  0  0  0  0  0  0  0  0  0
   -1.3271    1.1672   -0.0805 H   0  0  0  0  0  0  0  0  0  0  0  0
    0.7081    1.0029   -1.1127 H   0  0  0  0  0  0  0  0  0  0  0  0
    2.6790   -0.3134   -0.3171 H   0  0  0  0  0  0  0  0  0  0  0  0
    1.9022   -0.5099    1.2343 H   0  0  0  0  0  0  0  0  0  0  0  0
    3.2123    1.9697   -1.2385 H   0  0  0  0  0  0  0  0  0  0  0  0
    1.8913    1.3796    2.8235 H   0  0  0  0  0  0  0  0  0  0  0  0
    4.0349    4.2203   -0.6371 H   0  0  0  0  0  0  0  0  0  0  0  0
    2.7089    3.6324    3.4114 H   0  0  0  0  0  0  0  0  0  0  0  0
    3.7775    5.0653    1.6838 H   0  0  0  0  0  0  0  0  0  0  0  0
    0.9339   -1.2844   -2.3530 N   0  0  0  0  0  0  0  0  0  0  0  0
    0.6964   -2.4631   -3.2011 C   0  0  2  0  0  0  0  0  0  0  0  0
    1.3600   -3.7415   -2.6325 C   0  0  0  0  0  0  0  0  0  0  0  0
    2.2747   -4.3068   -3.2197 O   0  0  0  0  0  0  0  0  0  0  0  0
    1.1831   -2.1147   -4.6132 C   0  0  0  0  0  0  0  0  0  0  0  0
    1.7231   -0.6863   -2.5790 H   0  0  0  0  0  0  0  0  0  0  0  0
   -0.3794   -2.6607   -3.2613 H   0  0  0  0  0  0  0  0  0  0  0  0
    2.2598   -1.9164   -4.6135 H   0  0  0  0  0  0  0  0  0  0  0  0
    0.9853   -2.9463   -5.2971 H   0  0  0  0  0  0  0  0  0  0  0  0
    0.6626   -1.2286   -4.9887 H   0  0  0  0  0  0  0  0  0  0  0  0
    0.9256   -4.2418   -1.4210 N   0  0  0  0  0  0  0  0  0  0  0  0
    1.5161   -5.3946   -0.7554 C   0  0  0  0  0  0  0  0  0  0  0  0
    0.2171   -3.6879   -0.9315 H   0  0  0  0  0  0  0  0  0  0  0  0
    1.4431   -6.2831   -1.3913 H   0  0  0  0  0  0  0  0  0  0  0  0
    2.5710   -5.2075   -0.5296 H   0  0  0  0  0  0  0  0  0  0  0  0
    0.9902   -5.5973    0.1826 H   0  0  0  0  0  0  0  0  0  0  0  0
  1  2  2  0  0  0  0
  1  3  1  0  0  0  0
  1  7  1  0  0  0  0
  3  4  1  0  0  0  0
  3  5  1  0  0  0  0
  3  6  1  0  0  0  0
  7  8  1  0  0  0  0
  7 12  1  0  0  0  0
  8  9  1  0  0  0  0
  8 11  1  0  0  0  0
  8 13  1  0  0  0  0
  9 10  2  0  0  0  0
  9 17  1  0  0  0  0
 11 14  1  0  0  0  0
 11 15  1  0  0  0  0
 11 16  1  0  0  0  0
 17 18  1  0  0  0  0
 17 28  1  0  0  0  0
 18 19  1  0  0  0  0
 18 21  1  0  0  0  0
 18 29  1  0  0  0  0
 19 20  2  0  0  0  0
 19 37  1  0  0  0  0
 21 22  1  0  0  0  0
 21 30  1  0  0  0  0
 21 31  1  0  0  0  0
 22 23  1  0  0  0  0
 22 24  2  0  0  0  0
 23 25  2  0  0  0  0
 23 32  1  0  0  0  0
 24 26  1  0  0  0  0
 24 33  1  0  0  0  0
 25 27  1  0  0  0  0
 25 34  1  0  0  0  0
 26 27  2  0  0  0  0
 26 35  1  0  0  0  0
 27 36  1  0  0  0  0
 37 38  1  0  0  0  0
 37 42  1  0  0  0  0
 38 39  1  0  0  0  0
 38 41  1  0  0  0  0
 38 43  1  0  0  0  0
 39 40  2  0  0  0  0
 39 47  1  0  0  0  0
 41 44  1  0  0  0  0
 41 45  1  0  0  0  0
 41 46  1  0  0  0  0
 47 48  1  0  0  0  0
 47 49  1  0  0  0  0
 48 50  1  0  0  0  0
 48 51  1  0  0  0  0
 48 52  1  0  0  0  0
M  END
$$$$

  -OEChem-05262217163D

 52 52  0     1  0  0  0  0  0999 V2000
   -3.6502    0.6863    4.2495 C   0  0  0  0  0  0  0  0  0  0  0  0
   -4.5801    1.1980    3.6461 O   0  0  0  0  0  0  0  0  0  0  0  0
   -3.8964   -0.0205    5.5694 C   0  0  0  0  0  0  0  0  0  0  0  0
   -4.9475    0.0725    5.8570 H   0  0  0  0  0  0  0  0  0  0  0  0
   -3.6495   -1.0809    5.4760 H   0  0  0  0  0  0  0  0  0  0  0  0
   -3.2771    0.4235    6.3525 H   0  0  0  0  0  0  0  0  0  0  0  0
   -2.3754    0.7406    3.7270 N   0  0  0  0  0  0  0  0  0  0  0  0
   -2.0506    1.2502    2.3877 C   0  0  2  0  0  0  0  0  0  0  0  0
   -0.7995    0.5654    1.7970 C   0  0  0  0  0  0  0  0  0  0  0  0
   -0.0837   -0.1041    2.5329 O   0  0  0  0  0  0  0  0  0  0  0  0
   -1.8299    2.7637    2.4817 C   0  0  0  0  0  0  0  0  0  0  0  0
   -1.6539    0.1932    4.1950 H   0  0  0  0  0  0  0  0  0  0  0  0
   -2.8856    1.0474    1.7082 H   0  0  0  0  0  0  0  0  0  0  0  0
   -0.9972    2.9873    3.1561 H   0  0  0  0  0  0  0  0  0  0  0  0
   -1.6022    3.1821    1.4967 H   0  0  0  0  0  0  0  0  0  0  0  0
   -2.7301    3.2554    2.8638 H   0  0  0  0  0  0  0  0  0  0  0  0
   -0.5544    0.6699    0.4371 N   0  0  0  0  0  0  0  0  0  0  0  0
    0.6336    0.2354   -0.3361 C   0  0  2  0  0  0  0  0  0  0  0  0
    0.3639   -1.0522   -1.1461 C   0  0  0  0  0  0  0  0  0  0  0  0
   -0.6690   -1.6958   -0.9989 O   0  0  0  0  0  0  0  0  0  0  0  0
    2.0006    0.1914    0.3923 C   0  0  0  0  0  0  0  0  0  0  0  0
    2.4657    1.5827    0.7658 C   0  0  0  0  0  0  0  0  0  0  0  0
    3.0885    2.3961   -0.1953 C   0  0  0  0  0  0  0  0  0  0  0  0
    2.3230    2.0717    2.0731 C   0  0  0  0  0  0  0  0  0  0  0  0
    3.5299    3.6818    0.1358 C   0  0  0  0  0  0  0  0  0  0  0  0
    2.7644    3.3565    2.4067 C   0  0  0  0  0  0  0  0  0  0  0  0
    3.3649    4.1641    1.4369 C   0  0  0  0  0  0  0  0  0  0  0  0
   -1.3047    1.1018   -0.0946 H   0  0  0  0  0  0  0  0  0  0  0  0
    0.7555    1.0038   -1.1046 H   0  0  0  0  0  0  0  0  0  0  0  0
    2.7548   -0.2495   -0.2664 H   0  0  0  0  0  0  0  0  0  0  0  0
    1.9586   -0.4561    1.2717 H   0  0  0  0  0  0  0  0  0  0  0  0
    3.2328    2.0346   -1.2085 H   0  0  0  0  0  0  0  0  0  0  0  0
    1.8758    1.4507    2.8429 H   0  0  0  0  0  0  0  0  0  0  0  0
    4.0052    4.3050   -0.6161 H   0  0  0  0  0  0  0  0  0  0  0  0
    2.6451    3.7229    3.4222 H   0  0  0  0  0  0  0  0  0  0  0  0
    3.7096    5.1611    1.6962 H   0  0  0  0  0  0  0  0  0  0  0  0
    1.2290   -1.4393   -2.1556 N   0  0  0  0  0  0  0  0  0  0  0  0
    1.0329   -2.6333   -2.9941 C   0  0  2  0  0  0  0  0  0  0  0  0
    1.3740   -3.9444   -2.2436 C   0  0  0  0  0  0  0  0  0  0  0  0
    2.3005   -4.6639   -2.5966 O   0  0  0  0  0  0  0  0  0  0  0  0
    1.8664   -2.4410   -4.2674 C   0  0  0  0  0  0  0  0  0  0  0  0
    2.1193   -0.9541   -2.2179 H   0  0  0  0  0  0  0  0  0  0  0  0
   -0.0183   -2.7009   -3.2946 H   0  0  0  0  0  0  0  0  0  0  0  0
    2.9321   -2.3728   -4.0260 H   0  0  0  0  0  0  0  0  0  0  0  0
    1.7204   -3.2876   -4.9462 H   0  0  0  0  0  0  0  0  0  0  0  0
    1.5645   -1.5268   -4.7874 H   0  0  0  0  0  0  0  0  0  0  0  0
    0.6308   -4.2978   -1.1348 N   0  0  0  0  0  0  0  0  0  0  0  0
    0.9137   -5.4572   -0.3001 C   0  0  0  0  0  0  0  0  0  0  0  0
   -0.0775   -3.6232   -0.8324 H   0  0  0  0  0  0  0  0  0  0  0  0
    0.8975   -6.3740   -0.8988 H   0  0  0  0  0  0  0  0  0  0  0  0
    1.8976   -5.3591    0.1699 H   0  0  0  0  0  0  0  0  0  0  0  0
    0.1599   -5.5473    0.4880 H   0  0  0  0  0  0  0  0  0  0  0  0
  1  2  2  0  0  0  0
  1  3  1  0  0  0  0
  1  7  1  0  0  0  0
  3  4  1  0  0  0  0
  3  5  1  0  0  0  0
  3  6  1  0  0  0  0
  7  8  1  0  0  0  0
  7 12  1  0  0  0  0
  8  9  1  0  0  0  0
  8 11  1  0  0  0  0
  8 13  1  0  0  0  0
  9 10  2  0  0  0  0
  9 17  1  0  0  0  0
 11 14  1  0  0  0  0
 11 15  1  0  0  0  0
 11 16  1  0  0  0  0
 17 18  1  0  0  0  0
 17 28  1  0  0  0  0
 18 19  1  0  0  0  0
 18 21  1  0  0  0  0
 18 29  1  0  0  0  0
 19 20  2  0  0  0  0
 19 37  1  0  0  0  0
 21 22  1  0  0  0  0
 21 30  1  0  0  0  0
 21 31  1  0  0  0  0
 22 23  1  0  0  0  0
 22 24  2  0  0  0  0
 23 25  2  0  0  0  0
 23 32  1  0  0  0  0
 24 26  1  0  0  0  0
 24 33  1  0  0  0  0
 25 27  1  0  0  0  0
 25 34  1  0  0  0  0
 26 27  2  0  0  0  0
 26 35  1  0  0  0  0
 27 36  1  0  0  0  0
 37 38  1  0  0  0  0
 37 42  1  0  0  0  0
 38 39  1  0  0  0  0
 38 41  1  0  0  0  0
 38 43  1  0  0  0  0
 39 40  2  0  0  0  0
 39 47  1  0  0  0  0
 41 44  1  0  0  0  0
 41 45  1  0  0  0  0
 41 46  1  0  0  0  0
 47 48  1  0  0  0  0
 47 49  1  0  0  0  0
 48 50  1  0  0  0  0
 48 51  1  0  0  0  0
 48 52  1  0  0  0  0
M  END
$$$$

  -OEChem-05262217163D

 52 52  0     1  0  0  0  0  0999 V2000
   -1.9629    1.4867    4.4674 C   0  0  0  0  0  0  0  0  0  0  0  0
   -1.0281    2.2458    4.2731 O   0  0  0  0  0  0  0  0  0  0  0  0
   -2.2249    0.9776    5.8722 C   0  0  0  0  0  0  0  0  0  0  0  0
   -2.1082   -0.1087    5.9016 H   0  0  0  0  0  0  0  0  0  0  0  0
   -1.5167    1.4266    6.5743 H   0  0  0  0  0  0  0  0  0  0  0  0
   -3.2399    1.2378    6.1817 H   0  0  0  0  0  0  0  0  0  0  0  0
   -2.7847    1.0653    3.4382 N   0  0  0  0  0  0  0  0  0  0  0  0
   -2.4831    1.2208    2.0010 C   0  0  2  0  0  0  0  0  0  0  0  0
   -1.2630    0.3849    1.5393 C   0  0  0  0  0  0  0  0  0  0  0  0
   -0.9566   -0.6179    2.1727 O   0  0  0  0  0  0  0  0  0  0  0  0
   -2.3618    2.7033    1.6062 C   0  0  0  0  0  0  0  0  0  0  0  0
   -3.4056    0.3017    3.6886 H   0  0  0  0  0  0  0  0  0  0  0  0
   -3.3418    0.8215    1.4532 H   0  0  0  0  0  0  0  0  0  0  0  0
   -1.4033    3.1211    1.9297 H   0  0  0  0  0  0  0  0  0  0  0  0
   -2.4336    2.8175    0.5208 H   0  0  0  0  0  0  0  0  0  0  0  0
   -3.1674    3.2851    2.0644 H   0  0  0  0  0  0  0  0  0  0  0  0
   -0.7341    0.5819    0.2740 N   0  0  0  0  0  0  0  0  0  0  0  0
    0.5412    0.0831   -0.2959 C   0  0  2  0  0  0  0  0  0  0  0  0
    0.3045   -0.8145   -1.5329 C   0  0  0  0  0  0  0  0  0  0  0  0
   -0.8214   -0.9662   -1.9965 O   0  0  0  0  0  0  0  0  0  0  0  0
    1.6363   -0.4439    0.6708 C   0  0  0  0  0  0  0  0  0  0  0  0
    2.2024    0.6748    1.5218 C   0  0  0  0  0  0  0  0  0  0  0  0
    3.1859    1.5225    0.9836 C   0  0  0  0  0  0  0  0  0  0  0  0
    1.7977    0.8767    2.8497 C   0  0  0  0  0  0  0  0  0  0  0  0
    3.7261    2.5663    1.7431 C   0  0  0  0  0  0  0  0  0  0  0  0
    2.3278    1.9254    3.6069 C   0  0  0  0  0  0  0  0  0  0  0  0
    3.2911    2.7727    3.0545 C   0  0  0  0  0  0  0  0  0  0  0  0
   -1.2059    1.2986   -0.2688 H   0  0  0  0  0  0  0  0  0  0  0  0
    0.9978    0.9750   -0.7343 H   0  0  0  0  0  0  0  0  0  0  0  0
    2.4627   -0.8786    0.1027 H   0  0  0  0  0  0  0  0  0  0  0  0
    1.2439   -1.2489    1.2980 H   0  0  0  0  0  0  0  0  0  0  0  0
    3.5343    1.3784   -0.0341 H   0  0  0  0  0  0  0  0  0  0  0  0
    1.0619    0.2269    3.3115 H   0  0  0  0  0  0  0  0  0  0  0  0
    4.4806    3.2192    1.3150 H   0  0  0  0  0  0  0  0  0  0  0  0
    1.9786    2.0801    4.6240 H   0  0  0  0  0  0  0  0  0  0  0  0
    3.6985    3.5875    3.6454 H   0  0  0  0  0  0  0  0  0  0  0  0
    1.3632   -1.3861   -2.2184 N   0  0  0  0  0  0  0  0  0  0  0  0
    1.2092   -2.2504   -3.3998 C   0  0  2  0  0  0  0  0  0  0  0  0
    0.7461   -3.6800   -3.0263 C   0  0  0  0  0  0  0  0  0  0  0  0
    1.4393   -4.6625   -3.2604 O   0  0  0  0  0  0  0  0  0  0  0  0
    2.5425   -2.2317   -4.1582 C   0  0  0  0  0  0  0  0  0  0  0  0
    2.2782   -1.3386   -1.7801 H   0  0  0  0  0  0  0  0  0  0  0  0
    0.4457   -1.8317   -4.0640 H   0  0  0  0  0  0  0  0  0  0  0  0
    3.3459   -2.6424   -3.5382 H   0  0  0  0  0  0  0  0  0  0  0  0
    2.4680   -2.8338   -5.0695 H   0  0  0  0  0  0  0  0  0  0  0  0
    2.8057   -1.2082   -4.4421 H   0  0  0  0  0  0  0  0  0  0  0  0
   -0.4721   -3.8492   -2.3985 N   0  0  0  0  0  0  0  0  0  0  0  0
   -0.9805   -5.1341   -1.9385 C   0  0  0  0  0  0  0  0  0  0  0  0
   -0.9862   -2.9939   -2.1719 H   0  0  0  0  0  0  0  0  0  0  0  0
   -1.0783   -5.8298   -2.7783 H   0  0  0  0  0  0  0  0  0  0  0  0
   -0.3043   -5.5698   -1.1955 H   0  0  0  0  0  0  0  0  0  0  0  0
   -1.9653   -5.0076   -1.4787 H   0  0  0  0  0  0  0  0  0  0  0  0
  1  2  2  0  0  0  0
  1  3  1  0  0  0  0
  1  7  1  0  0  0  0
  3  4  1  0  0  0  0
  3  5  1  0  0  0  0
  3  6  1  0  0  0  0
  7  8  1  0  0  0  0
  7 12  1  0  0  0  0
  8  9  1  0  0  0  0
  8 11  1  0  0  0  0
  8 13  1  0  0  0  0
  9 10  2  0  0  0  0
  9 17  1  0  0  0  0
 11 14  1  0  0  0  0
 11 15  1  0  0  0  0
 11 16  1  0  0  0  0
 17 18  1  0  0  0  0
 17 28  1  0  0  0  0
 18 19  1  0  0  0  0
 18 21  1  0  0  0  0
 18 29  1  0  0  0  0
 19 20  2  0  0  0  0
 19 37  1  0  0  0  0
 21 22  1  0  0  0  0
 21 30  1  0  0  0  0
 21 31  1  0  0  0  0
 22 23  1  0  0  0  0
 22 24  2  0  0  0  0
 23 25  2  0  0  0  0
 23 32  1  0  0  0  0
 24 26  1  0  0  0  0
 24 33  1  0  0  0  0
 25 27  1  0  0  0  0
 25 34  1  0  0  0  0
 26 27  2  0  0  0  0
 26 35  1  0  0  0  0
 27 36  1  0  0  0  0
 37 38  1  0  0  0  0
 37 42  1  0  0  0  0
 38 39  1  0  0  0  0
 38 41  1  0  0  0  0
 38 43  1  0  0  0  0
 39 40  2  0  0  0  0
 39 47  1  0  0  0  0
 41 44  1  0  0  0  0
 41 45  1  0  0  0  0
 41 46  1  0  0  0  0
 47 48  1  0  0  0  0
 47 49  1  0  0  0  0
 48 50  1  0  0  0  0
 48 51  1  0  0  0  0
 48 52  1  0  0  0  0
M  END
$$$$

  -OEChem-05262217163D

 52 52  0     1  0  0  0  0  0999 V2000
   -1.9977    1.4563    4.4671 C   0  0  0  0  0  0  0  0  0  0  0  0
   -1.0629    2.2186    4.2852 O   0  0  0  0  0  0  0  0  0  0  0  0
   -2.2984    0.9728    5.8733 C   0  0  0  0  0  0  0  0  0  0  0  0
   -2.1562   -0.1092    5.9324 H   0  0  0  0  0  0  0  0  0  0  0  0
   -1.6285    1.4556    6.5904 H   0  0  0  0  0  0  0  0  0  0  0  0
   -3.3302    1.2143    6.1392 H   0  0  0  0  0  0  0  0  0  0  0  0
   -2.7893    1.0121    3.4237 N   0  0  0  0  0  0  0  0  0  0  0  0
   -2.4609    1.1595    1.9917 C   0  0  2  0  0  0  0  0  0  0  0  0
   -1.2163    0.3441    1.5590 C   0  0  0  0  0  0  0  0  0  0  0  0
   -0.8927   -0.6413    2.2111 O   0  0  0  0  0  0  0  0  0  0  0  0
   -2.3597    2.6410    1.5896 C   0  0  0  0  0  0  0  0  0  0  0  0
   -3.4156    0.2514    3.6688 H   0  0  0  0  0  0  0  0  0  0  0  0
   -3.3013    0.7407    1.4304 H   0  0  0  0  0  0  0  0  0  0  0  0
   -1.4147    3.0780    1.9272 H   0  0  0  0  0  0  0  0  0  0  0  0
   -2.4149    2.7474    0.5024 H   0  0  0  0  0  0  0  0  0  0  0  0
   -3.1834    3.2104    2.0312 H   0  0  0  0  0  0  0  0  0  0  0  0
   -0.6790    0.5272    0.2952 N   0  0  0  0  0  0  0  0  0  0  0  0
    0.6164    0.0514   -0.2479 C   0  0  2  0  0  0  0  0  0  0  0  0
    0.4050   -0.8795   -1.4651 C   0  0  0  0  0  0  0  0  0  0  0  0
   -0.6549   -0.8571   -2.0835 O   0  0  0  0  0  0  0  0  0  0  0  0
    1.7169   -0.4085    0.7473 C   0  0  0  0  0  0  0  0  0  0  0  0
    2.2360    0.7558    1.5652 C   0  0  0  0  0  0  0  0  0  0  0  0
    3.1976    1.6162    1.0081 C   0  0  0  0  0  0  0  0  0  0  0  0
    1.8065    0.9908    2.8799 C   0  0  0  0  0  0  0  0  0  0  0  0
    3.6950    2.7020    1.7367 C   0  0  0  0  0  0  0  0  0  0  0  0
    2.2947    2.0811    3.6063 C   0  0  0  0  0  0  0  0  0  0  0  0
    3.2396    2.9377    3.0361 C   0  0  0  0  0  0  0  0  0  0  0  0
   -1.1607    1.2205   -0.2696 H   0  0  0  0  0  0  0  0  0  0  0  0
    1.0523    0.9421   -0.7100 H   0  0  0  0  0  0  0  0  0  0  0  0
    2.5666   -0.8267    0.2023 H   0  0  0  0  0  0  0  0  0  0  0  0
    1.3474   -1.2068    1.3966 H   0  0  0  0  0  0  0  0  0  0  0  0
    3.5619    1.4486   -0.0005 H   0  0  0  0  0  0  0  0  0  0  0  0
    1.0831    0.3354    3.3540 H   0  0  0  0  0  0  0  0  0  0  0  0
    4.4328    3.3639    1.2934 H   0  0  0  0  0  0  0  0  0  0  0  0
    1.9271    2.2606    4.6128 H   0  0  0  0  0  0  0  0  0  0  0  0
    3.6169    3.7827    3.6039 H   0  0  0  0  0  0  0  0  0  0  0  0
    1.4172   -1.6876   -1.9554 N   0  0  0  0  0  0  0  0  0  0  0  0
    1.2697   -2.5855   -3.1126 C   0  0  2  0  0  0  0  0  0  0  0  0
    0.4887   -3.8753   -2.7601 C   0  0  0  0  0  0  0  0  0  0  0  0
    1.0027   -4.9838   -2.8493 O   0  0  0  0  0  0  0  0  0  0  0  0
    2.6771   -2.8674   -3.6540 C   0  0  0  0  0  0  0  0  0  0  0  0
    2.2443   -1.7940   -1.3753 H   0  0  0  0  0  0  0  0  0  0  0  0
    0.7071   -2.0766   -3.9027 H   0  0  0  0  0  0  0  0  0  0  0  0
    3.2842   -3.3828   -2.9028 H   0  0  0  0  0  0  0  0  0  0  0  0
    2.6202   -3.5009   -4.5451 H   0  0  0  0  0  0  0  0  0  0  0  0
    3.1756   -1.9324   -3.9272 H   0  0  0  0  0  0  0  0  0  0  0  0
   -0.8124   -3.7709   -2.3102 N   0  0  0  0  0  0  0  0  0  0  0  0
   -1.6055   -4.9007   -1.8466 C   0  0  0  0  0  0  0  0  0  0  0  0
   -1.1716   -2.8205   -2.1885 H   0  0  0  0  0  0  0  0  0  0  0  0
   -1.7176   -5.6430   -2.6437 H   0  0  0  0  0  0  0  0  0  0  0  0
   -1.1256   -5.3765   -0.9851 H   0  0  0  0  0  0  0  0  0  0  0  0
   -2.6020   -4.5638   -1.5456 H   0  0  0  0  0  0  0  0  0  0  0  0
  1  2  2  0  0  0  0
  1  3  1  0  0  0  0
  1  7  1  0  0  0  0
  3  4  1  0  0  0  0
  3  5  1  0  0  0  0
  3  6  1  0  0  0  0
  7  8  1  0  0  0  0
  7 12  1  0  0  0  0
  8  9  1  0  0  0  0
  8 11  1  0  0  0  0
  8 13  1  0  0  0  0
  9 10  2  0  0  0  0
  9 17  1  0  0  0  0
 11 14  1  0  0  0  0
 11 15  1  0  0  0  0
 11 16  1  0  0  0  0
 17 18  1  0  0  0  0
 17 28  1  0  0  0  0
 18 19  1  0  0  0  0
 18 21  1  0  0  0  0
 18 29  1  0  0  0  0
 19 20  2  0  0  0  0
 19 37  1  0  0  0  0
 21 22  1  0  0  0  0
 21 30  1  0  0  0  0
 21 31  1  0  0  0  0
 22 23  1  0  0  0  0
 22 24  2  0  0  0  0
 23 25  2  0  0  0  0
 23 32  1  0  0  0  0
 24 26  1  0  0  0  0
 24 33  1  0  0  0  0
 25 27  1  0  0  0  0
 25 34  1  0  0  0  0
 26 27  2  0  0  0  0
 26 35  1  0  0  0  0
 27 36  1  0  0  0  0
 37 38  1  0  0  0  0
 37 42  1  0  0  0  0
 38 39  1  0  0  0  0
 38 41  1  0  0  0  0
 38 43  1  0  0  0  0
 39 40  2  0  0  0  0
 39 47  1  0  0  0  0
 41 44  1  0  0  0  0
 41 45  1  0  0  0  0
 41 46  1  0  0  0  0
 47 48  1  0  0  0  0
 47 49  1  0  0  0  0
 48 50  1  0  0  0  0
 48 51  1  0  0  0  0
 48 52  1  0  0  0  0
M  END
$$$$

  -OEChem-05262217163D

 52 52  0     1  0  0  0  0  0999 V2000
   -1.9958    1.4799    4.4790 C   0  0  0  0  0  0  0  0  0  0  0  0
   -1.0803    2.2648    4.2973 O   0  0  0  0  0  0  0  0  0  0  0  0
   -2.2863    0.9966    5.8875 C   0  0  0  0  0  0  0  0  0  0  0  0
   -2.0993   -0.0779    5.9572 H   0  0  0  0  0  0  0  0  0  0  0  0
   -1.6411    1.5131    6.6038 H   0  0  0  0  0  0  0  0  0  0  0  0
   -3.3287    1.1975    6.1459 H   0  0  0  0  0  0  0  0  0  0  0  0
   -2.7687    1.0064    3.4342 N   0  0  0  0  0  0  0  0  0  0  0  0
   -2.4351    1.1440    2.0016 C   0  0  2  0  0  0  0  0  0  0  0  0
   -1.1952    0.3169    1.5783 C   0  0  0  0  0  0  0  0  0  0  0  0
   -0.8672   -0.6557    2.2474 O   0  0  0  0  0  0  0  0  0  0  0  0
   -2.3187    2.6206    1.5841 C   0  0  0  0  0  0  0  0  0  0  0  0
   -3.3732    0.2296    3.6836 H   0  0  0  0  0  0  0  0  0  0  0  0
   -3.2775    0.7275    1.4414 H   0  0  0  0  0  0  0  0  0  0  0  0
   -1.3659    3.0497    1.9100 H   0  0  0  0  0  0  0  0  0  0  0  0
   -2.3799    2.7168    0.4962 H   0  0  0  0  0  0  0  0  0  0  0  0
   -3.1322    3.2045    2.0254 H   0  0  0  0  0  0  0  0  0  0  0  0
   -0.6616    0.4722    0.3095 N   0  0  0  0  0  0  0  0  0  0  0  0
    0.6504    0.0147   -0.2060 C   0  0  2  0  0  0  0  0  0  0  0  0
    0.4584   -0.9649   -1.3856 C   0  0  0  0  0  0  0  0  0  0  0  0
   -0.4869   -0.8137   -2.1536 O   0  0  0  0  0  0  0  0  0  0  0  0
    1.7545   -0.3821    0.8110 C   0  0  0  0  0  0  0  0  0  0  0  0
    2.2337    0.8226    1.5942 C   0  0  0  0  0  0  0  0  0  0  0  0
    3.1749    1.6942    1.0210 C   0  0  0  0  0  0  0  0  0  0  0  0
    1.7802    1.0863    2.8950 C   0  0  0  0  0  0  0  0  0  0  0  0
    3.6276    2.8190    1.7195 C   0  0  0  0  0  0  0  0  0  0  0  0
    2.2234    2.2146    3.5914 C   0  0  0  0  0  0  0  0  0  0  0  0
    3.1465    3.0834    3.0045 C   0  0  0  0  0  0  0  0  0  0  0  0
   -1.1352    1.1641   -0.2643 H   0  0  0  0  0  0  0  0  0  0  0  0
    1.0686    0.8967   -0.6998 H   0  0  0  0  0  0  0  0  0  0  0  0
    2.6198   -0.7880    0.2795 H   0  0  0  0  0  0  0  0  0  0  0  0
    1.4051   -1.1715    1.4820 H   0  0  0  0  0  0  0  0  0  0  0  0
    3.5574    1.5046    0.0231 H   0  0  0  0  0  0  0  0  0  0  0  0
    1.0712    0.4237    3.3806 H   0  0  0  0  0  0  0  0  0  0  0  0
    4.3504    3.4890    1.2638 H   0  0  0  0  0  0  0  0  0  0  0  0
    1.8367    2.4139    4.5871 H   0  0  0  0  0  0  0  0  0  0  0  0
    3.4870    3.9597    3.5481 H   0  0  0  0  0  0  0  0  0  0  0  0
    1.3620   -1.9772   -1.6610 N   0  0  0  0  0  0  0  0  0  0  0  0
    1.2307   -2.9196   -2.7842 C   0  0  2  0  0  0  0  0  0  0  0  0
    0.1819   -4.0257   -2.5119 C   0  0  0  0  0  0  0  0  0  0  0  0
    0.4863   -5.2123   -2.4944 O   0  0  0  0  0  0  0  0  0  0  0  0
    2.6286   -3.4807   -3.0738 C   0  0  0  0  0  0  0  0  0  0  0  0
    2.0482   -2.1876   -0.9417 H   0  0  0  0  0  0  0  0  0  0  0  0
    0.8985   -2.3795   -3.6772 H   0  0  0  0  0  0  0  0  0  0  0  0
    3.0060   -4.0397   -2.2116 H   0  0  0  0  0  0  0  0  0  0  0  0
    2.5948   -4.1560   -3.9347 H   0  0  0  0  0  0  0  0  0  0  0  0
    3.3268   -2.6693   -3.2997 H   0  0  0  0  0  0  0  0  0  0  0  0
   -1.1295   -3.6637   -2.2772 N   0  0  0  0  0  0  0  0  0  0  0  0
   -2.1880   -4.6061   -1.9434 C   0  0  0  0  0  0  0  0  0  0  0  0
   -1.3210   -2.6591   -2.2486 H   0  0  0  0  0  0  0  0  0  0  0  0
   -2.3084   -5.3454   -2.7421 H   0  0  0  0  0  0  0  0  0  0  0  0
   -1.9540   -5.1288   -1.0103 H   0  0  0  0  0  0  0  0  0  0  0  0
   -3.1372   -4.0769   -1.8163 H   0  0  0  0  0  0  0  0  0  0  0  0
  1  2  2  0  0  0  0
  1  3  1  0  0  0  0
  1  7  1  0  0  0  0
  3  4  1  0  0  0  0
  3  5  1  0  0  0  0
  3  6  1  0  0  0  0
  7  8  1  0  0  0  0
  7 12  1  0  0  0  0
  8  9  1  0  0  0  0
  8 11  1  0  0  0  0
  8 13  1  0  0  0  0
  9 10  2  0  0  0  0
  9 17  1  0  0  0  0
 11 14  1  0  0  0  0
 11 15  1  0  0  0  0
 11 16  1  0  0  0  0
 17 18  1  0  0  0  0
 17 28  1  0  0  0  0
 18 19  1  0  0  0  0
 18 21  1  0  0  0  0
 18 29  1  0  0  0  0
 19 20  2  0  0  0  0
 19 37  1  0  0  0  0
 21 22  1  0  0  0  0
 21 30  1  0  0  0  0
 21 31  1  0  0  0  0
 22 23  1  0  0  0  0
 22 24  2  0  0  0  0
 23 25  2  0  0  0  0
 23 32  1  0  0  0  0
 24 26  1  0  0  0  0
 24 33  1  0  0  0  0
 25 27  1  0  0  0  0
 25 34  1  0  0  0  0
 26 27  2  0  0  0  0
 26 35  1  0  0  0  0
 27 36  1  0  0  0  0
 37 38  1  0  0  0  0
 37 42  1  0  0  0  0
 38 39  1  0  0  0  0
 38 41  1  0  0  0  0
 38 43  1  0  0  0  0
 39 40  2  0  0  0  0
 39 47  1  0  0  0  0
 41 44  1  0  0  0  0
 41 45  1  0  0  0  0
 41 46  1  0  0  0  0
 47 48  1  0  0  0  0
 47 49  1  0  0  0  0
 48 50  1  0  0  0  0
 48 51  1  0  0  0  0
 48 52  1  0  0  0  0
M  END
$$$$

  -OEChem-05262217163D

 52 52  0     1  0  0  0  0  0999 V2000
   -1.9448    1.6950    4.3698 C   0  0  0  0  0  0  0  0  0  0  0  0
   -1.1181    2.5082    3.9926 O   0  0  0  0  0  0  0  0  0  0  0  0
   -2.0969    1.4227    5.8545 C   0  0  0  0  0  0  0  0  0  0  0  0
   -1.8508    0.3797    6.0689 H   0  0  0  0  0  0  0  0  0  0  0  0
   -1.4246    2.0676    6.4276 H   0  0  0  0  0  0  0  0  0  0  0  0
   -3.1250    1.6203    6.1676 H   0  0  0  0  0  0  0  0  0  0  0  0
   -2.7376    1.0016    3.4744 N   0  0  0  0  0  0  0  0  0  0  0  0
   -2.5125    0.9516    2.0165 C   0  0  2  0  0  0  0  0  0  0  0  0
   -1.1966    0.2295    1.6325 C   0  0  0  0  0  0  0  0  0  0  0  0
   -0.8130   -0.7021    2.3291 O   0  0  0  0  0  0  0  0  0  0  0  0
   -2.6382    2.3477    1.3806 C   0  0  0  0  0  0  0  0  0  0  0  0
   -3.2544    0.2280    3.8819 H   0  0  0  0  0  0  0  0  0  0  0  0
   -3.3178    0.3444    1.5924 H   0  0  0  0  0  0  0  0  0  0  0  0
   -1.7494    2.9552    1.5780 H   0  0  0  0  0  0  0  0  0  0  0  0
   -2.7613    2.2645    0.2967 H   0  0  0  0  0  0  0  0  0  0  0  0
   -3.5116    2.8691    1.7843 H   0  0  0  0  0  0  0  0  0  0  0  0
   -0.6503    0.4020    0.3717 N   0  0  0  0  0  0  0  0  0  0  0  0
    0.6771   -0.0167   -0.1340 C   0  0  2  0  0  0  0  0  0  0  0  0
    0.5031   -0.9922   -1.3162 C   0  0  0  0  0  0  0  0  0  0  0  0
   -0.3098   -0.7303   -2.1971 O   0  0  0  0  0  0  0  0  0  0  0  0
    1.7943   -0.4011    0.8722 C   0  0  0  0  0  0  0  0  0  0  0  0
    2.2552    0.7956    1.6786 C   0  0  0  0  0  0  0  0  0  0  0  0
    3.1766    1.6966    1.1180 C   0  0  0  0  0  0  0  0  0  0  0  0
    1.8191    1.0139    2.9938 C   0  0  0  0  0  0  0  0  0  0  0  0
    3.6247    2.8063    1.8431 C   0  0  0  0  0  0  0  0  0  0  0  0
    2.2592    2.1263    3.7174 C   0  0  0  0  0  0  0  0  0  0  0  0
    3.1608    3.0250    3.1425 C   0  0  0  0  0  0  0  0  0  0  0  0
   -1.1427    1.0740   -0.2102 H   0  0  0  0  0  0  0  0  0  0  0  0
    1.0766    0.8790   -0.6190 H   0  0  0  0  0  0  0  0  0  0  0  0
    2.6625   -0.7812    0.3253 H   0  0  0  0  0  0  0  0  0  0  0  0
    1.4633   -1.2074    1.5323 H   0  0  0  0  0  0  0  0  0  0  0  0
    3.5467    1.5423    0.1093 H   0  0  0  0  0  0  0  0  0  0  0  0
    1.1289    0.3256    3.4694 H   0  0  0  0  0  0  0  0  0  0  0  0
    4.3302    3.5008    1.3973 H   0  0  0  0  0  0  0  0  0  0  0  0
    1.8887    2.2921    4.7247 H   0  0  0  0  0  0  0  0  0  0  0  0
    3.4978    3.8897    3.7063 H   0  0  0  0  0  0  0  0  0  0  0  0
    1.2402   -2.1587   -1.4273 N   0  0  0  0  0  0  0  0  0  0  0  0
    1.0819   -3.1344   -2.5182 C   0  0  2  0  0  0  0  0  0  0  0  0
   -0.1760   -4.0223   -2.3482 C   0  0  0  0  0  0  0  0  0  0  0  0
   -0.0983   -5.2424   -2.2706 O   0  0  0  0  0  0  0  0  0  0  0  0
    2.3797   -3.9489   -2.5927 C   0  0  0  0  0  0  0  0  0  0  0  0
    1.7725   -2.4408   -0.6083 H   0  0  0  0  0  0  0  0  0  0  0  0
    0.9702   -2.6021   -3.4688 H   0  0  0  0  0  0  0  0  0  0  0  0
    2.5310   -4.5188   -1.6703 H   0  0  0  0  0  0  0  0  0  0  0  0
    2.3374   -4.6526   -3.4303 H   0  0  0  0  0  0  0  0  0  0  0  0
    3.2389   -3.2879   -2.7421 H   0  0  0  0  0  0  0  0  0  0  0  0
   -1.4194   -3.4250   -2.2873 N   0  0  0  0  0  0  0  0  0  0  0  0
   -2.6666   -4.1540   -2.1032 C   0  0  0  0  0  0  0  0  0  0  0  0
   -1.4315   -2.4028   -2.3267 H   0  0  0  0  0  0  0  0  0  0  0  0
   -2.8187   -4.8649   -2.9221 H   0  0  0  0  0  0  0  0  0  0  0  0
   -2.6523   -4.7037   -1.1562 H   0  0  0  0  0  0  0  0  0  0  0  0
   -3.5117   -3.4592   -2.0880 H   0  0  0  0  0  0  0  0  0  0  0  0
  1  2  2  0  0  0  0
  1  3  1  0  0  0  0
  1  7  1  0  0  0  0
  3  4  1  0  0  0  0
  3  5  1  0  0  0  0
  3  6  1  0  0  0  0
  7  8  1  0  0  0  0
  7 12  1  0  0  0  0
  8  9  1  0  0  0  0
  8 11  1  0  0  0  0
  8 13  1  0  0  0  0
  9 10  2  0  0  0  0
  9 17  1  0  0  0  0
 11 14  1  0  0  0  0
 11 15  1  0  0  0  0
 11 16  1  0  0  0  0
 17 18  1  0  0  0  0
 17 28  1  0  0  0  0
 18 19  1  0  0  0  0
 18 21  1  0  0  0  0
 18 29  1  0  0  0  0
 19 20  2  0  0  0  0
 19 37  1  0  0  0  0
 21 22  1  0  0  0  0
 21 30  1  0  0  0  0
 21 31  1  0  0  0  0
 22 23  1  0  0  0  0
 22 24  2  0  0  0  0
 23 25  2  0  0  0  0
 23 32  1  0  0  0  0
 24 26  1  0  0  0  0
 24 33  1  0  0  0  0
 25 27  1  0  0  0  0
 25 34  1  0  0  0  0
 26 27  2  0  0  0  0
 26 35  1  0  0  0  0
 27 36  1  0  0  0  0
 37 38  1  0  0  0  0
 37 42  1  0  0  0  0
 38 39  1  0  0  0  0
 38 41  1  0  0  0  0
 38 43  1  0  0  0  0
 39 40  2  0  0  0  0
 39 47  1  0  0  0  0
 41 44  1  0  0  0  0
 41 45  1  0  0  0  0
 41 46  1  0  0  0  0
 47 48  1  0  0  0  0
 47 49  1  0  0  0  0
 48 50  1  0  0  0  0
 48 51  1  0  0  0  0
 48 52  1  0  0  0  0
M  END
$$$$

  -OEChem-05262217163D

 52 52  0     1  0  0  0  0  0999 V2000
   -1.9555    1.6316    4.4431 C   0  0  0  0  0  0  0  0  0  0  0  0
   -1.0911    2.4346    4.1354 O   0  0  0  0  0  0  0  0  0  0  0  0
   -2.1642    1.2905    5.9064 C   0  0  0  0  0  0  0  0  0  0  0  0
   -1.9052    0.2438    6.0840 H   0  0  0  0  0  0  0  0  0  0  0  0
   -1.5304    1.9217    6.5357 H   0  0  0  0  0  0  0  0  0  0  0  0
   -3.2082    1.4544    6.1839 H   0  0  0  0  0  0  0  0  0  0  0  0
   -2.7421    1.0115    3.4900 N   0  0  0  0  0  0  0  0  0  0  0  0
   -2.4781    1.0239    2.0374 C   0  0  2  0  0  0  0  0  0  0  0  0
   -1.1936    0.2526    1.6427 C   0  0  0  0  0  0  0  0  0  0  0  0
   -0.8190   -0.6797    2.3437 O   0  0  0  0  0  0  0  0  0  0  0  0
   -2.5035    2.4541    1.4702 C   0  0  0  0  0  0  0  0  0  0  0  0
   -3.2995    0.2395    3.8436 H   0  0  0  0  0  0  0  0  0  0  0  0
   -3.3052    0.4875    1.5630 H   0  0  0  0  0  0  0  0  0  0  0  0
   -1.5822    2.9923    1.7141 H   0  0  0  0  0  0  0  0  0  0  0  0
   -2.6074    2.4320    0.3815 H   0  0  0  0  0  0  0  0  0  0  0  0
   -3.3509    3.0102    1.8825 H   0  0  0  0  0  0  0  0  0  0  0  0
   -0.6722    0.3841    0.3664 N   0  0  0  0  0  0  0  0  0  0  0  0
    0.6548   -0.0400   -0.1339 C   0  0  2  0  0  0  0  0  0  0  0  0
    0.4890   -1.0649   -1.2706 C   0  0  0  0  0  0  0  0  0  0  0  0
   -0.1540   -0.7581   -2.2689 O   0  0  0  0  0  0  0  0  0  0  0  0
    1.7830   -0.3773    0.8751 C   0  0  0  0  0  0  0  0  0  0  0  0
    2.2375    0.8528    1.6319 C   0  0  0  0  0  0  0  0  0  0  0  0
    3.1450    1.7393    1.0281 C   0  0  0  0  0  0  0  0  0  0  0  0
    1.7997    1.1247    2.9365 C   0  0  0  0  0  0  0  0  0  0  0  0
    3.5843    2.8836    1.7025 C   0  0  0  0  0  0  0  0  0  0  0  0
    2.2300    2.2725    3.6089 C   0  0  0  0  0  0  0  0  0  0  0  0
    3.1222    3.1536    2.9931 C   0  0  0  0  0  0  0  0  0  0  0  0
   -1.1485    1.0733   -0.2088 H   0  0  0  0  0  0  0  0  0  0  0  0
    1.0420    0.8408   -0.6560 H   0  0  0  0  0  0  0  0  0  0  0  0
    2.6460   -0.7728    0.3302 H   0  0  0  0  0  0  0  0  0  0  0  0
    1.4672   -1.1607    1.5691 H   0  0  0  0  0  0  0  0  0  0  0  0
    3.5125    1.5438    0.0256 H   0  0  0  0  0  0  0  0  0  0  0  0
    1.1137    0.4532    3.4424 H   0  0  0  0  0  0  0  0  0  0  0  0
    4.2816    3.5644    1.2238 H   0  0  0  0  0  0  0  0  0  0  0  0
    1.8568    2.4794    4.6080 H   0  0  0  0  0  0  0  0  0  0  0  0
    3.4522    4.0452    3.5176 H   0  0  0  0  0  0  0  0  0  0  0  0
    1.0088   -2.3437   -1.1806 N   0  0  0  0  0  0  0  0  0  0  0  0
    0.8438   -3.3773   -2.2149 C   0  0  2  0  0  0  0  0  0  0  0  0
   -0.5552   -4.0406   -2.1780 C   0  0  0  0  0  0  0  0  0  0  0  0
   -0.6941   -5.2461   -2.0099 O   0  0  0  0  0  0  0  0  0  0  0  0
    1.9875   -4.3844   -2.0401 C   0  0  0  0  0  0  0  0  0  0  0  0
    1.3599   -2.6283   -0.2694 H   0  0  0  0  0  0  0  0  0  0  0  0
    0.9525   -2.9213   -3.2048 H   0  0  0  0  0  0  0  0  0  0  0  0
    1.9175   -4.8821   -1.0676 H   0  0  0  0  0  0  0  0  0  0  0  0
    1.9430   -5.1482   -2.8234 H   0  0  0  0  0  0  0  0  0  0  0  0
    2.9558   -3.8790   -2.1072 H   0  0  0  0  0  0  0  0  0  0  0  0
   -1.6772   -3.2535   -2.3472 N   0  0  0  0  0  0  0  0  0  0  0  0
   -3.0425   -3.7590   -2.3133 C   0  0  0  0  0  0  0  0  0  0  0  0
   -1.5112   -2.2507   -2.4620 H   0  0  0  0  0  0  0  0  0  0  0  0
   -3.1914   -4.5120   -3.0942 H   0  0  0  0  0  0  0  0  0  0  0  0
   -3.2589   -4.2121   -1.3403 H   0  0  0  0  0  0  0  0  0  0  0  0
   -3.7511   -2.9424   -2.4814 H   0  0  0  0  0  0  0  0  0  0  0  0
  1  2  2  0  0  0  0
  1  3  1  0  0  0  0
  1  7  1  0  0  0  0
  3  4  1  0  0  0  0
  3  5  1  0  0  0  0
  3  6  1  0  0  0  0
  7  8  1  0  0  0  0
  7 12  1  0  0  0  0
  8  9  1  0  0  0  0
  8 11  1  0  0  0  0
  8 13  1  0  0  0  0
  9 10  2  0  0  0  0
  9 17  1  0  0  0  0
 11 14  1  0  0  0  0
 11 15  1  0  0  0  0
 11 16  1  0  0  0  0
 17 18  1  0  0  0  0
 17 28  1  0  0  0  0
 18 19  1  0  0  0  0
 18 21  1  0  0  0  0
 18 29  1  0  0  0  0
 19 20  2  0  0  0  0
 19 37  1  0  0  0  0
 21 22  1  0  0  0  0
 21 30  1  0  0  0  0
 21 31  1  0  0  0  0
 22 23  1  0  0  0  0
 22 24  2  0  0  0  0
 23 25  2  0  0  0  0
 23 32  1  0  0  0  0
 24 26  1  0  0  0  0
 24 33  1  0  0  0  0
 25 27  1  0  0  0  0
 25 34  1  0  0  0  0
 26 27  2  0  0  0  0
 26 35  1  0  0  0  0
 27 36  1  0  0  0  0
 37 38  1  0  0  0  0
 37 42  1  0  0  0  0
 38 39  1  0  0  0  0
 38 41  1  0  0  0  0
 38 43  1  0  0  0  0
 39 40  2  0  0  0  0
 39 47  1  0  0  0  0
 41 44  1  0  0  0  0
 41 45  1  0  0  0  0
 41 46  1  0  0  0  0
 47 48  1  0  0  0  0
 47 49  1  0  0  0  0
 48 50  1  0  0  0  0
 48 51  1  0  0  0  0
 48 52  1  0  0  0  0
M  END
$$$$

  -OEChem-05262217163D

 52 52  0     1  0  0  0  0  0999 V2000
   -1.9389    1.6650    4.4482 C   0  0  0  0  0  0  0  0  0  0  0  0
   -1.0894    2.4763    4.1219 O   0  0  0  0  0  0  0  0  0  0  0  0
   -2.1300    1.3418    5.9179 C   0  0  0  0  0  0  0  0  0  0  0  0
   -1.9074    0.2872    6.0984 H   0  0  0  0  0  0  0  0  0  0  0  0
   -1.4597    1.9525    6.5298 H   0  0  0  0  0  0  0  0  0  0  0  0
   -3.1611    1.5476    6.2148 H   0  0  0  0  0  0  0  0  0  0  0  0
   -2.7246    1.0194    3.5114 N   0  0  0  0  0  0  0  0  0  0  0  0
   -2.4766    1.0135    2.0559 C   0  0  2  0  0  0  0  0  0  0  0  0
   -1.1947    0.2397    1.6580 C   0  0  0  0  0  0  0  0  0  0  0  0
   -0.8117   -0.6839    2.3662 O   0  0  0  0  0  0  0  0  0  0  0  0
   -2.5144    2.4353    1.4686 C   0  0  0  0  0  0  0  0  0  0  0  0
   -3.2657    0.2440    3.8823 H   0  0  0  0  0  0  0  0  0  0  0  0
   -3.3071    0.4676    1.5985 H   0  0  0  0  0  0  0  0  0  0  0  0
   -1.5923    2.9803    1.6931 H   0  0  0  0  0  0  0  0  0  0  0  0
   -2.6322    2.3979    0.3817 H   0  0  0  0  0  0  0  0  0  0  0  0
   -3.3586    2.9942    1.8841 H   0  0  0  0  0  0  0  0  0  0  0  0
   -0.6918    0.3434    0.3717 N   0  0  0  0  0  0  0  0  0  0  0  0
    0.6390   -0.0759   -0.1220 C   0  0  2  0  0  0  0  0  0  0  0  0
    0.4834   -1.1375   -1.2221 C   0  0  0  0  0  0  0  0  0  0  0  0
    0.0489   -0.8131   -2.3217 O   0  0  0  0  0  0  0  0  0  0  0  0
    1.7792   -0.3761    0.8844 C   0  0  0  0  0  0  0  0  0  0  0  0
    2.2232    0.8774    1.6078 C   0  0  0  0  0  0  0  0  0  0  0  0
    3.1139    1.7607    0.9755 C   0  0  0  0  0  0  0  0  0  0  0  0
    1.7882    1.1772    2.9071 C   0  0  0  0  0  0  0  0  0  0  0  0
    3.5377    2.9304    1.6155 C   0  0  0  0  0  0  0  0  0  0  0  0
    2.2029    2.3501    3.5453 C   0  0  0  0  0  0  0  0  0  0  0  0
    3.0769    3.2288    2.9005 C   0  0  0  0  0  0  0  0  0  0  0  0
   -1.1625    1.0390   -0.2005 H   0  0  0  0  0  0  0  0  0  0  0  0
    1.0117    0.7956   -0.6698 H   0  0  0  0  0  0  0  0  0  0  0  0
    2.6399   -0.7782    0.3400 H   0  0  0  0  0  0  0  0  0  0  0  0
    1.4794   -1.1449    1.6014 H   0  0  0  0  0  0  0  0  0  0  0  0
    3.4799    1.5434   -0.0232 H   0  0  0  0  0  0  0  0  0  0  0  0
    1.1159    0.5092    3.4352 H   0  0  0  0  0  0  0  0  0  0  0  0
    4.2218    3.6083    1.1140 H   0  0  0  0  0  0  0  0  0  0  0  0
    1.8320    2.5785    4.5406 H   0  0  0  0  0  0  0  0  0  0  0  0
    3.3939    4.1403    3.3984 H   0  0  0  0  0  0  0  0  0  0  0  0
    0.7487   -2.4706   -0.9691 N   0  0  0  0  0  0  0  0  0  0  0  0
    0.5435   -3.5529   -1.9448 C   0  0  2  0  0  0  0  0  0  0  0  0
   -0.9461   -3.9525   -2.0875 C   0  0  0  0  0  0  0  0  0  0  0  0
   -1.3354   -5.0906   -1.8547 O   0  0  0  0  0  0  0  0  0  0  0  0
    1.4387   -4.7241   -1.5206 C   0  0  0  0  0  0  0  0  0  0  0  0
    0.8937   -2.7232    0.0061 H   0  0  0  0  0  0  0  0  0  0  0  0
    0.8796   -3.2203   -2.9328 H   0  0  0  0  0  0  0  0  0  0  0  0
    1.1352   -5.1065   -0.5407 H   0  0  0  0  0  0  0  0  0  0  0  0
    1.3662   -5.5396   -2.2474 H   0  0  0  0  0  0  0  0  0  0  0  0
    2.4839   -4.4051   -1.4645 H   0  0  0  0  0  0  0  0  0  0  0  0
   -1.8607   -3.0022   -2.4968 N   0  0  0  0  0  0  0  0  0  0  0  0
   -3.2868   -3.2529   -2.6498 C   0  0  0  0  0  0  0  0  0  0  0  0
   -1.4914   -2.0623   -2.6610 H   0  0  0  0  0  0  0  0  0  0  0  0
   -3.4596   -4.0310   -3.4003 H   0  0  0  0  0  0  0  0  0  0  0  0
   -3.7228   -3.5759   -1.6987 H   0  0  0  0  0  0  0  0  0  0  0  0
   -3.7978   -2.3411   -2.9733 H   0  0  0  0  0  0  0  0  0  0  0  0
  1  2  2  0  0  0  0
  1  3  1  0  0  0  0
  1  7  1  0  0  0  0
  3  4  1  0  0  0  0
  3  5  1  0  0  0  0
  3  6  1  0  0  0  0
  7  8  1  0  0  0  0
  7 12  1  0  0  0  0
  8  9  1  0  0  0  0
  8 11  1  0  0  0  0
  8 13  1  0  0  0  0
  9 10  2  0  0  0  0
  9 17  1  0  0  0  0
 11 14  1  0  0  0  0
 11 15  1  0  0  0  0
 11 16  1  0  0  0  0
 17 18  1  0  0  0  0
 17 28  1  0  0  0  0
 18 19  1  0  0  0  0
 18 21  1  0  0  0  0
 18 29  1  0  0  0  0
 19 20  2  0  0  0  0
 19 37  1  0  0  0  0
 21 22  1  0  0  0  0
 21 30  1  0  0  0  0
 21 31  1  0  0  0  0
 22 23  1  0  0  0  0
 22 24  2  0  0  0  0
 23 25  2  0  0  0  0
 23 32  1  0  0  0  0
 24 26  1  0  0  0  0
 24 33  1  0  0  0  0
 25 27  1  0  0  0  0
 25 34  1  0  0  0  0
 26 27  2  0  0  0  0
 26 35  1  0  0  0  0
 27 36  1  0  0  0  0
 37 38  1  0  0  0  0
 37 42  1  0  0  0  0
 38 39  1  0  0  0  0
 38 41  1  0  0  0  0
 38 43  1  0  0  0  0
 39 40  2  0  0  0  0
 39 47  1  0  0  0  0
 41 44  1  0  0  0  0
 41 45  1  0  0  0  0
 41 46  1  0  0  0  0
 47 48  1  0  0  0  0
 47 49  1  0  0  0  0
 48 50  1  0  0  0  0
 48 51  1  0  0  0  0
 48 52  1  0  0  0  0
M  END
$$$$

  -OEChem-05262217163D

 52 52  0     1  0  0  0  0  0999 V2000
   -1.9415    1.5669    4.5520 C   0  0  0  0  0  0  0  0  0  0  0  0
   -1.0087    2.3234    4.3416 O   0  0  0  0  0  0  0  0  0  0  0  0
   -2.2520    1.1517    5.9777 C   0  0  0  0  0  0  0  0  0  0  0  0
   -2.1292    0.0711    6.0858 H   0  0  0  0  0  0  0  0  0  0  0  0
   -1.5738    1.6541    6.6732 H   0  0  0  0  0  0  0  0  0  0  0  0
   -3.2795    1.4234    6.2310 H   0  0  0  0  0  0  0  0  0  0  0  0
   -2.7247    1.0724    3.5252 N   0  0  0  0  0  0  0  0  0  0  0  0
   -2.4050    1.1645    2.0862 C   0  0  2  0  0  0  0  0  0  0  0  0
   -1.1901    0.3018    1.6624 C   0  0  0  0  0  0  0  0  0  0  0  0
   -0.8328   -0.6368    2.3648 O   0  0  0  0  0  0  0  0  0  0  0  0
   -2.2591    2.6256    1.6276 C   0  0  0  0  0  0  0  0  0  0  0  0
   -3.3592    0.3299    3.8037 H   0  0  0  0  0  0  0  0  0  0  0  0
   -3.2652    0.7534    1.5497 H   0  0  0  0  0  0  0  0  0  0  0  0
   -1.2933    3.0403    1.9335 H   0  0  0  0  0  0  0  0  0  0  0  0
   -2.3278    2.6939    0.5382 H   0  0  0  0  0  0  0  0  0  0  0  0
   -3.0543    3.2406    2.0600 H   0  0  0  0  0  0  0  0  0  0  0  0
   -0.7388    0.3425    0.3540 N   0  0  0  0  0  0  0  0  0  0  0  0
    0.5830   -0.0951   -0.1470 C   0  0  2  0  0  0  0  0  0  0  0  0
    0.4069   -1.2193   -1.1769 C   0  0  0  0  0  0  0  0  0  0  0  0
    0.2171   -0.9516   -2.3578 O   0  0  0  0  0  0  0  0  0  0  0  0
    1.7435   -0.3509    0.8460 C   0  0  0  0  0  0  0  0  0  0  0  0
    2.1949    0.9349    1.5043 C   0  0  0  0  0  0  0  0  0  0  0  0
    3.0676    1.7962    0.8192 C   0  0  0  0  0  0  0  0  0  0  0  0
    1.7800    1.2862    2.7970 C   0  0  0  0  0  0  0  0  0  0  0  0
    3.4938    2.9947    1.4024 C   0  0  0  0  0  0  0  0  0  0  0  0
    2.1972    2.4871    3.3783 C   0  0  0  0  0  0  0  0  0  0  0  0
    3.0534    3.3438    2.6820 C   0  0  0  0  0  0  0  0  0  0  0  0
   -1.1947    1.0526   -0.2119 H   0  0  0  0  0  0  0  0  0  0  0  0
    0.9416    0.7476   -0.7472 H   0  0  0  0  0  0  0  0  0  0  0  0
    2.5928   -0.7741    0.2993 H   0  0  0  0  0  0  0  0  0  0  0  0
    1.4626   -1.0899    1.6011 H   0  0  0  0  0  0  0  0  0  0  0  0
    3.4170    1.5387   -0.1759 H   0  0  0  0  0  0  0  0  0  0  0  0
    1.1222    0.6355    3.3647 H   0  0  0  0  0  0  0  0  0  0  0  0
    4.1643    3.6554    0.8608 H   0  0  0  0  0  0  0  0  0  0  0  0
    1.8430    2.7512    4.3709 H   0  0  0  0  0  0  0  0  0  0  0  0
    3.3739    4.2765    3.1365 H   0  0  0  0  0  0  0  0  0  0  0  0
    0.3890   -2.5381   -0.7651 N   0  0  0  0  0  0  0  0  0  0  0  0
    0.1580   -3.6824   -1.6598 C   0  0  2  0  0  0  0  0  0  0  0  0
   -1.3318   -3.8496   -2.0499 C   0  0  0  0  0  0  0  0  0  0  0  0
   -1.9569   -4.8725   -1.7971 O   0  0  0  0  0  0  0  0  0  0  0  0
    0.7350   -4.9227   -0.9667 C   0  0  0  0  0  0  0  0  0  0  0  0
    0.3383   -2.6916    0.2408 H   0  0  0  0  0  0  0  0  0  0  0  0
    0.7157   -3.5316   -2.5903 H   0  0  0  0  0  0  0  0  0  0  0  0
    0.1931   -5.1321   -0.0387 H   0  0  0  0  0  0  0  0  0  0  0  0
    0.6506   -5.7964   -1.6209 H   0  0  0  0  0  0  0  0  0  0  0  0
    1.7924   -4.7707   -0.7289 H   0  0  0  0  0  0  0  0  0  0  0  0
   -1.9705   -2.8252   -2.7202 N   0  0  0  0  0  0  0  0  0  0  0  0
   -3.3571   -2.8759   -3.1621 C   0  0  0  0  0  0  0  0  0  0  0  0
   -1.4114   -1.9871   -2.8998 H   0  0  0  0  0  0  0  0  0  0  0  0
   -3.5024   -3.6947   -3.8744 H   0  0  0  0  0  0  0  0  0  0  0  0
   -4.0260   -3.0280   -2.3087 H   0  0  0  0  0  0  0  0  0  0  0  0
   -3.6297   -1.9372   -3.6536 H   0  0  0  0  0  0  0  0  0  0  0  0
  1  2  2  0  0  0  0
  1  3  1  0  0  0  0
  1  7  1  0  0  0  0
  3  4  1  0  0  0  0
  3  5  1  0  0  0  0
  3  6  1  0  0  0  0
  7  8  1  0  0  0  0
  7 12  1  0  0  0  0
  8  9  1  0  0  0  0
  8 11  1  0  0  0  0
  8 13  1  0  0  0  0
  9 10  2  0  0  0  0
  9 17  1  0  0  0  0
 11 14  1  0  0  0  0
 11 15  1  0  0  0  0
 11 16  1  0  0  0  0
 17 18  1  0  0  0  0
 17 28  1  0  0  0  0
 18 19  1  0  0  0  0
 18 21  1  0  0  0  0
 18 29  1  0  0  0  0
 19 20  2  0  0  0  0
 19 37  1  0  0  0  0
 21 22  1  0  0  0  0
 21 30  1  0  0  0  0
 21 31  1  0  0  0  0
 22 23  1  0  0  0  0
 22 24  2  0  0  0  0
 23 25  2  0  0  0  0
 23 32  1  0  0  0  0
 24 26  1  0  0  0  0
 24 33  1  0  0  0  0
 25 27  1  0  0  0  0
 25 34  1  0  0  0  0
 26 27  2  0  0  0  0
 26 35  1  0  0  0  0
 27 36  1  0  0  0  0
 37 38  1  0  0  0  0
 37 42  1  0  0  0  0
 38 39  1  0  0  0  0
 38 41  1  0  0  0  0
 38 43  1  0  0  0  0
 39 40  2  0  0  0  0
 39 47  1  0  0  0  0
 41 44  1  0  0  0  0
 41 45  1  0  0  0  0
 41 46  1  0  0  0  0
 47 48  1  0  0  0  0
 47 49  1  0  0  0  0
 48 50  1  0  0  0  0
 48 51  1  0  0  0  0
 48 52  1  0  0  0  0
M  END
$$$$

  -OEChem-05262217163D

 52 52  0     1  0  0  0  0  0999 V2000
   -1.9547    1.5153    4.5634 C   0  0  0  0  0  0  0  0  0  0  0  0
   -1.0081    2.2733    4.4317 O   0  0  0  0  0  0  0  0  0  0  0  0
   -2.3100    1.0087    5.9488 C   0  0  0  0  0  0  0  0  0  0  0  0
   -2.2094   -0.0789    5.9836 H   0  0  0  0  0  0  0  0  0  0  0  0
   -1.6408    1.4476    6.6943 H   0  0  0  0  0  0  0  0  0  0  0  0
   -3.3387    1.2820    6.1947 H   0  0  0  0  0  0  0  0  0  0  0  0
   -2.7121    1.0963    3.4845 N   0  0  0  0  0  0  0  0  0  0  0  0
   -2.3281    1.2440    2.0661 C   0  0  2  0  0  0  0  0  0  0  0  0
   -1.1139    0.3730    1.6608 C   0  0  0  0  0  0  0  0  0  0  0  0
   -0.7681   -0.5666    2.3686 O   0  0  0  0  0  0  0  0  0  0  0  0
   -2.1271    2.7184    1.6769 C   0  0  0  0  0  0  0  0  0  0  0  0
   -3.3597    0.3438    3.6989 H   0  0  0  0  0  0  0  0  0  0  0  0
   -3.1714    0.8755    1.4743 H   0  0  0  0  0  0  0  0  0  0  0  0
   -1.1692    3.0975    2.0470 H   0  0  0  0  0  0  0  0  0  0  0  0
   -2.1382    2.8311    0.5890 H   0  0  0  0  0  0  0  0  0  0  0  0
   -2.9301    3.3340    2.0939 H   0  0  0  0  0  0  0  0  0  0  0  0
   -0.6487    0.4035    0.3581 N   0  0  0  0  0  0  0  0  0  0  0  0
    0.6845   -0.0243   -0.1197 C   0  0  2  0  0  0  0  0  0  0  0  0
    0.5106   -1.1614   -1.1318 C   0  0  0  0  0  0  0  0  0  0  0  0
    0.6066   -0.9543   -2.3357 O   0  0  0  0  0  0  0  0  0  0  0  0
    1.8281   -0.2830    0.8900 C   0  0  0  0  0  0  0  0  0  0  0  0
    2.2629    0.9993    1.5670 C   0  0  0  0  0  0  0  0  0  0  0  0
    3.1433    1.8696    0.9034 C   0  0  0  0  0  0  0  0  0  0  0  0
    1.8282    1.3370    2.8572 C   0  0  0  0  0  0  0  0  0  0  0  0
    3.5581    3.0629    1.5049 C   0  0  0  0  0  0  0  0  0  0  0  0
    2.2322    2.5337    3.4561 C   0  0  0  0  0  0  0  0  0  0  0  0
    3.0976    3.3984    2.7812 C   0  0  0  0  0  0  0  0  0  0  0  0
   -1.1137    1.0914   -0.2274 H   0  0  0  0  0  0  0  0  0  0  0  0
    1.0502    0.8145   -0.7210 H   0  0  0  0  0  0  0  0  0  0  0  0
    2.6873   -0.6993    0.3536 H   0  0  0  0  0  0  0  0  0  0  0  0
    1.5377   -1.0312    1.6322 H   0  0  0  0  0  0  0  0  0  0  0  0
    3.5065    1.6224   -0.0897 H   0  0  0  0  0  0  0  0  0  0  0  0
    1.1656    0.6782    3.4098 H   0  0  0  0  0  0  0  0  0  0  0  0
    4.2359    3.7297    0.9805 H   0  0  0  0  0  0  0  0  0  0  0  0
    1.8620    2.7869    4.4460 H   0  0  0  0  0  0  0  0  0  0  0  0
    3.4107    4.3264    3.2501 H   0  0  0  0  0  0  0  0  0  0  0  0
    0.1819   -2.4193   -0.6674 N   0  0  0  0  0  0  0  0  0  0  0  0
   -0.3204   -3.4640   -1.5651 C   0  0  2  0  0  0  0  0  0  0  0  0
   -1.7913   -3.2210   -1.9680 C   0  0  0  0  0  0  0  0  0  0  0  0
   -2.6474   -3.0256   -1.1122 O   0  0  0  0  0  0  0  0  0  0  0  0
   -0.1696   -4.8109   -0.8549 C   0  0  0  0  0  0  0  0  0  0  0  0
   -0.1448   -2.4360    0.2993 H   0  0  0  0  0  0  0  0  0  0  0  0
    0.2885   -3.4881   -2.4748 H   0  0  0  0  0  0  0  0  0  0  0  0
   -0.7669   -4.8309    0.0627 H   0  0  0  0  0  0  0  0  0  0  0  0
   -0.5067   -5.6234   -1.5059 H   0  0  0  0  0  0  0  0  0  0  0  0
    0.8784   -4.9875   -0.5936 H   0  0  0  0  0  0  0  0  0  0  0  0
   -2.1587   -3.2505   -3.3004 N   0  0  0  0  0  0  0  0  0  0  0  0
   -3.5115   -2.9607   -3.7580 C   0  0  0  0  0  0  0  0  0  0  0  0
   -1.4044   -3.2509   -3.9816 H   0  0  0  0  0  0  0  0  0  0  0  0
   -4.2289   -3.6436   -3.2905 H   0  0  0  0  0  0  0  0  0  0  0  0
   -3.7887   -1.9315   -3.5074 H   0  0  0  0  0  0  0  0  0  0  0  0
   -3.5769   -3.0840   -4.8433 H   0  0  0  0  0  0  0  0  0  0  0  0
  1  2  2  0  0  0  0
  1  3  1  0  0  0  0
  1  7  1  0  0  0  0
  3  4  1  0  0  0  0
  3  5  1  0  0  0  0
  3  6  1  0  0  0  0
  7  8  1  0  0  0  0
  7 12  1  0  0  0  0
  8  9  1  0  0  0  0
  8 11  1  0  0  0  0
  8 13  1  0  0  0  0
  9 10  2  0  0  0  0
  9 17  1  0  0  0  0
 11 14  1  0  0  0  0
 11 15  1  0  0  0  0
 11 16  1  0  0  0  0
 17 18  1  0  0  0  0
 17 28  1  0  0  0  0
 18 19  1  0  0  0  0
 18 21  1  0  0  0  0
 18 29  1  0  0  0  0
 19 20  2  0  0  0  0
 19 37  1  0  0  0  0
 21 22  1  0  0  0  0
 21 30  1  0  0  0  0
 21 31  1  0  0  0  0
 22 23  1  0  0  0  0
 22 24  2  0  0  0  0
 23 25  2  0  0  0  0
 23 32  1  0  0  0  0
 24 26  1  0  0  0  0
 24 33  1  0  0  0  0
 25 27  1  0  0  0  0
 25 34  1  0  0  0  0
 26 27  2  0  0  0  0
 26 35  1  0  0  0  0
 27 36  1  0  0  0  0
 37 38  1  0  0  0  0
 37 42  1  0  0  0  0
 38 39  1  0  0  0  0
 38 41  1  0  0  0  0
 38 43  1  0  0  0  0
 39 40  2  0  0  0  0
 39 47  1  0  0  0  0
 41 44  1  0  0  0  0
 41 45  1  0  0  0  0
 41 46  1  0  0  0  0
 47 48  1  0  0  0  0
 47 49  1  0  0  0  0
 48 50  1  0  0  0  0
 48 51  1  0  0  0  0
 48 52  1  0  0  0  0
M  END
$$$$

  -OEChem-05262217163D

 52 52  0     1  0  0  0  0  0999 V2000
   -2.0364    1.5307    4.3787 C   0  0  0  0  0  0  0  0  0  0  0  0
   -1.1301    2.3279    4.2031 O   0  0  0  0  0  0  0  0  0  0  0  0
   -2.4008    1.1249    5.7946 C   0  0  0  0  0  0  0  0  0  0  0  0
   -2.2630    0.0480    5.9199 H   0  0  0  0  0  0  0  0  0  0  0  0
   -1.7614    1.6461    6.5127 H   0  0  0  0  0  0  0  0  0  0  0  0
   -3.4432    1.3798    6.0005 H   0  0  0  0  0  0  0  0  0  0  0  0
   -2.7382    0.9786    3.3226 N   0  0  0  0  0  0  0  0  0  0  0  0
   -2.3279    1.0424    1.9055 C   0  0  2  0  0  0  0  0  0  0  0  0
   -1.0307    0.2535    1.6034 C   0  0  0  0  0  0  0  0  0  0  0  0
   -0.6688   -0.6401    2.3617 O   0  0  0  0  0  0  0  0  0  0  0  0
   -2.2483    2.4935    1.4026 C   0  0  0  0  0  0  0  0  0  0  0  0
   -3.3488    0.2098    3.5814 H   0  0  0  0  0  0  0  0  0  0  0  0
   -3.1164    0.5522    1.3260 H   0  0  0  0  0  0  0  0  0  0  0  0
   -1.3410    2.9876    1.7646 H   0  0  0  0  0  0  0  0  0  0  0  0
   -2.2352    2.5182    0.3090 H   0  0  0  0  0  0  0  0  0  0  0  0
   -3.1171    3.0623    1.7480 H   0  0  0  0  0  0  0  0  0  0  0  0
   -0.5036    0.2586    0.3253 N   0  0  0  0  0  0  0  0  0  0  0  0
    0.8604   -0.1343   -0.0938 C   0  0  2  0  0  0  0  0  0  0  0  0
    0.7306   -1.3024   -1.0747 C   0  0  0  0  0  0  0  0  0  0  0  0
    1.0174   -1.1732   -2.2587 O   0  0  0  0  0  0  0  0  0  0  0  0
    1.9741   -0.3344    0.9601 C   0  0  0  0  0  0  0  0  0  0  0  0
    2.3410    0.9769    1.6226 C   0  0  0  0  0  0  0  0  0  0  0  0
    3.2156    1.8607    0.9690 C   0  0  0  0  0  0  0  0  0  0  0  0
    1.8437    1.3340    2.8846 C   0  0  0  0  0  0  0  0  0  0  0  0
    3.5631    3.0849    1.5512 C   0  0  0  0  0  0  0  0  0  0  0  0
    2.1797    2.5614    3.4632 C   0  0  0  0  0  0  0  0  0  0  0  0
    3.0392    3.4390    2.7975 C   0  0  0  0  0  0  0  0  0  0  0  0
   -1.0075    0.8516   -0.3285 H   0  0  0  0  0  0  0  0  0  0  0  0
    1.2217    0.6973   -0.7069 H   0  0  0  0  0  0  0  0  0  0  0  0
    2.8645   -0.7341    0.4636 H   0  0  0  0  0  0  0  0  0  0  0  0
    1.6788   -1.0746    1.7084 H   0  0  0  0  0  0  0  0  0  0  0  0
    3.6257    1.6003   -0.0023 H   0  0  0  0  0  0  0  0  0  0  0  0
    1.1824    0.6679    3.4289 H   0  0  0  0  0  0  0  0  0  0  0  0
    4.2362    3.7618    1.0336 H   0  0  0  0  0  0  0  0  0  0  0  0
    1.7597    2.8293    4.4289 H   0  0  0  0  0  0  0  0  0  0  0  0
    3.2972    4.3920    3.2496 H   0  0  0  0  0  0  0  0  0  0  0  0
    0.1164   -2.4533   -0.6221 N   0  0  0  0  0  0  0  0  0  0  0  0
   -0.6144   -3.3180   -1.5534 C   0  0  2  0  0  0  0  0  0  0  0  0
   -1.9443   -2.6770   -2.0153 C   0  0  0  0  0  0  0  0  0  0  0  0
   -2.5943   -1.9619   -1.2572 O   0  0  0  0  0  0  0  0  0  0  0  0
   -0.8804   -4.6490   -0.8485 C   0  0  0  0  0  0  0  0  0  0  0  0
   -0.2896   -2.3438    0.3083 H   0  0  0  0  0  0  0  0  0  0  0  0
    0.0037   -3.5095   -2.4370 H   0  0  0  0  0  0  0  0  0  0  0  0
   -1.5040   -4.4952    0.0383 H   0  0  0  0  0  0  0  0  0  0  0  0
   -1.3968   -5.3405   -1.5212 H   0  0  0  0  0  0  0  0  0  0  0  0
    0.0627   -5.1085   -0.5371 H   0  0  0  0  0  0  0  0  0  0  0  0
   -2.4231   -2.9193   -3.2897 N   0  0  0  0  0  0  0  0  0  0  0  0
   -3.6154   -2.2764   -3.8278 C   0  0  0  0  0  0  0  0  0  0  0  0
   -1.8051   -3.4114   -3.9283 H   0  0  0  0  0  0  0  0  0  0  0  0
   -4.4866   -2.4968   -3.2019 H   0  0  0  0  0  0  0  0  0  0  0  0
   -3.4778   -1.1910   -3.8714 H   0  0  0  0  0  0  0  0  0  0  0  0
   -3.8176   -2.6415   -4.8393 H   0  0  0  0  0  0  0  0  0  0  0  0
  1  2  2  0  0  0  0
  1  3  1  0  0  0  0
  1  7  1  0  0  0  0
  3  4  1  0  0  0  0
  3  5  1  0  0  0  0
  3  6  1  0  0  0  0
  7  8  1  0  0  0  0
  7 12  1  0  0  0  0
  8  9  1  0  0  0  0
  8 11  1  0  0  0  0
  8 13  1  0  0  0  0
  9 10  2  0  0  0  0
  9 17  1  0  0  0  0
 11 14  1  0  0  0  0
 11 15  1  0  0  0  0
 11 16  1  0  0  0  0
 17 18  1  0  0  0  0
 17 28  1  0  0  0  0
 18 19  1  0  0  0  0
 18 21  1  0  0  0  0
 18 29  1  0  0  0  0
 19 20  2  0  0  0  0
 19 37  1  0  0  0  0
 21 22  1  0  0  0  0
 21 30  1  0  0  0  0
 21 31  1  0  0  0  0
 22 23  1  0  0  0  0
 22 24  2  0  0  0  0
 23 25  2  0  0  0  0
 23 32  1  0  0  0  0
 24 26  1  0  0  0  0
 24 33  1  0  0  0  0
 25 27  1  0  0  0  0
 25 34  1  0  0  0  0
 26 27  2  0  0  0  0
 26 35  1  0  0  0  0
 27 36  1  0  0  0  0
 37 38  1  0  0  0  0
 37 42  1  0  0  0  0
 38 39  1  0  0  0  0
 38 41  1  0  0  0  0
 38 43  1  0  0  0  0
 39 40  2  0  0  0  0
 39 47  1  0  0  0  0
 41 44  1  0  0  0  0
 41 45  1  0  0  0  0
 41 46  1  0  0  0  0
 47 48  1  0  0  0  0
 47 49  1  0  0  0  0
 48 50  1  0  0  0  0
 48 51  1  0  0  0  0
 48 52  1  0  0  0  0
M  END
$$$$

  -OEChem-05262217163D

 52 52  0     1  0  0  0  0  0999 V2000
   -2.0865    1.6135    4.2885 C   0  0  0  0  0  0  0  0  0  0  0  0
   -1.1836    2.4047    4.0727 O   0  0  0  0  0  0  0  0  0  0  0  0
   -2.4607    1.2909    5.7230 C   0  0  0  0  0  0  0  0  0  0  0  0
   -2.3033    0.2271    5.9173 H   0  0  0  0  0  0  0  0  0  0  0  0
   -1.8413    1.8694    6.4141 H   0  0  0  0  0  0  0  0  0  0  0  0
   -3.5101    1.5369    5.9007 H   0  0  0  0  0  0  0  0  0  0  0  0
   -2.7709    0.9880    3.2622 N   0  0  0  0  0  0  0  0  0  0  0  0
   -2.3386    0.9618    1.8503 C   0  0  2  0  0  0  0  0  0  0  0  0
   -1.0229    0.1784    1.6238 C   0  0  0  0  0  0  0  0  0  0  0  0
   -0.6647   -0.6624    2.4413 O   0  0  0  0  0  0  0  0  0  0  0  0
   -2.2736    2.3770    1.2520 C   0  0  0  0  0  0  0  0  0  0  0  0
   -3.3773    0.2316    3.5635 H   0  0  0  0  0  0  0  0  0  0  0  0
   -3.1083    0.4201    1.2916 H   0  0  0  0  0  0  0  0  0  0  0  0
   -1.3877    2.9147    1.6037 H   0  0  0  0  0  0  0  0  0  0  0  0
   -2.2290    2.3272    0.1602 H   0  0  0  0  0  0  0  0  0  0  0  0
   -3.1628    2.9493    1.5331 H   0  0  0  0  0  0  0  0  0  0  0  0
   -0.4788    0.1046    0.3558 N   0  0  0  0  0  0  0  0  0  0  0  0
    0.8883   -0.3053   -0.0423 C   0  0  2  0  0  0  0  0  0  0  0  0
    0.7744   -1.5304   -0.9552 C   0  0  0  0  0  0  0  0  0  0  0  0
    1.2368   -1.5178   -2.0894 O   0  0  0  0  0  0  0  0  0  0  0  0
    1.9942   -0.4408    1.0282 C   0  0  0  0  0  0  0  0  0  0  0  0
    2.3474    0.9090    1.6164 C   0  0  0  0  0  0  0  0  0  0  0  0
    3.2214    1.7566    0.9163 C   0  0  0  0  0  0  0  0  0  0  0  0
    1.8366    1.3401    2.8498 C   0  0  0  0  0  0  0  0  0  0  0  0
    3.5532    3.0181    1.4223 C   0  0  0  0  0  0  0  0  0  0  0  0
    2.1575    2.6045    3.3524 C   0  0  0  0  0  0  0  0  0  0  0  0
    3.0154    3.4458    2.6393 C   0  0  0  0  0  0  0  0  0  0  0  0
   -1.0180    0.5908   -0.3572 H   0  0  0  0  0  0  0  0  0  0  0  0
    1.2468    0.4931   -0.6997 H   0  0  0  0  0  0  0  0  0  0  0  0
    2.8902   -0.8644    0.5628 H   0  0  0  0  0  0  0  0  0  0  0  0
    1.6931   -1.1380    1.8148 H   0  0  0  0  0  0  0  0  0  0  0  0
    3.6425    1.4378   -0.0326 H   0  0  0  0  0  0  0  0  0  0  0  0
    1.1756    0.7044    3.4298 H   0  0  0  0  0  0  0  0  0  0  0  0
    4.2247    3.6665    0.8677 H   0  0  0  0  0  0  0  0  0  0  0  0
    1.7268    2.9291    4.2955 H   0  0  0  0  0  0  0  0  0  0  0  0
    3.2619    4.4277    3.0319 H   0  0  0  0  0  0  0  0  0  0  0  0
   -0.0912   -2.5337   -0.5661 N   0  0  0  0  0  0  0  0  0  0  0  0
   -0.9043   -3.2259   -1.5702 C   0  0  2  0  0  0  0  0  0  0  0  0
   -2.0094   -2.3068   -2.1438 C   0  0  0  0  0  0  0  0  0  0  0  0
   -2.5318   -1.4394   -1.4467 O   0  0  0  0  0  0  0  0  0  0  0  0
   -1.5262   -4.4545   -0.9043 C   0  0  0  0  0  0  0  0  0  0  0  0
   -0.5577   -2.3179    0.3156 H   0  0  0  0  0  0  0  0  0  0  0  0
   -0.2653   -3.5600   -2.3945 H   0  0  0  0  0  0  0  0  0  0  0  0
   -2.1765   -4.1539   -0.0761 H   0  0  0  0  0  0  0  0  0  0  0  0
   -2.1227   -5.0196   -1.6270 H   0  0  0  0  0  0  0  0  0  0  0  0
   -0.7428   -5.1105   -0.5121 H   0  0  0  0  0  0  0  0  0  0  0  0
   -2.4249   -2.4582   -3.4535 N   0  0  0  0  0  0  0  0  0  0  0  0
   -3.3821   -1.5645   -4.0935 C   0  0  0  0  0  0  0  0  0  0  0  0
   -1.8904   -3.0964   -4.0360 H   0  0  0  0  0  0  0  0  0  0  0  0
   -4.3286   -1.5575   -3.5428 H   0  0  0  0  0  0  0  0  0  0  0  0
   -2.9876   -0.5436   -4.1298 H   0  0  0  0  0  0  0  0  0  0  0  0
   -3.5821   -1.8957   -5.1171 H   0  0  0  0  0  0  0  0  0  0  0  0
  1  2  2  0  0  0  0
  1  3  1  0  0  0  0
  1  7  1  0  0  0  0
  3  4  1  0  0  0  0
  3  5  1  0  0  0  0
  3  6  1  0  0  0  0
  7  8  1  0  0  0  0
  7 12  1  0  0  0  0
  8  9  1  0  0  0  0
  8 11  1  0  0  0  0
  8 13  1  0  0  0  0
  9 10  2  0  0  0  0
  9 17  1  0  0  0  0
 11 14  1  0  0  0  0
 11 15  1  0  0  0  0
 11 16  1  0  0  0  0
 17 18  1  0  0  0  0
 17 28  1  0  0  0  0
 18 19  1  0  0  0  0
 18 21  1  0  0  0  0
 18 29  1  0  0  0  0
 19 20  2  0  0  0  0
 19 37  1  0  0  0  0
 21 22  1  0  0  0  0
 21 30  1  0  0  0  0
 21 31  1  0  0  0  0
 22 23  1  0  0  0  0
 22 24  2  0  0  0  0
 23 25  2  0  0  0  0
 23 32  1  0  0  0  0
 24 26  1  0  0  0  0
 24 33  1  0  0  0  0
 25 27  1  0  0  0  0
 25 34  1  0  0  0  0
 26 27  2  0  0  0  0
 26 35  1  0  0  0  0
 27 36  1  0  0  0  0
 37 38  1  0  0  0  0
 37 42  1  0  0  0  0
 38 39  1  0  0  0  0
 38 41  1  0  0  0  0
 38 43  1  0  0  0  0
 39 40  2  0  0  0  0
 39 47  1  0  0  0  0
 41 44  1  0  0  0  0
 41 45  1  0  0  0  0
 41 46  1  0  0  0  0
 47 48  1  0  0  0  0
 47 49  1  0  0  0  0
 48 50  1  0  0  0  0
 48 51  1  0  0  0  0
 48 52  1  0  0  0  0
M  END
$$$$

  -OEChem-05262217163D

 52 52  0     1  0  0  0  0  0999 V2000
   -1.7822    1.7545    4.7038 C   0  0  0  0  0  0  0  0  0  0  0  0
   -0.7851    2.4189    4.4800 O   0  0  0  0  0  0  0  0  0  0  0  0
   -2.1034    1.3601    6.1332 C   0  0  0  0  0  0  0  0  0  0  0  0
   -2.0781    0.2723    6.2344 H   0  0  0  0  0  0  0  0  0  0  0  0
   -1.3696    1.7938    6.8186 H   0  0  0  0  0  0  0  0  0  0  0  0
   -3.0971    1.7228    6.4070 H   0  0  0  0  0  0  0  0  0  0  0  0
   -2.6346    1.3533    3.6913 N   0  0  0  0  0  0  0  0  0  0  0  0
   -2.3504    1.4291    2.2433 C   0  0  2  0  0  0  0  0  0  0  0  0
   -1.2917    0.4058    1.7624 C   0  0  0  0  0  0  0  0  0  0  0  0
   -1.0239   -0.5701    2.4521 O   0  0  0  0  0  0  0  0  0  0  0  0
   -2.0030    2.8584    1.7927 C   0  0  0  0  0  0  0  0  0  0  0  0
   -3.3332    0.6754    3.9813 H   0  0  0  0  0  0  0  0  0  0  0  0
   -3.2810    1.1619    1.7340 H   0  0  0  0  0  0  0  0  0  0  0  0
   -0.9727    3.1160    2.0581 H   0  0  0  0  0  0  0  0  0  0  0  0
   -2.1068    2.9542    0.7082 H   0  0  0  0  0  0  0  0  0  0  0  0
   -2.6757    3.5802    2.2662 H   0  0  0  0  0  0  0  0  0  0  0  0
   -0.9523    0.3435    0.4220 N   0  0  0  0  0  0  0  0  0  0  0  0
    0.3108   -0.1879   -0.1511 C   0  0  2  0  0  0  0  0  0  0  0  0
    0.0339   -1.3717   -1.0903 C   0  0  0  0  0  0  0  0  0  0  0  0
    0.7139   -1.5443   -2.0946 O   0  0  0  0  0  0  0  0  0  0  0  0
    1.5077   -0.4687    0.7876 C   0  0  0  0  0  0  0  0  0  0  0  0
    2.0637    0.8134    1.3676 C   0  0  0  0  0  0  0  0  0  0  0  0
    2.9421    1.5960    0.6003 C   0  0  0  0  0  0  0  0  0  0  0  0
    1.7494    1.2318    2.6687 C   0  0  0  0  0  0  0  0  0  0  0  0
    3.4684    2.7877    1.1106 C   0  0  0  0  0  0  0  0  0  0  0  0
    2.2671    2.4268    3.1771 C   0  0  0  0  0  0  0  0  0  0  0  0
    3.1255    3.2076    2.3987 C   0  0  0  0  0  0  0  0  0  0  0  0
   -1.3686    1.0951   -0.1209 H   0  0  0  0  0  0  0  0  0  0  0  0
    0.6708    0.5995   -0.8209 H   0  0  0  0  0  0  0  0  0  0  0  0
    2.3020   -0.9618    0.2170 H   0  0  0  0  0  0  0  0  0  0  0  0
    1.2254   -1.1625    1.5841 H   0  0  0  0  0  0  0  0  0  0  0  0
    3.2188    1.2795   -0.4012 H   0  0  0  0  0  0  0  0  0  0  0  0
    1.0961    0.6366    3.2997 H   0  0  0  0  0  0  0  0  0  0  0  0
    4.1433    3.3866    0.5065 H   0  0  0  0  0  0  0  0  0  0  0  0
    1.9918    2.7449    4.1790 H   0  0  0  0  0  0  0  0  0  0  0  0
    3.5260    4.1351    2.7972 H   0  0  0  0  0  0  0  0  0  0  0  0
   -1.0562   -2.1875   -0.8594 N   0  0  0  0  0  0  0  0  0  0  0  0
   -1.4481   -3.3238   -1.7048 C   0  0  2  0  0  0  0  0  0  0  0  0
   -2.1739   -2.8718   -2.9948 C   0  0  0  0  0  0  0  0  0  0  0  0
   -3.3435   -3.1627   -3.2166 O   0  0  0  0  0  0  0  0  0  0  0  0
   -2.2962   -4.2661   -0.8421 C   0  0  0  0  0  0  0  0  0  0  0  0
   -1.5775   -2.0042   -0.0036 H   0  0  0  0  0  0  0  0  0  0  0  0
   -0.5520   -3.8711   -2.0157 H   0  0  0  0  0  0  0  0  0  0  0  0
   -3.2095   -3.7650   -0.5054 H   0  0  0  0  0  0  0  0  0  0  0  0
   -2.5805   -5.1530   -1.4172 H   0  0  0  0  0  0  0  0  0  0  0  0
   -1.7310   -4.5918    0.0364 H   0  0  0  0  0  0  0  0  0  0  0  0
   -1.4869   -2.1063   -3.9159 N   0  0  0  0  0  0  0  0  0  0  0  0
   -2.0739   -1.5826   -5.1411 C   0  0  0  0  0  0  0  0  0  0  0  0
   -0.5368   -1.8312   -3.6526 H   0  0  0  0  0  0  0  0  0  0  0  0
   -2.4321   -2.4008   -5.7744 H   0  0  0  0  0  0  0  0  0  0  0  0
   -2.9151   -0.9212   -4.9099 H   0  0  0  0  0  0  0  0  0  0  0  0
   -1.3272   -1.0128   -5.7025 H   0  0  0  0  0  0  0  0  0  0  0  0
  1  2  2  0  0  0  0
  1  3  1  0  0  0  0
  1  7  1  0  0  0  0
  3  4  1  0  0  0  0
  3  5  1  0  0  0  0
  3  6  1  0  0  0  0
  7  8  1  0  0  0  0
  7 12  1  0  0  0  0
  8  9  1  0  0  0  0
  8 11  1  0  0  0  0
  8 13  1  0  0  0  0
  9 10  2  0  0  0  0
  9 17  1  0  0  0  0
 11 14  1  0  0  0  0
 11 15  1  0  0  0  0
 11 16  1  0  0  0  0
 17 18  1  0  0  0  0
 17 28  1  0  0  0  0
 18 19  1  0  0  0  0
 18 21  1  0  0  0  0
 18 29  1  0  0  0  0
 19 20  2  0  0  0  0
 19 37  1  0  0  0  0
 21 22  1  0  0  0  0
 21 30  1  0  0  0  0
 21 31  1  0  0  0  0
 22 23  1  0  0  0  0
 22 24  2  0  0  0  0
 23 25  2  0  0  0  0
 23 32  1  0  0  0  0
 24 26  1  0  0  0  0
 24 33  1  0  0  0  0
 25 27  1  0  0  0  0
 25 34  1  0  0  0  0
 26 27  2  0  0  0  0
 26 35  1  0  0  0  0
 27 36  1  0  0  0  0
 37 38  1  0  0  0  0
 37 42  1  0  0  0  0
 38 39  1  0  0  0  0
 38 41  1  0  0  0  0
 38 43  1  0  0  0  0
 39 40  2  0  0  0  0
 39 47  1  0  0  0  0
 41 44  1  0  0  0  0
 41 45  1  0  0  0  0
 41 46  1  0  0  0  0
 47 48  1  0  0  0  0
 47 49  1  0  0  0  0
 48 50  1  0  0  0  0
 48 51  1  0  0  0  0
 48 52  1  0  0  0  0
M  END
$$$$

  -OEChem-05262217163D

 52 52  0     1  0  0  0  0  0999 V2000
   -1.7137    1.8246    4.7230 C   0  0  0  0  0  0  0  0  0  0  0  0
   -0.7046    2.4605    4.4723 O   0  0  0  0  0  0  0  0  0  0  0  0
   -2.0056    1.4394    6.1612 C   0  0  0  0  0  0  0  0  0  0  0  0
   -2.0855    0.3527    6.2472 H   0  0  0  0  0  0  0  0  0  0  0  0
   -1.1998    1.7854    6.8152 H   0  0  0  0  0  0  0  0  0  0  0  0
   -2.9430    1.8957    6.4879 H   0  0  0  0  0  0  0  0  0  0  0  0
   -2.6028    1.4455    3.7337 N   0  0  0  0  0  0  0  0  0  0  0  0
   -2.3448    1.4958    2.2796 C   0  0  2  0  0  0  0  0  0  0  0  0
   -1.3316    0.4300    1.7927 C   0  0  0  0  0  0  0  0  0  0  0  0
   -1.0937   -0.5484    2.4889 O   0  0  0  0  0  0  0  0  0  0  0  0
   -1.9567    2.9069    1.8054 C   0  0  0  0  0  0  0  0  0  0  0  0
   -3.3091    0.7853    4.0449 H   0  0  0  0  0  0  0  0  0  0  0  0
   -3.2936    1.2558    1.7906 H   0  0  0  0  0  0  0  0  0  0  0  0
   -0.9131    3.1321    2.0479 H   0  0  0  0  0  0  0  0  0  0  0  0
   -2.0787    2.9943    0.7221 H   0  0  0  0  0  0  0  0  0  0  0  0
   -2.5947    3.6568    2.2831 H   0  0  0  0  0  0  0  0  0  0  0  0
   -1.0042    0.3536    0.4492 N   0  0  0  0  0  0  0  0  0  0  0  0
    0.2287   -0.2376   -0.1342 C   0  0  2  0  0  0  0  0  0  0  0  0
   -0.0946   -1.4089   -1.0785 C   0  0  0  0  0  0  0  0  0  0  0  0
    0.7069   -1.7519   -1.9394 O   0  0  0  0  0  0  0  0  0  0  0  0
    1.4222   -0.5546    0.7993 C   0  0  0  0  0  0  0  0  0  0  0  0
    2.0330    0.7133    1.3545 C   0  0  0  0  0  0  0  0  0  0  0  0
    2.9345    1.4480    0.5674 C   0  0  0  0  0  0  0  0  0  0  0  0
    1.7450    1.1659    2.6500 C   0  0  0  0  0  0  0  0  0  0  0  0
    3.5096    2.6280    1.0516 C   0  0  0  0  0  0  0  0  0  0  0  0
    2.3118    2.3494    3.1330 C   0  0  0  0  0  0  0  0  0  0  0  0
    3.1925    3.0834    2.3342 C   0  0  0  0  0  0  0  0  0  0  0  0
   -1.3795    1.1327   -0.0850 H   0  0  0  0  0  0  0  0  0  0  0  0
    0.6142    0.5321   -0.8104 H   0  0  0  0  0  0  0  0  0  0  0  0
    2.1933   -1.0860    0.2312 H   0  0  0  0  0  0  0  0  0  0  0  0
    1.1200   -1.2263    1.6074 H   0  0  0  0  0  0  0  0  0  0  0  0
    3.1903    1.1026   -0.4301 H   0  0  0  0  0  0  0  0  0  0  0  0
    1.0743    0.6070    3.2959 H   0  0  0  0  0  0  0  0  0  0  0  0
    4.2018    3.1902    0.4318 H   0  0  0  0  0  0  0  0  0  0  0  0
    2.0568    2.6954    4.1312 H   0  0  0  0  0  0  0  0  0  0  0  0
    3.6310    4.0016    2.7135 H   0  0  0  0  0  0  0  0  0  0  0  0
   -1.3477   -1.9906   -1.0590 N   0  0  0  0  0  0  0  0  0  0  0  0
   -1.7797   -3.0806   -1.9451 C   0  0  2  0  0  0  0  0  0  0  0  0
   -2.1518   -2.5721   -3.3589 C   0  0  0  0  0  0  0  0  0  0  0  0
   -3.2951   -2.6471   -3.7938 O   0  0  0  0  0  0  0  0  0  0  0  0
   -2.9370   -3.8067   -1.2479 C   0  0  0  0  0  0  0  0  0  0  0  0
   -1.9629   -1.6973   -0.3037 H   0  0  0  0  0  0  0  0  0  0  0  0
   -0.9606   -3.7977   -2.0656 H   0  0  0  0  0  0  0  0  0  0  0  0
   -3.7853   -3.1302   -1.1022 H   0  0  0  0  0  0  0  0  0  0  0  0
   -3.2715   -4.6548   -1.8539 H   0  0  0  0  0  0  0  0  0  0  0  0
   -2.6177   -4.1851   -0.2719 H   0  0  0  0  0  0  0  0  0  0  0  0
   -1.1715   -1.9953   -4.1417 N   0  0  0  0  0  0  0  0  0  0  0  0
   -1.4127   -1.4107   -5.4533 C   0  0  0  0  0  0  0  0  0  0  0  0
   -0.2548   -1.8822   -3.7006 H   0  0  0  0  0  0  0  0  0  0  0  0
   -1.8320   -2.1582   -6.1346 H   0  0  0  0  0  0  0  0  0  0  0  0
   -2.1124   -0.5723   -5.3753 H   0  0  0  0  0  0  0  0  0  0  0  0
   -0.4747   -1.0423   -5.8801 H   0  0  0  0  0  0  0  0  0  0  0  0
  1  2  2  0  0  0  0
  1  3  1  0  0  0  0
  1  7  1  0  0  0  0
  3  4  1  0  0  0  0
  3  5  1  0  0  0  0
  3  6  1  0  0  0  0
  7  8  1  0  0  0  0
  7 12  1  0  0  0  0
  8  9  1  0  0  0  0
  8 11  1  0  0  0  0
  8 13  1  0  0  0  0
  9 10  2  0  0  0  0
  9 17  1  0  0  0  0
 11 14  1  0  0  0  0
 11 15  1  0  0  0  0
 11 16  1  0  0  0  0
 17 18  1  0  0  0  0
 17 28  1  0  0  0  0
 18 19  1  0  0  0  0
 18 21  1  0  0  0  0
 18 29  1  0  0  0  0
 19 20  2  0  0  0  0
 19 37  1  0  0  0  0
 21 22  1  0  0  0  0
 21 30  1  0  0  0  0
 21 31  1  0  0  0  0
 22 23  1  0  0  0  0
 22 24  2  0  0  0  0
 23 25  2  0  0  0  0
 23 32  1  0  0  0  0
 24 26  1  0  0  0  0
 24 33  1  0  0  0  0
 25 27  1  0  0  0  0
 25 34  1  0  0  0  0
 26 27  2  0  0  0  0
 26 35  1  0  0  0  0
 27 36  1  0  0  0  0
 37 38  1  0  0  0  0
 37 42  1  0  0  0  0
 38 39  1  0  0  0  0
 38 41  1  0  0  0  0
 38 43  1  0  0  0  0
 39 40  2  0  0  0  0
 39 47  1  0  0  0  0
 41 44  1  0  0  0  0
 41 45  1  0  0  0  0
 41 46  1  0  0  0  0
 47 48  1  0  0  0  0
 47 49  1  0  0  0  0
 48 50  1  0  0  0  0
 48 51  1  0  0  0  0
 48 52  1  0  0  0  0
M  END
$$$$

  -OEChem-05262217163D

 52 52  0     1  0  0  0  0  0999 V2000
   -1.6625    1.9106    4.7162 C   0  0  0  0  0  0  0  0  0  0  0  0
   -0.6593    2.5411    4.4311 O   0  0  0  0  0  0  0  0  0  0  0  0
   -1.9283    1.5632    6.1689 C   0  0  0  0  0  0  0  0  0  0  0  0
   -1.9464    0.4777    6.2946 H   0  0  0  0  0  0  0  0  0  0  0  0
   -1.1419    1.9774    6.8063 H   0  0  0  0  0  0  0  0  0  0  0  0
   -2.8893    1.9773    6.4836 H   0  0  0  0  0  0  0  0  0  0  0  0
   -2.5694    1.5049    3.7539 N   0  0  0  0  0  0  0  0  0  0  0  0
   -2.3442    1.5206    2.2934 C   0  0  2  0  0  0  0  0  0  0  0  0
   -1.3664    0.4223    1.8057 C   0  0  0  0  0  0  0  0  0  0  0  0
   -1.1515   -0.5547    2.5108 O   0  0  0  0  0  0  0  0  0  0  0  0
   -1.9407    2.9134    1.7790 C   0  0  0  0  0  0  0  0  0  0  0  0
   -3.2666    0.8500    4.0954 H   0  0  0  0  0  0  0  0  0  0  0  0
   -3.3090    1.2901    1.8325 H   0  0  0  0  0  0  0  0  0  0  0  0
   -0.8852    3.1193    1.9851 H   0  0  0  0  0  0  0  0  0  0  0  0
   -2.0943    2.9827    0.6984 H   0  0  0  0  0  0  0  0  0  0  0  0
   -2.5469    3.6866    2.2611 H   0  0  0  0  0  0  0  0  0  0  0  0
   -1.0413    0.3406    0.4610 N   0  0  0  0  0  0  0  0  0  0  0  0
    0.1662   -0.2966   -0.1296 C   0  0  2  0  0  0  0  0  0  0  0  0
   -0.2007   -1.4493   -1.0849 C   0  0  0  0  0  0  0  0  0  0  0  0
    0.6515   -1.9631   -1.8000 O   0  0  0  0  0  0  0  0  0  0  0  0
    1.3501   -0.6542    0.8048 C   0  0  0  0  0  0  0  0  0  0  0  0
    2.0060    0.5931    1.3558 C   0  0  0  0  0  0  0  0  0  0  0  0
    2.9321    1.2949    0.5671 C   0  0  0  0  0  0  0  0  0  0  0  0
    1.7390    1.0542    2.6526 C   0  0  0  0  0  0  0  0  0  0  0  0
    3.5488    2.4543    1.0501 C   0  0  0  0  0  0  0  0  0  0  0  0
    2.3492    2.2157    3.1353 C   0  0  0  0  0  0  0  0  0  0  0  0
    3.2517    2.9194    2.3340 C   0  0  0  0  0  0  0  0  0  0  0  0
   -1.3767    1.1449   -0.0622 H   0  0  0  0  0  0  0  0  0  0  0  0
    0.5781    0.4602   -0.8039 H   0  0  0  0  0  0  0  0  0  0  0  0
    2.1044   -1.2136    0.2413 H   0  0  0  0  0  0  0  0  0  0  0  0
    1.0242   -1.3124    1.6145 H   0  0  0  0  0  0  0  0  0  0  0  0
    3.1734    0.9410   -0.4308 H   0  0  0  0  0  0  0  0  0  0  0  0
    1.0517    0.5181    3.2999 H   0  0  0  0  0  0  0  0  0  0  0  0
    4.2580    2.9928    0.4287 H   0  0  0  0  0  0  0  0  0  0  0  0
    2.1109    2.5694    4.1348 H   0  0  0  0  0  0  0  0  0  0  0  0
    3.7221    3.8220    2.7125 H   0  0  0  0  0  0  0  0  0  0  0  0
   -1.5256   -1.7789   -1.3002 N   0  0  0  0  0  0  0  0  0  0  0  0
   -1.9923   -2.7935   -2.2564 C   0  0  2  0  0  0  0  0  0  0  0  0
   -2.0204   -2.2554   -3.7071 C   0  0  0  0  0  0  0  0  0  0  0  0
   -3.0675   -2.1365   -4.3325 O   0  0  0  0  0  0  0  0  0  0  0  0
   -3.3636   -3.2837   -1.7756 C   0  0  0  0  0  0  0  0  0  0  0  0
   -2.1997   -1.3507   -0.6715 H   0  0  0  0  0  0  0  0  0  0  0  0
   -1.3094   -3.6498   -2.2431 H   0  0  0  0  0  0  0  0  0  0  0  0
   -4.0881   -2.4628   -1.7730 H   0  0  0  0  0  0  0  0  0  0  0  0
   -3.7365   -4.0715   -2.4381 H   0  0  0  0  0  0  0  0  0  0  0  0
   -3.2905   -3.6907   -0.7623 H   0  0  0  0  0  0  0  0  0  0  0  0
   -0.8347   -1.8744   -4.3030 N   0  0  0  0  0  0  0  0  0  0  0  0
   -0.7405   -1.2996   -5.6377 C   0  0  0  0  0  0  0  0  0  0  0  0
    0.0014   -1.9262   -3.7148 H   0  0  0  0  0  0  0  0  0  0  0  0
   -1.1263   -2.0012   -6.3846 H   0  0  0  0  0  0  0  0  0  0  0  0
   -1.3162   -0.3701   -5.6958 H   0  0  0  0  0  0  0  0  0  0  0  0
    0.3033   -1.0768   -5.8790 H   0  0  0  0  0  0  0  0  0  0  0  0
  1  2  2  0  0  0  0
  1  3  1  0  0  0  0
  1  7  1  0  0  0  0
  3  4  1  0  0  0  0
  3  5  1  0  0  0  0
  3  6  1  0  0  0  0
  7  8  1  0  0  0  0
  7 12  1  0  0  0  0
  8  9  1  0  0  0  0
  8 11  1  0  0  0  0
  8 13  1  0  0  0  0
  9 10  2  0  0  0  0
  9 17  1  0  0  0  0
 11 14  1  0  0  0  0
 11 15  1  0  0  0  0
 11 16  1  0  0  0  0
 17 18  1  0  0  0  0
 17 28  1  0  0  0  0
 18 19  1  0  0  0  0
 18 21  1  0  0  0  0
 18 29  1  0  0  0  0
 19 20  2  0  0  0  0
 19 37  1  0  0  0  0
 21 22  1  0  0  0  0
 21 30  1  0  0  0  0
 21 31  1  0  0  0  0
 22 23  1  0  0  0  0
 22 24  2  0  0  0  0
 23 25  2  0  0  0  0
 23 32  1  0  0  0  0
 24 26  1  0  0  0  0
 24 33  1  0  0  0  0
 25 27  1  0  0  0  0
 25 34  1  0  0  0  0
 26 27  2  0  0  0  0
 26 35  1  0  0  0  0
 27 36  1  0  0  0  0
 37 38  1  0  0  0  0
 37 42  1  0  0  0  0
 38 39  1  0  0  0  0
 38 41  1  0  0  0  0
 38 43  1  0  0  0  0
 39 40  2  0  0  0  0
 39 47  1  0  0  0  0
 41 44  1  0  0  0  0
 41 45  1  0  0  0  0
 41 46  1  0  0  0  0
 47 48  1  0  0  0  0
 47 49  1  0  0  0  0
 48 50  1  0  0  0  0
 48 51  1  0  0  0  0
 48 52  1  0  0  0  0
M  END
$$$$

  -OEChem-05262217163D

 52 52  0     1  0  0  0  0  0999 V2000
   -1.6542    1.8380    4.7545 C   0  0  0  0  0  0  0  0  0  0  0  0
   -0.6116    2.4277    4.5286 O   0  0  0  0  0  0  0  0  0  0  0  0
   -1.9569    1.3875    6.1712 C   0  0  0  0  0  0  0  0  0  0  0  0
   -1.9663    0.2956    6.2187 H   0  0  0  0  0  0  0  0  0  0  0  0
   -1.1928    1.7627    6.8579 H   0  0  0  0  0  0  0  0  0  0  0  0
   -2.9309    1.7691    6.4868 H   0  0  0  0  0  0  0  0  0  0  0  0
   -2.5680    1.5569    3.7548 N   0  0  0  0  0  0  0  0  0  0  0  0
   -2.3036    1.6297    2.3026 C   0  0  2  0  0  0  0  0  0  0  0  0
   -1.3919    0.4892    1.7852 C   0  0  0  0  0  0  0  0  0  0  0  0
   -1.2329   -0.5151    2.4662 O   0  0  0  0  0  0  0  0  0  0  0  0
   -1.7898    3.0131    1.8662 C   0  0  0  0  0  0  0  0  0  0  0  0
   -3.3064    0.9220    4.0437 H   0  0  0  0  0  0  0  0  0  0  0  0
   -3.2697    1.4900    1.8090 H   0  0  0  0  0  0  0  0  0  0  0  0
   -0.7292    3.1350    2.1091 H   0  0  0  0  0  0  0  0  0  0  0  0
   -1.9066    3.1433    0.7865 H   0  0  0  0  0  0  0  0  0  0  0  0
   -2.3551    3.8037    2.3694 H   0  0  0  0  0  0  0  0  0  0  0  0
   -1.0674    0.4271    0.4389 N   0  0  0  0  0  0  0  0  0  0  0  0
    0.1058   -0.2634   -0.1621 C   0  0  2  0  0  0  0  0  0  0  0  0
   -0.3266   -1.3686   -1.1497 C   0  0  0  0  0  0  0  0  0  0  0  0
    0.4987   -2.0977   -1.6873 O   0  0  0  0  0  0  0  0  0  0  0  0
    1.2675   -0.6926    0.7732 C   0  0  0  0  0  0  0  0  0  0  0  0
    1.9830    0.5138    1.3415 C   0  0  0  0  0  0  0  0  0  0  0  0
    2.9469    1.1771    0.5648 C   0  0  0  0  0  0  0  0  0  0  0  0
    1.7294    0.9767    2.6406 C   0  0  0  0  0  0  0  0  0  0  0  0
    3.6194    2.2979    1.0642 C   0  0  0  0  0  0  0  0  0  0  0  0
    2.3918    2.1033    3.1374 C   0  0  0  0  0  0  0  0  0  0  0  0
    3.3363    2.7665    2.3499 C   0  0  0  0  0  0  0  0  0  0  0  0
   -1.3402    1.2731   -0.0538 H   0  0  0  0  0  0  0  0  0  0  0  0
    0.5603    0.4832   -0.8200 H   0  0  0  0  0  0  0  0  0  0  0  0
    1.9985   -1.2796    0.2073 H   0  0  0  0  0  0  0  0  0  0  0  0
    0.9075   -1.3453    1.5731 H   0  0  0  0  0  0  0  0  0  0  0  0
    3.1774    0.8204   -0.4347 H   0  0  0  0  0  0  0  0  0  0  0  0
    1.0127    0.4693    3.2795 H   0  0  0  0  0  0  0  0  0  0  0  0
    4.3618    2.8038    0.4543 H   0  0  0  0  0  0  0  0  0  0  0  0
    2.1623    2.4607    4.1376 H   0  0  0  0  0  0  0  0  0  0  0  0
    3.8503    3.6399    2.7403 H   0  0  0  0  0  0  0  0  0  0  0  0
   -1.6291   -1.4109   -1.6125 N   0  0  0  0  0  0  0  0  0  0  0  0
   -2.1390   -2.3959   -2.5780 C   0  0  2  0  0  0  0  0  0  0  0  0
   -1.8010   -2.0155   -4.0397 C   0  0  0  0  0  0  0  0  0  0  0  0
   -2.6755   -1.7674   -4.8614 O   0  0  0  0  0  0  0  0  0  0  0  0
   -3.6460   -2.5411   -2.3314 C   0  0  0  0  0  0  0  0  0  0  0  0
   -2.2975   -0.8340   -1.1112 H   0  0  0  0  0  0  0  0  0  0  0  0
   -1.6757   -3.3697   -2.3856 H   0  0  0  0  0  0  0  0  0  0  0  0
   -4.1596   -1.5907   -2.5089 H   0  0  0  0  0  0  0  0  0  0  0  0
   -4.0691   -3.2934   -3.0051 H   0  0  0  0  0  0  0  0  0  0  0  0
   -3.8354   -2.8567   -1.3008 H   0  0  0  0  0  0  0  0  0  0  0  0
   -0.4771   -1.9472   -4.4253 N   0  0  0  0  0  0  0  0  0  0  0  0
   -0.0327   -1.5895   -5.7651 C   0  0  0  0  0  0  0  0  0  0  0  0
    0.2153   -2.1100   -3.6892 H   0  0  0  0  0  0  0  0  0  0  0  0
   -0.4275   -2.2982   -6.5005 H   0  0  0  0  0  0  0  0  0  0  0  0
   -0.3738   -0.5825   -6.0264 H   0  0  0  0  0  0  0  0  0  0  0  0
    1.0601   -1.6100   -5.8174 H   0  0  0  0  0  0  0  0  0  0  0  0
  1  2  2  0  0  0  0
  1  3  1  0  0  0  0
  1  7  1  0  0  0  0
  3  4  1  0  0  0  0
  3  5  1  0  0  0  0
  3  6  1  0  0  0  0
  7  8  1  0  0  0  0
  7 12  1  0  0  0  0
  8  9  1  0  0  0  0
  8 11  1  0  0  0  0
  8 13  1  0  0  0  0
  9 10  2  0  0  0  0
  9 17  1  0  0  0  0
 11 14  1  0  0  0  0
 11 15  1  0  0  0  0
 11 16  1  0  0  0  0
 17 18  1  0  0  0  0
 17 28  1  0  0  0  0
 18 19  1  0  0  0  0
 18 21  1  0  0  0  0
 18 29  1  0  0  0  0
 19 20  2  0  0  0  0
 19 37  1  0  0  0  0
 21 22  1  0  0  0  0
 21 30  1  0  0  0  0
 21 31  1  0  0  0  0
 22 23  1  0  0  0  0
 22 24  2  0  0  0  0
 23 25  2  0  0  0  0
 23 32  1  0  0  0  0
 24 26  1  0  0  0  0
 24 33  1  0  0  0  0
 25 27  1  0  0  0  0
 25 34  1  0  0  0  0
 26 27  2  0  0  0  0
 26 35  1  0  0  0  0
 27 36  1  0  0  0  0
 37 38  1  0  0  0  0
 37 42  1  0  0  0  0
 38 39  1  0  0  0  0
 38 41  1  0  0  0  0
 38 43  1  0  0  0  0
 39 40  2  0  0  0  0
 39 47  1  0  0  0  0
 41 44  1  0  0  0  0
 41 45  1  0  0  0  0
 41 46  1  0  0  0  0
 47 48  1  0  0  0  0
 47 49  1  0  0  0  0
 48 50  1  0  0  0  0
 48 51  1  0  0  0  0
 48 52  1  0  0  0  0
M  END
$$$$

  -OEChem-05262217163D

 52 52  0     1  0  0  0  0  0999 V2000
   -1.6541    1.7309    4.7838 C   0  0  0  0  0  0  0  0  0  0  0  0
   -0.5958    2.3077    4.6019 O   0  0  0  0  0  0  0  0  0  0  0  0
   -1.9838    1.2122    6.1708 C   0  0  0  0  0  0  0  0  0  0  0  0
   -2.0017    0.1194    6.1634 H   0  0  0  0  0  0  0  0  0  0  0  0
   -1.2291    1.5467    6.8883 H   0  0  0  0  0  0  0  0  0  0  0  0
   -2.9604    1.5850    6.4890 H   0  0  0  0  0  0  0  0  0  0  0  0
   -2.5646    1.5299    3.7620 N   0  0  0  0  0  0  0  0  0  0  0  0
   -2.2833    1.6690    2.3176 C   0  0  2  0  0  0  0  0  0  0  0  0
   -1.4146    0.5198    1.7473 C   0  0  0  0  0  0  0  0  0  0  0  0
   -1.2859   -0.5146    2.3882 O   0  0  0  0  0  0  0  0  0  0  0  0
   -1.7080    3.0503    1.9586 C   0  0  0  0  0  0  0  0  0  0  0  0
   -3.3200    0.8976    4.0098 H   0  0  0  0  0  0  0  0  0  0  0  0
   -3.2498    1.5959    1.8103 H   0  0  0  0  0  0  0  0  0  0  0  0
   -0.6433    3.1102    2.2066 H   0  0  0  0  0  0  0  0  0  0  0  0
   -1.8178    3.2457    0.8882 H   0  0  0  0  0  0  0  0  0  0  0  0
   -2.2379    3.8359    2.5060 H   0  0  0  0  0  0  0  0  0  0  0  0
   -1.0870    0.5071    0.3998 N   0  0  0  0  0  0  0  0  0  0  0  0
    0.0711   -0.1924   -0.2195 C   0  0  2  0  0  0  0  0  0  0  0  0
   -0.3949   -1.2434   -1.2529 C   0  0  0  0  0  0  0  0  0  0  0  0
    0.3231   -2.1759   -1.5945 O   0  0  0  0  0  0  0  0  0  0  0  0
    1.2185   -0.6806    0.7060 C   0  0  0  0  0  0  0  0  0  0  0  0
    1.9590    0.4903    1.3151 C   0  0  0  0  0  0  0  0  0  0  0  0
    2.9419    1.1585    0.5668 C   0  0  0  0  0  0  0  0  0  0  0  0
    1.7082    0.9131    2.6281 C   0  0  0  0  0  0  0  0  0  0  0  0
    3.6320    2.2495    1.1067 C   0  0  0  0  0  0  0  0  0  0  0  0
    2.3899    2.0080    3.1669 C   0  0  0  0  0  0  0  0  0  0  0  0
    3.3506    2.6795    2.4065 C   0  0  0  0  0  0  0  0  0  0  0  0
   -1.3221    1.3875   -0.0490 H   0  0  0  0  0  0  0  0  0  0  0  0
    0.5506    0.5641   -0.8478 H   0  0  0  0  0  0  0  0  0  0  0  0
    1.9392   -1.2638    0.1240 H   0  0  0  0  0  0  0  0  0  0  0  0
    0.8416   -1.3529    1.4810 H   0  0  0  0  0  0  0  0  0  0  0  0
    3.1725    0.8308   -0.4424 H   0  0  0  0  0  0  0  0  0  0  0  0
    0.9782    0.3981    3.2455 H   0  0  0  0  0  0  0  0  0  0  0  0
    4.3871    2.7615    0.5177 H   0  0  0  0  0  0  0  0  0  0  0  0
    2.1634    2.3322    4.1791 H   0  0  0  0  0  0  0  0  0  0  0  0
    3.8798    3.5278    2.8300 H   0  0  0  0  0  0  0  0  0  0  0  0
   -1.5740   -1.0476   -1.9497 N   0  0  0  0  0  0  0  0  0  0  0  0
   -2.1266   -1.9975   -2.9277 C   0  0  2  0  0  0  0  0  0  0  0  0
   -1.4642   -1.8710   -4.3213 C   0  0  0  0  0  0  0  0  0  0  0  0
   -2.1024   -1.5299   -5.3102 O   0  0  0  0  0  0  0  0  0  0  0  0
   -3.6442   -1.7785   -2.9680 C   0  0  0  0  0  0  0  0  0  0  0  0
   -2.1766   -0.3057   -1.6102 H   0  0  0  0  0  0  0  0  0  0  0  0
   -1.9489   -3.0213   -2.5815 H   0  0  0  0  0  0  0  0  0  0  0  0
   -3.8790   -0.7652   -3.3096 H   0  0  0  0  0  0  0  0  0  0  0  0
   -4.1115   -2.4913   -3.6551 H   0  0  0  0  0  0  0  0  0  0  0  0
   -4.0776   -1.9246   -1.9740 H   0  0  0  0  0  0  0  0  0  0  0  0
   -0.1203   -2.1570   -4.4543 N   0  0  0  0  0  0  0  0  0  0  0  0
    0.6114   -2.0844   -5.7113 C   0  0  0  0  0  0  0  0  0  0  0  0
    0.3799   -2.3814   -3.5897 H   0  0  0  0  0  0  0  0  0  0  0  0
    0.1662   -2.7572   -6.4517 H   0  0  0  0  0  0  0  0  0  0  0  0
    0.5948   -1.0631   -6.1059 H   0  0  0  0  0  0  0  0  0  0  0  0
    1.6536   -2.3812   -5.5586 H   0  0  0  0  0  0  0  0  0  0  0  0
  1  2  2  0  0  0  0
  1  3  1  0  0  0  0
  1  7  1  0  0  0  0
  3  4  1  0  0  0  0
  3  5  1  0  0  0  0
  3  6  1  0  0  0  0
  7  8  1  0  0  0  0
  7 12  1  0  0  0  0
  8  9  1  0  0  0  0
  8 11  1  0  0  0  0
  8 13  1  0  0  0  0
  9 10  2  0  0  0  0
  9 17  1  0  0  0  0
 11 14  1  0  0  0  0
 11 15  1  0  0  0  0
 11 16  1  0  0  0  0
 17 18  1  0  0  0  0
 17 28  1  0  0  0  0
 18 19  1  0  0  0  0
 18 21  1  0  0  0  0
 18 29  1  0  0  0  0
 19 20  2  0  0  0  0
 19 37  1  0  0  0  0
 21 22  1  0  0  0  0
 21 30  1  0  0  0  0
 21 31  1  0  0  0  0
 22 23  1  0  0  0  0
 22 24  2  0  0  0  0
 23 25  2  0  0  0  0
 23 32  1  0  0  0  0
 24 26  1  0  0  0  0
 24 33  1  0  0  0  0
 25 27  1  0  0  0  0
 25 34  1  0  0  0  0
 26 27  2  0  0  0  0
 26 35  1  0  0  0  0
 27 36  1  0  0  0  0
 37 38  1  0  0  0  0
 37 42  1  0  0  0  0
 38 39  1  0  0  0  0
 38 41  1  0  0  0  0
 38 43  1  0  0  0  0
 39 40  2  0  0  0  0
 39 47  1  0  0  0  0
 41 44  1  0  0  0  0
 41 45  1  0  0  0  0
 41 46  1  0  0  0  0
 47 48  1  0  0  0  0
 47 49  1  0  0  0  0
 48 50  1  0  0  0  0
 48 51  1  0  0  0  0
 48 52  1  0  0  0  0
M  END
$$$$

  -OEChem-05262217163D

 52 52  0     1  0  0  0  0  0999 V2000
   -1.6635    1.7059    4.7614 C   0  0  0  0  0  0  0  0  0  0  0  0
   -0.6060    2.2813    4.5692 O   0  0  0  0  0  0  0  0  0  0  0  0
   -1.9772    1.1776    6.1486 C   0  0  0  0  0  0  0  0  0  0  0  0
   -2.1155    0.0941    6.1108 H   0  0  0  0  0  0  0  0  0  0  0  0
   -1.1550    1.4023    6.8339 H   0  0  0  0  0  0  0  0  0  0  0  0
   -2.8893    1.6429    6.5299 H   0  0  0  0  0  0  0  0  0  0  0  0
   -2.5859    1.5108    3.7495 N   0  0  0  0  0  0  0  0  0  0  0  0
   -2.3170    1.6560    2.3036 C   0  0  2  0  0  0  0  0  0  0  0  0
   -1.4410    0.5160    1.7257 C   0  0  0  0  0  0  0  0  0  0  0  0
   -1.3159   -0.5244    2.3577 O   0  0  0  0  0  0  0  0  0  0  0  0
   -1.7606    3.0451    1.9443 C   0  0  0  0  0  0  0  0  0  0  0  0
   -3.3330    0.8697    4.0001 H   0  0  0  0  0  0  0  0  0  0  0  0
   -3.2862    1.5732    1.8031 H   0  0  0  0  0  0  0  0  0  0  0  0
   -0.6965    3.1194    2.1902 H   0  0  0  0  0  0  0  0  0  0  0  0
   -1.8755    3.2390    0.8742 H   0  0  0  0  0  0  0  0  0  0  0  0
   -2.2997    3.8238    2.4927 H   0  0  0  0  0  0  0  0  0  0  0  0
   -1.1005    0.5254    0.3812 N   0  0  0  0  0  0  0  0  0  0  0  0
    0.0426   -0.1866   -0.2487 C   0  0  2  0  0  0  0  0  0  0  0  0
   -0.4503   -1.1965   -1.3095 C   0  0  0  0  0  0  0  0  0  0  0  0
    0.0981   -2.2789   -1.4807 O   0  0  0  0  0  0  0  0  0  0  0  0
    1.1770   -0.7220    0.6661 C   0  0  0  0  0  0  0  0  0  0  0  0
    1.9439    0.4178    1.3019 C   0  0  0  0  0  0  0  0  0  0  0  0
    2.9431    1.0792    0.5693 C   0  0  0  0  0  0  0  0  0  0  0  0
    1.6975    0.8219    2.6216 C   0  0  0  0  0  0  0  0  0  0  0  0
    3.6551    2.1444    1.1320 C   0  0  0  0  0  0  0  0  0  0  0  0
    2.4004    1.8919    3.1830 C   0  0  0  0  0  0  0  0  0  0  0  0
    3.3781    2.5565    2.4384 C   0  0  0  0  0  0  0  0  0  0  0  0
   -1.3277    1.4135   -0.0549 H   0  0  0  0  0  0  0  0  0  0  0  0
    0.5439    0.5730   -0.8551 H   0  0  0  0  0  0  0  0  0  0  0  0
    1.8832   -1.3072    0.0683 H   0  0  0  0  0  0  0  0  0  0  0  0
    0.7836   -1.4034    1.4251 H   0  0  0  0  0  0  0  0  0  0  0  0
    3.1701    0.7662   -0.4454 H   0  0  0  0  0  0  0  0  0  0  0  0
    0.9537    0.3118    3.2260 H   0  0  0  0  0  0  0  0  0  0  0  0
    4.4233    2.6509    0.5554 H   0  0  0  0  0  0  0  0  0  0  0  0
    2.1761    2.2028    4.2000 H   0  0  0  0  0  0  0  0  0  0  0  0
    3.9227    3.3864    2.8786 H   0  0  0  0  0  0  0  0  0  0  0  0
   -1.4279   -0.8202   -2.2145 N   0  0  0  0  0  0  0  0  0  0  0  0
   -1.9714   -1.6980   -3.2629 C   0  0  2  0  0  0  0  0  0  0  0  0
   -1.0535   -1.7761   -4.5071 C   0  0  0  0  0  0  0  0  0  0  0  0
   -1.4193   -1.3716   -5.6045 O   0  0  0  0  0  0  0  0  0  0  0  0
   -3.3811   -1.1919   -3.5940 C   0  0  0  0  0  0  0  0  0  0  0  0
   -1.8783    0.0746   -2.0585 H   0  0  0  0  0  0  0  0  0  0  0  0
   -2.0680   -2.7169   -2.8719 H   0  0  0  0  0  0  0  0  0  0  0  0
   -3.3406   -0.1756   -3.9990 H   0  0  0  0  0  0  0  0  0  0  0  0
   -3.8512   -1.8419   -4.3391 H   0  0  0  0  0  0  0  0  0  0  0  0
   -4.0070   -1.1888   -2.6964 H   0  0  0  0  0  0  0  0  0  0  0  0
    0.2145   -2.3052   -4.3739 N   0  0  0  0  0  0  0  0  0  0  0  0
    1.1803   -2.3980   -5.4599 C   0  0  0  0  0  0  0  0  0  0  0  0
    0.4924   -2.5744   -3.4259 H   0  0  0  0  0  0  0  0  0  0  0  0
    0.7846   -3.0165   -6.2721 H   0  0  0  0  0  0  0  0  0  0  0  0
    1.4104   -1.4027   -5.8537 H   0  0  0  0  0  0  0  0  0  0  0  0
    2.1088   -2.8522   -5.1007 H   0  0  0  0  0  0  0  0  0  0  0  0
  1  2  2  0  0  0  0
  1  3  1  0  0  0  0
  1  7  1  0  0  0  0
  3  4  1  0  0  0  0
  3  5  1  0  0  0  0
  3  6  1  0  0  0  0
  7  8  1  0  0  0  0
  7 12  1  0  0  0  0
  8  9  1  0  0  0  0
  8 11  1  0  0  0  0
  8 13  1  0  0  0  0
  9 10  2  0  0  0  0
  9 17  1  0  0  0  0
 11 14  1  0  0  0  0
 11 15  1  0  0  0  0
 11 16  1  0  0  0  0
 17 18  1  0  0  0  0
 17 28  1  0  0  0  0
 18 19  1  0  0  0  0
 18 21  1  0  0  0  0
 18 29  1  0  0  0  0
 19 20  2  0  0  0  0
 19 37  1  0  0  0  0
 21 22  1  0  0  0  0
 21 30  1  0  0  0  0
 21 31  1  0  0  0  0
 22 23  1  0  0  0  0
 22 24  2  0  0  0  0
 23 25  2  0  0  0  0
 23 32  1  0  0  0  0
 24 26  1  0  0  0  0
 24 33  1  0  0  0  0
 25 27  1  0  0  0  0
 25 34  1  0  0  0  0
 26 27  2  0  0  0  0
 26 35  1  0  0  0  0
 27 36  1  0  0  0  0
 37 38  1  0  0  0  0
 37 42  1  0  0  0  0
 38 39  1  0  0  0  0
 38 41  1  0  0  0  0
 38 43  1  0  0  0  0
 39 40  2  0  0  0  0
 39 47  1  0  0  0  0
 41 44  1  0  0  0  0
 41 45  1  0  0  0  0
 41 46  1  0  0  0  0
 47 48  1  0  0  0  0
 47 49  1  0  0  0  0
 48 50  1  0  0  0  0
 48 51  1  0  0  0  0
 48 52  1  0  0  0  0
M  END
$$$$

  -OEChem-05262217163D

 52 52  0     1  0  0  0  0  0999 V2000
   -1.6614    1.7077    4.7236 C   0  0  0  0  0  0  0  0  0  0  0  0
   -0.6141    2.2919    4.5030 O   0  0  0  0  0  0  0  0  0  0  0  0
   -1.9365    1.1810    6.1194 C   0  0  0  0  0  0  0  0  0  0  0  0
   -2.0579    0.0952    6.0898 H   0  0  0  0  0  0  0  0  0  0  0  0
   -1.1035    1.4227    6.7857 H   0  0  0  0  0  0  0  0  0  0  0  0
   -2.8482    1.6334    6.5165 H   0  0  0  0  0  0  0  0  0  0  0  0
   -2.6078    1.5042    3.7360 N   0  0  0  0  0  0  0  0  0  0  0  0
   -2.3706    1.6455    2.2848 C   0  0  2  0  0  0  0  0  0  0  0  0
   -1.4794    0.5215    1.7001 C   0  0  0  0  0  0  0  0  0  0  0  0
   -1.3431   -0.5205    2.3271 O   0  0  0  0  0  0  0  0  0  0  0  0
   -1.8531    3.0453    1.9095 C   0  0  0  0  0  0  0  0  0  0  0  0
   -3.3425    0.8562    4.0050 H   0  0  0  0  0  0  0  0  0  0  0  0
   -3.3465    1.5369    1.8026 H   0  0  0  0  0  0  0  0  0  0  0  0
   -0.7853    3.1431    2.1307 H   0  0  0  0  0  0  0  0  0  0  0  0
   -1.9971    3.2339    0.8419 H   0  0  0  0  0  0  0  0  0  0  0  0
   -2.3961    3.8135    2.4689 H   0  0  0  0  0  0  0  0  0  0  0  0
   -1.1283    0.5542    0.3589 N   0  0  0  0  0  0  0  0  0  0  0  0
    0.0038   -0.1585   -0.2866 C   0  0  2  0  0  0  0  0  0  0  0  0
   -0.5075   -1.1299   -1.3725 C   0  0  0  0  0  0  0  0  0  0  0  0
   -0.1693   -2.3073   -1.4021 O   0  0  0  0  0  0  0  0  0  0  0  0
    1.1255   -0.7467    0.6097 C   0  0  0  0  0  0  0  0  0  0  0  0
    1.9182    0.3513    1.2877 C   0  0  0  0  0  0  0  0  0  0  0  0
    2.9335    1.0152    0.5793 C   0  0  0  0  0  0  0  0  0  0  0  0
    1.6830    0.7124    2.6220 C   0  0  0  0  0  0  0  0  0  0  0  0
    3.6726    2.0401    1.1806 C   0  0  0  0  0  0  0  0  0  0  0  0
    2.4139    1.7417    3.2224 C   0  0  0  0  0  0  0  0  0  0  0  0
    3.4074    2.4093    2.5022 C   0  0  0  0  0  0  0  0  0  0  0  0
   -1.3762    1.4365   -0.0765 H   0  0  0  0  0  0  0  0  0  0  0  0
    0.5238    0.6095   -0.8663 H   0  0  0  0  0  0  0  0  0  0  0  0
    1.8160   -1.3278   -0.0102 H   0  0  0  0  0  0  0  0  0  0  0  0
    0.7151   -1.4450    1.3443 H   0  0  0  0  0  0  0  0  0  0  0  0
    3.1529    0.7359   -0.4467 H   0  0  0  0  0  0  0  0  0  0  0  0
    0.9265    0.2001    3.2084 H   0  0  0  0  0  0  0  0  0  0  0  0
    4.4532    2.5484    0.6225 H   0  0  0  0  0  0  0  0  0  0  0  0
    2.1984    2.0199    4.2506 H   0  0  0  0  0  0  0  0  0  0  0  0
    3.9729    3.2078    2.9732 H   0  0  0  0  0  0  0  0  0  0  0  0
   -1.2313   -0.6414   -2.4469 N   0  0  0  0  0  0  0  0  0  0  0  0
   -1.7044   -1.4672   -3.5692 C   0  0  2  0  0  0  0  0  0  0  0  0
   -0.5876   -1.7413   -4.6052 C   0  0  0  0  0  0  0  0  0  0  0  0
   -0.6529   -1.3139   -5.7517 O   0  0  0  0  0  0  0  0  0  0  0  0
   -2.9260   -0.7656   -4.1765 C   0  0  0  0  0  0  0  0  0  0  0  0
   -1.4434    0.3503   -2.4568 H   0  0  0  0  0  0  0  0  0  0  0  0
   -2.0371   -2.4408   -3.1921 H   0  0  0  0  0  0  0  0  0  0  0  0
   -2.6512    0.2179   -4.5714 H   0  0  0  0  0  0  0  0  0  0  0  0
   -3.3369   -1.3642   -4.9961 H   0  0  0  0  0  0  0  0  0  0  0  0
   -3.7067   -0.6360   -3.4207 H   0  0  0  0  0  0  0  0  0  0  0  0
    0.5210   -2.4667   -4.2177 N   0  0  0  0  0  0  0  0  0  0  0  0
    1.6507   -2.7626   -5.0873 C   0  0  0  0  0  0  0  0  0  0  0  0
    0.5534   -2.7489   -3.2339 H   0  0  0  0  0  0  0  0  0  0  0  0
    1.3249   -3.3558   -5.9480 H   0  0  0  0  0  0  0  0  0  0  0  0
    2.1096   -1.8368   -5.4490 H   0  0  0  0  0  0  0  0  0  0  0  0
    2.4071   -3.3335   -4.5404 H   0  0  0  0  0  0  0  0  0  0  0  0
  1  2  2  0  0  0  0
  1  3  1  0  0  0  0
  1  7  1  0  0  0  0
  3  4  1  0  0  0  0
  3  5  1  0  0  0  0
  3  6  1  0  0  0  0
  7  8  1  0  0  0  0
  7 12  1  0  0  0  0
  8  9  1  0  0  0  0
  8 11  1  0  0  0  0
  8 13  1  0  0  0  0
  9 10  2  0  0  0  0
  9 17  1  0  0  0  0
 11 14  1  0  0  0  0
 11 15  1  0  0  0  0
 11 16  1  0  0  0  0
 17 18  1  0  0  0  0
 17 28  1  0  0  0  0
 18 19  1  0  0  0  0
 18 21  1  0  0  0  0
 18 29  1  0  0  0  0
 19 20  2  0  0  0  0
 19 37  1  0  0  0  0
 21 22  1  0  0  0  0
 21 30  1  0  0  0  0
 21 31  1  0  0  0  0
 22 23  1  0  0  0  0
 22 24  2  0  0  0  0
 23 25  2  0  0  0  0
 23 32  1  0  0  0  0
 24 26  1  0  0  0  0
 24 33  1  0  0  0  0
 25 27  1  0  0  0  0
 25 34  1  0  0  0  0
 26 27  2  0  0  0  0
 26 35  1  0  0  0  0
 27 36  1  0  0  0  0
 37 38  1  0  0  0  0
 37 42  1  0  0  0  0
 38 39  1  0  0  0  0
 38 41  1  0  0  0  0
 38 43  1  0  0  0  0
 39 40  2  0  0  0  0
 39 47  1  0  0  0  0
 41 44  1  0  0  0  0
 41 45  1  0  0  0  0
 41 46  1  0  0  0  0
 47 48  1  0  0  0  0
 47 49  1  0  0  0  0
 48 50  1  0  0  0  0
 48 51  1  0  0  0  0
 48 52  1  0  0  0  0
M  END
$$$$

  -OEChem-05262217163D

 52 52  0     1  0  0  0  0  0999 V2000
   -1.6660    1.6982    4.6817 C   0  0  0  0  0  0  0  0  0  0  0  0
   -0.6407    2.3045    4.4207 O   0  0  0  0  0  0  0  0  0  0  0  0
   -1.8859    1.1878    6.0933 C   0  0  0  0  0  0  0  0  0  0  0  0
   -1.9818    0.0992    6.0844 H   0  0  0  0  0  0  0  0  0  0  0  0
   -1.0391    1.4604    6.7295 H   0  0  0  0  0  0  0  0  0  0  0  0
   -2.7956    1.6247    6.5120 H   0  0  0  0  0  0  0  0  0  0  0  0
   -2.6353    1.4571    3.7251 N   0  0  0  0  0  0  0  0  0  0  0  0
   -2.4429    1.5949    2.2671 C   0  0  2  0  0  0  0  0  0  0  0  0
   -1.5075    0.5141    1.6691 C   0  0  0  0  0  0  0  0  0  0  0  0
   -1.3448   -0.5334    2.2800 O   0  0  0  0  0  0  0  0  0  0  0  0
   -2.0128    3.0189    1.8723 C   0  0  0  0  0  0  0  0  0  0  0  0
   -3.3460    0.7943    4.0209 H   0  0  0  0  0  0  0  0  0  0  0  0
   -3.4223    1.4292    1.8087 H   0  0  0  0  0  0  0  0  0  0  0  0
   -0.9493    3.1807    2.0754 H   0  0  0  0  0  0  0  0  0  0  0  0
   -2.1850    3.1897    0.8060 H   0  0  0  0  0  0  0  0  0  0  0  0
   -2.5909    3.7588    2.4344 H   0  0  0  0  0  0  0  0  0  0  0  0
   -1.1342    0.5930    0.3355 N   0  0  0  0  0  0  0  0  0  0  0  0
   -0.0020   -0.0989   -0.3303 C   0  0  2  0  0  0  0  0  0  0  0  0
   -0.5055   -1.0194   -1.4618 C   0  0  0  0  0  0  0  0  0  0  0  0
   -0.4150   -2.2391   -1.3892 O   0  0  0  0  0  0  0  0  0  0  0  0
    1.1087   -0.7419    0.5393 C   0  0  0  0  0  0  0  0  0  0  0  0
    1.9104    0.3112    1.2761 C   0  0  0  0  0  0  0  0  0  0  0  0
    2.9359    0.9982    0.6053 C   0  0  0  0  0  0  0  0  0  0  0  0
    1.6765    0.6057    2.6270 C   0  0  0  0  0  0  0  0  0  0  0  0
    3.6854    1.9822    1.2601 C   0  0  0  0  0  0  0  0  0  0  0  0
    2.4175    1.5941    3.2811 C   0  0  0  0  0  0  0  0  0  0  0  0
    3.4212    2.2856    2.5985 C   0  0  0  0  0  0  0  0  0  0  0  0
   -1.4170    1.4673   -0.0943 H   0  0  0  0  0  0  0  0  0  0  0  0
    0.5312    0.6933   -0.8633 H   0  0  0  0  0  0  0  0  0  0  0  0
    1.7913   -1.3031   -0.1073 H   0  0  0  0  0  0  0  0  0  0  0  0
    0.6853   -1.4690    1.2374 H   0  0  0  0  0  0  0  0  0  0  0  0
    3.1557    0.7694   -0.4328 H   0  0  0  0  0  0  0  0  0  0  0  0
    0.9130    0.0732    3.1849 H   0  0  0  0  0  0  0  0  0  0  0  0
    4.4728    2.5102    0.7304 H   0  0  0  0  0  0  0  0  0  0  0  0
    2.2012    1.8234    4.3208 H   0  0  0  0  0  0  0  0  0  0  0  0
    3.9943    3.0530    3.1103 H   0  0  0  0  0  0  0  0  0  0  0  0
   -0.9329   -0.4716   -2.6599 N   0  0  0  0  0  0  0  0  0  0  0  0
   -1.3367   -1.2665   -3.8308 C   0  0  2  0  0  0  0  0  0  0  0  0
   -0.1192   -1.8057   -4.6194 C   0  0  0  0  0  0  0  0  0  0  0  0
    0.1384   -1.4167   -5.7523 O   0  0  0  0  0  0  0  0  0  0  0  0
   -2.2632   -0.3942   -4.6872 C   0  0  0  0  0  0  0  0  0  0  0  0
   -0.8874    0.5374   -2.7582 H   0  0  0  0  0  0  0  0  0  0  0  0
   -1.9150   -2.1366   -3.5008 H   0  0  0  0  0  0  0  0  0  0  0  0
   -1.7346    0.4948   -5.0457 H   0  0  0  0  0  0  0  0  0  0  0  0
   -2.6175   -0.9585   -5.5561 H   0  0  0  0  0  0  0  0  0  0  0  0
   -3.1335   -0.0758   -4.1055 H   0  0  0  0  0  0  0  0  0  0  0  0
    0.7140   -2.7256   -4.0156 N   0  0  0  0  0  0  0  0  0  0  0  0
    1.9232   -3.2574   -4.6278 C   0  0  0  0  0  0  0  0  0  0  0  0
    0.5032   -2.9499   -3.0389 H   0  0  0  0  0  0  0  0  0  0  0  0
    1.6811   -3.7866   -5.5552 H   0  0  0  0  0  0  0  0  0  0  0  0
    2.6251   -2.4486   -4.8551 H   0  0  0  0  0  0  0  0  0  0  0  0
    2.4120   -3.9603   -3.9463 H   0  0  0  0  0  0  0  0  0  0  0  0
  1  2  2  0  0  0  0
  1  3  1  0  0  0  0
  1  7  1  0  0  0  0
  3  4  1  0  0  0  0
  3  5  1  0  0  0  0
  3  6  1  0  0  0  0
  7  8  1  0  0  0  0
  7 12  1  0  0  0  0
  8  9  1  0  0  0  0
  8 11  1  0  0  0  0
  8 13  1  0  0  0  0
  9 10  2  0  0  0  0
  9 17  1  0  0  0  0
 11 14  1  0  0  0  0
 11 15  1  0  0  0  0
 11 16  1  0  0  0  0
 17 18  1  0  0  0  0
 17 28  1  0  0  0  0
 18 19  1  0  0  0  0
 18 21  1  0  0  0  0
 18 29  1  0  0  0  0
 19 20  2  0  0  0  0
 19 37  1  0  0  0  0
 21 22  1  0  0  0  0
 21 30  1  0  0  0  0
 21 31  1  0  0  0  0
 22 23  1  0  0  0  0
 22 24  2  0  0  0  0
 23 25  2  0  0  0  0
 23 32  1  0  0  0  0
 24 26  1  0  0  0  0
 24 33  1  0  0  0  0
 25 27  1  0  0  0  0
 25 34  1  0  0  0  0
 26 27  2  0  0  0  0
 26 35  1  0  0  0  0
 27 36  1  0  0  0  0
 37 38  1  0  0  0  0
 37 42  1  0  0  0  0
 38 39  1  0  0  0  0
 38 41  1  0  0  0  0
 38 43  1  0  0  0  0
 39 40  2  0  0  0  0
 39 47  1  0  0  0  0
 41 44  1  0  0  0  0
 41 45  1  0  0  0  0
 41 46  1  0  0  0  0
 47 48  1  0  0  0  0
 47 49  1  0  0  0  0
 48 50  1  0  0  0  0
 48 51  1  0  0  0  0
 48 52  1  0  0  0  0
M  END
$$$$

  -OEChem-05262217163D

 52 52  0     1  0  0  0  0  0999 V2000
   -1.7363    1.6252    4.6566 C   0  0  0  0  0  0  0  0  0  0  0  0
   -0.7108    2.2512    4.4466 O   0  0  0  0  0  0  0  0  0  0  0  0
   -1.9823    1.0465    6.0371 C   0  0  0  0  0  0  0  0  0  0  0  0
   -2.0283   -0.0441    5.9798 H   0  0  0  0  0  0  0  0  0  0  0  0
   -1.1718    1.3287    6.7148 H   0  0  0  0  0  0  0  0  0  0  0  0
   -2.9251    1.4248    6.4389 H   0  0  0  0  0  0  0  0  0  0  0  0
   -2.6807    1.4143    3.6685 N   0  0  0  0  0  0  0  0  0  0  0  0
   -2.4503    1.5994    2.2213 C   0  0  2  0  0  0  0  0  0  0  0  0
   -1.4966    0.5383    1.6170 C   0  0  0  0  0  0  0  0  0  0  0  0
   -1.3294   -0.5174    2.2127 O   0  0  0  0  0  0  0  0  0  0  0  0
   -2.0101    3.0352    1.8845 C   0  0  0  0  0  0  0  0  0  0  0  0
   -3.3877    0.7302    3.9216 H   0  0  0  0  0  0  0  0  0  0  0  0
   -3.4167    1.4478    1.7314 H   0  0  0  0  0  0  0  0  0  0  0  0
   -0.9504    3.1859    2.1137 H   0  0  0  0  0  0  0  0  0  0  0  0
   -2.1611    3.2439    0.8217 H   0  0  0  0  0  0  0  0  0  0  0  0
   -2.5964    3.7571    2.4613 H   0  0  0  0  0  0  0  0  0  0  0  0
   -1.0942    0.6523    0.2945 N   0  0  0  0  0  0  0  0  0  0  0  0
    0.0499   -0.0221   -0.3670 C   0  0  2  0  0  0  0  0  0  0  0  0
   -0.4224   -0.9107   -1.5342 C   0  0  0  0  0  0  0  0  0  0  0  0
   -0.6137   -2.1114   -1.3901 O   0  0  0  0  0  0  0  0  0  0  0  0
    1.1448   -0.6934    0.4994 C   0  0  0  0  0  0  0  0  0  0  0  0
    1.9336    0.3392    1.2788 C   0  0  0  0  0  0  0  0  0  0  0  0
    2.9689    1.0444    0.6421 C   0  0  0  0  0  0  0  0  0  0  0  0
    1.6714    0.6064    2.6304 C   0  0  0  0  0  0  0  0  0  0  0  0
    3.7013    2.0176    1.3311 C   0  0  0  0  0  0  0  0  0  0  0  0
    2.3934    1.5861    3.3180 C   0  0  0  0  0  0  0  0  0  0  0  0
    3.4081    2.2941    2.6693 C   0  0  0  0  0  0  0  0  0  0  0  0
   -1.3890    1.5241   -0.1329 H   0  0  0  0  0  0  0  0  0  0  0  0
    0.5910    0.7897   -0.8597 H   0  0  0  0  0  0  0  0  0  0  0  0
    1.8354   -1.2379   -0.1530 H   0  0  0  0  0  0  0  0  0  0  0  0
    0.7084   -1.4387    1.1703 H   0  0  0  0  0  0  0  0  0  0  0  0
    3.2094    0.8394   -0.3964 H   0  0  0  0  0  0  0  0  0  0  0  0
    0.8995    0.0607    3.1632 H   0  0  0  0  0  0  0  0  0  0  0  0
    4.4968    2.5595    0.8282 H   0  0  0  0  0  0  0  0  0  0  0  0
    2.1529    1.7963    4.3568 H   0  0  0  0  0  0  0  0  0  0  0  0
    3.9665    3.0539    3.2077 H   0  0  0  0  0  0  0  0  0  0  0  0
   -0.5237   -0.3833   -2.8104 N   0  0  0  0  0  0  0  0  0  0  0  0
   -0.9045   -1.1653   -3.9971 C   0  0  2  0  0  0  0  0  0  0  0  0
    0.2677   -2.0149   -4.5458 C   0  0  0  0  0  0  0  0  0  0  0  0
    0.7501   -1.8061   -5.6525 O   0  0  0  0  0  0  0  0  0  0  0  0
   -1.4639   -0.1806   -5.0313 C   0  0  0  0  0  0  0  0  0  0  0  0
   -0.2509    0.5854   -2.9431 H   0  0  0  0  0  0  0  0  0  0  0  0
   -1.7081   -1.8617   -3.7336 H   0  0  0  0  0  0  0  0  0  0  0  0
   -0.6967    0.5399   -5.3323 H   0  0  0  0  0  0  0  0  0  0  0  0
   -1.8007   -0.7190   -5.9229 H   0  0  0  0  0  0  0  0  0  0  0  0
   -2.3163    0.3656   -4.6164 H   0  0  0  0  0  0  0  0  0  0  0  0
    0.7948   -3.0197   -3.7594 N   0  0  0  0  0  0  0  0  0  0  0  0
    1.9159   -3.8621   -4.1521 C   0  0  0  0  0  0  0  0  0  0  0  0
    0.3966   -3.1149   -2.8208 H   0  0  0  0  0  0  0  0  0  0  0  0
    1.6700   -4.4276   -5.0569 H   0  0  0  0  0  0  0  0  0  0  0  0
    2.8045   -3.2529   -4.3471 H   0  0  0  0  0  0  0  0  0  0  0  0
    2.1514   -4.5721   -3.3534 H   0  0  0  0  0  0  0  0  0  0  0  0
  1  2  2  0  0  0  0
  1  3  1  0  0  0  0
  1  7  1  0  0  0  0
  3  4  1  0  0  0  0
  3  5  1  0  0  0  0
  3  6  1  0  0  0  0
  7  8  1  0  0  0  0
  7 12  1  0  0  0  0
  8  9  1  0  0  0  0
  8 11  1  0  0  0  0
  8 13  1  0  0  0  0
  9 10  2  0  0  0  0
  9 17  1  0  0  0  0
 11 14  1  0  0  0  0
 11 15  1  0  0  0  0
 11 16  1  0  0  0  0
 17 18  1  0  0  0  0
 17 28  1  0  0  0  0
 18 19  1  0  0  0  0
 18 21  1  0  0  0  0
 18 29  1  0  0  0  0
 19 20  2  0  0  0  0
 19 37  1  0  0  0  0
 21 22  1  0  0  0  0
 21 30  1  0  0  0  0
 21 31  1  0  0  0  0
 22 23  1  0  0  0  0
 22 24  2  0  0  0  0
 23 25  2  0  0  0  0
 23 32  1  0  0  0  0
 24 26  1  0  0  0  0
 24 33  1  0  0  0  0
 25 27  1  0  0  0  0
 25 34  1  0  0  0  0
 26 27  2  0  0  0  0
 26 35  1  0  0  0  0
 27 36  1  0  0  0  0
 37 38  1  0  0  0  0
 37 42  1  0  0  0  0
 38 39  1  0  0  0  0
 38 41  1  0  0  0  0
 38 43  1  0  0  0  0
 39 40  2  0  0  0  0
 39 47  1  0  0  0  0
 41 44  1  0  0  0  0
 41 45  1  0  0  0  0
 41 46  1  0  0  0  0
 47 48  1  0  0  0  0
 47 49  1  0  0  0  0
 48 50  1  0  0  0  0
 48 51  1  0  0  0  0
 48 52  1  0  0  0  0
M  END
$$$$

  -OEChem-05262217163D

 52 52  0     1  0  0  0  0  0999 V2000
   -1.7552    1.5965    4.6116 C   0  0  0  0  0  0  0  0  0  0  0  0
   -0.7470    2.2450    4.3864 O   0  0  0  0  0  0  0  0  0  0  0  0
   -1.9772    1.0291    6.0009 C   0  0  0  0  0  0  0  0  0  0  0  0
   -2.0128   -0.0625    5.9554 H   0  0  0  0  0  0  0  0  0  0  0  0
   -1.1614    1.3270    6.6657 H   0  0  0  0  0  0  0  0  0  0  0  0
   -2.9188    1.4021    6.4107 H   0  0  0  0  0  0  0  0  0  0  0  0
   -2.7029    1.3551    3.6338 N   0  0  0  0  0  0  0  0  0  0  0  0
   -2.4938    1.5487    2.1846 C   0  0  2  0  0  0  0  0  0  0  0  0
   -1.4949    0.5341    1.5729 C   0  0  0  0  0  0  0  0  0  0  0  0
   -1.3045   -0.5276    2.1511 O   0  0  0  0  0  0  0  0  0  0  0  0
   -2.1307    3.0056    1.8467 C   0  0  0  0  0  0  0  0  0  0  0  0
   -3.3922    0.6563    3.8956 H   0  0  0  0  0  0  0  0  0  0  0  0
   -3.4552    1.3488    1.7025 H   0  0  0  0  0  0  0  0  0  0  0  0
   -1.0817    3.2147    2.0790 H   0  0  0  0  0  0  0  0  0  0  0  0
   -2.2901    3.2043    0.7832 H   0  0  0  0  0  0  0  0  0  0  0  0
   -2.7578    3.6947    2.4206 H   0  0  0  0  0  0  0  0  0  0  0  0
   -1.0690    0.6920    0.2621 N   0  0  0  0  0  0  0  0  0  0  0  0
    0.0894    0.0454   -0.4019 C   0  0  2  0  0  0  0  0  0  0  0  0
   -0.3463   -0.8094   -1.6081 C   0  0  0  0  0  0  0  0  0  0  0  0
   -0.8234   -1.9267   -1.4573 O   0  0  0  0  0  0  0  0  0  0  0  0
    1.1755   -0.6525    0.4526 C   0  0  0  0  0  0  0  0  0  0  0  0
    1.9522    0.3507    1.2815 C   0  0  0  0  0  0  0  0  0  0  0  0
    2.9932    1.0808    0.6836 C   0  0  0  0  0  0  0  0  0  0  0  0
    1.6789    0.5632    2.6408 C   0  0  0  0  0  0  0  0  0  0  0  0
    3.7186    2.0260    1.4172 C   0  0  0  0  0  0  0  0  0  0  0  0
    2.3951    1.5142    3.3738 C   0  0  0  0  0  0  0  0  0  0  0  0
    3.4138    2.2492    2.7625 C   0  0  0  0  0  0  0  0  0  0  0  0
   -1.3830    1.5614   -0.1563 H   0  0  0  0  0  0  0  0  0  0  0  0
    0.6302    0.8812   -0.8534 H   0  0  0  0  0  0  0  0  0  0  0  0
    1.8766   -1.1699   -0.2106 H   0  0  0  0  0  0  0  0  0  0  0  0
    0.7319   -1.4236    1.0886 H   0  0  0  0  0  0  0  0  0  0  0  0
    3.2443    0.9167   -0.3597 H   0  0  0  0  0  0  0  0  0  0  0  0
    0.9031   -0.0034    3.1448 H   0  0  0  0  0  0  0  0  0  0  0  0
    4.5180    2.5874    0.9432 H   0  0  0  0  0  0  0  0  0  0  0  0
    2.1482    1.6822    4.4185 H   0  0  0  0  0  0  0  0  0  0  0  0
    3.9671    2.9878    3.3350 H   0  0  0  0  0  0  0  0  0  0  0  0
   -0.1344   -0.3597   -2.9006 N   0  0  0  0  0  0  0  0  0  0  0  0
   -0.4438   -1.1485   -4.1041 C   0  0  2  0  0  0  0  0  0  0  0  0
    0.6170   -2.2420   -4.3819 C   0  0  0  0  0  0  0  0  0  0  0  0
    1.3320   -2.2060   -5.3762 O   0  0  0  0  0  0  0  0  0  0  0  0
   -0.6058   -0.1642   -5.2691 C   0  0  0  0  0  0  0  0  0  0  0  0
    0.3780    0.5090   -3.0178 H   0  0  0  0  0  0  0  0  0  0  0  0
   -1.4023   -1.6614   -3.9688 H   0  0  0  0  0  0  0  0  0  0  0  0
    0.3280    0.3775   -5.4503 H   0  0  0  0  0  0  0  0  0  0  0  0
   -0.8755   -0.7023   -6.1836 H   0  0  0  0  0  0  0  0  0  0  0  0
   -1.3959    0.5604   -5.0502 H   0  0  0  0  0  0  0  0  0  0  0  0
    0.7759   -3.2709   -3.4751 N   0  0  0  0  0  0  0  0  0  0  0  0
    1.7707   -4.3267   -3.6036 C   0  0  0  0  0  0  0  0  0  0  0  0
    0.2067   -3.2157   -2.6256 H   0  0  0  0  0  0  0  0  0  0  0  0
    1.6221   -4.8818   -4.5357 H   0  0  0  0  0  0  0  0  0  0  0  0
    2.7806   -3.9039   -3.6012 H   0  0  0  0  0  0  0  0  0  0  0  0
    1.6860   -5.0275   -2.7676 H   0  0  0  0  0  0  0  0  0  0  0  0
  1  2  2  0  0  0  0
  1  3  1  0  0  0  0
  1  7  1  0  0  0  0
  3  4  1  0  0  0  0
  3  5  1  0  0  0  0
  3  6  1  0  0  0  0
  7  8  1  0  0  0  0
  7 12  1  0  0  0  0
  8  9  1  0  0  0  0
  8 11  1  0  0  0  0
  8 13  1  0  0  0  0
  9 10  2  0  0  0  0
  9 17  1  0  0  0  0
 11 14  1  0  0  0  0
 11 15  1  0  0  0  0
 11 16  1  0  0  0  0
 17 18  1  0  0  0  0
 17 28  1  0  0  0  0
 18 19  1  0  0  0  0
 18 21  1  0  0  0  0
 18 29  1  0  0  0  0
 19 20  2  0  0  0  0
 19 37  1  0  0  0  0
 21 22  1  0  0  0  0
 21 30  1  0  0  0  0
 21 31  1  0  0  0  0
 22 23  1  0  0  0  0
 22 24  2  0  0  0  0
 23 25  2  0  0  0  0
 23 32  1  0  0  0  0
 24 26  1  0  0  0  0
 24 33  1  0  0  0  0
 25 27  1  0  0  0  0
 25 34  1  0  0  0  0
 26 27  2  0  0  0  0
 26 35  1  0  0  0  0
 27 36  1  0  0  0  0
 37 38  1  0  0  0  0
 37 42  1  0  0  0  0
 38 39  1  0  0  0  0
 38 41  1  0  0  0  0
 38 43  1  0  0  0  0
 39 40  2  0  0  0  0
 39 47  1  0  0  0  0
 41 44  1  0  0  0  0
 41 45  1  0  0  0  0
 41 46  1  0  0  0  0
 47 48  1  0  0  0  0
 47 49  1  0  0  0  0
 48 50  1  0  0  0  0
 48 51  1  0  0  0  0
 48 52  1  0  0  0  0
M  END
$$$$

  -OEChem-05262217163D

 52 52  0     1  0  0  0  0  0999 V2000
   -1.0459    2.7943    2.5821 C   0  0  0  0  0  0  0  0  0  0  0  0
   -1.2309    2.9457    1.3833 O   0  0  0  0  0  0  0  0  0  0  0  0
   -0.0718    3.7017    3.3087 C   0  0  0  0  0  0  0  0  0  0  0  0
    0.7631    3.1150    3.6996 H   0  0  0  0  0  0  0  0  0  0  0  0
    0.3208    4.4597    2.6251 H   0  0  0  0  0  0  0  0  0  0  0  0
   -0.5758    4.2046    4.1374 H   0  0  0  0  0  0  0  0  0  0  0  0
   -1.6781    1.7831    3.2826 N   0  0  0  0  0  0  0  0  0  0  0  0
   -2.5598    0.7364    2.7246 C   0  0  2  0  0  0  0  0  0  0  0  0
   -1.8281   -0.2311    1.7680 C   0  0  0  0  0  0  0  0  0  0  0  0
   -1.7324   -1.4078    2.0847 O   0  0  0  0  0  0  0  0  0  0  0  0
   -3.8112    1.3418    2.0723 C   0  0  0  0  0  0  0  0  0  0  0  0
   -1.3828    1.6720    4.2485 H   0  0  0  0  0  0  0  0  0  0  0  0
   -2.9083    0.1276    3.5656 H   0  0  0  0  0  0  0  0  0  0  0  0
   -3.5628    1.9009    1.1660 H   0  0  0  0  0  0  0  0  0  0  0  0
   -4.5114    0.5462    1.7989 H   0  0  0  0  0  0  0  0  0  0  0  0
   -4.3124    2.0181    2.7711 H   0  0  0  0  0  0  0  0  0  0  0  0
   -1.2771    0.2527    0.5963 N   0  0  0  0  0  0  0  0  0  0  0  0
   -0.0321   -0.1937   -0.0630 C   0  0  2  0  0  0  0  0  0  0  0  0
   -0.2935   -0.7312   -1.4833 C   0  0  0  0  0  0  0  0  0  0  0  0
   -0.9521   -1.7462   -1.6741 O   0  0  0  0  0  0  0  0  0  0  0  0
    0.9500   -1.1013    0.7153 C   0  0  0  0  0  0  0  0  0  0  0  0
    1.5838   -0.3672    1.8817 C   0  0  0  0  0  0  0  0  0  0  0  0
    2.6736    0.4885    1.6549 C   0  0  0  0  0  0  0  0  0  0  0  0
    1.1625   -0.5806    3.2038 C   0  0  0  0  0  0  0  0  0  0  0  0
    3.2935    1.1556    2.7172 C   0  0  0  0  0  0  0  0  0  0  0  0
    1.7810    0.0832    4.2688 C   0  0  0  0  0  0  0  0  0  0  0  0
    2.8442    0.9569    4.0254 C   0  0  0  0  0  0  0  0  0  0  0  0
   -1.4587    1.2556    0.5010 H   0  0  0  0  0  0  0  0  0  0  0  0
    0.5275    0.7321   -0.2200 H   0  0  0  0  0  0  0  0  0  0  0  0
    1.7470   -1.4283    0.0398 H   0  0  0  0  0  0  0  0  0  0  0  0
    0.4449   -2.0104    1.0549 H   0  0  0  0  0  0  0  0  0  0  0  0
    3.0438    0.6409    0.6457 H   0  0  0  0  0  0  0  0  0  0  0  0
    0.3621   -1.2831    3.4141 H   0  0  0  0  0  0  0  0  0  0  0  0
    4.1318    1.8192    2.5256 H   0  0  0  0  0  0  0  0  0  0  0  0
    1.4454   -0.0971    5.2858 H   0  0  0  0  0  0  0  0  0  0  0  0
    3.3323    1.4659    4.8515 H   0  0  0  0  0  0  0  0  0  0  0  0
    0.3108   -0.1315   -2.5755 N   0  0  0  0  0  0  0  0  0  0  0  0
    0.1802   -0.6149   -3.9591 C   0  0  2  0  0  0  0  0  0  0  0  0
    1.0747   -1.8470   -4.2394 C   0  0  0  0  0  0  0  0  0  0  0  0
    2.0184   -1.7948   -5.0196 O   0  0  0  0  0  0  0  0  0  0  0  0
    0.4835    0.5664   -4.8892 C   0  0  0  0  0  0  0  0  0  0  0  0
    0.9120    0.6680   -2.4002 H   0  0  0  0  0  0  0  0  0  0  0  0
   -0.8553   -0.9224   -4.1410 H   0  0  0  0  0  0  0  0  0  0  0  0
    1.5140    0.9101   -4.7535 H   0  0  0  0  0  0  0  0  0  0  0  0
    0.3539    0.2673   -5.9342 H   0  0  0  0  0  0  0  0  0  0  0  0
   -0.1950    1.3998   -4.6827 H   0  0  0  0  0  0  0  0  0  0  0  0
    0.8144   -3.0284   -3.5745 N   0  0  0  0  0  0  0  0  0  0  0  0
    1.6308   -4.2282   -3.6918 C   0  0  0  0  0  0  0  0  0  0  0  0
    0.0791   -2.9887   -2.8623 H   0  0  0  0  0  0  0  0  0  0  0  0
    1.6867   -4.5540   -4.7358 H   0  0  0  0  0  0  0  0  0  0  0  0
    2.6450   -4.0384   -3.3260 H   0  0  0  0  0  0  0  0  0  0  0  0
    1.1940   -5.0392   -3.1010 H   0  0  0  0  0  0  0  0  0  0  0  0
  1  2  2  0  0  0  0
  1  3  1  0  0  0  0
  1  7  1  0  0  0  0
  3  4  1  0  0  0  0
  3  5  1  0  0  0  0
  3  6  1  0  0  0  0
  7  8  1  0  0  0  0
  7 12  1  0  0  0  0
  8  9  1  0  0  0  0
  8 11  1  0  0  0  0
  8 13  1  0  0  0  0
  9 10  2  0  0  0  0
  9 17  1  0  0  0  0
 11 14  1  0  0  0  0
 11 15  1  0  0  0  0
 11 16  1  0  0  0  0
 17 18  1  0  0  0  0
 17 28  1  0  0  0  0
 18 19  1  0  0  0  0
 18 21  1  0  0  0  0
 18 29  1  0  0  0  0
 19 20  2  0  0  0  0
 19 37  1  0  0  0  0
 21 22  1  0  0  0  0
 21 30  1  0  0  0  0
 21 31  1  0  0  0  0
 22 23  1  0  0  0  0
 22 24  2  0  0  0  0
 23 25  2  0  0  0  0
 23 32  1  0  0  0  0
 24 26  1  0  0  0  0
 24 33  1  0  0  0  0
 25 27  1  0  0  0  0
 25 34  1  0  0  0  0
 26 27  2  0  0  0  0
 26 35  1  0  0  0  0
 27 36  1  0  0  0  0
 37 38  1  0  0  0  0
 37 42  1  0  0  0  0
 38 39  1  0  0  0  0
 38 41  1  0  0  0  0
 38 43  1  0  0  0  0
 39 40  2  0  0  0  0
 39 47  1  0  0  0  0
 41 44  1  0  0  0  0
 41 45  1  0  0  0  0
 41 46  1  0  0  0  0
 47 48  1  0  0  0  0
 47 49  1  0  0  0  0
 48 50  1  0  0  0  0
 48 51  1  0  0  0  0
 48 52  1  0  0  0  0
M  END
$$$$

  -OEChem-05262217163D

 52 52  0     1  0  0  0  0  0999 V2000
   -1.1031    2.7809    2.6134 C   0  0  0  0  0  0  0  0  0  0  0  0
   -1.2764    2.9300    1.4127 O   0  0  0  0  0  0  0  0  0  0  0  0
   -0.1693    3.7174    3.3555 C   0  0  0  0  0  0  0  0  0  0  0  0
    0.6637    3.1524    3.7808 H   0  0  0  0  0  0  0  0  0  0  0  0
    0.2309    4.4720    2.6724 H   0  0  0  0  0  0  0  0  0  0  0  0
   -0.7083    4.2228    4.1605 H   0  0  0  0  0  0  0  0  0  0  0  0
   -1.7094    1.7463    3.3026 N   0  0  0  0  0  0  0  0  0  0  0  0
   -2.5380    0.6655    2.7277 C   0  0  2  0  0  0  0  0  0  0  0  0
   -1.7470   -0.2712    1.7882 C   0  0  0  0  0  0  0  0  0  0  0  0
   -1.5997   -1.4408    2.1128 O   0  0  0  0  0  0  0  0  0  0  0  0
   -3.7982    1.2190    2.0462 C   0  0  0  0  0  0  0  0  0  0  0  0
   -1.4231    1.6425    4.2719 H   0  0  0  0  0  0  0  0  0  0  0  0
   -2.8801    0.0432    3.5616 H   0  0  0  0  0  0  0  0  0  0  0  0
   -3.5522    1.7867    1.1447 H   0  0  0  0  0  0  0  0  0  0  0  0
   -4.4587    0.3952    1.7578 H   0  0  0  0  0  0  0  0  0  0  0  0
   -4.3427    1.8750    2.7319 H   0  0  0  0  0  0  0  0  0  0  0  0
   -1.2008    0.2337    0.6236 N   0  0  0  0  0  0  0  0  0  0  0  0
    0.0637   -0.1654   -0.0288 C   0  0  2  0  0  0  0  0  0  0  0  0
   -0.1593   -0.7067   -1.4554 C   0  0  0  0  0  0  0  0  0  0  0  0
   -1.0254   -1.5364   -1.7051 O   0  0  0  0  0  0  0  0  0  0  0  0
    1.0729   -1.0380    0.7553 C   0  0  0  0  0  0  0  0  0  0  0  0
    1.6703   -0.2814    1.9268 C   0  0  0  0  0  0  0  0  0  0  0  0
    2.7291    0.6153    1.7110 C   0  0  0  0  0  0  0  0  0  0  0  0
    1.2476   -0.5136    3.2453 C   0  0  0  0  0  0  0  0  0  0  0  0
    3.3126    1.3054    2.7793 C   0  0  0  0  0  0  0  0  0  0  0  0
    1.8310    0.1713    4.3166 C   0  0  0  0  0  0  0  0  0  0  0  0
    2.8603    1.0871    4.0833 C   0  0  0  0  0  0  0  0  0  0  0  0
   -1.4295    1.2253    0.5153 H   0  0  0  0  0  0  0  0  0  0  0  0
    0.5859    0.7834   -0.1804 H   0  0  0  0  0  0  0  0  0  0  0  0
    1.8872   -1.3368    0.0871 H   0  0  0  0  0  0  0  0  0  0  0  0
    0.5985   -1.9644    1.0915 H   0  0  0  0  0  0  0  0  0  0  0  0
    3.1027    0.7843    0.7059 H   0  0  0  0  0  0  0  0  0  0  0  0
    0.4741   -1.2473    3.4491 H   0  0  0  0  0  0  0  0  0  0  0  0
    4.1251    2.0027    2.5960 H   0  0  0  0  0  0  0  0  0  0  0  0
    1.4947   -0.0246    5.3305 H   0  0  0  0  0  0  0  0  0  0  0  0
    3.3203    1.6137    4.9145 H   0  0  0  0  0  0  0  0  0  0  0  0
    0.6620   -0.2920   -2.4902 N   0  0  0  0  0  0  0  0  0  0  0  0
    0.5490   -0.7752   -3.8752 C   0  0  2  0  0  0  0  0  0  0  0  0
    1.1638   -2.1838   -4.0586 C   0  0  0  0  0  0  0  0  0  0  0  0
    2.1507   -2.3695   -4.7610 O   0  0  0  0  0  0  0  0  0  0  0  0
    1.1907    0.2796   -4.7851 C   0  0  0  0  0  0  0  0  0  0  0  0
    1.4278    0.3339   -2.2607 H   0  0  0  0  0  0  0  0  0  0  0  0
   -0.5087   -0.8500   -4.1505 H   0  0  0  0  0  0  0  0  0  0  0  0
    2.2544    0.3950   -4.5529 H   0  0  0  0  0  0  0  0  0  0  0  0
    1.0966   -0.0189   -5.8342 H   0  0  0  0  0  0  0  0  0  0  0  0
    0.6954    1.2470   -4.6568 H   0  0  0  0  0  0  0  0  0  0  0  0
    0.5950   -3.2543   -3.3986 N   0  0  0  0  0  0  0  0  0  0  0  0
    1.1186   -4.6123   -3.4424 C   0  0  0  0  0  0  0  0  0  0  0  0
   -0.1727   -3.0313   -2.7580 H   0  0  0  0  0  0  0  0  0  0  0  0
    1.1559   -4.9755   -4.4748 H   0  0  0  0  0  0  0  0  0  0  0  0
    2.1275   -4.6474   -3.0190 H   0  0  0  0  0  0  0  0  0  0  0  0
    0.4752   -5.2822   -2.8639 H   0  0  0  0  0  0  0  0  0  0  0  0
  1  2  2  0  0  0  0
  1  3  1  0  0  0  0
  1  7  1  0  0  0  0
  3  4  1  0  0  0  0
  3  5  1  0  0  0  0
  3  6  1  0  0  0  0
  7  8  1  0  0  0  0
  7 12  1  0  0  0  0
  8  9  1  0  0  0  0
  8 11  1  0  0  0  0
  8 13  1  0  0  0  0
  9 10  2  0  0  0  0
  9 17  1  0  0  0  0
 11 14  1  0  0  0  0
 11 15  1  0  0  0  0
 11 16  1  0  0  0  0
 17 18  1  0  0  0  0
 17 28  1  0  0  0  0
 18 19  1  0  0  0  0
 18 21  1  0  0  0  0
 18 29  1  0  0  0  0
 19 20  2  0  0  0  0
 19 37  1  0  0  0  0
 21 22  1  0  0  0  0
 21 30  1  0  0  0  0
 21 31  1  0  0  0  0
 22 23  1  0  0  0  0
 22 24  2  0  0  0  0
 23 25  2  0  0  0  0
 23 32  1  0  0  0  0
 24 26  1  0  0  0  0
 24 33  1  0  0  0  0
 25 27  1  0  0  0  0
 25 34  1  0  0  0  0
 26 27  2  0  0  0  0
 26 35  1  0  0  0  0
 27 36  1  0  0  0  0
 37 38  1  0  0  0  0
 37 42  1  0  0  0  0
 38 39  1  0  0  0  0
 38 41  1  0  0  0  0
 38 43  1  0  0  0  0
 39 40  2  0  0  0  0
 39 47  1  0  0  0  0
 41 44  1  0  0  0  0
 41 45  1  0  0  0  0
 41 46  1  0  0  0  0
 47 48  1  0  0  0  0
 47 49  1  0  0  0  0
 48 50  1  0  0  0  0
 48 51  1  0  0  0  0
 48 52  1  0  0  0  0
M  END
$$$$

  -OEChem-05262217163D

 52 52  0     1  0  0  0  0  0999 V2000
   -1.8126    1.6526    4.4364 C   0  0  0  0  0  0  0  0  0  0  0  0
   -0.9125    2.4070    4.1071 O   0  0  0  0  0  0  0  0  0  0  0  0
   -1.9077    1.1976    5.8806 C   0  0  0  0  0  0  0  0  0  0  0  0
   -1.7921    0.1121    5.9365 H   0  0  0  0  0  0  0  0  0  0  0  0
   -1.1189    1.6660    6.4760 H   0  0  0  0  0  0  0  0  0  0  0  0
   -2.8773    1.4775    6.2994 H   0  0  0  0  0  0  0  0  0  0  0  0
   -2.7370    1.1820    3.5219 N   0  0  0  0  0  0  0  0  0  0  0  0
   -2.5826    1.2681    2.0560 C   0  0  2  0  0  0  0  0  0  0  0  0
   -1.4068    0.4096    1.5257 C   0  0  0  0  0  0  0  0  0  0  0  0
   -1.1180   -0.6181    2.1259 O   0  0  0  0  0  0  0  0  0  0  0  0
   -2.5205    2.7301    1.5780 C   0  0  0  0  0  0  0  0  0  0  0  0
   -3.3123    0.4200    3.8683 H   0  0  0  0  0  0  0  0  0  0  0  0
   -3.4864    0.8365    1.6158 H   0  0  0  0  0  0  0  0  0  0  0  0
   -1.5410    3.1726    1.7842 H   0  0  0  0  0  0  0  0  0  0  0  0
   -2.7016    2.7885    0.5008 H   0  0  0  0  0  0  0  0  0  0  0  0
   -3.2851    3.3268    2.0850 H   0  0  0  0  0  0  0  0  0  0  0  0
   -0.8965    0.6404    0.2578 N   0  0  0  0  0  0  0  0  0  0  0  0
    0.3356    0.0958   -0.3617 C   0  0  2  0  0  0  0  0  0  0  0  0
    0.0443   -0.7271   -1.6329 C   0  0  0  0  0  0  0  0  0  0  0  0
   -1.0369   -1.2764   -1.8105 O   0  0  0  0  0  0  0  0  0  0  0  0
    1.4226   -0.5609    0.5260 C   0  0  0  0  0  0  0  0  0  0  0  0
    2.0911    0.4549    1.4306 C   0  0  0  0  0  0  0  0  0  0  0  0
    3.1115    1.2719    0.9142 C   0  0  0  0  0  0  0  0  0  0  0  0
    1.7504    0.5850    2.7851 C   0  0  0  0  0  0  0  0  0  0  0  0
    3.7467    2.2223    1.7211 C   0  0  0  0  0  0  0  0  0  0  0  0
    2.3765    1.5402    3.5913 C   0  0  0  0  0  0  0  0  0  0  0  0
    3.3735    2.3617    3.0600 C   0  0  0  0  0  0  0  0  0  0  0  0
   -1.3240    1.4258   -0.2219 H   0  0  0  0  0  0  0  0  0  0  0  0
    0.8313    0.9885   -0.7529 H   0  0  0  0  0  0  0  0  0  0  0  0
    2.1914   -1.0106   -0.1099 H   0  0  0  0  0  0  0  0  0  0  0  0
    0.9966   -1.3798    1.1125 H   0  0  0  0  0  0  0  0  0  0  0  0
    3.4164    1.1754   -0.1227 H   0  0  0  0  0  0  0  0  0  0  0  0
    0.9923   -0.0506    3.2291 H   0  0  0  0  0  0  0  0  0  0  0  0
    4.5280    2.8539    1.3092 H   0  0  0  0  0  0  0  0  0  0  0  0
    2.0775    1.6445    4.6302 H   0  0  0  0  0  0  0  0  0  0  0  0
    3.8560    3.1038    3.6888 H   0  0  0  0  0  0  0  0  0  0  0  0
    0.9801   -0.7867   -2.6514 N   0  0  0  0  0  0  0  0  0  0  0  0
    0.8036   -1.5772   -3.8801 C   0  0  2  0  0  0  0  0  0  0  0  0
    1.0053   -3.0929   -3.6348 C   0  0  0  0  0  0  0  0  0  0  0  0
    1.9255   -3.7107   -4.1565 O   0  0  0  0  0  0  0  0  0  0  0  0
    1.7671   -1.0096   -4.9297 C   0  0  0  0  0  0  0  0  0  0  0  0
    1.9035   -0.4107   -2.4565 H   0  0  0  0  0  0  0  0  0  0  0  0
   -0.2158   -1.4455   -4.2589 H   0  0  0  0  0  0  0  0  0  0  0  0
    2.8055   -1.1247   -4.6028 H   0  0  0  0  0  0  0  0  0  0  0  0
    1.6441   -1.5377   -5.8807 H   0  0  0  0  0  0  0  0  0  0  0  0
    1.5669    0.0530   -5.0969 H   0  0  0  0  0  0  0  0  0  0  0  0
    0.1491   -3.7558   -2.7780 N   0  0  0  0  0  0  0  0  0  0  0  0
    0.3012   -5.1520   -2.3930 C   0  0  0  0  0  0  0  0  0  0  0  0
   -0.5542   -3.1793   -2.3074 H   0  0  0  0  0  0  0  0  0  0  0  0
    0.2500   -5.8000   -3.2742 H   0  0  0  0  0  0  0  0  0  0  0  0
    1.2630   -5.3093   -1.8938 H   0  0  0  0  0  0  0  0  0  0  0  0
   -0.4980   -5.4416   -1.7040 H   0  0  0  0  0  0  0  0  0  0  0  0
  1  2  2  0  0  0  0
  1  3  1  0  0  0  0
  1  7  1  0  0  0  0
  3  4  1  0  0  0  0
  3  5  1  0  0  0  0
  3  6  1  0  0  0  0
  7  8  1  0  0  0  0
  7 12  1  0  0  0  0
  8  9  1  0  0  0  0
  8 11  1  0  0  0  0
  8 13  1  0  0  0  0
  9 10  2  0  0  0  0
  9 17  1  0  0  0  0
 11 14  1  0  0  0  0
 11 15  1  0  0  0  0
 11 16  1  0  0  0  0
 17 18  1  0  0  0  0
 17 28  1  0  0  0  0
 18 19  1  0  0  0  0
 18 21  1  0  0  0  0
 18 29  1  0  0  0  0
 19 20  2  0  0  0  0
 19 37  1  0  0  0  0
 21 22  1  0  0  0  0
 21 30  1  0  0  0  0
 21 31  1  0  0  0  0
 22 23  1  0  0  0  0
 22 24  2  0  0  0  0
 23 25  2  0  0  0  0
 23 32  1  0  0  0  0
 24 26  1  0  0  0  0
 24 33  1  0  0  0  0
 25 27  1  0  0  0  0
 25 34  1  0  0  0  0
 26 27  2  0  0  0  0
 26 35  1  0  0  0  0
 27 36  1  0  0  0  0
 37 38  1  0  0  0  0
 37 42  1  0  0  0  0
 38 39  1  0  0  0  0
 38 41  1  0  0  0  0
 38 43  1  0  0  0  0
 39 40  2  0  0  0  0
 39 47  1  0  0  0  0
 41 44  1  0  0  0  0
 41 45  1  0  0  0  0
 41 46  1  0  0  0  0
 47 48  1  0  0  0  0
 47 49  1  0  0  0  0
 48 50  1  0  0  0  0
 48 51  1  0  0  0  0
 48 52  1  0  0  0  0
M  END
$$$$

  -OEChem-05262217163D

 52 52  0     1  0  0  0  0  0999 V2000
   -1.9387    1.4328    4.5062 C   0  0  0  0  0  0  0  0  0  0  0  0
   -0.9623    2.1479    4.3538 O   0  0  0  0  0  0  0  0  0  0  0  0
   -2.2294    0.8572    5.8795 C   0  0  0  0  0  0  0  0  0  0  0  0
   -2.1614   -0.2331    5.8465 H   0  0  0  0  0  0  0  0  0  0  0  0
   -1.5045    1.2325    6.6073 H   0  0  0  0  0  0  0  0  0  0  0  0
   -3.2328    1.1450    6.2021 H   0  0  0  0  0  0  0  0  0  0  0  0
   -2.7835    1.1179    3.4574 N   0  0  0  0  0  0  0  0  0  0  0  0
   -2.4710    1.3262    2.0290 C   0  0  2  0  0  0  0  0  0  0  0  0
   -1.3080    0.4383    1.5186 C   0  0  0  0  0  0  0  0  0  0  0  0
   -1.0293   -0.5881    2.1266 O   0  0  0  0  0  0  0  0  0  0  0  0
   -2.2498    2.8153    1.7104 C   0  0  0  0  0  0  0  0  0  0  0  0
   -3.4517    0.3833    3.6697 H   0  0  0  0  0  0  0  0  0  0  0  0
   -3.3547    1.0137    1.4649 H   0  0  0  0  0  0  0  0  0  0  0  0
   -1.2655    3.1503    2.0521 H   0  0  0  0  0  0  0  0  0  0  0  0
   -2.3129    2.9901    0.6326 H   0  0  0  0  0  0  0  0  0  0  0  0
   -3.0144    3.4253    2.2010 H   0  0  0  0  0  0  0  0  0  0  0  0
   -0.8022    0.6368    0.2437 N   0  0  0  0  0  0  0  0  0  0  0  0
    0.4488    0.1064   -0.3511 C   0  0  2  0  0  0  0  0  0  0  0  0
    0.1838   -0.7750   -1.5915 C   0  0  0  0  0  0  0  0  0  0  0  0
   -0.9516   -1.1197   -1.9019 O   0  0  0  0  0  0  0  0  0  0  0  0
    1.5444   -0.4679    0.5852 C   0  0  0  0  0  0  0  0  0  0  0  0
    2.1602    0.6212    1.4408 C   0  0  0  0  0  0  0  0  0  0  0  0
    3.1587    1.4476    0.8973 C   0  0  0  0  0  0  0  0  0  0  0  0
    1.7782    0.8225    2.7757 C   0  0  0  0  0  0  0  0  0  0  0  0
    3.7360    2.4698    1.6592 C   0  0  0  0  0  0  0  0  0  0  0  0
    2.3459    1.8492    3.5356 C   0  0  0  0  0  0  0  0  0  0  0  0
    3.3245    2.6753    2.9785 C   0  0  0  0  0  0  0  0  0  0  0  0
   -1.2459    1.3942   -0.2656 H   0  0  0  0  0  0  0  0  0  0  0  0
    0.9214    0.9927   -0.7839 H   0  0  0  0  0  0  0  0  0  0  0  0
    2.3418   -0.9215   -0.0103 H   0  0  0  0  0  0  0  0  0  0  0  0
    1.1402   -1.2702    1.2084 H   0  0  0  0  0  0  0  0  0  0  0  0
    3.4910    1.3038   -0.1255 H   0  0  0  0  0  0  0  0  0  0  0  0
    1.0299    0.1901    3.2417 H   0  0  0  0  0  0  0  0  0  0  0  0
    4.5023    3.1065    1.2273 H   0  0  0  0  0  0  0  0  0  0  0  0
    2.0131    2.0036    4.5582 H   0  0  0  0  0  0  0  0  0  0  0  0
    3.7624    3.4722    3.5721 H   0  0  0  0  0  0  0  0  0  0  0  0
    1.2163   -1.1021   -2.4542 N   0  0  0  0  0  0  0  0  0  0  0  0
    1.0510   -1.9426   -3.6509 C   0  0  2  0  0  0  0  0  0  0  0  0
    0.9192   -3.4445   -3.2990 C   0  0  0  0  0  0  0  0  0  0  0  0
    1.7554   -4.2652   -3.6568 O   0  0  0  0  0  0  0  0  0  0  0  0
    2.2310   -1.6484   -4.5853 C   0  0  0  0  0  0  0  0  0  0  0  0
    2.1617   -0.8967   -2.1447 H   0  0  0  0  0  0  0  0  0  0  0  0
    0.1338   -1.6563   -4.1765 H   0  0  0  0  0  0  0  0  0  0  0  0
    3.1790   -1.9170   -4.1083 H   0  0  0  0  0  0  0  0  0  0  0  0
    2.1342   -2.2268   -5.5098 H   0  0  0  0  0  0  0  0  0  0  0  0
    2.2565   -0.5858   -4.8447 H   0  0  0  0  0  0  0  0  0  0  0  0
   -0.1579   -3.8636   -2.5437 N   0  0  0  0  0  0  0  0  0  0  0  0
   -0.3536   -5.2345   -2.0937 C   0  0  0  0  0  0  0  0  0  0  0  0
   -0.7911   -3.1304   -2.2131 H   0  0  0  0  0  0  0  0  0  0  0  0
   -0.4329   -5.9108   -2.9512 H   0  0  0  0  0  0  0  0  0  0  0  0
    0.4847   -5.5554   -1.4667 H   0  0  0  0  0  0  0  0  0  0  0  0
   -1.2741   -5.3107   -1.5071 H   0  0  0  0  0  0  0  0  0  0  0  0
  1  2  2  0  0  0  0
  1  3  1  0  0  0  0
  1  7  1  0  0  0  0
  3  4  1  0  0  0  0
  3  5  1  0  0  0  0
  3  6  1  0  0  0  0
  7  8  1  0  0  0  0
  7 12  1  0  0  0  0
  8  9  1  0  0  0  0
  8 11  1  0  0  0  0
  8 13  1  0  0  0  0
  9 10  2  0  0  0  0
  9 17  1  0  0  0  0
 11 14  1  0  0  0  0
 11 15  1  0  0  0  0
 11 16  1  0  0  0  0
 17 18  1  0  0  0  0
 17 28  1  0  0  0  0
 18 19  1  0  0  0  0
 18 21  1  0  0  0  0
 18 29  1  0  0  0  0
 19 20  2  0  0  0  0
 19 37  1  0  0  0  0
 21 22  1  0  0  0  0
 21 30  1  0  0  0  0
 21 31  1  0  0  0  0
 22 23  1  0  0  0  0
 22 24  2  0  0  0  0
 23 25  2  0  0  0  0
 23 32  1  0  0  0  0
 24 26  1  0  0  0  0
 24 33  1  0  0  0  0
 25 27  1  0  0  0  0
 25 34  1  0  0  0  0
 26 27  2  0  0  0  0
 26 35  1  0  0  0  0
 27 36  1  0  0  0  0
 37 38  1  0  0  0  0
 37 42  1  0  0  0  0
 38 39  1  0  0  0  0
 38 41  1  0  0  0  0
 38 43  1  0  0  0  0
 39 40  2  0  0  0  0
 39 47  1  0  0  0  0
 41 44  1  0  0  0  0
 41 45  1  0  0  0  0
 41 46  1  0  0  0  0
 47 48  1  0  0  0  0
 47 49  1  0  0  0  0
 48 50  1  0  0  0  0
 48 51  1  0  0  0  0
 48 52  1  0  0  0  0
M  END
$$$$

  -OEChem-05262217163D

 52 52  0     1  0  0  0  0  0999 V2000
   -2.9710    1.8371    4.3497 C   0  0  0  0  0  0  0  0  0  0  0  0
   -3.3958    2.9400    4.0447 O   0  0  0  0  0  0  0  0  0  0  0  0
   -3.4377    1.1721    5.6307 C   0  0  0  0  0  0  0  0  0  0  0  0
   -3.9816    0.2533    5.3977 H   0  0  0  0  0  0  0  0  0  0  0  0
   -2.5780    0.9292    6.2598 H   0  0  0  0  0  0  0  0  0  0  0  0
   -4.1006    1.8436    6.1836 H   0  0  0  0  0  0  0  0  0  0  0  0
   -2.0832    1.1784    3.5260 N   0  0  0  0  0  0  0  0  0  0  0  0
   -1.7367    1.6238    2.1693 C   0  0  2  0  0  0  0  0  0  0  0  0
   -1.3118    0.4342    1.2785 C   0  0  0  0  0  0  0  0  0  0  0  0
   -1.5731   -0.7170    1.6078 O   0  0  0  0  0  0  0  0  0  0  0  0
   -0.6461    2.6999    2.2485 C   0  0  0  0  0  0  0  0  0  0  0  0
   -1.9103    0.1972    3.7374 H   0  0  0  0  0  0  0  0  0  0  0  0
   -2.6207    2.0653    1.6965 H   0  0  0  0  0  0  0  0  0  0  0  0
    0.2416    2.3175    2.7567 H   0  0  0  0  0  0  0  0  0  0  0  0
   -0.3597    3.0319    1.2462 H   0  0  0  0  0  0  0  0  0  0  0  0
   -1.0110    3.5693    2.8040 H   0  0  0  0  0  0  0  0  0  0  0  0
   -0.9753    0.6289   -0.0400 N   0  0  0  0  0  0  0  0  0  0  0  0
    0.3494    0.3058   -0.6163 C   0  0  2  0  0  0  0  0  0  0  0  0
    0.1299   -0.4267   -1.9635 C   0  0  0  0  0  0  0  0  0  0  0  0
   -1.0074   -0.6651   -2.3595 O   0  0  0  0  0  0  0  0  0  0  0  0
    1.3273   -0.5469    0.2444 C   0  0  0  0  0  0  0  0  0  0  0  0
    1.8396    0.1392    1.4916 C   0  0  0  0  0  0  0  0  0  0  0  0
    2.9010    1.0525    1.3973 C   0  0  0  0  0  0  0  0  0  0  0  0
    1.3989   -0.2471    2.7688 C   0  0  0  0  0  0  0  0  0  0  0  0
    3.4501    1.6320    2.5461 C   0  0  0  0  0  0  0  0  0  0  0  0
    1.9483    0.3275    3.9198 C   0  0  0  0  0  0  0  0  0  0  0  0
    2.9685    1.2755    3.8085 C   0  0  0  0  0  0  0  0  0  0  0  0
   -1.7003    0.2075   -0.6265 H   0  0  0  0  0  0  0  0  0  0  0  0
    0.8482    1.2528   -0.8424 H   0  0  0  0  0  0  0  0  0  0  0  0
    2.2016   -0.8272   -0.3502 H   0  0  0  0  0  0  0  0  0  0  0  0
    0.8257   -1.4807    0.5217 H   0  0  0  0  0  0  0  0  0  0  0  0
    3.3019    1.3258    0.4263 H   0  0  0  0  0  0  0  0  0  0  0  0
    0.6330   -1.0096    2.8762 H   0  0  0  0  0  0  0  0  0  0  0  0
    4.2577    2.3530    2.4593 H   0  0  0  0  0  0  0  0  0  0  0  0
    1.5889    0.0293    4.9001 H   0  0  0  0  0  0  0  0  0  0  0  0
    3.3970    1.7220    4.7013 H   0  0  0  0  0  0  0  0  0  0  0  0
    1.1913   -0.8564   -2.7415 N   0  0  0  0  0  0  0  0  0  0  0  0
    1.0397   -1.6384   -3.9786 C   0  0  2  0  0  0  0  0  0  0  0  0
    0.7276   -3.1269   -3.6898 C   0  0  0  0  0  0  0  0  0  0  0  0
    1.5198   -4.0169   -3.9738 O   0  0  0  0  0  0  0  0  0  0  0  0
    2.3172   -1.4431   -4.8047 C   0  0  0  0  0  0  0  0  0  0  0  0
    2.1261   -0.7490   -2.3587 H   0  0  0  0  0  0  0  0  0  0  0  0
    0.2036   -1.2421   -4.5650 H   0  0  0  0  0  0  0  0  0  0  0  0
    3.1891   -1.8306   -4.2680 H   0  0  0  0  0  0  0  0  0  0  0  0
    2.2356   -1.9742   -5.7585 H   0  0  0  0  0  0  0  0  0  0  0  0
    2.4780   -0.3812   -5.0144 H   0  0  0  0  0  0  0  0  0  0  0  0
   -0.4535   -3.4516   -3.0526 N   0  0  0  0  0  0  0  0  0  0  0  0
   -0.8097   -4.8001   -2.6337 C   0  0  0  0  0  0  0  0  0  0  0  0
   -1.0412   -2.6655   -2.7636 H   0  0  0  0  0  0  0  0  0  0  0  0
   -0.8720   -5.4663   -3.5004 H   0  0  0  0  0  0  0  0  0  0  0  0
   -0.0631   -5.1949   -1.9366 H   0  0  0  0  0  0  0  0  0  0  0  0
   -1.7823   -4.7934   -2.1322 H   0  0  0  0  0  0  0  0  0  0  0  0
  1  2  2  0  0  0  0
  1  3  1  0  0  0  0
  1  7  1  0  0  0  0
  3  4  1  0  0  0  0
  3  5  1  0  0  0  0
  3  6  1  0  0  0  0
  7  8  1  0  0  0  0
  7 12  1  0  0  0  0
  8  9  1  0  0  0  0
  8 11  1  0  0  0  0
  8 13  1  0  0  0  0
  9 10  2  0  0  0  0
  9 17  1  0  0  0  0
 11 14  1  0  0  0  0
 11 15  1  0  0  0  0
 11 16  1  0  0  0  0
 17 18  1  0  0  0  0
 17 28  1  0  0  0  0
 18 19  1  0  0  0  0
 18 21  1  0  0  0  0
 18 29  1  0  0  0  0
 19 20  2  0  0  0  0
 19 37  1  0  0  0  0
 21 22  1  0  0  0  0
 21 30  1  0  0  0  0
 21 31  1  0  0  0  0
 22 23  1  0  0  0  0
 22 24  2  0  0  0  0
 23 25  2  0  0  0  0
 23 32  1  0  0  0  0
 24 26  1  0  0  0  0
 24 33  1  0  0  0  0
 25 27  1  0  0  0  0
 25 34  1  0  0  0  0
 26 27  2  0  0  0  0
 26 35  1  0  0  0  0
 27 36  1  0  0  0  0
 37 38  1  0  0  0  0
 37 42  1  0  0  0  0
 38 39  1  0  0  0  0
 38 41  1  0  0  0  0
 38 43  1  0  0  0  0
 39 40  2  0  0  0  0
 39 47  1  0  0  0  0
 41 44  1  0  0  0  0
 41 45  1  0  0  0  0
 41 46  1  0  0  0  0
 47 48  1  0  0  0  0
 47 49  1  0  0  0  0
 48 50  1  0  0  0  0
 48 51  1  0  0  0  0
 48 52  1  0  0  0  0
M  END
$$$$

  -OEChem-05262217163D

 52 52  0     1  0  0  0  0  0999 V2000
   -3.7624    1.3804    3.9958 C   0  0  0  0  0  0  0  0  0  0  0  0
   -4.3696    2.2718    3.4241 O   0  0  0  0  0  0  0  0  0  0  0  0
   -4.3619    0.7126    5.2189 C   0  0  0  0  0  0  0  0  0  0  0  0
   -4.5131   -0.3524    5.0264 H   0  0  0  0  0  0  0  0  0  0  0  0
   -3.6912    0.8301    6.0734 H   0  0  0  0  0  0  0  0  0  0  0  0
   -5.3260    1.1679    5.4626 H   0  0  0  0  0  0  0  0  0  0  0  0
   -2.5315    0.9738    3.5271 N   0  0  0  0  0  0  0  0  0  0  0  0
   -1.9266    1.4417    2.2731 C   0  0  2  0  0  0  0  0  0  0  0  0
   -0.9686    0.3912    1.6736 C   0  0  0  0  0  0  0  0  0  0  0  0
   -0.6944   -0.6144    2.3171 O   0  0  0  0  0  0  0  0  0  0  0  0
   -1.1681    2.7444    2.5486 C   0  0  0  0  0  0  0  0  0  0  0  0
   -2.1216    0.1410    3.9488 H   0  0  0  0  0  0  0  0  0  0  0  0
   -2.7142    1.6295    1.5353 H   0  0  0  0  0  0  0  0  0  0  0  0
   -0.3733    2.5767    3.2828 H   0  0  0  0  0  0  0  0  0  0  0  0
   -0.7168    3.1289    1.6290 H   0  0  0  0  0  0  0  0  0  0  0  0
   -1.8505    3.5055    2.9398 H   0  0  0  0  0  0  0  0  0  0  0  0
   -0.5574    0.5047    0.3595 N   0  0  0  0  0  0  0  0  0  0  0  0
    0.6852    0.0151   -0.2814 C   0  0  2  0  0  0  0  0  0  0  0  0
    0.3655   -0.6730   -1.6296 C   0  0  0  0  0  0  0  0  0  0  0  0
   -0.6836   -0.4169   -2.2122 O   0  0  0  0  0  0  0  0  0  0  0  0
    1.7764   -0.6951    0.5698 C   0  0  0  0  0  0  0  0  0  0  0  0
    2.4409    0.2480    1.5574 C   0  0  0  0  0  0  0  0  0  0  0  0
    3.4594    1.1021    1.1012 C   0  0  0  0  0  0  0  0  0  0  0  0
    2.1830    0.2029    2.9374 C   0  0  0  0  0  0  0  0  0  0  0  0
    4.1364    1.9510    1.9832 C   0  0  0  0  0  0  0  0  0  0  0  0
    2.8574    1.0493    3.8232 C   0  0  0  0  0  0  0  0  0  0  0  0
    3.8285    1.9320    3.3455 C   0  0  0  0  0  0  0  0  0  0  0  0
   -1.0614    1.2079   -0.1760 H   0  0  0  0  0  0  0  0  0  0  0  0
    1.1878    0.9309   -0.6058 H   0  0  0  0  0  0  0  0  0  0  0  0
    2.5628   -1.0939   -0.0758 H   0  0  0  0  0  0  0  0  0  0  0  0
    1.3377   -1.5502    1.0939 H   0  0  0  0  0  0  0  0  0  0  0  0
    3.7238    1.1211    0.0485 H   0  0  0  0  0  0  0  0  0  0  0  0
    1.4716   -0.5077    3.3437 H   0  0  0  0  0  0  0  0  0  0  0  0
    4.9063    2.6206    1.6109 H   0  0  0  0  0  0  0  0  0  0  0  0
    2.6345    1.0075    4.8853 H   0  0  0  0  0  0  0  0  0  0  0  0
    4.3546    2.5872    4.0340 H   0  0  0  0  0  0  0  0  0  0  0  0
    1.2825   -1.4790   -2.2832 N   0  0  0  0  0  0  0  0  0  0  0  0
    1.0452   -2.1063   -3.5937 C   0  0  2  0  0  0  0  0  0  0  0  0
    0.1076   -3.3355   -3.5026 C   0  0  0  0  0  0  0  0  0  0  0  0
    0.4836   -4.4564   -3.8229 O   0  0  0  0  0  0  0  0  0  0  0  0
    2.4177   -2.4425   -4.1919 C   0  0  0  0  0  0  0  0  0  0  0  0
    2.1006   -1.7727   -1.7576 H   0  0  0  0  0  0  0  0  0  0  0  0
    0.5603   -1.3857   -4.2611 H   0  0  0  0  0  0  0  0  0  0  0  0
    2.9441   -3.1712   -3.5669 H   0  0  0  0  0  0  0  0  0  0  0  0
    2.3001   -2.8682   -5.1936 H   0  0  0  0  0  0  0  0  0  0  0  0
    3.0314   -1.5400   -4.2714 H   0  0  0  0  0  0  0  0  0  0  0  0
   -1.1831   -3.1633   -3.0433 N   0  0  0  0  0  0  0  0  0  0  0  0
   -2.1467   -4.2437   -2.8876 C   0  0  0  0  0  0  0  0  0  0  0  0
   -1.4360   -2.2165   -2.7489 H   0  0  0  0  0  0  0  0  0  0  0  0
   -2.3769   -4.6927   -3.8592 H   0  0  0  0  0  0  0  0  0  0  0  0
   -1.7501   -5.0196   -2.2245 H   0  0  0  0  0  0  0  0  0  0  0  0
   -3.0756   -3.8607   -2.4542 H   0  0  0  0  0  0  0  0  0  0  0  0
  1  2  2  0  0  0  0
  1  3  1  0  0  0  0
  1  7  1  0  0  0  0
  3  4  1  0  0  0  0
  3  5  1  0  0  0  0
  3  6  1  0  0  0  0
  7  8  1  0  0  0  0
  7 12  1  0  0  0  0
  8  9  1  0  0  0  0
  8 11  1  0  0  0  0
  8 13  1  0  0  0  0
  9 10  2  0  0  0  0
  9 17  1  0  0  0  0
 11 14  1  0  0  0  0
 11 15  1  0  0  0  0
 11 16  1  0  0  0  0
 17 18  1  0  0  0  0
 17 28  1  0  0  0  0
 18 19  1  0  0  0  0
 18 21  1  0  0  0  0
 18 29  1  0  0  0  0
 19 20  2  0  0  0  0
 19 37  1  0  0  0  0
 21 22  1  0  0  0  0
 21 30  1  0  0  0  0
 21 31  1  0  0  0  0
 22 23  1  0  0  0  0
 22 24  2  0  0  0  0
 23 25  2  0  0  0  0
 23 32  1  0  0  0  0
 24 26  1  0  0  0  0
 24 33  1  0  0  0  0
 25 27  1  0  0  0  0
 25 34  1  0  0  0  0
 26 27  2  0  0  0  0
 26 35  1  0  0  0  0
 27 36  1  0  0  0  0
 37 38  1  0  0  0  0
 37 42  1  0  0  0  0
 38 39  1  0  0  0  0
 38 41  1  0  0  0  0
 38 43  1  0  0  0  0
 39 40  2  0  0  0  0
 39 47  1  0  0  0  0
 41 44  1  0  0  0  0
 41 45  1  0  0  0  0
 41 46  1  0  0  0  0
 47 48  1  0  0  0  0
 47 49  1  0  0  0  0
 48 50  1  0  0  0  0
 48 51  1  0  0  0  0
 48 52  1  0  0  0  0
M  END
$$$$

  -OEChem-05262217163D

 52 52  0     1  0  0  0  0  0999 V2000
   -3.7848    1.3398    3.9918 C   0  0  0  0  0  0  0  0  0  0  0  0
   -4.4077    2.2070    3.3999 O   0  0  0  0  0  0  0  0  0  0  0  0
   -4.3725    0.6901    5.2301 C   0  0  0  0  0  0  0  0  0  0  0  0
   -4.4526   -0.3895    5.0830 H   0  0  0  0  0  0  0  0  0  0  0  0
   -3.7329    0.8873    6.0939 H   0  0  0  0  0  0  0  0  0  0  0  0
   -5.3693    1.0930    5.4305 H   0  0  0  0  0  0  0  0  0  0  0  0
   -2.5474    0.9425    3.5321 N   0  0  0  0  0  0  0  0  0  0  0  0
   -1.9471    1.3964    2.2707 C   0  0  2  0  0  0  0  0  0  0  0  0
   -0.9746    0.3505    1.6866 C   0  0  0  0  0  0  0  0  0  0  0  0
   -0.6769   -0.6373    2.3467 O   0  0  0  0  0  0  0  0  0  0  0  0
   -1.2071    2.7133    2.5280 C   0  0  0  0  0  0  0  0  0  0  0  0
   -2.1197    0.1318    3.9782 H   0  0  0  0  0  0  0  0  0  0  0  0
   -2.7358    1.5636    1.5292 H   0  0  0  0  0  0  0  0  0  0  0  0
   -0.4063    2.5662    3.2601 H   0  0  0  0  0  0  0  0  0  0  0  0
   -0.7661    3.0936    1.6017 H   0  0  0  0  0  0  0  0  0  0  0  0
   -1.8990    3.4685    2.9144 H   0  0  0  0  0  0  0  0  0  0  0  0
   -0.5690    0.4471    0.3693 N   0  0  0  0  0  0  0  0  0  0  0  0
    0.6904   -0.0159   -0.2577 C   0  0  2  0  0  0  0  0  0  0  0  0
    0.3868   -0.7455   -1.5862 C   0  0  0  0  0  0  0  0  0  0  0  0
   -0.5497   -0.3642   -2.2811 O   0  0  0  0  0  0  0  0  0  0  0  0
    1.8050   -0.6710    0.6067 C   0  0  0  0  0  0  0  0  0  0  0  0
    2.4383    0.3138    1.5732 C   0  0  0  0  0  0  0  0  0  0  0  0
    3.4278    1.1913    1.0976 C   0  0  0  0  0  0  0  0  0  0  0  0
    2.1758    0.2948    2.9529 C   0  0  0  0  0  0  0  0  0  0  0  0
    4.0729    2.0842    1.9598 C   0  0  0  0  0  0  0  0  0  0  0  0
    2.8158    1.1878    3.8182 C   0  0  0  0  0  0  0  0  0  0  0  0
    3.7583    2.0904    3.3205 C   0  0  0  0  0  0  0  0  0  0  0  0
   -1.0805    1.1391   -0.1741 H   0  0  0  0  0  0  0  0  0  0  0  0
    1.1648    0.9073   -0.6039 H   0  0  0  0  0  0  0  0  0  0  0  0
    2.6037   -1.0517   -0.0361 H   0  0  0  0  0  0  0  0  0  0  0  0
    1.3974   -1.5303    1.1485 H   0  0  0  0  0  0  0  0  0  0  0  0
    3.6941    1.1934    0.0449 H   0  0  0  0  0  0  0  0  0  0  0  0
    1.4866   -0.4285    3.3746 H   0  0  0  0  0  0  0  0  0  0  0  0
    4.8219    2.7692    1.5734 H   0  0  0  0  0  0  0  0  0  0  0  0
    2.5889    1.1680    4.8802 H   0  0  0  0  0  0  0  0  0  0  0  0
    4.2573    2.7820    3.9930 H   0  0  0  0  0  0  0  0  0  0  0  0
    1.1853   -1.7651   -2.0753 N   0  0  0  0  0  0  0  0  0  0  0  0
    0.9639   -2.4449   -3.3614 C   0  0  2  0  0  0  0  0  0  0  0  0
   -0.1867   -3.4788   -3.2946 C   0  0  0  0  0  0  0  0  0  0  0  0
    0.0110   -4.6737   -3.4783 O   0  0  0  0  0  0  0  0  0  0  0  0
    2.3017   -3.0661   -3.7837 C   0  0  0  0  0  0  0  0  0  0  0  0
    1.8674   -2.1648   -1.4372 H   0  0  0  0  0  0  0  0  0  0  0  0
    0.6864   -1.7073   -4.1221 H   0  0  0  0  0  0  0  0  0  0  0  0
    2.6234   -3.8205   -3.0585 H   0  0  0  0  0  0  0  0  0  0  0  0
    2.2036   -3.5478   -4.7619 H   0  0  0  0  0  0  0  0  0  0  0  0
    3.0757   -2.2960   -3.8552 H   0  0  0  0  0  0  0  0  0  0  0  0
   -1.4650   -3.0437   -3.0060 N   0  0  0  0  0  0  0  0  0  0  0  0
   -2.6075   -3.9308   -2.8362 C   0  0  0  0  0  0  0  0  0  0  0  0
   -1.5647   -2.0483   -2.7913 H   0  0  0  0  0  0  0  0  0  0  0  0
   -2.7667   -4.5276   -3.7404 H   0  0  0  0  0  0  0  0  0  0  0  0
   -2.4439   -4.6070   -1.9907 H   0  0  0  0  0  0  0  0  0  0  0  0
   -3.5129   -3.3472   -2.6444 H   0  0  0  0  0  0  0  0  0  0  0  0
  1  2  2  0  0  0  0
  1  3  1  0  0  0  0
  1  7  1  0  0  0  0
  3  4  1  0  0  0  0
  3  5  1  0  0  0  0
  3  6  1  0  0  0  0
  7  8  1  0  0  0  0
  7 12  1  0  0  0  0
  8  9  1  0  0  0  0
  8 11  1  0  0  0  0
  8 13  1  0  0  0  0
  9 10  2  0  0  0  0
  9 17  1  0  0  0  0
 11 14  1  0  0  0  0
 11 15  1  0  0  0  0
 11 16  1  0  0  0  0
 17 18  1  0  0  0  0
 17 28  1  0  0  0  0
 18 19  1  0  0  0  0
 18 21  1  0  0  0  0
 18 29  1  0  0  0  0
 19 20  2  0  0  0  0
 19 37  1  0  0  0  0
 21 22  1  0  0  0  0
 21 30  1  0  0  0  0
 21 31  1  0  0  0  0
 22 23  1  0  0  0  0
 22 24  2  0  0  0  0
 23 25  2  0  0  0  0
 23 32  1  0  0  0  0
 24 26  1  0  0  0  0
 24 33  1  0  0  0  0
 25 27  1  0  0  0  0
 25 34  1  0  0  0  0
 26 27  2  0  0  0  0
 26 35  1  0  0  0  0
 27 36  1  0  0  0  0
 37 38  1  0  0  0  0
 37 42  1  0  0  0  0
 38 39  1  0  0  0  0
 38 41  1  0  0  0  0
 38 43  1  0  0  0  0
 39 40  2  0  0  0  0
 39 47  1  0  0  0  0
 41 44  1  0  0  0  0
 41 45  1  0  0  0  0
 41 46  1  0  0  0  0
 47 48  1  0  0  0  0
 47 49  1  0  0  0  0
 48 50  1  0  0  0  0
 48 51  1  0  0  0  0
 48 52  1  0  0  0  0
M  END
$$$$

  -OEChem-05262217163D

 52 52  0     1  0  0  0  0  0999 V2000
   -3.8314    1.4041    3.8751 C   0  0  0  0  0  0  0  0  0  0  0  0
   -4.4294    2.2684    3.2539 O   0  0  0  0  0  0  0  0  0  0  0  0
   -4.4607    0.7746    5.1038 C   0  0  0  0  0  0  0  0  0  0  0  0
   -4.6321   -0.2907    4.9312 H   0  0  0  0  0  0  0  0  0  0  0  0
   -3.7998    0.8957    5.9653 H   0  0  0  0  0  0  0  0  0  0  0  0
   -5.4180    1.2546    5.3252 H   0  0  0  0  0  0  0  0  0  0  0  0
   -2.5836    0.9933    3.4566 N   0  0  0  0  0  0  0  0  0  0  0  0
   -1.9424    1.4295    2.2089 C   0  0  2  0  0  0  0  0  0  0  0  0
   -0.9724    0.3644    1.6565 C   0  0  0  0  0  0  0  0  0  0  0  0
   -0.6913   -0.6143    2.3376 O   0  0  0  0  0  0  0  0  0  0  0  0
   -1.1875    2.7353    2.4783 C   0  0  0  0  0  0  0  0  0  0  0  0
   -2.1744    0.1856    3.9249 H   0  0  0  0  0  0  0  0  0  0  0  0
   -2.7085    1.6040    1.4456 H   0  0  0  0  0  0  0  0  0  0  0  0
   -0.4109    2.5797    3.2342 H   0  0  0  0  0  0  0  0  0  0  0  0
   -0.7131    3.1011    1.5628 H   0  0  0  0  0  0  0  0  0  0  0  0
   -1.8768    3.5051    2.8395 H   0  0  0  0  0  0  0  0  0  0  0  0
   -0.5598    0.4225    0.3391 N   0  0  0  0  0  0  0  0  0  0  0  0
    0.7133   -0.0495   -0.2509 C   0  0  2  0  0  0  0  0  0  0  0  0
    0.4303   -0.8295   -1.5524 C   0  0  0  0  0  0  0  0  0  0  0  0
   -0.3478   -0.3577   -2.3748 O   0  0  0  0  0  0  0  0  0  0  0  0
    1.8222   -0.6668    0.6457 C   0  0  0  0  0  0  0  0  0  0  0  0
    2.4362    0.3512    1.5903 C   0  0  0  0  0  0  0  0  0  0  0  0
    3.4247    1.2239    1.1042 C   0  0  0  0  0  0  0  0  0  0  0  0
    2.1518    0.3704    2.9656 C   0  0  0  0  0  0  0  0  0  0  0  0
    4.0521    2.1441    1.9513 C   0  0  0  0  0  0  0  0  0  0  0  0
    2.7751    1.2898    3.8157 C   0  0  0  0  0  0  0  0  0  0  0  0
    3.7207    2.1835    3.3077 C   0  0  0  0  0  0  0  0  0  0  0  0
   -1.0392    1.1308   -0.2127 H   0  0  0  0  0  0  0  0  0  0  0  0
    1.1855    0.8646   -0.6234 H   0  0  0  0  0  0  0  0  0  0  0  0
    2.6279   -1.0597    0.0173 H   0  0  0  0  0  0  0  0  0  0  0  0
    1.4173   -1.5132    1.2091 H   0  0  0  0  0  0  0  0  0  0  0  0
    3.7055    1.1991    0.0555 H   0  0  0  0  0  0  0  0  0  0  0  0
    1.4589   -0.3438    3.3966 H   0  0  0  0  0  0  0  0  0  0  0  0
    4.8023    2.8233    1.5568 H   0  0  0  0  0  0  0  0  0  0  0  0
    2.5320    1.2976    4.8742 H   0  0  0  0  0  0  0  0  0  0  0  0
    4.2081    2.8944    3.9687 H   0  0  0  0  0  0  0  0  0  0  0  0
    1.0444   -2.0355   -1.8428 N   0  0  0  0  0  0  0  0  0  0  0  0
    0.7994   -2.8127   -3.0681 C   0  0  2  0  0  0  0  0  0  0  0  0
   -0.5414   -3.5854   -3.0225 C   0  0  0  0  0  0  0  0  0  0  0  0
   -0.5809   -4.8095   -3.0484 O   0  0  0  0  0  0  0  0  0  0  0  0
    2.0097   -3.7321   -3.2746 C   0  0  0  0  0  0  0  0  0  0  0  0
    1.5461   -2.4889   -1.0839 H   0  0  0  0  0  0  0  0  0  0  0  0
    0.7482   -2.1342   -3.9264 H   0  0  0  0  0  0  0  0  0  0  0  0
    2.1025   -4.4403   -2.4449 H   0  0  0  0  0  0  0  0  0  0  0  0
    1.8982   -4.3013   -4.2031 H   0  0  0  0  0  0  0  0  0  0  0  0
    2.9303   -3.1443   -3.3395 H   0  0  0  0  0  0  0  0  0  0  0  0
   -1.7221   -2.8749   -2.9385 N   0  0  0  0  0  0  0  0  0  0  0  0
   -3.0340   -3.4917   -2.8005 C   0  0  0  0  0  0  0  0  0  0  0  0
   -1.6306   -1.8604   -2.8434 H   0  0  0  0  0  0  0  0  0  0  0  0
   -3.8117   -2.7224   -2.7798 H   0  0  0  0  0  0  0  0  0  0  0  0
   -3.2335   -4.1617   -3.6433 H   0  0  0  0  0  0  0  0  0  0  0  0
   -3.0898   -4.0676   -1.8709 H   0  0  0  0  0  0  0  0  0  0  0  0
  1  2  2  0  0  0  0
  1  3  1  0  0  0  0
  1  7  1  0  0  0  0
  3  4  1  0  0  0  0
  3  5  1  0  0  0  0
  3  6  1  0  0  0  0
  7  8  1  0  0  0  0
  7 12  1  0  0  0  0
  8  9  1  0  0  0  0
  8 11  1  0  0  0  0
  8 13  1  0  0  0  0
  9 10  2  0  0  0  0
  9 17  1  0  0  0  0
 11 14  1  0  0  0  0
 11 15  1  0  0  0  0
 11 16  1  0  0  0  0
 17 18  1  0  0  0  0
 17 28  1  0  0  0  0
 18 19  1  0  0  0  0
 18 21  1  0  0  0  0
 18 29  1  0  0  0  0
 19 20  2  0  0  0  0
 19 37  1  0  0  0  0
 21 22  1  0  0  0  0
 21 30  1  0  0  0  0
 21 31  1  0  0  0  0
 22 23  1  0  0  0  0
 22 24  2  0  0  0  0
 23 25  2  0  0  0  0
 23 32  1  0  0  0  0
 24 26  1  0  0  0  0
 24 33  1  0  0  0  0
 25 27  1  0  0  0  0
 25 34  1  0  0  0  0
 26 27  2  0  0  0  0
 26 35  1  0  0  0  0
 27 36  1  0  0  0  0
 37 38  1  0  0  0  0
 37 42  1  0  0  0  0
 38 39  1  0  0  0  0
 38 41  1  0  0  0  0
 38 43  1  0  0  0  0
 39 40  2  0  0  0  0
 39 47  1  0  0  0  0
 41 44  1  0  0  0  0
 41 45  1  0  0  0  0
 41 46  1  0  0  0  0
 47 48  1  0  0  0  0
 47 49  1  0  0  0  0
 48 50  1  0  0  0  0
 48 51  1  0  0  0  0
 48 52  1  0  0  0  0
M  END
$$$$

  -OEChem-05262217163D

 52 52  0     1  0  0  0  0  0999 V2000
   -2.1782   -0.9887    1.5343 C   0  0  0  0  0  0  0  0  0  0  0  0
   -2.4926   -0.9238    0.3611 O   0  0  0  0  0  0  0  0  0  0  0  0
   -2.1229   -2.3343    2.2326 C   0  0  0  0  0  0  0  0  0  0  0  0
   -2.4152   -3.1295    1.5391 H   0  0  0  0  0  0  0  0  0  0  0  0
   -1.1099   -2.5340    2.5889 H   0  0  0  0  0  0  0  0  0  0  0  0
   -2.8093   -2.3427    3.0827 H   0  0  0  0  0  0  0  0  0  0  0  0
   -1.8128    0.1610    2.2054 N   0  0  0  0  0  0  0  0  0  0  0  0
   -2.0084    1.5082    1.6436 C   0  0  2  0  0  0  0  0  0  0  0  0
   -0.8457    2.0746    0.7778 C   0  0  0  0  0  0  0  0  0  0  0  0
   -0.7120    3.2843    0.6747 O   0  0  0  0  0  0  0  0  0  0  0  0
   -2.3650    2.4302    2.8193 C   0  0  0  0  0  0  0  0  0  0  0  0
   -1.6549    0.0746    3.2046 H   0  0  0  0  0  0  0  0  0  0  0  0
   -2.8806    1.4872    0.9805 H   0  0  0  0  0  0  0  0  0  0  0  0
   -1.5159    2.5462    3.4983 H   0  0  0  0  0  0  0  0  0  0  0  0
   -2.6491    3.4220    2.4524 H   0  0  0  0  0  0  0  0  0  0  0  0
   -3.2114    2.0230    3.3811 H   0  0  0  0  0  0  0  0  0  0  0  0
   -0.3082    1.4058   -0.2978 N   0  0  0  0  0  0  0  0  0  0  0  0
    0.8071    0.4347   -0.2695 C   0  0  2  0  0  0  0  0  0  0  0  0
    0.4687   -0.8049   -1.1296 C   0  0  0  0  0  0  0  0  0  0  0  0
    0.2876   -0.6764   -2.3344 O   0  0  0  0  0  0  0  0  0  0  0  0
    1.4177    0.0399    1.1014 C   0  0  0  0  0  0  0  0  0  0  0  0
    2.1424    1.1785    1.7817 C   0  0  0  0  0  0  0  0  0  0  0  0
    3.4550    1.4964    1.3985 C   0  0  0  0  0  0  0  0  0  0  0  0
    1.5688    1.8714    2.8581 C   0  0  0  0  0  0  0  0  0  0  0  0
    4.1596    2.5178    2.0446 C   0  0  0  0  0  0  0  0  0  0  0  0
    2.2690    2.8952    3.5041 C   0  0  0  0  0  0  0  0  0  0  0  0
    3.5643    3.2219    3.0948 C   0  0  0  0  0  0  0  0  0  0  0  0
   -0.2177    2.0632   -1.0696 H   0  0  0  0  0  0  0  0  0  0  0  0
    1.6266    0.9202   -0.8092 H   0  0  0  0  0  0  0  0  0  0  0  0
    2.1465   -0.7631    0.9483 H   0  0  0  0  0  0  0  0  0  0  0  0
    0.6469   -0.3581    1.7614 H   0  0  0  0  0  0  0  0  0  0  0  0
    3.9339    0.9565    0.5871 H   0  0  0  0  0  0  0  0  0  0  0  0
    0.5738    1.6187    3.2028 H   0  0  0  0  0  0  0  0  0  0  0  0
    5.1691    2.7656    1.7294 H   0  0  0  0  0  0  0  0  0  0  0  0
    1.8073    3.4373    4.3239 H   0  0  0  0  0  0  0  0  0  0  0  0
    4.1082    4.0187    3.5937 H   0  0  0  0  0  0  0  0  0  0  0  0
    0.4160   -2.0794   -0.5904 N   0  0  0  0  0  0  0  0  0  0  0  0
    0.1041   -3.2889   -1.3646 C   0  0  2  0  0  0  0  0  0  0  0  0
   -1.4153   -3.4622   -1.5927 C   0  0  0  0  0  0  0  0  0  0  0  0
   -2.0383   -4.3760   -1.0615 O   0  0  0  0  0  0  0  0  0  0  0  0
    0.7387   -4.4765   -0.6306 C   0  0  0  0  0  0  0  0  0  0  0  0
    0.3879   -2.1442    0.4204 H   0  0  0  0  0  0  0  0  0  0  0  0
    0.5706   -3.2242   -2.3536 H   0  0  0  0  0  0  0  0  0  0  0  0
    0.3051   -4.5908    0.3681 H   0  0  0  0  0  0  0  0  0  0  0  0
    0.5670   -5.4016   -1.1904 H   0  0  0  0  0  0  0  0  0  0  0  0
    1.8182   -4.3296   -0.5307 H   0  0  0  0  0  0  0  0  0  0  0  0
   -2.0709   -2.5612   -2.4066 N   0  0  0  0  0  0  0  0  0  0  0  0
   -3.5216   -2.5084   -2.5190 C   0  0  0  0  0  0  0  0  0  0  0  0
   -1.5344   -1.7235   -2.6435 H   0  0  0  0  0  0  0  0  0  0  0  0
   -3.9164   -3.4717   -2.8575 H   0  0  0  0  0  0  0  0  0  0  0  0
   -3.9718   -2.2629   -1.5517 H   0  0  0  0  0  0  0  0  0  0  0  0
   -3.8149   -1.7426   -3.2433 H   0  0  0  0  0  0  0  0  0  0  0  0
  1  2  2  0  0  0  0
  1  3  1  0  0  0  0
  1  7  1  0  0  0  0
  3  4  1  0  0  0  0
  3  5  1  0  0  0  0
  3  6  1  0  0  0  0
  7  8  1  0  0  0  0
  7 12  1  0  0  0  0
  8  9  1  0  0  0  0
  8 11  1  0  0  0  0
  8 13  1  0  0  0  0
  9 10  2  0  0  0  0
  9 17  1  0  0  0  0
 11 14  1  0  0  0  0
 11 15  1  0  0  0  0
 11 16  1  0  0  0  0
 17 18  1  0  0  0  0
 17 28  1  0  0  0  0
 18 19  1  0  0  0  0
 18 21  1  0  0  0  0
 18 29  1  0  0  0  0
 19 20  2  0  0  0  0
 19 37  1  0  0  0  0
 21 22  1  0  0  0  0
 21 30  1  0  0  0  0
 21 31  1  0  0  0  0
 22 23  1  0  0  0  0
 22 24  2  0  0  0  0
 23 25  2  0  0  0  0
 23 32  1  0  0  0  0
 24 26  1  0  0  0  0
 24 33  1  0  0  0  0
 25 27  1  0  0  0  0
 25 34  1  0  0  0  0
 26 27  2  0  0  0  0
 26 35  1  0  0  0  0
 27 36  1  0  0  0  0
 37 38  1  0  0  0  0
 37 42  1  0  0  0  0
 38 39  1  0  0  0  0
 38 41  1  0  0  0  0
 38 43  1  0  0  0  0
 39 40  2  0  0  0  0
 39 47  1  0  0  0  0
 41 44  1  0  0  0  0
 41 45  1  0  0  0  0
 41 46  1  0  0  0  0
 47 48  1  0  0  0  0
 47 49  1  0  0  0  0
 48 50  1  0  0  0  0
 48 51  1  0  0  0  0
 48 52  1  0  0  0  0
M  END
$$$$

  -OEChem-05262217163D

 52 52  0     1  0  0  0  0  0999 V2000
   -1.6780   -0.9265    2.8913 C   0  0  0  0  0  0  0  0  0  0  0  0
   -1.6077   -1.5822    1.8610 O   0  0  0  0  0  0  0  0  0  0  0  0
   -1.5590   -1.6154    4.2372 C   0  0  0  0  0  0  0  0  0  0  0  0
   -1.5119   -2.6999    4.1030 H   0  0  0  0  0  0  0  0  0  0  0  0
   -0.6515   -1.2841    4.7481 H   0  0  0  0  0  0  0  0  0  0  0  0
   -2.4264   -1.3771    4.8576 H   0  0  0  0  0  0  0  0  0  0  0  0
   -1.7713    0.4506    2.8325 N   0  0  0  0  0  0  0  0  0  0  0  0
   -2.0715    1.2022    1.6032 C   0  0  2  0  0  0  0  0  0  0  0  0
   -0.8515    1.8649    0.9026 C   0  0  0  0  0  0  0  0  0  0  0  0
   -0.6786    3.0731    0.9492 O   0  0  0  0  0  0  0  0  0  0  0  0
   -3.1486    2.2301    1.9756 C   0  0  0  0  0  0  0  0  0  0  0  0
   -1.8424    0.9433    3.7185 H   0  0  0  0  0  0  0  0  0  0  0  0
   -2.5199    0.5271    0.8653 H   0  0  0  0  0  0  0  0  0  0  0  0
   -2.7664    2.9424    2.7139 H   0  0  0  0  0  0  0  0  0  0  0  0
   -3.4620    2.7886    1.0877 H   0  0  0  0  0  0  0  0  0  0  0  0
   -4.0272    1.7292    2.3937 H   0  0  0  0  0  0  0  0  0  0  0  0
   -0.3545    1.2762   -0.2331 N   0  0  0  0  0  0  0  0  0  0  0  0
    0.7228    0.2679   -0.2252 C   0  0  2  0  0  0  0  0  0  0  0  0
    0.3423   -0.8983   -1.1532 C   0  0  0  0  0  0  0  0  0  0  0  0
    0.4535   -0.7748   -2.3674 O   0  0  0  0  0  0  0  0  0  0  0  0
    1.3901   -0.1697    1.1015 C   0  0  0  0  0  0  0  0  0  0  0  0
    2.1955    0.9368    1.7462 C   0  0  0  0  0  0  0  0  0  0  0  0
    3.4948    1.2032    1.2853 C   0  0  0  0  0  0  0  0  0  0  0  0
    1.7053    1.6676    2.8397 C   0  0  0  0  0  0  0  0  0  0  0  0
    4.2745    2.1996    1.8819 C   0  0  0  0  0  0  0  0  0  0  0  0
    2.4817    2.6667    3.4359 C   0  0  0  0  0  0  0  0  0  0  0  0
    3.7664    2.9347    2.9560 C   0  0  0  0  0  0  0  0  0  0  0  0
   -0.1758    2.0094   -0.9166 H   0  0  0  0  0  0  0  0  0  0  0  0
    1.5441    0.7515   -0.7648 H   0  0  0  0  0  0  0  0  0  0  0  0
    2.0643   -1.0082    0.8976 H   0  0  0  0  0  0  0  0  0  0  0  0
    0.6496   -0.5337    1.8054 H   0  0  0  0  0  0  0  0  0  0  0  0
    3.9053    0.6383    0.4534 H   0  0  0  0  0  0  0  0  0  0  0  0
    0.7154    1.4711    3.2335 H   0  0  0  0  0  0  0  0  0  0  0  0
    5.2744    2.4031    1.5098 H   0  0  0  0  0  0  0  0  0  0  0  0
    2.0855    3.2368    4.2707 H   0  0  0  0  0  0  0  0  0  0  0  0
    4.3684    3.7120    3.4175 H   0  0  0  0  0  0  0  0  0  0  0  0
   -0.0782   -2.1067   -0.6285 N   0  0  0  0  0  0  0  0  0  0  0  0
   -0.4635   -3.2661   -1.4473 C   0  0  2  0  0  0  0  0  0  0  0  0
   -1.8579   -3.1105   -2.1051 C   0  0  0  0  0  0  0  0  0  0  0  0
   -2.7435   -3.9441   -1.9526 O   0  0  0  0  0  0  0  0  0  0  0  0
   -0.3708   -4.4986   -0.5400 C   0  0  0  0  0  0  0  0  0  0  0  0
   -0.4552   -2.0633    0.3239 H   0  0  0  0  0  0  0  0  0  0  0  0
    0.2594   -3.3925   -2.2596 H   0  0  0  0  0  0  0  0  0  0  0  0
   -1.0837   -4.4193    0.2875 H   0  0  0  0  0  0  0  0  0  0  0  0
   -0.5980   -5.4065   -1.1078 H   0  0  0  0  0  0  0  0  0  0  0  0
    0.6377   -4.5937   -0.1264 H   0  0  0  0  0  0  0  0  0  0  0  0
   -2.0992   -2.0264   -2.9259 N   0  0  0  0  0  0  0  0  0  0  0  0
   -3.3487   -1.8016   -3.6382 C   0  0  0  0  0  0  0  0  0  0  0  0
   -1.3210   -1.3737   -3.0508 H   0  0  0  0  0  0  0  0  0  0  0  0
   -3.5376   -2.6159   -4.3453 H   0  0  0  0  0  0  0  0  0  0  0  0
   -4.1854   -1.7433   -2.9344 H   0  0  0  0  0  0  0  0  0  0  0  0
   -3.2997   -0.8618   -4.1963 H   0  0  0  0  0  0  0  0  0  0  0  0
  1  2  2  0  0  0  0
  1  3  1  0  0  0  0
  1  7  1  0  0  0  0
  3  4  1  0  0  0  0
  3  5  1  0  0  0  0
  3  6  1  0  0  0  0
  7  8  1  0  0  0  0
  7 12  1  0  0  0  0
  8  9  1  0  0  0  0
  8 11  1  0  0  0  0
  8 13  1  0  0  0  0
  9 10  2  0  0  0  0
  9 17  1  0  0  0  0
 11 14  1  0  0  0  0
 11 15  1  0  0  0  0
 11 16  1  0  0  0  0
 17 18  1  0  0  0  0
 17 28  1  0  0  0  0
 18 19  1  0  0  0  0
 18 21  1  0  0  0  0
 18 29  1  0  0  0  0
 19 20  2  0  0  0  0
 19 37  1  0  0  0  0
 21 22  1  0  0  0  0
 21 30  1  0  0  0  0
 21 31  1  0  0  0  0
 22 23  1  0  0  0  0
 22 24  2  0  0  0  0
 23 25  2  0  0  0  0
 23 32  1  0  0  0  0
 24 26  1  0  0  0  0
 24 33  1  0  0  0  0
 25 27  1  0  0  0  0
 25 34  1  0  0  0  0
 26 27  2  0  0  0  0
 26 35  1  0  0  0  0
 27 36  1  0  0  0  0
 37 38  1  0  0  0  0
 37 42  1  0  0  0  0
 38 39  1  0  0  0  0
 38 41  1  0  0  0  0
 38 43  1  0  0  0  0
 39 40  2  0  0  0  0
 39 47  1  0  0  0  0
 41 44  1  0  0  0  0
 41 45  1  0  0  0  0
 41 46  1  0  0  0  0
 47 48  1  0  0  0  0
 47 49  1  0  0  0  0
 48 50  1  0  0  0  0
 48 51  1  0  0  0  0
 48 52  1  0  0  0  0
M  END
$$$$

  -OEChem-05262217163D

 52 52  0     1  0  0  0  0  0999 V2000
   -1.7494   -0.7894    3.0354 C   0  0  0  0  0  0  0  0  0  0  0  0
   -1.7434   -1.4938    2.0358 O   0  0  0  0  0  0  0  0  0  0  0  0
   -1.6236   -1.4186    4.4096 C   0  0  0  0  0  0  0  0  0  0  0  0
   -1.5754   -2.5081    4.3231 H   0  0  0  0  0  0  0  0  0  0  0  0
   -0.7145   -1.0643    4.9021 H   0  0  0  0  0  0  0  0  0  0  0  0
   -2.4887   -1.1539    5.0228 H   0  0  0  0  0  0  0  0  0  0  0  0
   -1.7969    0.5848    2.9117 N   0  0  0  0  0  0  0  0  0  0  0  0
   -2.0824    1.2869    1.6508 C   0  0  2  0  0  0  0  0  0  0  0  0
   -0.8435    1.8745    0.9181 C   0  0  0  0  0  0  0  0  0  0  0  0
   -0.6165    3.0745    0.9340 O   0  0  0  0  0  0  0  0  0  0  0  0
   -3.1230    2.3660    1.9807 C   0  0  0  0  0  0  0  0  0  0  0  0
   -1.8290    1.1229    3.7733 H   0  0  0  0  0  0  0  0  0  0  0  0
   -2.5579    0.5956    0.9457 H   0  0  0  0  0  0  0  0  0  0  0  0
   -2.7161    3.0951    2.6888 H   0  0  0  0  0  0  0  0  0  0  0  0
   -3.4192    2.8969    1.0702 H   0  0  0  0  0  0  0  0  0  0  0  0
   -4.0173    1.9130    2.4194 H   0  0  0  0  0  0  0  0  0  0  0  0
   -0.3903    1.2428   -0.2134 N   0  0  0  0  0  0  0  0  0  0  0  0
    0.6626    0.2070   -0.2131 C   0  0  2  0  0  0  0  0  0  0  0  0
    0.2384   -0.9760   -1.0986 C   0  0  0  0  0  0  0  0  0  0  0  0
    0.5334   -0.9908   -2.2879 O   0  0  0  0  0  0  0  0  0  0  0  0
    1.3309   -0.2378    1.1096 C   0  0  0  0  0  0  0  0  0  0  0  0
    2.1714    0.8500    1.7419 C   0  0  0  0  0  0  0  0  0  0  0  0
    3.4727    1.0757    1.2655 C   0  0  0  0  0  0  0  0  0  0  0  0
    1.7156    1.6007    2.8365 C   0  0  0  0  0  0  0  0  0  0  0  0
    4.2881    2.0520    1.8475 C   0  0  0  0  0  0  0  0  0  0  0  0
    2.5268    2.5811    3.4175 C   0  0  0  0  0  0  0  0  0  0  0  0
    3.8133    2.8086    2.9219 C   0  0  0  0  0  0  0  0  0  0  0  0
   -0.2048    1.9593   -0.9127 H   0  0  0  0  0  0  0  0  0  0  0  0
    1.4873    0.6617   -0.7723 H   0  0  0  0  0  0  0  0  0  0  0  0
    1.9796   -1.0965    0.9051 H   0  0  0  0  0  0  0  0  0  0  0  0
    0.5829   -0.5783    1.8201 H   0  0  0  0  0  0  0  0  0  0  0  0
    3.8572    0.4930    0.4333 H   0  0  0  0  0  0  0  0  0  0  0  0
    0.7257    1.4345    3.2429 H   0  0  0  0  0  0  0  0  0  0  0  0
    5.2897    2.2229    1.4638 H   0  0  0  0  0  0  0  0  0  0  0  0
    2.1567    3.1686    4.2526 H   0  0  0  0  0  0  0  0  0  0  0  0
    4.4426    3.5711    3.3714 H   0  0  0  0  0  0  0  0  0  0  0  0
   -0.4700   -2.0348   -0.5610 N   0  0  0  0  0  0  0  0  0  0  0  0
   -0.9260   -3.2036   -1.3276 C   0  0  2  0  0  0  0  0  0  0  0  0
   -2.1565   -2.9043   -2.2203 C   0  0  0  0  0  0  0  0  0  0  0  0
   -3.1913   -3.5560   -2.1389 O   0  0  0  0  0  0  0  0  0  0  0  0
   -1.1872   -4.3241   -0.3139 C   0  0  0  0  0  0  0  0  0  0  0  0
   -0.8674   -1.8949    0.3743 H   0  0  0  0  0  0  0  0  0  0  0  0
   -0.1224   -3.5342   -1.9937 H   0  0  0  0  0  0  0  0  0  0  0  0
   -1.9957   -4.0424    0.3688 H   0  0  0  0  0  0  0  0  0  0  0  0
   -1.4744   -5.2451   -0.8309 H   0  0  0  0  0  0  0  0  0  0  0  0
   -0.2867   -4.5247    0.2742 H   0  0  0  0  0  0  0  0  0  0  0  0
   -2.0731   -1.9057   -3.1706 N   0  0  0  0  0  0  0  0  0  0  0  0
   -3.1392   -1.5755   -4.1055 C   0  0  0  0  0  0  0  0  0  0  0  0
   -1.1845   -1.4005   -3.2166 H   0  0  0  0  0  0  0  0  0  0  0  0
   -3.3693   -2.4363   -4.7419 H   0  0  0  0  0  0  0  0  0  0  0  0
   -4.0453   -1.2835   -3.5648 H   0  0  0  0  0  0  0  0  0  0  0  0
   -2.8344   -0.7426   -4.7461 H   0  0  0  0  0  0  0  0  0  0  0  0
  1  2  2  0  0  0  0
  1  3  1  0  0  0  0
  1  7  1  0  0  0  0
  3  4  1  0  0  0  0
  3  5  1  0  0  0  0
  3  6  1  0  0  0  0
  7  8  1  0  0  0  0
  7 12  1  0  0  0  0
  8  9  1  0  0  0  0
  8 11  1  0  0  0  0
  8 13  1  0  0  0  0
  9 10  2  0  0  0  0
  9 17  1  0  0  0  0
 11 14  1  0  0  0  0
 11 15  1  0  0  0  0
 11 16  1  0  0  0  0
 17 18  1  0  0  0  0
 17 28  1  0  0  0  0
 18 19  1  0  0  0  0
 18 21  1  0  0  0  0
 18 29  1  0  0  0  0
 19 20  2  0  0  0  0
 19 37  1  0  0  0  0
 21 22  1  0  0  0  0
 21 30  1  0  0  0  0
 21 31  1  0  0  0  0
 22 23  1  0  0  0  0
 22 24  2  0  0  0  0
 23 25  2  0  0  0  0
 23 32  1  0  0  0  0
 24 26  1  0  0  0  0
 24 33  1  0  0  0  0
 25 27  1  0  0  0  0
 25 34  1  0  0  0  0
 26 27  2  0  0  0  0
 26 35  1  0  0  0  0
 27 36  1  0  0  0  0
 37 38  1  0  0  0  0
 37 42  1  0  0  0  0
 38 39  1  0  0  0  0
 38 41  1  0  0  0  0
 38 43  1  0  0  0  0
 39 40  2  0  0  0  0
 39 47  1  0  0  0  0
 41 44  1  0  0  0  0
 41 45  1  0  0  0  0
 41 46  1  0  0  0  0
 47 48  1  0  0  0  0
 47 49  1  0  0  0  0
 48 50  1  0  0  0  0
 48 51  1  0  0  0  0
 48 52  1  0  0  0  0
M  END
$$$$

  -OEChem-05262217163D

 52 52  0     1  0  0  0  0  0999 V2000
   -1.8433   -0.6738    3.0826 C   0  0  0  0  0  0  0  0  0  0  0  0
   -1.9185   -1.3762    2.0852 O   0  0  0  0  0  0  0  0  0  0  0  0
   -1.6880   -1.3090    4.4511 C   0  0  0  0  0  0  0  0  0  0  0  0
   -1.6555   -2.3985    4.3594 H   0  0  0  0  0  0  0  0  0  0  0  0
   -0.7614   -0.9681    4.9198 H   0  0  0  0  0  0  0  0  0  0  0  0
   -2.5326   -1.0356    5.0883 H   0  0  0  0  0  0  0  0  0  0  0  0
   -1.8292    0.7001    2.9537 N   0  0  0  0  0  0  0  0  0  0  0  0
   -2.0980    1.4113    1.6944 C   0  0  2  0  0  0  0  0  0  0  0  0
   -0.8374    1.9123    0.9363 C   0  0  0  0  0  0  0  0  0  0  0  0
   -0.5409    3.0970    0.9318 O   0  0  0  0  0  0  0  0  0  0  0  0
   -3.0593    2.5571    2.0383 C   0  0  0  0  0  0  0  0  0  0  0  0
   -1.7887    1.2449    3.8107 H   0  0  0  0  0  0  0  0  0  0  0  0
   -2.6319    0.7488    1.0036 H   0  0  0  0  0  0  0  0  0  0  0  0
   -2.5888    3.2650    2.7284 H   0  0  0  0  0  0  0  0  0  0  0  0
   -3.3439    3.0978    1.1298 H   0  0  0  0  0  0  0  0  0  0  0  0
   -3.9692    2.1657    2.5037 H   0  0  0  0  0  0  0  0  0  0  0  0
   -0.4330    1.2470   -0.1945 N   0  0  0  0  0  0  0  0  0  0  0  0
    0.5969    0.1870   -0.2137 C   0  0  2  0  0  0  0  0  0  0  0  0
    0.1195   -1.0015   -1.0644 C   0  0  0  0  0  0  0  0  0  0  0  0
    0.5668   -1.1678   -2.1927 O   0  0  0  0  0  0  0  0  0  0  0  0
    1.2560   -0.2841    1.1040 C   0  0  0  0  0  0  0  0  0  0  0  0
    2.1218    0.7758    1.7497 C   0  0  0  0  0  0  0  0  0  0  0  0
    3.4281    0.9763    1.2758 C   0  0  0  0  0  0  0  0  0  0  0  0
    1.6902    1.5138    2.8628 C   0  0  0  0  0  0  0  0  0  0  0  0
    4.2691    1.9208    1.8736 C   0  0  0  0  0  0  0  0  0  0  0  0
    2.5279    2.4605    3.4614 C   0  0  0  0  0  0  0  0  0  0  0  0
    3.8175    2.6665    2.9654 C   0  0  0  0  0  0  0  0  0  0  0  0
   -0.2493    1.9489   -0.9091 H   0  0  0  0  0  0  0  0  0  0  0  0
    1.4265    0.6149   -0.7868 H   0  0  0  0  0  0  0  0  0  0  0  0
    1.8842   -1.1563    0.8918 H   0  0  0  0  0  0  0  0  0  0  0  0
    0.4961   -0.6148    1.8085 H   0  0  0  0  0  0  0  0  0  0  0  0
    3.7964    0.3997    0.4321 H   0  0  0  0  0  0  0  0  0  0  0  0
    0.7001    1.3626    3.2730 H   0  0  0  0  0  0  0  0  0  0  0  0
    5.2731    2.0750    1.4892 H   0  0  0  0  0  0  0  0  0  0  0  0
    2.1765    3.0376    4.3114 H   0  0  0  0  0  0  0  0  0  0  0  0
    4.4675    3.4029    3.4286 H   0  0  0  0  0  0  0  0  0  0  0  0
   -0.8370   -1.8743   -0.5806 N   0  0  0  0  0  0  0  0  0  0  0  0
   -1.3421   -3.0487   -1.3060 C   0  0  2  0  0  0  0  0  0  0  0  0
   -2.3645   -2.6823   -2.4104 C   0  0  0  0  0  0  0  0  0  0  0  0
   -3.4927   -3.1609   -2.4371 O   0  0  0  0  0  0  0  0  0  0  0  0
   -1.9189   -4.0074   -0.2570 C   0  0  0  0  0  0  0  0  0  0  0  0
   -1.2471   -1.6625    0.3349 H   0  0  0  0  0  0  0  0  0  0  0  0
   -0.5061   -3.5550   -1.7997 H   0  0  0  0  0  0  0  0  0  0  0  0
   -2.7762   -3.5517    0.2495 H   0  0  0  0  0  0  0  0  0  0  0  0
   -2.2502   -4.9361   -0.7321 H   0  0  0  0  0  0  0  0  0  0  0  0
   -1.1616   -4.2538    0.4932 H   0  0  0  0  0  0  0  0  0  0  0  0
   -1.9848   -1.8155   -3.4159 N   0  0  0  0  0  0  0  0  0  0  0  0
   -2.8503   -1.4016   -4.5111 C   0  0  0  0  0  0  0  0  0  0  0  0
   -1.0352   -1.4399   -3.3509 H   0  0  0  0  0  0  0  0  0  0  0  0
   -3.1960   -2.2734   -5.0765 H   0  0  0  0  0  0  0  0  0  0  0  0
   -3.7218   -0.8617   -4.1264 H   0  0  0  0  0  0  0  0  0  0  0  0
   -2.3056   -0.7413   -5.1928 H   0  0  0  0  0  0  0  0  0  0  0  0
  1  2  2  0  0  0  0
  1  3  1  0  0  0  0
  1  7  1  0  0  0  0
  3  4  1  0  0  0  0
  3  5  1  0  0  0  0
  3  6  1  0  0  0  0
  7  8  1  0  0  0  0
  7 12  1  0  0  0  0
  8  9  1  0  0  0  0
  8 11  1  0  0  0  0
  8 13  1  0  0  0  0
  9 10  2  0  0  0  0
  9 17  1  0  0  0  0
 11 14  1  0  0  0  0
 11 15  1  0  0  0  0
 11 16  1  0  0  0  0
 17 18  1  0  0  0  0
 17 28  1  0  0  0  0
 18 19  1  0  0  0  0
 18 21  1  0  0  0  0
 18 29  1  0  0  0  0
 19 20  2  0  0  0  0
 19 37  1  0  0  0  0
 21 22  1  0  0  0  0
 21 30  1  0  0  0  0
 21 31  1  0  0  0  0
 22 23  1  0  0  0  0
 22 24  2  0  0  0  0
 23 25  2  0  0  0  0
 23 32  1  0  0  0  0
 24 26  1  0  0  0  0
 24 33  1  0  0  0  0
 25 27  1  0  0  0  0
 25 34  1  0  0  0  0
 26 27  2  0  0  0  0
 26 35  1  0  0  0  0
 27 36  1  0  0  0  0
 37 38  1  0  0  0  0
 37 42  1  0  0  0  0
 38 39  1  0  0  0  0
 38 41  1  0  0  0  0
 38 43  1  0  0  0  0
 39 40  2  0  0  0  0
 39 47  1  0  0  0  0
 41 44  1  0  0  0  0
 41 45  1  0  0  0  0
 41 46  1  0  0  0  0
 47 48  1  0  0  0  0
 47 49  1  0  0  0  0
 48 50  1  0  0  0  0
 48 51  1  0  0  0  0
 48 52  1  0  0  0  0
M  END
$$$$

  -OEChem-05262217163D

 52 52  0     1  0  0  0  0  0999 V2000
   -1.9479   -0.6011    3.0931 C   0  0  0  0  0  0  0  0  0  0  0  0
   -2.0948   -1.2541    2.0712 O   0  0  0  0  0  0  0  0  0  0  0  0
   -1.8010   -1.2982    4.4316 C   0  0  0  0  0  0  0  0  0  0  0  0
   -1.9098   -2.3796    4.3077 H   0  0  0  0  0  0  0  0  0  0  0  0
   -0.8154   -1.0897    4.8554 H   0  0  0  0  0  0  0  0  0  0  0  0
   -2.5701   -0.9456    5.1233 H   0  0  0  0  0  0  0  0  0  0  0  0
   -1.8565    0.7730    3.0157 N   0  0  0  0  0  0  0  0  0  0  0  0
   -2.1174    1.5443    1.7912 C   0  0  2  0  0  0  0  0  0  0  0  0
   -0.8484    1.9773    1.0068 C   0  0  0  0  0  0  0  0  0  0  0  0
   -0.4926    3.1455    0.9962 O   0  0  0  0  0  0  0  0  0  0  0  0
   -2.9829    2.7417    2.2074 C   0  0  0  0  0  0  0  0  0  0  0  0
   -1.7591    1.2811    3.8905 H   0  0  0  0  0  0  0  0  0  0  0  0
   -2.7202    0.9458    1.0991 H   0  0  0  0  0  0  0  0  0  0  0  0
   -2.4361    3.3960    2.8943 H   0  0  0  0  0  0  0  0  0  0  0  0
   -3.2686    3.3262    1.3269 H   0  0  0  0  0  0  0  0  0  0  0  0
   -3.8969    2.3992    2.7024 H   0  0  0  0  0  0  0  0  0  0  0  0
   -0.4970    1.2991   -0.1343 N   0  0  0  0  0  0  0  0  0  0  0  0
    0.5040    0.2107   -0.1937 C   0  0  2  0  0  0  0  0  0  0  0  0
   -0.0201   -0.9708   -1.0275 C   0  0  0  0  0  0  0  0  0  0  0  0
    0.5588   -1.2943   -2.0577 O   0  0  0  0  0  0  0  0  0  0  0  0
    1.1744   -0.2916    1.1062 C   0  0  0  0  0  0  0  0  0  0  0  0
    2.0803    0.7374    1.7463 C   0  0  0  0  0  0  0  0  0  0  0  0
    3.3816    0.9039    1.2464 C   0  0  0  0  0  0  0  0  0  0  0  0
    1.6944    1.4763    2.8754 C   0  0  0  0  0  0  0  0  0  0  0  0
    4.2629    1.8173    1.8336 C   0  0  0  0  0  0  0  0  0  0  0  0
    2.5723    2.3936    3.4627 C   0  0  0  0  0  0  0  0  0  0  0  0
    3.8563    2.5674    2.9398 C   0  0  0  0  0  0  0  0  0  0  0  0
   -0.3141    1.9989   -0.8510 H   0  0  0  0  0  0  0  0  0  0  0  0
    1.3300    0.6206   -0.7849 H   0  0  0  0  0  0  0  0  0  0  0  0
    1.7748   -1.1780    0.8737 H   0  0  0  0  0  0  0  0  0  0  0  0
    0.4161   -0.6097    1.8198 H   0  0  0  0  0  0  0  0  0  0  0  0
    3.7146    0.3240    0.3902 H   0  0  0  0  0  0  0  0  0  0  0  0
    0.7093    1.3493    3.3053 H   0  0  0  0  0  0  0  0  0  0  0  0
    5.2629    1.9436    1.4291 H   0  0  0  0  0  0  0  0  0  0  0  0
    2.2564    2.9738    4.3245 H   0  0  0  0  0  0  0  0  0  0  0  0
    4.5374    3.2815    3.3933 H   0  0  0  0  0  0  0  0  0  0  0  0
   -1.1722   -1.6412   -0.6627 N   0  0  0  0  0  0  0  0  0  0  0  0
   -1.7156   -2.8107   -1.3693 C   0  0  2  0  0  0  0  0  0  0  0  0
   -2.4893   -2.4317   -2.6565 C   0  0  0  0  0  0  0  0  0  0  0  0
   -3.6423   -2.7985   -2.8527 O   0  0  0  0  0  0  0  0  0  0  0  0
   -2.5776   -3.5816   -0.3620 C   0  0  0  0  0  0  0  0  0  0  0  0
   -1.5991   -1.3804    0.2318 H   0  0  0  0  0  0  0  0  0  0  0  0
   -0.8919   -3.4648   -1.6735 H   0  0  0  0  0  0  0  0  0  0  0  0
   -3.4270   -2.9716   -0.0382 H   0  0  0  0  0  0  0  0  0  0  0  0
   -2.9626   -4.5007   -0.8147 H   0  0  0  0  0  0  0  0  0  0  0  0
   -1.9866   -3.8516    0.5185 H   0  0  0  0  0  0  0  0  0  0  0  0
   -1.8501   -1.6932   -3.6329 N   0  0  0  0  0  0  0  0  0  0  0  0
   -2.4492   -1.3300   -4.9094 C   0  0  0  0  0  0  0  0  0  0  0  0
   -0.8787   -1.4371   -3.4386 H   0  0  0  0  0  0  0  0  0  0  0  0
   -2.6782   -2.2275   -5.4929 H   0  0  0  0  0  0  0  0  0  0  0  0
   -3.3740   -0.7649   -4.7528 H   0  0  0  0  0  0  0  0  0  0  0  0
   -1.7579   -0.7082   -5.4861 H   0  0  0  0  0  0  0  0  0  0  0  0
  1  2  2  0  0  0  0
  1  3  1  0  0  0  0
  1  7  1  0  0  0  0
  3  4  1  0  0  0  0
  3  5  1  0  0  0  0
  3  6  1  0  0  0  0
  7  8  1  0  0  0  0
  7 12  1  0  0  0  0
  8  9  1  0  0  0  0
  8 11  1  0  0  0  0
  8 13  1  0  0  0  0
  9 10  2  0  0  0  0
  9 17  1  0  0  0  0
 11 14  1  0  0  0  0
 11 15  1  0  0  0  0
 11 16  1  0  0  0  0
 17 18  1  0  0  0  0
 17 28  1  0  0  0  0
 18 19  1  0  0  0  0
 18 21  1  0  0  0  0
 18 29  1  0  0  0  0
 19 20  2  0  0  0  0
 19 37  1  0  0  0  0
 21 22  1  0  0  0  0
 21 30  1  0  0  0  0
 21 31  1  0  0  0  0
 22 23  1  0  0  0  0
 22 24  2  0  0  0  0
 23 25  2  0  0  0  0
 23 32  1  0  0  0  0
 24 26  1  0  0  0  0
 24 33  1  0  0  0  0
 25 27  1  0  0  0  0
 25 34  1  0  0  0  0
 26 27  2  0  0  0  0
 26 35  1  0  0  0  0
 27 36  1  0  0  0  0
 37 38  1  0  0  0  0
 37 42  1  0  0  0  0
 38 39  1  0  0  0  0
 38 41  1  0  0  0  0
 38 43  1  0  0  0  0
 39 40  2  0  0  0  0
 39 47  1  0  0  0  0
 41 44  1  0  0  0  0
 41 45  1  0  0  0  0
 41 46  1  0  0  0  0
 47 48  1  0  0  0  0
 47 49  1  0  0  0  0
 48 50  1  0  0  0  0
 48 51  1  0  0  0  0
 48 52  1  0  0  0  0
M  END
$$$$

  -OEChem-05262217163D

 52 52  0     1  0  0  0  0  0999 V2000
   -2.4206   -0.6052    2.5339 C   0  0  0  0  0  0  0  0  0  0  0  0
   -3.0966   -0.7148    1.5260 O   0  0  0  0  0  0  0  0  0  0  0  0
   -2.2037   -1.8038    3.4379 C   0  0  0  0  0  0  0  0  0  0  0  0
   -2.7776   -2.6601    3.0720 H   0  0  0  0  0  0  0  0  0  0  0  0
   -1.1447   -2.0727    3.4553 H   0  0  0  0  0  0  0  0  0  0  0  0
   -2.5313   -1.5710    4.4541 H   0  0  0  0  0  0  0  0  0  0  0  0
   -1.8131    0.5984    2.8237 N   0  0  0  0  0  0  0  0  0  0  0  0
   -2.0212    1.8341    2.0524 C   0  0  2  0  0  0  0  0  0  0  0  0
   -0.8938    2.2154    1.0501 C   0  0  0  0  0  0  0  0  0  0  0  0
   -0.6364    3.3929    0.8547 O   0  0  0  0  0  0  0  0  0  0  0  0
   -2.2758    2.9395    3.0875 C   0  0  0  0  0  0  0  0  0  0  0  0
   -1.3031    0.6553    3.6999 H   0  0  0  0  0  0  0  0  0  0  0  0
   -2.9321    1.7419    1.4505 H   0  0  0  0  0  0  0  0  0  0  0  0
   -1.3721    3.1406    3.6705 H   0  0  0  0  0  0  0  0  0  0  0  0
   -2.5782    3.8659    2.5885 H   0  0  0  0  0  0  0  0  0  0  0  0
   -3.0781    2.6465    3.7717 H   0  0  0  0  0  0  0  0  0  0  0  0
   -0.5118    1.4382   -0.0200 N   0  0  0  0  0  0  0  0  0  0  0  0
    0.4961    0.3525   -0.0033 C   0  0  2  0  0  0  0  0  0  0  0  0
    0.0083   -0.9016   -0.7522 C   0  0  0  0  0  0  0  0  0  0  0  0
    0.7978   -1.5104   -1.4643 O   0  0  0  0  0  0  0  0  0  0  0  0
    1.1480   -0.0635    1.3365 C   0  0  0  0  0  0  0  0  0  0  0  0
    2.0341    1.0143    1.9220 C   0  0  0  0  0  0  0  0  0  0  0  0
    3.3420    1.1660    1.4355 C   0  0  0  0  0  0  0  0  0  0  0  0
    1.6171    1.8214    2.9920 C   0  0  0  0  0  0  0  0  0  0  0  0
    4.1993    2.1302    1.9757 C   0  0  0  0  0  0  0  0  0  0  0  0
    2.4713    2.7875    3.5336 C   0  0  0  0  0  0  0  0  0  0  0  0
    3.7621    2.9456    3.0225 C   0  0  0  0  0  0  0  0  0  0  0  0
   -0.3828    2.0588   -0.8172 H   0  0  0  0  0  0  0  0  0  0  0  0
    1.3233    0.7310   -0.6131 H   0  0  0  0  0  0  0  0  0  0  0  0
    1.7691   -0.9495    1.1625 H   0  0  0  0  0  0  0  0  0  0  0  0
    0.3876   -0.3635    2.0551 H   0  0  0  0  0  0  0  0  0  0  0  0
    3.6971    0.5372    0.6239 H   0  0  0  0  0  0  0  0  0  0  0  0
    0.6266    1.7097    3.4130 H   0  0  0  0  0  0  0  0  0  0  0  0
    5.2038    2.2462    1.5793 H   0  0  0  0  0  0  0  0  0  0  0  0
    2.1324    3.4183    4.3501 H   0  0  0  0  0  0  0  0  0  0  0  0
    4.4245    3.6989    3.4391 H   0  0  0  0  0  0  0  0  0  0  0  0
   -1.2638   -1.4115   -0.5841 N   0  0  0  0  0  0  0  0  0  0  0  0
   -1.8165   -2.4329   -1.4819 C   0  0  2  0  0  0  0  0  0  0  0  0
   -2.2499   -1.8481   -2.8448 C   0  0  0  0  0  0  0  0  0  0  0  0
   -2.7788   -0.7445   -2.9161 O   0  0  0  0  0  0  0  0  0  0  0  0
   -3.0100   -3.0840   -0.7807 C   0  0  0  0  0  0  0  0  0  0  0  0
   -1.9330   -0.8150   -0.0892 H   0  0  0  0  0  0  0  0  0  0  0  0
   -1.0630   -3.2061   -1.6634 H   0  0  0  0  0  0  0  0  0  0  0  0
   -3.8040   -2.3484   -0.6147 H   0  0  0  0  0  0  0  0  0  0  0  0
   -3.4138   -3.8976   -1.3906 H   0  0  0  0  0  0  0  0  0  0  0  0
   -2.7058   -3.4924    0.1878 H   0  0  0  0  0  0  0  0  0  0  0  0
   -2.0761   -2.5865   -4.0016 N   0  0  0  0  0  0  0  0  0  0  0  0
   -2.3952   -2.0716   -5.3275 C   0  0  0  0  0  0  0  0  0  0  0  0
   -1.5280   -3.4380   -3.9274 H   0  0  0  0  0  0  0  0  0  0  0  0
   -3.4455   -1.7656   -5.3776 H   0  0  0  0  0  0  0  0  0  0  0  0
   -1.7645   -1.2085   -5.5651 H   0  0  0  0  0  0  0  0  0  0  0  0
   -2.2267   -2.8441   -6.0838 H   0  0  0  0  0  0  0  0  0  0  0  0
  1  2  2  0  0  0  0
  1  3  1  0  0  0  0
  1  7  1  0  0  0  0
  3  4  1  0  0  0  0
  3  5  1  0  0  0  0
  3  6  1  0  0  0  0
  7  8  1  0  0  0  0
  7 12  1  0  0  0  0
  8  9  1  0  0  0  0
  8 11  1  0  0  0  0
  8 13  1  0  0  0  0
  9 10  2  0  0  0  0
  9 17  1  0  0  0  0
 11 14  1  0  0  0  0
 11 15  1  0  0  0  0
 11 16  1  0  0  0  0
 17 18  1  0  0  0  0
 17 28  1  0  0  0  0
 18 19  1  0  0  0  0
 18 21  1  0  0  0  0
 18 29  1  0  0  0  0
 19 20  2  0  0  0  0
 19 37  1  0  0  0  0
 21 22  1  0  0  0  0
 21 30  1  0  0  0  0
 21 31  1  0  0  0  0
 22 23  1  0  0  0  0
 22 24  2  0  0  0  0
 23 25  2  0  0  0  0
 23 32  1  0  0  0  0
 24 26  1  0  0  0  0
 24 33  1  0  0  0  0
 25 27  1  0  0  0  0
 25 34  1  0  0  0  0
 26 27  2  0  0  0  0
 26 35  1  0  0  0  0
 27 36  1  0  0  0  0
 37 38  1  0  0  0  0
 37 42  1  0  0  0  0
 38 39  1  0  0  0  0
 38 41  1  0  0  0  0
 38 43  1  0  0  0  0
 39 40  2  0  0  0  0
 39 47  1  0  0  0  0
 41 44  1  0  0  0  0
 41 45  1  0  0  0  0
 41 46  1  0  0  0  0
 47 48  1  0  0  0  0
 47 49  1  0  0  0  0
 48 50  1  0  0  0  0
 48 51  1  0  0  0  0
 48 52  1  0  0  0  0
M  END
$$$$

  -OEChem-05262217163D

 52 52  0     1  0  0  0  0  0999 V2000
   -2.5861   -0.5005    2.4046 C   0  0  0  0  0  0  0  0  0  0  0  0
   -3.2984   -0.4745    1.4153 O   0  0  0  0  0  0  0  0  0  0  0  0
   -2.4388   -1.7808    3.2040 C   0  0  0  0  0  0  0  0  0  0  0  0
   -3.0948   -2.5560    2.7978 H   0  0  0  0  0  0  0  0  0  0  0  0
   -1.4060   -2.1346    3.1568 H   0  0  0  0  0  0  0  0  0  0  0  0
   -2.7095   -1.6036    4.2477 H   0  0  0  0  0  0  0  0  0  0  0  0
   -1.8835    0.6270    2.7752 N   0  0  0  0  0  0  0  0  0  0  0  0
   -1.9985    1.9280    2.0978 C   0  0  2  0  0  0  0  0  0  0  0  0
   -0.8811    2.2555    1.0680 C   0  0  0  0  0  0  0  0  0  0  0  0
   -0.6156    3.4223    0.8269 O   0  0  0  0  0  0  0  0  0  0  0  0
   -2.1139    2.9917    3.1996 C   0  0  0  0  0  0  0  0  0  0  0  0
   -1.3352    0.5688    3.6276 H   0  0  0  0  0  0  0  0  0  0  0  0
   -2.9351    1.9587    1.5303 H   0  0  0  0  0  0  0  0  0  0  0  0
   -1.1859    3.0663    3.7726 H   0  0  0  0  0  0  0  0  0  0  0  0
   -2.3267    3.9720    2.7609 H   0  0  0  0  0  0  0  0  0  0  0  0
   -2.9306    2.7434    3.8844 H   0  0  0  0  0  0  0  0  0  0  0  0
   -0.5391    1.4304    0.0199 N   0  0  0  0  0  0  0  0  0  0  0  0
    0.4562    0.3313    0.0480 C   0  0  2  0  0  0  0  0  0  0  0  0
   -0.0709   -0.9440   -0.6367 C   0  0  0  0  0  0  0  0  0  0  0  0
    0.7225   -1.7048   -1.1775 O   0  0  0  0  0  0  0  0  0  0  0  0
    1.1293   -0.0501    1.3884 C   0  0  0  0  0  0  0  0  0  0  0  0
    2.0399    1.0317    1.9240 C   0  0  0  0  0  0  0  0  0  0  0  0
    3.3405    1.1527    1.4106 C   0  0  0  0  0  0  0  0  0  0  0  0
    1.6552    1.8645    2.9852 C   0  0  0  0  0  0  0  0  0  0  0  0
    4.2197    2.1185    1.9111 C   0  0  0  0  0  0  0  0  0  0  0  0
    2.5302    2.8340    3.4861 C   0  0  0  0  0  0  0  0  0  0  0  0
    3.8123    2.9646    2.9458 C   0  0  0  0  0  0  0  0  0  0  0  0
   -0.4275    2.0170   -0.8057 H   0  0  0  0  0  0  0  0  0  0  0  0
    1.2730    0.6715   -0.5967 H   0  0  0  0  0  0  0  0  0  0  0  0
    1.7356   -0.9498    1.2349 H   0  0  0  0  0  0  0  0  0  0  0  0
    0.3763   -0.3136    2.1300 H   0  0  0  0  0  0  0  0  0  0  0  0
    3.6716    0.4988    0.6088 H   0  0  0  0  0  0  0  0  0  0  0  0
    0.6746    1.7645    3.4312 H   0  0  0  0  0  0  0  0  0  0  0  0
    5.2184    2.2116    1.4949 H   0  0  0  0  0  0  0  0  0  0  0  0
    2.2152    3.4863    4.2952 H   0  0  0  0  0  0  0  0  0  0  0  0
    4.4919    3.7189    3.3318 H   0  0  0  0  0  0  0  0  0  0  0  0
   -1.4144   -1.2595   -0.6525 N   0  0  0  0  0  0  0  0  0  0  0  0
   -1.9791   -2.2183   -1.6084 C   0  0  2  0  0  0  0  0  0  0  0  0
   -2.1397   -1.6104   -3.0200 C   0  0  0  0  0  0  0  0  0  0  0  0
   -2.4167   -0.4249   -3.1664 O   0  0  0  0  0  0  0  0  0  0  0  0
   -3.3355   -2.6752   -1.0693 C   0  0  0  0  0  0  0  0  0  0  0  0
   -2.0485   -0.5528   -0.2712 H   0  0  0  0  0  0  0  0  0  0  0  0
   -1.3246   -3.0928   -1.6824 H   0  0  0  0  0  0  0  0  0  0  0  0
   -4.0238   -1.8262   -0.9975 H   0  0  0  0  0  0  0  0  0  0  0  0
   -3.7774   -3.4256   -1.7315 H   0  0  0  0  0  0  0  0  0  0  0  0
   -3.2202   -3.1140   -0.0735 H   0  0  0  0  0  0  0  0  0  0  0  0
   -1.9973   -2.4107   -4.1391 N   0  0  0  0  0  0  0  0  0  0  0  0
   -2.0645   -1.8931   -5.5003 C   0  0  0  0  0  0  0  0  0  0  0  0
   -1.6615   -3.3576   -3.9917 H   0  0  0  0  0  0  0  0  0  0  0  0
   -3.0163   -1.3781   -5.6687 H   0  0  0  0  0  0  0  0  0  0  0  0
   -1.2457   -1.1893   -5.6832 H   0  0  0  0  0  0  0  0  0  0  0  0
   -1.9859   -2.7131   -6.2205 H   0  0  0  0  0  0  0  0  0  0  0  0
  1  2  2  0  0  0  0
  1  3  1  0  0  0  0
  1  7  1  0  0  0  0
  3  4  1  0  0  0  0
  3  5  1  0  0  0  0
  3  6  1  0  0  0  0
  7  8  1  0  0  0  0
  7 12  1  0  0  0  0
  8  9  1  0  0  0  0
  8 11  1  0  0  0  0
  8 13  1  0  0  0  0
  9 10  2  0  0  0  0
  9 17  1  0  0  0  0
 11 14  1  0  0  0  0
 11 15  1  0  0  0  0
 11 16  1  0  0  0  0
 17 18  1  0  0  0  0
 17 28  1  0  0  0  0
 18 19  1  0  0  0  0
 18 21  1  0  0  0  0
 18 29  1  0  0  0  0
 19 20  2  0  0  0  0
 19 37  1  0  0  0  0
 21 22  1  0  0  0  0
 21 30  1  0  0  0  0
 21 31  1  0  0  0  0
 22 23  1  0  0  0  0
 22 24  2  0  0  0  0
 23 25  2  0  0  0  0
 23 32  1  0  0  0  0
 24 26  1  0  0  0  0
 24 33  1  0  0  0  0
 25 27  1  0  0  0  0
 25 34  1  0  0  0  0
 26 27  2  0  0  0  0
 26 35  1  0  0  0  0
 27 36  1  0  0  0  0
 37 38  1  0  0  0  0
 37 42  1  0  0  0  0
 38 39  1  0  0  0  0
 38 41  1  0  0  0  0
 38 43  1  0  0  0  0
 39 40  2  0  0  0  0
 39 47  1  0  0  0  0
 41 44  1  0  0  0  0
 41 45  1  0  0  0  0
 41 46  1  0  0  0  0
 47 48  1  0  0  0  0
 47 49  1  0  0  0  0
 48 50  1  0  0  0  0
 48 51  1  0  0  0  0
 48 52  1  0  0  0  0
M  END
$$$$

  -OEChem-05262217163D

 52 52  0     1  0  0  0  0  0999 V2000
   -2.7142   -0.4007    2.2907 C   0  0  0  0  0  0  0  0  0  0  0  0
   -3.4494   -0.2160    1.3347 O   0  0  0  0  0  0  0  0  0  0  0  0
   -2.5999   -1.7815    2.9072 C   0  0  0  0  0  0  0  0  0  0  0  0
   -3.2870   -2.4730    2.4112 H   0  0  0  0  0  0  0  0  0  0  0  0
   -1.5804   -2.1583    2.7937 H   0  0  0  0  0  0  0  0  0  0  0  0
   -2.8506   -1.7394    3.9699 H   0  0  0  0  0  0  0  0  0  0  0  0
   -1.9516    0.6382    2.7839 N   0  0  0  0  0  0  0  0  0  0  0  0
   -1.9861    2.0067    2.2448 C   0  0  2  0  0  0  0  0  0  0  0  0
   -0.8920    2.3310    1.1911 C   0  0  0  0  0  0  0  0  0  0  0  0
   -0.6055    3.4957    0.9670 O   0  0  0  0  0  0  0  0  0  0  0  0
   -1.9752    2.9732    3.4377 C   0  0  0  0  0  0  0  0  0  0  0  0
   -1.3720    0.4449    3.5948 H   0  0  0  0  0  0  0  0  0  0  0  0
   -2.9394    2.1636    1.7281 H   0  0  0  0  0  0  0  0  0  0  0  0
   -1.0349    2.9114    3.9902 H   0  0  0  0  0  0  0  0  0  0  0  0
   -2.1042    4.0045    3.0929 H   0  0  0  0  0  0  0  0  0  0  0  0
   -2.7974    2.7395    4.1211 H   0  0  0  0  0  0  0  0  0  0  0  0
   -0.6297    1.5158    0.1130 N   0  0  0  0  0  0  0  0  0  0  0  0
    0.3403    0.3934    0.0743 C   0  0  2  0  0  0  0  0  0  0  0  0
   -0.2513   -0.8638   -0.5955 C   0  0  0  0  0  0  0  0  0  0  0  0
    0.4976   -1.7429   -1.0045 O   0  0  0  0  0  0  0  0  0  0  0  0
    1.0845   -0.0056    1.3737 C   0  0  0  0  0  0  0  0  0  0  0  0
    2.0494    1.0543    1.8541 C   0  0  0  0  0  0  0  0  0  0  0  0
    3.3191    1.1455    1.2627 C   0  0  0  0  0  0  0  0  0  0  0  0
    1.7530    1.8873    2.9422 C   0  0  0  0  0  0  0  0  0  0  0  0
    4.2506    2.0879    1.7107 C   0  0  0  0  0  0  0  0  0  0  0  0
    2.6797    2.8343    3.3908 C   0  0  0  0  0  0  0  0  0  0  0  0
    3.9281    2.9385    2.7714 C   0  0  0  0  0  0  0  0  0  0  0  0
   -0.5361    2.1178   -0.7039 H   0  0  0  0  0  0  0  0  0  0  0  0
    1.1255    0.7209   -0.6150 H   0  0  0  0  0  0  0  0  0  0  0  0
    1.6603   -0.9198    1.1909 H   0  0  0  0  0  0  0  0  0  0  0  0
    0.3685   -0.2475    2.1592 H   0  0  0  0  0  0  0  0  0  0  0  0
    3.5848    0.4860    0.4412 H   0  0  0  0  0  0  0  0  0  0  0  0
    0.8020    1.8016    3.4506 H   0  0  0  0  0  0  0  0  0  0  0  0
    5.2240    2.1582    1.2340 H   0  0  0  0  0  0  0  0  0  0  0  0
    2.4316    3.4883    4.2215 H   0  0  0  0  0  0  0  0  0  0  0  0
    4.6481    3.6744    3.1170 H   0  0  0  0  0  0  0  0  0  0  0  0
   -1.6078   -0.9996   -0.8071 N   0  0  0  0  0  0  0  0  0  0  0  0
   -2.1759   -1.9539   -1.7643 C   0  0  2  0  0  0  0  0  0  0  0  0
   -2.0593   -1.4495   -3.2192 C   0  0  0  0  0  0  0  0  0  0  0  0
   -2.3237   -0.2858   -3.5000 O   0  0  0  0  0  0  0  0  0  0  0  0
   -3.6426   -2.1782   -1.3924 C   0  0  0  0  0  0  0  0  0  0  0  0
   -2.1987   -0.2250   -0.4978 H   0  0  0  0  0  0  0  0  0  0  0  0
   -1.6516   -2.9115   -1.6858 H   0  0  0  0  0  0  0  0  0  0  0  0
   -4.1995   -1.2367   -1.4463 H   0  0  0  0  0  0  0  0  0  0  0  0
   -4.1049   -2.8951   -2.0775 H   0  0  0  0  0  0  0  0  0  0  0  0
   -3.7211   -2.5700   -0.3739 H   0  0  0  0  0  0  0  0  0  0  0  0
   -1.6771   -2.3160   -4.2270 N   0  0  0  0  0  0  0  0  0  0  0  0
   -1.4714   -1.8868   -5.6047 C   0  0  0  0  0  0  0  0  0  0  0  0
   -1.3347   -3.2293   -3.9438 H   0  0  0  0  0  0  0  0  0  0  0  0
   -2.3794   -1.4201   -6.0010 H   0  0  0  0  0  0  0  0  0  0  0  0
   -0.6501   -1.1647   -5.6618 H   0  0  0  0  0  0  0  0  0  0  0  0
   -1.2241   -2.7458   -6.2355 H   0  0  0  0  0  0  0  0  0  0  0  0
  1  2  2  0  0  0  0
  1  3  1  0  0  0  0
  1  7  1  0  0  0  0
  3  4  1  0  0  0  0
  3  5  1  0  0  0  0
  3  6  1  0  0  0  0
  7  8  1  0  0  0  0
  7 12  1  0  0  0  0
  8  9  1  0  0  0  0
  8 11  1  0  0  0  0
  8 13  1  0  0  0  0
  9 10  2  0  0  0  0
  9 17  1  0  0  0  0
 11 14  1  0  0  0  0
 11 15  1  0  0  0  0
 11 16  1  0  0  0  0
 17 18  1  0  0  0  0
 17 28  1  0  0  0  0
 18 19  1  0  0  0  0
 18 21  1  0  0  0  0
 18 29  1  0  0  0  0
 19 20  2  0  0  0  0
 19 37  1  0  0  0  0
 21 22  1  0  0  0  0
 21 30  1  0  0  0  0
 21 31  1  0  0  0  0
 22 23  1  0  0  0  0
 22 24  2  0  0  0  0
 23 25  2  0  0  0  0
 23 32  1  0  0  0  0
 24 26  1  0  0  0  0
 24 33  1  0  0  0  0
 25 27  1  0  0  0  0
 25 34  1  0  0  0  0
 26 27  2  0  0  0  0
 26 35  1  0  0  0  0
 27 36  1  0  0  0  0
 37 38  1  0  0  0  0
 37 42  1  0  0  0  0
 38 39  1  0  0  0  0
 38 41  1  0  0  0  0
 38 43  1  0  0  0  0
 39 40  2  0  0  0  0
 39 47  1  0  0  0  0
 41 44  1  0  0  0  0
 41 45  1  0  0  0  0
 41 46  1  0  0  0  0
 47 48  1  0  0  0  0
 47 49  1  0  0  0  0
 48 50  1  0  0  0  0
 48 51  1  0  0  0  0
 48 52  1  0  0  0  0
M  END
$$$$

  -OEChem-05262217163D

 52 52  0     1  0  0  0  0  0999 V2000
   -2.8863   -0.2591    2.0438 C   0  0  0  0  0  0  0  0  0  0  0  0
   -3.5878    0.0972    1.1107 O   0  0  0  0  0  0  0  0  0  0  0  0
   -2.8437   -1.7204    2.4471 C   0  0  0  0  0  0  0  0  0  0  0  0
   -3.5731   -2.2931    1.8673 H   0  0  0  0  0  0  0  0  0  0  0  0
   -1.8479   -2.1299    2.2588 H   0  0  0  0  0  0  0  0  0  0  0  0
   -3.0800   -1.8239    3.5090 H   0  0  0  0  0  0  0  0  0  0  0  0
   -2.0865    0.6559    2.6987 N   0  0  0  0  0  0  0  0  0  0  0  0
   -1.9892    2.0750    2.3208 C   0  0  2  0  0  0  0  0  0  0  0  0
   -0.8682    2.3978    1.2955 C   0  0  0  0  0  0  0  0  0  0  0  0
   -0.5586    3.5597    1.0903 O   0  0  0  0  0  0  0  0  0  0  0  0
   -1.8981    2.9009    3.6110 C   0  0  0  0  0  0  0  0  0  0  0  0
   -1.5134    0.3100    3.4620 H   0  0  0  0  0  0  0  0  0  0  0  0
   -2.9202    2.3762    1.8278 H   0  0  0  0  0  0  0  0  0  0  0  0
   -1.0162    2.6347    4.1963 H   0  0  0  0  0  0  0  0  0  0  0  0
   -1.8499    3.9693    3.3772 H   0  0  0  0  0  0  0  0  0  0  0  0
   -2.7848    2.7284    4.2287 H   0  0  0  0  0  0  0  0  0  0  0  0
   -0.6209    1.5750    0.2200 N   0  0  0  0  0  0  0  0  0  0  0  0
    0.3186    0.4264    0.2023 C   0  0  2  0  0  0  0  0  0  0  0  0
   -0.3041   -0.8190   -0.4657 C   0  0  0  0  0  0  0  0  0  0  0  0
    0.3635   -1.8324   -0.6319 O   0  0  0  0  0  0  0  0  0  0  0  0
    1.0839    0.0591    1.5011 C   0  0  0  0  0  0  0  0  0  0  0  0
    2.0859    1.1166    1.9084 C   0  0  0  0  0  0  0  0  0  0  0  0
    3.3403    1.1482    1.2789 C   0  0  0  0  0  0  0  0  0  0  0  0
    1.8430    2.0069    2.9631 C   0  0  0  0  0  0  0  0  0  0  0  0
    4.3061    2.0880    1.6538 C   0  0  0  0  0  0  0  0  0  0  0  0
    2.8037    2.9511    3.3396 C   0  0  0  0  0  0  0  0  0  0  0  0
    4.0348    2.9964    2.6802 C   0  0  0  0  0  0  0  0  0  0  0  0
   -0.4879    2.1762   -0.5924 H   0  0  0  0  0  0  0  0  0  0  0  0
    1.1024    0.7229   -0.5020 H   0  0  0  0  0  0  0  0  0  0  0  0
    1.6325   -0.8770    1.3512 H   0  0  0  0  0  0  0  0  0  0  0  0
    0.3782   -0.1230    2.3129 H   0  0  0  0  0  0  0  0  0  0  0  0
    3.5667    0.4441    0.4832 H   0  0  0  0  0  0  0  0  0  0  0  0
    0.9069    1.9695    3.5013 H   0  0  0  0  0  0  0  0  0  0  0  0
    5.2661    2.1117    1.1469 H   0  0  0  0  0  0  0  0  0  0  0  0
    2.5941    3.6488    4.1449 H   0  0  0  0  0  0  0  0  0  0  0  0
    4.7804    3.7315    2.9685 H   0  0  0  0  0  0  0  0  0  0  0  0
   -1.5910   -0.7857   -0.9612 N   0  0  0  0  0  0  0  0  0  0  0  0
   -2.1045   -1.7359   -1.9530 C   0  0  2  0  0  0  0  0  0  0  0  0
   -1.7422   -1.3204   -3.3958 C   0  0  0  0  0  0  0  0  0  0  0  0
   -1.6367   -0.1370   -3.6988 O   0  0  0  0  0  0  0  0  0  0  0  0
   -3.6228   -1.8104   -1.7811 C   0  0  0  0  0  0  0  0  0  0  0  0
   -2.0981    0.0907   -0.8340 H   0  0  0  0  0  0  0  0  0  0  0  0
   -1.6871   -2.7308   -1.7669 H   0  0  0  0  0  0  0  0  0  0  0  0
   -4.0767   -0.8294   -1.9564 H   0  0  0  0  0  0  0  0  0  0  0  0
   -4.0539   -2.5252   -2.4884 H   0  0  0  0  0  0  0  0  0  0  0  0
   -3.8747   -2.1322   -0.7661 H   0  0  0  0  0  0  0  0  0  0  0  0
   -1.5531   -2.2834   -4.3703 N   0  0  0  0  0  0  0  0  0  0  0  0
   -1.1407   -1.9653   -5.7319 C   0  0  0  0  0  0  0  0  0  0  0  0
   -1.5576   -3.2544   -4.0730 H   0  0  0  0  0  0  0  0  0  0  0  0
   -1.8688   -1.3000   -6.2077 H   0  0  0  0  0  0  0  0  0  0  0  0
   -0.1625   -1.4730   -5.7297 H   0  0  0  0  0  0  0  0  0  0  0  0
   -1.0682   -2.8792   -6.3290 H   0  0  0  0  0  0  0  0  0  0  0  0
  1  2  2  0  0  0  0
  1  3  1  0  0  0  0
  1  7  1  0  0  0  0
  3  4  1  0  0  0  0
  3  5  1  0  0  0  0
  3  6  1  0  0  0  0
  7  8  1  0  0  0  0
  7 12  1  0  0  0  0
  8  9  1  0  0  0  0
  8 11  1  0  0  0  0
  8 13  1  0  0  0  0
  9 10  2  0  0  0  0
  9 17  1  0  0  0  0
 11 14  1  0  0  0  0
 11 15  1  0  0  0  0
 11 16  1  0  0  0  0
 17 18  1  0  0  0  0
 17 28  1  0  0  0  0
 18 19  1  0  0  0  0
 18 21  1  0  0  0  0
 18 29  1  0  0  0  0
 19 20  2  0  0  0  0
 19 37  1  0  0  0  0
 21 22  1  0  0  0  0
 21 30  1  0  0  0  0
 21 31  1  0  0  0  0
 22 23  1  0  0  0  0
 22 24  2  0  0  0  0
 23 25  2  0  0  0  0
 23 32  1  0  0  0  0
 24 26  1  0  0  0  0
 24 33  1  0  0  0  0
 25 27  1  0  0  0  0
 25 34  1  0  0  0  0
 26 27  2  0  0  0  0
 26 35  1  0  0  0  0
 27 36  1  0  0  0  0
 37 38  1  0  0  0  0
 37 42  1  0  0  0  0
 38 39  1  0  0  0  0
 38 41  1  0  0  0  0
 38 43  1  0  0  0  0
 39 40  2  0  0  0  0
 39 47  1  0  0  0  0
 41 44  1  0  0  0  0
 41 45  1  0  0  0  0
 41 46  1  0  0  0  0
 47 48  1  0  0  0  0
 47 49  1  0  0  0  0
 48 50  1  0  0  0  0
 48 51  1  0  0  0  0
 48 52  1  0  0  0  0
M  END
$$$$

  -OEChem-05262217163D

 52 52  0     1  0  0  0  0  0999 V2000
   -2.9766   -0.0847    1.8171 C   0  0  0  0  0  0  0  0  0  0  0  0
   -3.6146    0.3917    0.8921 O   0  0  0  0  0  0  0  0  0  0  0  0
   -3.0165   -1.5784    2.0776 C   0  0  0  0  0  0  0  0  0  0  0  0
   -3.7283   -2.0602    1.4017 H   0  0  0  0  0  0  0  0  0  0  0  0
   -2.0272   -2.0128    1.9115 H   0  0  0  0  0  0  0  0  0  0  0  0
   -3.3246   -1.7708    3.1079 H   0  0  0  0  0  0  0  0  0  0  0  0
   -2.1756    0.7237    2.5995 N   0  0  0  0  0  0  0  0  0  0  0  0
   -1.9729    2.1615    2.3532 C   0  0  2  0  0  0  0  0  0  0  0  0
   -0.8224    2.4920    1.3621 C   0  0  0  0  0  0  0  0  0  0  0  0
   -0.4863    3.6516    1.1869 O   0  0  0  0  0  0  0  0  0  0  0  0
   -1.8325    2.8537    3.7143 C   0  0  0  0  0  0  0  0  0  0  0  0
   -1.6445    0.2721    3.3373 H   0  0  0  0  0  0  0  0  0  0  0  0
   -2.8763    2.5709    1.8876 H   0  0  0  0  0  0  0  0  0  0  0  0
   -1.0242    2.4154    4.3031 H   0  0  0  0  0  0  0  0  0  0  0  0
   -1.6325    3.9222    3.5833 H   0  0  0  0  0  0  0  0  0  0  0  0
   -2.7624    2.7492    4.2815 H   0  0  0  0  0  0  0  0  0  0  0  0
   -0.5737    1.6776    0.2816 N   0  0  0  0  0  0  0  0  0  0  0  0
    0.3105    0.4876    0.2947 C   0  0  2  0  0  0  0  0  0  0  0  0
   -0.3483   -0.7183   -0.4136 C   0  0  0  0  0  0  0  0  0  0  0  0
    0.1158   -1.8462   -0.3037 O   0  0  0  0  0  0  0  0  0  0  0  0
    1.0555    0.1168    1.6061 C   0  0  0  0  0  0  0  0  0  0  0  0
    2.1053    1.1401    1.9863 C   0  0  0  0  0  0  0  0  0  0  0  0
    3.3589    1.0924    1.3549 C   0  0  0  0  0  0  0  0  0  0  0  0
    1.9052    2.0826    3.0050 C   0  0  0  0  0  0  0  0  0  0  0  0
    4.3698    1.9960    1.6980 C   0  0  0  0  0  0  0  0  0  0  0  0
    2.9121    2.9903    3.3496 C   0  0  0  0  0  0  0  0  0  0  0  0
    4.1446    2.9505    2.6929 C   0  0  0  0  0  0  0  0  0  0  0  0
   -0.3677    2.2889   -0.5069 H   0  0  0  0  0  0  0  0  0  0  0  0
    1.1185    0.7495   -0.3958 H   0  0  0  0  0  0  0  0  0  0  0  0
    1.5621   -0.8463    1.4838 H   0  0  0  0  0  0  0  0  0  0  0  0
    0.3411   -0.0097    2.4213 H   0  0  0  0  0  0  0  0  0  0  0  0
    3.5521    0.3514    0.5844 H   0  0  0  0  0  0  0  0  0  0  0  0
    0.9679    2.1194    3.5408 H   0  0  0  0  0  0  0  0  0  0  0  0
    5.3296    1.9553    1.1915 H   0  0  0  0  0  0  0  0  0  0  0  0
    2.7369    3.7264    4.1285 H   0  0  0  0  0  0  0  0  0  0  0  0
    4.9266    3.6561    2.9585 H   0  0  0  0  0  0  0  0  0  0  0  0
   -1.4538   -0.5322   -1.2181 N   0  0  0  0  0  0  0  0  0  0  0  0
   -1.9667   -1.5191   -2.1755 C   0  0  2  0  0  0  0  0  0  0  0  0
   -1.4084   -1.3019   -3.5990 C   0  0  0  0  0  0  0  0  0  0  0  0
   -1.0270   -0.1941   -3.9607 O   0  0  0  0  0  0  0  0  0  0  0  0
   -3.4924   -1.4069   -2.1771 C   0  0  0  0  0  0  0  0  0  0  0  0
   -1.8018    0.4226   -1.2867 H   0  0  0  0  0  0  0  0  0  0  0  0
   -1.6960   -2.5301   -1.8558 H   0  0  0  0  0  0  0  0  0  0  0  0
   -3.8028   -0.4016   -2.4806 H   0  0  0  0  0  0  0  0  0  0  0  0
   -3.9295   -2.1307   -2.8715 H   0  0  0  0  0  0  0  0  0  0  0  0
   -3.8887   -1.6044   -1.1763 H   0  0  0  0  0  0  0  0  0  0  0  0
   -1.3609   -2.3544   -4.4954 N   0  0  0  0  0  0  0  0  0  0  0  0
   -0.8283   -2.2301   -5.8469 C   0  0  0  0  0  0  0  0  0  0  0  0
   -1.6396   -3.2711   -4.1590 H   0  0  0  0  0  0  0  0  0  0  0  0
   -1.4065   -1.4987   -6.4213 H   0  0  0  0  0  0  0  0  0  0  0  0
    0.2182   -1.9084   -5.8185 H   0  0  0  0  0  0  0  0  0  0  0  0
   -0.8798   -3.1930   -6.3643 H   0  0  0  0  0  0  0  0  0  0  0  0
  1  2  2  0  0  0  0
  1  3  1  0  0  0  0
  1  7  1  0  0  0  0
  3  4  1  0  0  0  0
  3  5  1  0  0  0  0
  3  6  1  0  0  0  0
  7  8  1  0  0  0  0
  7 12  1  0  0  0  0
  8  9  1  0  0  0  0
  8 11  1  0  0  0  0
  8 13  1  0  0  0  0
  9 10  2  0  0  0  0
  9 17  1  0  0  0  0
 11 14  1  0  0  0  0
 11 15  1  0  0  0  0
 11 16  1  0  0  0  0
 17 18  1  0  0  0  0
 17 28  1  0  0  0  0
 18 19  1  0  0  0  0
 18 21  1  0  0  0  0
 18 29  1  0  0  0  0
 19 20  2  0  0  0  0
 19 37  1  0  0  0  0
 21 22  1  0  0  0  0
 21 30  1  0  0  0  0
 21 31  1  0  0  0  0
 22 23  1  0  0  0  0
 22 24  2  0  0  0  0
 23 25  2  0  0  0  0
 23 32  1  0  0  0  0
 24 26  1  0  0  0  0
 24 33  1  0  0  0  0
 25 27  1  0  0  0  0
 25 34  1  0  0  0  0
 26 27  2  0  0  0  0
 26 35  1  0  0  0  0
 27 36  1  0  0  0  0
 37 38  1  0  0  0  0
 37 42  1  0  0  0  0
 38 39  1  0  0  0  0
 38 41  1  0  0  0  0
 38 43  1  0  0  0  0
 39 40  2  0  0  0  0
 39 47  1  0  0  0  0
 41 44  1  0  0  0  0
 41 45  1  0  0  0  0
 41 46  1  0  0  0  0
 47 48  1  0  0  0  0
 47 49  1  0  0  0  0
 48 50  1  0  0  0  0
 48 51  1  0  0  0  0
 48 52  1  0  0  0  0
M  END
$$$$

  -OEChem-05262217163D

 52 52  0     1  0  0  0  0  0999 V2000
   -2.2779    1.9305    4.7207 C   0  0  0  0  0  0  0  0  0  0  0  0
   -3.3383    2.4913    4.4964 O   0  0  0  0  0  0  0  0  0  0  0  0
   -1.9361    1.4934    6.1327 C   0  0  0  0  0  0  0  0  0  0  0  0
   -2.7362    1.7807    6.8204 H   0  0  0  0  0  0  0  0  0  0  0  0
   -1.8166    0.4079    6.1674 H   0  0  0  0  0  0  0  0  0  0  0  0
   -1.0066    1.9678    6.4563 H   0  0  0  0  0  0  0  0  0  0  0  0
   -1.3682    1.7109    3.7072 N   0  0  0  0  0  0  0  0  0  0  0  0
   -1.6569    1.8975    2.2781 C   0  0  2  0  0  0  0  0  0  0  0  0
   -1.6038    0.5702    1.4802 C   0  0  0  0  0  0  0  0  0  0  0  0
   -2.0636   -0.4685    1.9288 O   0  0  0  0  0  0  0  0  0  0  0  0
   -0.6857    2.9613    1.7525 C   0  0  0  0  0  0  0  0  0  0  0  0
   -0.5364    1.1805    3.9509 H   0  0  0  0  0  0  0  0  0  0  0  0
   -2.6723    2.2844    2.1425 H   0  0  0  0  0  0  0  0  0  0  0  0
    0.3509    2.6361    1.8669 H   0  0  0  0  0  0  0  0  0  0  0  0
   -0.8737    3.1690    0.6949 H   0  0  0  0  0  0  0  0  0  0  0  0
   -0.8170    3.8933    2.3110 H   0  0  0  0  0  0  0  0  0  0  0  0
   -1.4055    0.5585    0.1210 N   0  0  0  0  0  0  0  0  0  0  0  0
   -0.1413    0.0838   -0.4980 C   0  0  2  0  0  0  0  0  0  0  0  0
   -0.5076   -0.8294   -1.6999 C   0  0  0  0  0  0  0  0  0  0  0  0
    0.2325   -1.7179   -2.1060 O   0  0  0  0  0  0  0  0  0  0  0  0
    0.8495   -0.7081    0.4137 C   0  0  0  0  0  0  0  0  0  0  0  0
    1.4917    0.0829    1.5310 C   0  0  0  0  0  0  0  0  0  0  0  0
    2.5977    0.9041    1.2649 C   0  0  0  0  0  0  0  0  0  0  0  0
    1.1238   -0.1379    2.8691 C   0  0  0  0  0  0  0  0  0  0  0  0
    3.2564    1.5711    2.3037 C   0  0  0  0  0  0  0  0  0  0  0  0
    1.7871    0.5190    3.9115 C   0  0  0  0  0  0  0  0  0  0  0  0
    2.8448    1.3868    3.6269 C   0  0  0  0  0  0  0  0  0  0  0  0
   -2.1831    0.0132   -0.2471 H   0  0  0  0  0  0  0  0  0  0  0  0
    0.3917    0.9523   -0.8964 H   0  0  0  0  0  0  0  0  0  0  0  0
    1.6685   -1.1040   -0.1964 H   0  0  0  0  0  0  0  0  0  0  0  0
    0.3245   -1.5737    0.8325 H   0  0  0  0  0  0  0  0  0  0  0  0
    2.9452    1.0343    0.2441 H   0  0  0  0  0  0  0  0  0  0  0  0
    0.3276   -0.8410    3.1020 H   0  0  0  0  0  0  0  0  0  0  0  0
    4.0981    2.2214    2.0829 H   0  0  0  0  0  0  0  0  0  0  0  0
    1.4970    0.3391    4.9428 H   0  0  0  0  0  0  0  0  0  0  0  0
    3.3632    1.8979    4.4334 H   0  0  0  0  0  0  0  0  0  0  0  0
   -1.6807   -0.6027   -2.4024 N   0  0  0  0  0  0  0  0  0  0  0  0
   -2.0844   -1.3610   -3.5977 C   0  0  2  0  0  0  0  0  0  0  0  0
   -1.3125   -0.9185   -4.8644 C   0  0  0  0  0  0  0  0  0  0  0  0
   -1.8657   -0.3231   -5.7806 O   0  0  0  0  0  0  0  0  0  0  0  0
   -3.6040   -1.2115   -3.7434 C   0  0  0  0  0  0  0  0  0  0  0  0
   -2.1667    0.2697   -2.2112 H   0  0  0  0  0  0  0  0  0  0  0  0
   -1.8707   -2.4249   -3.4471 H   0  0  0  0  0  0  0  0  0  0  0  0
   -3.8776   -0.1615   -3.8895 H   0  0  0  0  0  0  0  0  0  0  0  0
   -3.9593   -1.7841   -4.6063 H   0  0  0  0  0  0  0  0  0  0  0  0
   -4.1120   -1.5855   -2.8492 H   0  0  0  0  0  0  0  0  0  0  0  0
    0.0414   -1.1753   -4.9488 N   0  0  0  0  0  0  0  0  0  0  0  0
    0.8837   -0.7524   -6.0591 C   0  0  0  0  0  0  0  0  0  0  0  0
    0.4742   -1.5833   -4.1161 H   0  0  0  0  0  0  0  0  0  0  0  0
    0.5082   -1.1628   -7.0023 H   0  0  0  0  0  0  0  0  0  0  0  0
    0.9025    0.3399   -6.1315 H   0  0  0  0  0  0  0  0  0  0  0  0
    1.9078   -1.1088   -5.9124 H   0  0  0  0  0  0  0  0  0  0  0  0
  1  2  2  0  0  0  0
  1  3  1  0  0  0  0
  1  7  1  0  0  0  0
  3  4  1  0  0  0  0
  3  5  1  0  0  0  0
  3  6  1  0  0  0  0
  7  8  1  0  0  0  0
  7 12  1  0  0  0  0
  8  9  1  0  0  0  0
  8 11  1  0  0  0  0
  8 13  1  0  0  0  0
  9 10  2  0  0  0  0
  9 17  1  0  0  0  0
 11 14  1  0  0  0  0
 11 15  1  0  0  0  0
 11 16  1  0  0  0  0
 17 18  1  0  0  0  0
 17 28  1  0  0  0  0
 18 19  1  0  0  0  0
 18 21  1  0  0  0  0
 18 29  1  0  0  0  0
 19 20  2  0  0  0  0
 19 37  1  0  0  0  0
 21 22  1  0  0  0  0
 21 30  1  0  0  0  0
 21 31  1  0  0  0  0
 22 23  1  0  0  0  0
 22 24  2  0  0  0  0
 23 25  2  0  0  0  0
 23 32  1  0  0  0  0
 24 26  1  0  0  0  0
 24 33  1  0  0  0  0
 25 27  1  0  0  0  0
 25 34  1  0  0  0  0
 26 27  2  0  0  0  0
 26 35  1  0  0  0  0
 27 36  1  0  0  0  0
 37 38  1  0  0  0  0
 37 42  1  0  0  0  0
 38 39  1  0  0  0  0
 38 41  1  0  0  0  0
 38 43  1  0  0  0  0
 39 40  2  0  0  0  0
 39 47  1  0  0  0  0
 41 44  1  0  0  0  0
 41 45  1  0  0  0  0
 41 46  1  0  0  0  0
 47 48  1  0  0  0  0
 47 49  1  0  0  0  0
 48 50  1  0  0  0  0
 48 51  1  0  0  0  0
 48 52  1  0  0  0  0
M  END
$$$$

  -OEChem-05262217163D

 52 52  0     1  0  0  0  0  0999 V2000
   -2.2951    2.1585    4.7263 C   0  0  0  0  0  0  0  0  0  0  0  0
   -2.7619    3.2469    4.4311 O   0  0  0  0  0  0  0  0  0  0  0  0
   -2.3949    1.6506    6.1523 C   0  0  0  0  0  0  0  0  0  0  0  0
   -2.8783    2.3994    6.7859 H   0  0  0  0  0  0  0  0  0  0  0  0
   -2.9845    0.7309    6.1812 H   0  0  0  0  0  0  0  0  0  0  0  0
   -1.3963    1.4490    6.5473 H   0  0  0  0  0  0  0  0  0  0  0  0
   -1.6859    1.3774    3.7668 N   0  0  0  0  0  0  0  0  0  0  0  0
   -1.6785    1.6901    2.3306 C   0  0  2  0  0  0  0  0  0  0  0  0
   -1.4938    0.4129    1.4766 C   0  0  0  0  0  0  0  0  0  0  0  0
   -1.8895   -0.6694    1.8862 O   0  0  0  0  0  0  0  0  0  0  0  0
   -0.6096    2.7546    2.0418 C   0  0  0  0  0  0  0  0  0  0  0  0
   -1.4799    0.4155    4.0279 H   0  0  0  0  0  0  0  0  0  0  0  0
   -2.6524    2.1059    2.0506 H   0  0  0  0  0  0  0  0  0  0  0  0
    0.3761    2.4189    2.3687 H   0  0  0  0  0  0  0  0  0  0  0  0
   -0.5661    2.9796    0.9724 H   0  0  0  0  0  0  0  0  0  0  0  0
   -0.8456    3.6815    2.5731 H   0  0  0  0  0  0  0  0  0  0  0  0
   -1.3137    0.4817    0.1159 N   0  0  0  0  0  0  0  0  0  0  0  0
   -0.0498    0.0750   -0.5481 C   0  0  2  0  0  0  0  0  0  0  0  0
   -0.4307   -0.7758   -1.7872 C   0  0  0  0  0  0  0  0  0  0  0  0
    0.1575   -1.8022   -2.1062 O   0  0  0  0  0  0  0  0  0  0  0  0
    0.9909   -0.7203    0.2997 C   0  0  0  0  0  0  0  0  0  0  0  0
    1.6337    0.0497    1.4313 C   0  0  0  0  0  0  0  0  0  0  0  0
    2.7020    0.9207    1.1686 C   0  0  0  0  0  0  0  0  0  0  0  0
    1.2969   -0.2187    2.7688 C   0  0  0  0  0  0  0  0  0  0  0  0
    3.3635    1.5742    2.2143 C   0  0  0  0  0  0  0  0  0  0  0  0
    1.9591    0.4299    3.8167 C   0  0  0  0  0  0  0  0  0  0  0  0
    2.9871    1.3348    3.5389 C   0  0  0  0  0  0  0  0  0  0  0  0
   -2.0908   -0.0376   -0.2899 H   0  0  0  0  0  0  0  0  0  0  0  0
    0.4489    0.9778   -0.9131 H   0  0  0  0  0  0  0  0  0  0  0  0
    1.8016   -1.0618   -0.3535 H   0  0  0  0  0  0  0  0  0  0  0  0
    0.5091   -1.6204    0.6975 H   0  0  0  0  0  0  0  0  0  0  0  0
    3.0208    1.0979    0.1458 H   0  0  0  0  0  0  0  0  0  0  0  0
    0.5241   -0.9464    3.0004 H   0  0  0  0  0  0  0  0  0  0  0  0
    4.1770    2.2605    1.9976 H   0  0  0  0  0  0  0  0  0  0  0  0
    1.6835    0.2217    4.8462 H   0  0  0  0  0  0  0  0  0  0  0  0
    3.5038    1.8381    4.3511 H   0  0  0  0  0  0  0  0  0  0  0  0
   -1.4497   -0.3330   -2.6132 N   0  0  0  0  0  0  0  0  0  0  0  0
   -1.8965   -1.0329   -3.8280 C   0  0  2  0  0  0  0  0  0  0  0  0
   -0.9497   -0.7950   -5.0294 C   0  0  0  0  0  0  0  0  0  0  0  0
   -1.3145   -0.1840   -6.0264 O   0  0  0  0  0  0  0  0  0  0  0  0
   -3.3381   -0.5890   -4.1060 C   0  0  0  0  0  0  0  0  0  0  0  0
   -1.8197    0.5969   -2.4330 H   0  0  0  0  0  0  0  0  0  0  0  0
   -1.9131   -2.1126   -3.6432 H   0  0  0  0  0  0  0  0  0  0  0  0
   -3.3810    0.4878   -4.2980 H   0  0  0  0  0  0  0  0  0  0  0  0
   -3.7324   -1.1119   -4.9833 H   0  0  0  0  0  0  0  0  0  0  0  0
   -3.9803   -0.8187   -3.2505 H   0  0  0  0  0  0  0  0  0  0  0  0
    0.3458   -1.2676   -4.9664 N   0  0  0  0  0  0  0  0  0  0  0  0
    1.3338   -1.0818   -6.0205 C   0  0  0  0  0  0  0  0  0  0  0  0
    0.6212   -1.7156   -4.0886 H   0  0  0  0  0  0  0  0  0  0  0  0
    0.9845   -1.5314   -6.9560 H   0  0  0  0  0  0  0  0  0  0  0  0
    1.5188   -0.0160   -6.1888 H   0  0  0  0  0  0  0  0  0  0  0  0
    2.2786   -1.5573   -5.7400 H   0  0  0  0  0  0  0  0  0  0  0  0
  1  2  2  0  0  0  0
  1  3  1  0  0  0  0
  1  7  1  0  0  0  0
  3  4  1  0  0  0  0
  3  5  1  0  0  0  0
  3  6  1  0  0  0  0
  7  8  1  0  0  0  0
  7 12  1  0  0  0  0
  8  9  1  0  0  0  0
  8 11  1  0  0  0  0
  8 13  1  0  0  0  0
  9 10  2  0  0  0  0
  9 17  1  0  0  0  0
 11 14  1  0  0  0  0
 11 15  1  0  0  0  0
 11 16  1  0  0  0  0
 17 18  1  0  0  0  0
 17 28  1  0  0  0  0
 18 19  1  0  0  0  0
 18 21  1  0  0  0  0
 18 29  1  0  0  0  0
 19 20  2  0  0  0  0
 19 37  1  0  0  0  0
 21 22  1  0  0  0  0
 21 30  1  0  0  0  0
 21 31  1  0  0  0  0
 22 23  1  0  0  0  0
 22 24  2  0  0  0  0
 23 25  2  0  0  0  0
 23 32  1  0  0  0  0
 24 26  1  0  0  0  0
 24 33  1  0  0  0  0
 25 27  1  0  0  0  0
 25 34  1  0  0  0  0
 26 27  2  0  0  0  0
 26 35  1  0  0  0  0
 27 36  1  0  0  0  0
 37 38  1  0  0  0  0
 37 42  1  0  0  0  0
 38 39  1  0  0  0  0
 38 41  1  0  0  0  0
 38 43  1  0  0  0  0
 39 40  2  0  0  0  0
 39 47  1  0  0  0  0
 41 44  1  0  0  0  0
 41 45  1  0  0  0  0
 41 46  1  0  0  0  0
 47 48  1  0  0  0  0
 47 49  1  0  0  0  0
 48 50  1  0  0  0  0
 48 51  1  0  0  0  0
 48 52  1  0  0  0  0
M  END
$$$$

  -OEChem-05262217163D

 52 52  0     1  0  0  0  0  0999 V2000
   -2.4206    1.6717    4.6545 C   0  0  0  0  0  0  0  0  0  0  0  0
   -3.4984    2.1874    4.4056 O   0  0  0  0  0  0  0  0  0  0  0  0
   -2.1621    1.0858    6.0298 C   0  0  0  0  0  0  0  0  0  0  0  0
   -3.0396    1.2220    6.6683 H   0  0  0  0  0  0  0  0  0  0  0  0
   -1.9515    0.0167    5.9447 H   0  0  0  0  0  0  0  0  0  0  0  0
   -1.3081    1.5841    6.4946 H   0  0  0  0  0  0  0  0  0  0  0  0
   -1.4226    1.6285    3.7027 N   0  0  0  0  0  0  0  0  0  0  0  0
   -1.6395    1.9075    2.2757 C   0  0  2  0  0  0  0  0  0  0  0  0
   -1.5809    0.6245    1.4087 C   0  0  0  0  0  0  0  0  0  0  0  0
   -2.0367   -0.4370    1.8056 O   0  0  0  0  0  0  0  0  0  0  0  0
   -0.6178    2.9707    1.8567 C   0  0  0  0  0  0  0  0  0  0  0  0
   -0.5935    1.0956    3.9490 H   0  0  0  0  0  0  0  0  0  0  0  0
   -2.6357    2.3333    2.1169 H   0  0  0  0  0  0  0  0  0  0  0  0
    0.4032    2.6079    1.9945 H   0  0  0  0  0  0  0  0  0  0  0  0
   -0.7539    3.2456    0.8066 H   0  0  0  0  0  0  0  0  0  0  0  0
   -0.7473    3.8718    2.4646 H   0  0  0  0  0  0  0  0  0  0  0  0
   -1.3523    0.6806    0.0547 N   0  0  0  0  0  0  0  0  0  0  0  0
   -0.0898    0.2044   -0.5604 C   0  0  2  0  0  0  0  0  0  0  0  0
   -0.4730   -0.6279   -1.8090 C   0  0  0  0  0  0  0  0  0  0  0  0
   -0.1483   -1.7993   -1.9635 O   0  0  0  0  0  0  0  0  0  0  0  0
    0.8744   -0.6499    0.3191 C   0  0  0  0  0  0  0  0  0  0  0  0
    1.5194    0.0775    1.4771 C   0  0  0  0  0  0  0  0  0  0  0  0
    2.6429    0.8881    1.2578 C   0  0  0  0  0  0  0  0  0  0  0  0
    1.1250   -0.1838    2.8001 C   0  0  0  0  0  0  0  0  0  0  0  0
    3.3000    1.5011    2.3304 C   0  0  0  0  0  0  0  0  0  0  0  0
    1.7842    0.4213    3.8758 C   0  0  0  0  0  0  0  0  0  0  0  0
    2.8649    1.2753    3.6395 C   0  0  0  0  0  0  0  0  0  0  0  0
   -2.1427    0.2035   -0.3771 H   0  0  0  0  0  0  0  0  0  0  0  0
    0.4727    1.0770   -0.9047 H   0  0  0  0  0  0  0  0  0  0  0  0
    1.6814   -1.0384   -0.3116 H   0  0  0  0  0  0  0  0  0  0  0  0
    0.3270   -1.5203    0.6985 H   0  0  0  0  0  0  0  0  0  0  0  0
    3.0069    1.0518    0.2478 H   0  0  0  0  0  0  0  0  0  0  0  0
    0.3104   -0.8775    2.9943 H   0  0  0  0  0  0  0  0  0  0  0  0
    4.1571    2.1428    2.1468 H   0  0  0  0  0  0  0  0  0  0  0  0
    1.4730    0.2120    4.8952 H   0  0  0  0  0  0  0  0  0  0  0  0
    3.3818    1.7444    4.4721 H   0  0  0  0  0  0  0  0  0  0  0  0
   -1.1858   -0.0146   -2.8238 N   0  0  0  0  0  0  0  0  0  0  0  0
   -1.6192   -0.6895   -4.0578 C   0  0  2  0  0  0  0  0  0  0  0  0
   -0.4675   -0.8560   -5.0791 C   0  0  0  0  0  0  0  0  0  0  0  0
   -0.4687   -0.2684   -6.1539 O   0  0  0  0  0  0  0  0  0  0  0  0
   -2.8053    0.1030   -4.6214 C   0  0  0  0  0  0  0  0  0  0  0  0
   -1.3781    0.9790   -2.7248 H   0  0  0  0  0  0  0  0  0  0  0  0
   -1.9795   -1.6954   -3.8159 H   0  0  0  0  0  0  0  0  0  0  0  0
   -2.5002    1.1212   -4.8833 H   0  0  0  0  0  0  0  0  0  0  0  0
   -3.1913   -0.3840   -5.5227 H   0  0  0  0  0  0  0  0  0  0  0  0
   -3.6143    0.1564   -3.8866 H   0  0  0  0  0  0  0  0  0  0  0  0
    0.5962   -1.6771   -4.7620 N   0  0  0  0  0  0  0  0  0  0  0  0
    1.7516   -1.8874   -5.6229 C   0  0  0  0  0  0  0  0  0  0  0  0
    0.5874   -2.0834   -3.8226 H   0  0  0  0  0  0  0  0  0  0  0  0
    1.4381   -2.2841   -6.5941 H   0  0  0  0  0  0  0  0  0  0  0  0
    2.2874   -0.9461   -5.7820 H   0  0  0  0  0  0  0  0  0  0  0  0
    2.4382   -2.6045   -5.1630 H   0  0  0  0  0  0  0  0  0  0  0  0
  1  2  2  0  0  0  0
  1  3  1  0  0  0  0
  1  7  1  0  0  0  0
  3  4  1  0  0  0  0
  3  5  1  0  0  0  0
  3  6  1  0  0  0  0
  7  8  1  0  0  0  0
  7 12  1  0  0  0  0
  8  9  1  0  0  0  0
  8 11  1  0  0  0  0
  8 13  1  0  0  0  0
  9 10  2  0  0  0  0
  9 17  1  0  0  0  0
 11 14  1  0  0  0  0
 11 15  1  0  0  0  0
 11 16  1  0  0  0  0
 17 18  1  0  0  0  0
 17 28  1  0  0  0  0
 18 19  1  0  0  0  0
 18 21  1  0  0  0  0
 18 29  1  0  0  0  0
 19 20  2  0  0  0  0
 19 37  1  0  0  0  0
 21 22  1  0  0  0  0
 21 30  1  0  0  0  0
 21 31  1  0  0  0  0
 22 23  1  0  0  0  0
 22 24  2  0  0  0  0
 23 25  2  0  0  0  0
 23 32  1  0  0  0  0
 24 26  1  0  0  0  0
 24 33  1  0  0  0  0
 25 27  1  0  0  0  0
 25 34  1  0  0  0  0
 26 27  2  0  0  0  0
 26 35  1  0  0  0  0
 27 36  1  0  0  0  0
 37 38  1  0  0  0  0
 37 42  1  0  0  0  0
 38 39  1  0  0  0  0
 38 41  1  0  0  0  0
 38 43  1  0  0  0  0
 39 40  2  0  0  0  0
 39 47  1  0  0  0  0
 41 44  1  0  0  0  0
 41 45  1  0  0  0  0
 41 46  1  0  0  0  0
 47 48  1  0  0  0  0
 47 49  1  0  0  0  0
 48 50  1  0  0  0  0
 48 51  1  0  0  0  0
 48 52  1  0  0  0  0
M  END
$$$$

  -OEChem-05262217163D

 52 52  0     1  0  0  0  0  0999 V2000
   -2.3908    2.0928    4.7057 C   0  0  0  0  0  0  0  0  0  0  0  0
   -2.7877    3.2164    4.4412 O   0  0  0  0  0  0  0  0  0  0  0  0
   -2.6210    1.5118    6.0880 C   0  0  0  0  0  0  0  0  0  0  0  0
   -3.2170    0.5988    6.0149 H   0  0  0  0  0  0  0  0  0  0  0  0
   -1.6627    1.2777    6.5579 H   0  0  0  0  0  0  0  0  0  0  0  0
   -3.1544    2.2317    6.7149 H   0  0  0  0  0  0  0  0  0  0  0  0
   -1.7467    1.3368    3.7493 N   0  0  0  0  0  0  0  0  0  0  0  0
   -1.6467    1.7165    2.3331 C   0  0  2  0  0  0  0  0  0  0  0  0
   -1.4973    0.4714    1.4266 C   0  0  0  0  0  0  0  0  0  0  0  0
   -1.9317   -0.6120    1.7923 O   0  0  0  0  0  0  0  0  0  0  0  0
   -0.5019    2.7234    2.1536 C   0  0  0  0  0  0  0  0  0  0  0  0
   -1.6152    0.3507    3.9661 H   0  0  0  0  0  0  0  0  0  0  0  0
   -2.5778    2.2052    2.0268 H   0  0  0  0  0  0  0  0  0  0  0  0
    0.4408    2.3135    2.5197 H   0  0  0  0  0  0  0  0  0  0  0  0
   -0.3819    2.9904    1.0999 H   0  0  0  0  0  0  0  0  0  0  0  0
   -0.7140    3.6392    2.7136 H   0  0  0  0  0  0  0  0  0  0  0  0
   -1.3101    0.5976    0.0705 N   0  0  0  0  0  0  0  0  0  0  0  0
   -0.0628    0.1734   -0.6078 C   0  0  2  0  0  0  0  0  0  0  0  0
   -0.4591   -0.6029   -1.8865 C   0  0  0  0  0  0  0  0  0  0  0  0
   -0.3541   -1.8195   -1.9849 O   0  0  0  0  0  0  0  0  0  0  0  0
    0.9442   -0.7070    0.1916 C   0  0  0  0  0  0  0  0  0  0  0  0
    1.6197   -0.0292    1.3617 C   0  0  0  0  0  0  0  0  0  0  0  0
    2.7232    0.8098    1.1446 C   0  0  0  0  0  0  0  0  0  0  0  0
    1.2714   -0.3570    2.6829 C   0  0  0  0  0  0  0  0  0  0  0  0
    3.4140    1.3726    2.2236 C   0  0  0  0  0  0  0  0  0  0  0  0
    1.9617    0.2018    3.7637 C   0  0  0  0  0  0  0  0  0  0  0  0
    3.0288    1.0743    3.5339 C   0  0  0  0  0  0  0  0  0  0  0  0
   -2.1088    0.1400   -0.3667 H   0  0  0  0  0  0  0  0  0  0  0  0
    0.4754    1.0736   -0.9185 H   0  0  0  0  0  0  0  0  0  0  0  0
    1.7296   -1.0530   -0.4892 H   0  0  0  0  0  0  0  0  0  0  0  0
    0.4238   -1.6026    0.5497 H   0  0  0  0  0  0  0  0  0  0  0  0
    3.0482    1.0317    0.1325 H   0  0  0  0  0  0  0  0  0  0  0  0
    0.4669   -1.0617    2.8747 H   0  0  0  0  0  0  0  0  0  0  0  0
    4.2570    2.0337    2.0437 H   0  0  0  0  0  0  0  0  0  0  0  0
    1.6757   -0.0506    4.7804 H   0  0  0  0  0  0  0  0  0  0  0  0
    3.5680    1.5074    4.3713 H   0  0  0  0  0  0  0  0  0  0  0  0
   -0.9261    0.0983   -2.9835 N   0  0  0  0  0  0  0  0  0  0  0  0
   -1.2911   -0.5246   -4.2664 C   0  0  2  0  0  0  0  0  0  0  0  0
   -0.0491   -0.8981   -5.1120 C   0  0  0  0  0  0  0  0  0  0  0  0
    0.2115   -0.3246   -6.1626 O   0  0  0  0  0  0  0  0  0  0  0  0
   -2.2413    0.4339   -4.9945 C   0  0  0  0  0  0  0  0  0  0  0  0
   -0.9448    1.1125   -2.9184 H   0  0  0  0  0  0  0  0  0  0  0  0
   -1.8419   -1.4529   -4.0787 H   0  0  0  0  0  0  0  0  0  0  0  0
   -1.7413    1.3825   -5.2153 H   0  0  0  0  0  0  0  0  0  0  0  0
   -2.5730   -0.0093   -5.9391 H   0  0  0  0  0  0  0  0  0  0  0  0
   -3.1241    0.6361   -4.3804 H   0  0  0  0  0  0  0  0  0  0  0  0
    0.8026   -1.8829   -4.6526 N   0  0  0  0  0  0  0  0  0  0  0  0
    2.0344   -2.2741   -5.3237 C   0  0  0  0  0  0  0  0  0  0  0  0
    0.5886   -2.2682   -3.7289 H   0  0  0  0  0  0  0  0  0  0  0  0
    1.8205   -2.6401   -6.3333 H   0  0  0  0  0  0  0  0  0  0  0  0
    2.7191   -1.4228   -5.3940 H   0  0  0  0  0  0  0  0  0  0  0  0
    2.5307   -3.0731   -4.7646 H   0  0  0  0  0  0  0  0  0  0  0  0
  1  2  2  0  0  0  0
  1  3  1  0  0  0  0
  1  7  1  0  0  0  0
  3  4  1  0  0  0  0
  3  5  1  0  0  0  0
  3  6  1  0  0  0  0
  7  8  1  0  0  0  0
  7 12  1  0  0  0  0
  8  9  1  0  0  0  0
  8 11  1  0  0  0  0
  8 13  1  0  0  0  0
  9 10  2  0  0  0  0
  9 17  1  0  0  0  0
 11 14  1  0  0  0  0
 11 15  1  0  0  0  0
 11 16  1  0  0  0  0
 17 18  1  0  0  0  0
 17 28  1  0  0  0  0
 18 19  1  0  0  0  0
 18 21  1  0  0  0  0
 18 29  1  0  0  0  0
 19 20  2  0  0  0  0
 19 37  1  0  0  0  0
 21 22  1  0  0  0  0
 21 30  1  0  0  0  0
 21 31  1  0  0  0  0
 22 23  1  0  0  0  0
 22 24  2  0  0  0  0
 23 25  2  0  0  0  0
 23 32  1  0  0  0  0
 24 26  1  0  0  0  0
 24 33  1  0  0  0  0
 25 27  1  0  0  0  0
 25 34  1  0  0  0  0
 26 27  2  0  0  0  0
 26 35  1  0  0  0  0
 27 36  1  0  0  0  0
 37 38  1  0  0  0  0
 37 42  1  0  0  0  0
 38 39  1  0  0  0  0
 38 41  1  0  0  0  0
 38 43  1  0  0  0  0
 39 40  2  0  0  0  0
 39 47  1  0  0  0  0
 41 44  1  0  0  0  0
 41 45  1  0  0  0  0
 41 46  1  0  0  0  0
 47 48  1  0  0  0  0
 47 49  1  0  0  0  0
 48 50  1  0  0  0  0
 48 51  1  0  0  0  0
 48 52  1  0  0  0  0
M  END
$$$$

  -OEChem-05262217163D

 52 52  0     1  0  0  0  0  0999 V2000
   -2.4502    2.0522    4.6824 C   0  0  0  0  0  0  0  0  0  0  0  0
   -2.8282    3.1834    4.4222 O   0  0  0  0  0  0  0  0  0  0  0  0
   -2.7037    1.4675    6.0593 C   0  0  0  0  0  0  0  0  0  0  0  0
   -3.3811    0.6136    5.9832 H   0  0  0  0  0  0  0  0  0  0  0  0
   -1.7616    1.1392    6.5046 H   0  0  0  0  0  0  0  0  0  0  0  0
   -3.1567    2.2202    6.7109 H   0  0  0  0  0  0  0  0  0  0  0  0
   -1.8028    1.2967    3.7271 N   0  0  0  0  0  0  0  0  0  0  0  0
   -1.6664    1.6955    2.3186 C   0  0  2  0  0  0  0  0  0  0  0  0
   -1.5046    0.4680    1.3906 C   0  0  0  0  0  0  0  0  0  0  0  0
   -1.9290   -0.6266    1.7344 O   0  0  0  0  0  0  0  0  0  0  0  0
   -0.5090    2.6950    2.1806 C   0  0  0  0  0  0  0  0  0  0  0  0
   -1.6788    0.3080    3.9364 H   0  0  0  0  0  0  0  0  0  0  0  0
   -2.5857    2.1979    1.9990 H   0  0  0  0  0  0  0  0  0  0  0  0
    0.4246    2.2668    2.5494 H   0  0  0  0  0  0  0  0  0  0  0  0
   -0.3719    2.9862    1.1352 H   0  0  0  0  0  0  0  0  0  0  0  0
   -0.7196    3.5993    2.7595 H   0  0  0  0  0  0  0  0  0  0  0  0
   -1.3016    0.6300    0.0402 N   0  0  0  0  0  0  0  0  0  0  0  0
   -0.0468    0.2253   -0.6337 C   0  0  2  0  0  0  0  0  0  0  0  0
   -0.4130   -0.5174   -1.9382 C   0  0  0  0  0  0  0  0  0  0  0  0
   -0.5895   -1.7287   -1.9732 O   0  0  0  0  0  0  0  0  0  0  0  0
    0.9516   -0.6829    0.1420 C   0  0  0  0  0  0  0  0  0  0  0  0
    1.6153   -0.0444    1.3406 C   0  0  0  0  0  0  0  0  0  0  0  0
    2.7201    0.8018    1.1606 C   0  0  0  0  0  0  0  0  0  0  0  0
    1.2519   -0.4099    2.6477 C   0  0  0  0  0  0  0  0  0  0  0  0
    3.3962    1.3365    2.2629 C   0  0  0  0  0  0  0  0  0  0  0  0
    1.9290    0.1191    3.7515 C   0  0  0  0  0  0  0  0  0  0  0  0
    2.9955    1.0015    3.5594 C   0  0  0  0  0  0  0  0  0  0  0  0
   -2.0903    0.1742   -0.4179 H   0  0  0  0  0  0  0  0  0  0  0  0
    0.4943    1.1363   -0.9052 H   0  0  0  0  0  0  0  0  0  0  0  0
    1.7405   -1.0087   -0.5448 H   0  0  0  0  0  0  0  0  0  0  0  0
    0.4265   -1.5884    0.4672 H   0  0  0  0  0  0  0  0  0  0  0  0
    3.0574    1.0529    0.1596 H   0  0  0  0  0  0  0  0  0  0  0  0
    0.4457   -1.1198    2.8115 H   0  0  0  0  0  0  0  0  0  0  0  0
    4.2391    2.0050    2.1124 H   0  0  0  0  0  0  0  0  0  0  0  0
    1.6324   -0.1634    4.7572 H   0  0  0  0  0  0  0  0  0  0  0  0
    3.5222    1.4131    4.4155 H   0  0  0  0  0  0  0  0  0  0  0  0
   -0.5590    0.1984   -3.1126 N   0  0  0  0  0  0  0  0  0  0  0  0
   -0.8682   -0.4103   -4.4163 C   0  0  2  0  0  0  0  0  0  0  0  0
    0.3649   -1.1040   -5.0451 C   0  0  0  0  0  0  0  0  0  0  0  0
    0.8992   -0.6720   -6.0591 O   0  0  0  0  0  0  0  0  0  0  0  0
   -1.4534    0.6897   -5.3111 C   0  0  0  0  0  0  0  0  0  0  0  0
   -0.3631    1.1953   -3.0826 H   0  0  0  0  0  0  0  0  0  0  0  0
   -1.6386   -1.1786   -4.2883 H   0  0  0  0  0  0  0  0  0  0  0  0
   -0.7229    1.4895   -5.4698 H   0  0  0  0  0  0  0  0  0  0  0  0
   -1.7288    0.2761   -6.2865 H   0  0  0  0  0  0  0  0  0  0  0  0
   -2.3497    1.1190   -4.8532 H   0  0  0  0  0  0  0  0  0  0  0  0
    0.8949   -2.2188   -4.4262 N   0  0  0  0  0  0  0  0  0  0  0  0
    2.0933   -2.9112   -4.8792 C   0  0  0  0  0  0  0  0  0  0  0  0
    0.4679   -2.4850   -3.5349 H   0  0  0  0  0  0  0  0  0  0  0  0
    1.9865   -3.2197   -5.9244 H   0  0  0  0  0  0  0  0  0  0  0  0
    2.9688   -2.2596   -4.7910 H   0  0  0  0  0  0  0  0  0  0  0  0
    2.2625   -3.8060   -4.2726 H   0  0  0  0  0  0  0  0  0  0  0  0
  1  2  2  0  0  0  0
  1  3  1  0  0  0  0
  1  7  1  0  0  0  0
  3  4  1  0  0  0  0
  3  5  1  0  0  0  0
  3  6  1  0  0  0  0
  7  8  1  0  0  0  0
  7 12  1  0  0  0  0
  8  9  1  0  0  0  0
  8 11  1  0  0  0  0
  8 13  1  0  0  0  0
  9 10  2  0  0  0  0
  9 17  1  0  0  0  0
 11 14  1  0  0  0  0
 11 15  1  0  0  0  0
 11 16  1  0  0  0  0
 17 18  1  0  0  0  0
 17 28  1  0  0  0  0
 18 19  1  0  0  0  0
 18 21  1  0  0  0  0
 18 29  1  0  0  0  0
 19 20  2  0  0  0  0
 19 37  1  0  0  0  0
 21 22  1  0  0  0  0
 21 30  1  0  0  0  0
 21 31  1  0  0  0  0
 22 23  1  0  0  0  0
 22 24  2  0  0  0  0
 23 25  2  0  0  0  0
 23 32  1  0  0  0  0
 24 26  1  0  0  0  0
 24 33  1  0  0  0  0
 25 27  1  0  0  0  0
 25 34  1  0  0  0  0
 26 27  2  0  0  0  0
 26 35  1  0  0  0  0
 27 36  1  0  0  0  0
 37 38  1  0  0  0  0
 37 42  1  0  0  0  0
 38 39  1  0  0  0  0
 38 41  1  0  0  0  0
 38 43  1  0  0  0  0
 39 40  2  0  0  0  0
 39 47  1  0  0  0  0
 41 44  1  0  0  0  0
 41 45  1  0  0  0  0
 41 46  1  0  0  0  0
 47 48  1  0  0  0  0
 47 49  1  0  0  0  0
 48 50  1  0  0  0  0
 48 51  1  0  0  0  0
 48 52  1  0  0  0  0
M  END
$$$$

  -OEChem-05262217163D

 52 52  0     1  0  0  0  0  0999 V2000
   -2.3499    1.7149    4.6082 C   0  0  0  0  0  0  0  0  0  0  0  0
   -3.3256    2.4302    4.4481 O   0  0  0  0  0  0  0  0  0  0  0  0
   -2.0930    1.0720    5.9577 C   0  0  0  0  0  0  0  0  0  0  0  0
   -1.9952   -0.0103    5.8419 H   0  0  0  0  0  0  0  0  0  0  0  0
   -1.1732    1.4717    6.3913 H   0  0  0  0  0  0  0  0  0  0  0  0
   -2.9236    1.2796    6.6379 H   0  0  0  0  0  0  0  0  0  0  0  0
   -1.4522    1.5069    3.5829 N   0  0  0  0  0  0  0  0  0  0  0  0
   -1.6846    1.8920    2.1845 C   0  0  2  0  0  0  0  0  0  0  0  0
   -1.6602    0.6755    1.2248 C   0  0  0  0  0  0  0  0  0  0  0  0
   -2.1809   -0.3862    1.5299 O   0  0  0  0  0  0  0  0  0  0  0  0
   -0.6494    2.9660    1.8310 C   0  0  0  0  0  0  0  0  0  0  0  0
   -0.7050    0.8424    3.7639 H   0  0  0  0  0  0  0  0  0  0  0  0
   -2.6780    2.3390    2.0727 H   0  0  0  0  0  0  0  0  0  0  0  0
    0.3662    2.5721    1.9175 H   0  0  0  0  0  0  0  0  0  0  0  0
   -0.8012    3.3278    0.8099 H   0  0  0  0  0  0  0  0  0  0  0  0
   -0.7483    3.8174    2.5116 H   0  0  0  0  0  0  0  0  0  0  0  0
   -1.3491    0.8218   -0.1062 N   0  0  0  0  0  0  0  0  0  0  0  0
   -0.0520    0.3863   -0.6699 C   0  0  2  0  0  0  0  0  0  0  0  0
   -0.3360   -0.3586   -1.9919 C   0  0  0  0  0  0  0  0  0  0  0  0
   -0.8522   -1.4687   -2.0008 O   0  0  0  0  0  0  0  0  0  0  0  0
    0.8318   -0.5856    0.1663 C   0  0  0  0  0  0  0  0  0  0  0  0
    1.4065   -0.0257    1.4474 C   0  0  0  0  0  0  0  0  0  0  0  0
    2.5578    0.7752    1.4141 C   0  0  0  0  0  0  0  0  0  0  0  0
    0.9137   -0.4460    2.6944 C   0  0  0  0  0  0  0  0  0  0  0  0
    3.1482    1.2221    2.6015 C   0  0  0  0  0  0  0  0  0  0  0  0
    1.5073   -0.0088    3.8833 C   0  0  0  0  0  0  0  0  0  0  0  0
    2.6178    0.8374    3.8365 C   0  0  0  0  0  0  0  0  0  0  0  0
   -2.0994    0.3517   -0.6142 H   0  0  0  0  0  0  0  0  0  0  0  0
    0.5426    1.2777   -0.8875 H   0  0  0  0  0  0  0  0  0  0  0  0
    1.6685   -0.9243   -0.4546 H   0  0  0  0  0  0  0  0  0  0  0  0
    0.2414   -1.4773    0.4065 H   0  0  0  0  0  0  0  0  0  0  0  0
    2.9979    1.0599    0.4632 H   0  0  0  0  0  0  0  0  0  0  0  0
    0.0720   -1.1335    2.7406 H   0  0  0  0  0  0  0  0  0  0  0  0
    4.0295    1.8562    2.5649 H   0  0  0  0  0  0  0  0  0  0  0  0
    1.1206   -0.3420    4.8424 H   0  0  0  0  0  0  0  0  0  0  0  0
    3.0842    1.1756    4.7576 H   0  0  0  0  0  0  0  0  0  0  0  0
   -0.0766    0.2529   -3.2048 N   0  0  0  0  0  0  0  0  0  0  0  0
   -0.3281   -0.3747   -4.5117 C   0  0  2  0  0  0  0  0  0  0  0  0
    0.7391   -1.4392   -4.8643 C   0  0  0  0  0  0  0  0  0  0  0  0
    1.5332   -1.2754   -5.7824 O   0  0  0  0  0  0  0  0  0  0  0  0
   -0.4194    0.7485   -5.5518 C   0  0  0  0  0  0  0  0  0  0  0  0
    0.3771    1.1618   -3.1889 H   0  0  0  0  0  0  0  0  0  0  0  0
   -1.2966   -0.8862   -4.4930 H   0  0  0  0  0  0  0  0  0  0  0  0
    0.5251    1.2987   -5.6114 H   0  0  0  0  0  0  0  0  0  0  0  0
   -0.6391    0.3317   -6.5400 H   0  0  0  0  0  0  0  0  0  0  0  0
   -1.2180    1.4483   -5.2880 H   0  0  0  0  0  0  0  0  0  0  0  0
    0.8154   -2.5883   -4.1024 N   0  0  0  0  0  0  0  0  0  0  0  0
    1.8103   -3.6334   -4.2984 C   0  0  0  0  0  0  0  0  0  0  0  0
    0.1850   -2.6389   -3.2975 H   0  0  0  0  0  0  0  0  0  0  0  0
    1.7512   -4.0323   -5.3166 H   0  0  0  0  0  0  0  0  0  0  0  0
    2.8180   -3.2396   -4.1307 H   0  0  0  0  0  0  0  0  0  0  0  0
    1.6368   -4.4544   -3.5960 H   0  0  0  0  0  0  0  0  0  0  0  0
  1  2  2  0  0  0  0
  1  3  1  0  0  0  0
  1  7  1  0  0  0  0
  3  4  1  0  0  0  0
  3  5  1  0  0  0  0
  3  6  1  0  0  0  0
  7  8  1  0  0  0  0
  7 12  1  0  0  0  0
  8  9  1  0  0  0  0
  8 11  1  0  0  0  0
  8 13  1  0  0  0  0
  9 10  2  0  0  0  0
  9 17  1  0  0  0  0
 11 14  1  0  0  0  0
 11 15  1  0  0  0  0
 11 16  1  0  0  0  0
 17 18  1  0  0  0  0
 17 28  1  0  0  0  0
 18 19  1  0  0  0  0
 18 21  1  0  0  0  0
 18 29  1  0  0  0  0
 19 20  2  0  0  0  0
 19 37  1  0  0  0  0
 21 22  1  0  0  0  0
 21 30  1  0  0  0  0
 21 31  1  0  0  0  0
 22 23  1  0  0  0  0
 22 24  2  0  0  0  0
 23 25  2  0  0  0  0
 23 32  1  0  0  0  0
 24 26  1  0  0  0  0
 24 33  1  0  0  0  0
 25 27  1  0  0  0  0
 25 34  1  0  0  0  0
 26 27  2  0  0  0  0
 26 35  1  0  0  0  0
 27 36  1  0  0  0  0
 37 38  1  0  0  0  0
 37 42  1  0  0  0  0
 38 39  1  0  0  0  0
 38 41  1  0  0  0  0
 38 43  1  0  0  0  0
 39 40  2  0  0  0  0
 39 47  1  0  0  0  0
 41 44  1  0  0  0  0
 41 45  1  0  0  0  0
 41 46  1  0  0  0  0
 47 48  1  0  0  0  0
 47 49  1  0  0  0  0
 48 50  1  0  0  0  0
 48 51  1  0  0  0  0
 48 52  1  0  0  0  0
M  END
$$$$

  -OEChem-05262217163D

 52 52  0     1  0  0  0  0  0999 V2000
   -2.5593    1.9577    4.5793 C   0  0  0  0  0  0  0  0  0  0  0  0
   -2.9373    3.0957    4.3509 O   0  0  0  0  0  0  0  0  0  0  0  0
   -2.8688    1.3078    5.9147 C   0  0  0  0  0  0  0  0  0  0  0  0
   -3.5017    0.4297    5.7650 H   0  0  0  0  0  0  0  0  0  0  0  0
   -1.9415    1.0006    6.4040 H   0  0  0  0  0  0  0  0  0  0  0  0
   -3.3928    2.0138    6.5651 H   0  0  0  0  0  0  0  0  0  0  0  0
   -1.8618    1.2488    3.6248 N   0  0  0  0  0  0  0  0  0  0  0  0
   -1.6813    1.6949    2.2365 C   0  0  2  0  0  0  0  0  0  0  0  0
   -1.4690    0.4928    1.2856 C   0  0  0  0  0  0  0  0  0  0  0  0
   -1.8770   -0.6186    1.5955 O   0  0  0  0  0  0  0  0  0  0  0  0
   -0.5320    2.7103    2.1725 C   0  0  0  0  0  0  0  0  0  0  0  0
   -1.7391    0.2533    3.7997 H   0  0  0  0  0  0  0  0  0  0  0  0
   -2.5948    2.1950    1.8976 H   0  0  0  0  0  0  0  0  0  0  0  0
    0.3889    2.2808    2.5705 H   0  0  0  0  0  0  0  0  0  0  0  0
   -0.3546    3.0295    1.1415 H   0  0  0  0  0  0  0  0  0  0  0  0
   -0.7775    3.5972    2.7645 H   0  0  0  0  0  0  0  0  0  0  0  0
   -1.1983    0.6822   -0.0488 N   0  0  0  0  0  0  0  0  0  0  0  0
    0.1048    0.3337   -0.6566 C   0  0  2  0  0  0  0  0  0  0  0  0
   -0.1665   -0.4000   -1.9849 C   0  0  0  0  0  0  0  0  0  0  0  0
   -0.8905   -1.3872   -2.0141 O   0  0  0  0  0  0  0  0  0  0  0  0
    1.0758   -0.5885    0.1315 C   0  0  0  0  0  0  0  0  0  0  0  0
    1.6516    0.0045    1.3973 C   0  0  0  0  0  0  0  0  0  0  0  0
    2.7441    0.8826    1.3267 C   0  0  0  0  0  0  0  0  0  0  0  0
    1.2161   -0.4289    2.6609 C   0  0  0  0  0  0  0  0  0  0  0  0
    3.3367    1.3788    2.4932 C   0  0  0  0  0  0  0  0  0  0  0  0
    1.8085    0.0629    3.8286 C   0  0  0  0  0  0  0  0  0  0  0  0
    2.8640    0.9749    3.7451 C   0  0  0  0  0  0  0  0  0  0  0  0
   -1.9285    0.1787   -0.5559 H   0  0  0  0  0  0  0  0  0  0  0  0
    0.6315    1.2675   -0.8729 H   0  0  0  0  0  0  0  0  0  0  0  0
    1.9119   -0.8663   -0.5194 H   0  0  0  0  0  0  0  0  0  0  0  0
    0.5509   -1.5182    0.3800 H   0  0  0  0  0  0  0  0  0  0  0  0
    3.1360    1.1908    0.3626 H   0  0  0  0  0  0  0  0  0  0  0  0
    0.4175   -1.1616    2.7407 H   0  0  0  0  0  0  0  0  0  0  0  0
    4.1703    2.0720    2.4279 H   0  0  0  0  0  0  0  0  0  0  0  0
    1.4544   -0.2712    4.7992 H   0  0  0  0  0  0  0  0  0  0  0  0
    3.3247    1.3578    4.6514 H   0  0  0  0  0  0  0  0  0  0  0  0
    0.3046    0.1086   -3.1817 N   0  0  0  0  0  0  0  0  0  0  0  0
    0.0309   -0.4976   -4.4945 C   0  0  2  0  0  0  0  0  0  0  0  0
    0.8941   -1.7567   -4.7508 C   0  0  0  0  0  0  0  0  0  0  0  0
    1.7569   -1.7799   -5.6199 O   0  0  0  0  0  0  0  0  0  0  0  0
    0.2323    0.5901   -5.5567 C   0  0  0  0  0  0  0  0  0  0  0  0
    0.9343    0.9050   -3.1432 H   0  0  0  0  0  0  0  0  0  0  0  0
   -1.0172   -0.8131   -4.5406 H   0  0  0  0  0  0  0  0  0  0  0  0
    1.2687    0.9426   -5.5583 H   0  0  0  0  0  0  0  0  0  0  0  0
    0.0011    0.1943   -6.5509 H   0  0  0  0  0  0  0  0  0  0  0  0
   -0.4281    1.4405   -5.3626 H   0  0  0  0  0  0  0  0  0  0  0  0
    0.7029   -2.8721   -3.9599 N   0  0  0  0  0  0  0  0  0  0  0  0
    1.4877   -4.0937   -4.0707 C   0  0  0  0  0  0  0  0  0  0  0  0
    0.0239   -2.7774   -3.2001 H   0  0  0  0  0  0  0  0  0  0  0  0
    1.4027   -4.5133   -5.0786 H   0  0  0  0  0  0  0  0  0  0  0  0
    2.5428   -3.8915   -3.8599 H   0  0  0  0  0  0  0  0  0  0  0  0
    1.1270   -4.8392   -3.3556 H   0  0  0  0  0  0  0  0  0  0  0  0
  1  2  2  0  0  0  0
  1  3  1  0  0  0  0
  1  7  1  0  0  0  0
  3  4  1  0  0  0  0
  3  5  1  0  0  0  0
  3  6  1  0  0  0  0
  7  8  1  0  0  0  0
  7 12  1  0  0  0  0
  8  9  1  0  0  0  0
  8 11  1  0  0  0  0
  8 13  1  0  0  0  0
  9 10  2  0  0  0  0
  9 17  1  0  0  0  0
 11 14  1  0  0  0  0
 11 15  1  0  0  0  0
 11 16  1  0  0  0  0
 17 18  1  0  0  0  0
 17 28  1  0  0  0  0
 18 19  1  0  0  0  0
 18 21  1  0  0  0  0
 18 29  1  0  0  0  0
 19 20  2  0  0  0  0
 19 37  1  0  0  0  0
 21 22  1  0  0  0  0
 21 30  1  0  0  0  0
 21 31  1  0  0  0  0
 22 23  1  0  0  0  0
 22 24  2  0  0  0  0
 23 25  2  0  0  0  0
 23 32  1  0  0  0  0
 24 26  1  0  0  0  0
 24 33  1  0  0  0  0
 25 27  1  0  0  0  0
 25 34  1  0  0  0  0
 26 27  2  0  0  0  0
 26 35  1  0  0  0  0
 27 36  1  0  0  0  0
 37 38  1  0  0  0  0
 37 42  1  0  0  0  0
 38 39  1  0  0  0  0
 38 41  1  0  0  0  0
 38 43  1  0  0  0  0
 39 40  2  0  0  0  0
 39 47  1  0  0  0  0
 41 44  1  0  0  0  0
 41 45  1  0  0  0  0
 41 46  1  0  0  0  0
 47 48  1  0  0  0  0
 47 49  1  0  0  0  0
 48 50  1  0  0  0  0
 48 51  1  0  0  0  0
 48 52  1  0  0  0  0
M  END
$$$$

  -OEChem-05262217163D

 52 52  0     1  0  0  0  0  0999 V2000
   -2.5822    1.9310    4.5536 C   0  0  0  0  0  0  0  0  0  0  0  0
   -2.9845    3.0598    4.3210 O   0  0  0  0  0  0  0  0  0  0  0  0
   -2.8477    1.2941    5.9048 C   0  0  0  0  0  0  0  0  0  0  0  0
   -3.4611    0.3983    5.7812 H   0  0  0  0  0  0  0  0  0  0  0  0
   -1.9028    1.0182    6.3790 H   0  0  0  0  0  0  0  0  0  0  0  0
   -3.3762    1.9969    6.5550 H   0  0  0  0  0  0  0  0  0  0  0  0
   -1.8924    1.2236    3.5920 N   0  0  0  0  0  0  0  0  0  0  0  0
   -1.7270    1.6668    2.2005 C   0  0  2  0  0  0  0  0  0  0  0  0
   -1.4933    0.4677    1.2505 C   0  0  0  0  0  0  0  0  0  0  0  0
   -1.8799   -0.6521    1.5579 O   0  0  0  0  0  0  0  0  0  0  0  0
   -0.5979    2.7046    2.1280 C   0  0  0  0  0  0  0  0  0  0  0  0
   -1.7441    0.2332    3.7747 H   0  0  0  0  0  0  0  0  0  0  0  0
   -2.6516    2.1478    1.8643 H   0  0  0  0  0  0  0  0  0  0  0  0
    0.3337    2.2940    2.5214 H   0  0  0  0  0  0  0  0  0  0  0  0
   -0.4324    3.0260    1.0956 H   0  0  0  0  0  0  0  0  0  0  0  0
   -0.8565    3.5878    2.7200 H   0  0  0  0  0  0  0  0  0  0  0  0
   -1.1967    0.6623   -0.0779 N   0  0  0  0  0  0  0  0  0  0  0  0
    0.1224    0.3328   -0.6619 C   0  0  2  0  0  0  0  0  0  0  0  0
   -0.1024   -0.4027   -1.9983 C   0  0  0  0  0  0  0  0  0  0  0  0
   -1.0000   -1.2292   -2.1100 O   0  0  0  0  0  0  0  0  0  0  0  0
    1.0892   -0.5790    0.1429 C   0  0  0  0  0  0  0  0  0  0  0  0
    1.6318    0.0188    1.4209 C   0  0  0  0  0  0  0  0  0  0  0  0
    2.7139    0.9111    1.3709 C   0  0  0  0  0  0  0  0  0  0  0  0
    1.1790   -0.4209    2.6760 C   0  0  0  0  0  0  0  0  0  0  0  0
    3.2771    1.4161    2.5482 C   0  0  0  0  0  0  0  0  0  0  0  0
    1.7423    0.0796    3.8545 C   0  0  0  0  0  0  0  0  0  0  0  0
    2.7858    1.0066    3.7909 C   0  0  0  0  0  0  0  0  0  0  0  0
   -1.9080    0.1524   -0.6068 H   0  0  0  0  0  0  0  0  0  0  0  0
    0.6374    1.2756   -0.8663 H   0  0  0  0  0  0  0  0  0  0  0  0
    1.9422   -0.8450   -0.4906 H   0  0  0  0  0  0  0  0  0  0  0  0
    0.5705   -1.5156    0.3777 H   0  0  0  0  0  0  0  0  0  0  0  0
    3.1205    1.2240    0.4142 H   0  0  0  0  0  0  0  0  0  0  0  0
    0.3898   -1.1647    2.7414 H   0  0  0  0  0  0  0  0  0  0  0  0
    4.1018    2.1212    2.4985 H   0  0  0  0  0  0  0  0  0  0  0  0
    1.3757   -0.2595    4.8188 H   0  0  0  0  0  0  0  0  0  0  0  0
    3.2239    1.3964    4.7054 H   0  0  0  0  0  0  0  0  0  0  0  0
    0.6332   -0.0664   -3.1205 N   0  0  0  0  0  0  0  0  0  0  0  0
    0.4487   -0.6897   -4.4405 C   0  0  2  0  0  0  0  0  0  0  0  0
    1.0689   -2.1059   -4.5128 C   0  0  0  0  0  0  0  0  0  0  0  0
    2.0357   -2.3496   -5.2243 O   0  0  0  0  0  0  0  0  0  0  0  0
    1.0282    0.2678   -5.4896 C   0  0  0  0  0  0  0  0  0  0  0  0
    1.4029    0.5862   -3.0028 H   0  0  0  0  0  0  0  0  0  0  0  0
   -0.6216   -0.7975   -4.6473 H   0  0  0  0  0  0  0  0  0  0  0  0
    2.1015    0.4134   -5.3300 H   0  0  0  0  0  0  0  0  0  0  0  0
    0.8816   -0.1401   -6.4951 H   0  0  0  0  0  0  0  0  0  0  0  0
    0.5299    1.2405   -5.4369 H   0  0  0  0  0  0  0  0  0  0  0  0
    0.5331   -3.1120   -3.7340 N   0  0  0  0  0  0  0  0  0  0  0  0
    1.0612   -4.4680   -3.6773 C   0  0  0  0  0  0  0  0  0  0  0  0
   -0.2208   -2.8393   -3.0978 H   0  0  0  0  0  0  0  0  0  0  0  0
    1.0585   -4.9221   -4.6737 H   0  0  0  0  0  0  0  0  0  0  0  0
    2.0865   -4.4646   -3.2934 H   0  0  0  0  0  0  0  0  0  0  0  0
    0.4448   -5.0845   -3.0162 H   0  0  0  0  0  0  0  0  0  0  0  0
  1  2  2  0  0  0  0
  1  3  1  0  0  0  0
  1  7  1  0  0  0  0
  3  4  1  0  0  0  0
  3  5  1  0  0  0  0
  3  6  1  0  0  0  0
  7  8  1  0  0  0  0
  7 12  1  0  0  0  0
  8  9  1  0  0  0  0
  8 11  1  0  0  0  0
  8 13  1  0  0  0  0
  9 10  2  0  0  0  0
  9 17  1  0  0  0  0
 11 14  1  0  0  0  0
 11 15  1  0  0  0  0
 11 16  1  0  0  0  0
 17 18  1  0  0  0  0
 17 28  1  0  0  0  0
 18 19  1  0  0  0  0
 18 21  1  0  0  0  0
 18 29  1  0  0  0  0
 19 20  2  0  0  0  0
 19 37  1  0  0  0  0
 21 22  1  0  0  0  0
 21 30  1  0  0  0  0
 21 31  1  0  0  0  0
 22 23  1  0  0  0  0
 22 24  2  0  0  0  0
 23 25  2  0  0  0  0
 23 32  1  0  0  0  0
 24 26  1  0  0  0  0
 24 33  1  0  0  0  0
 25 27  1  0  0  0  0
 25 34  1  0  0  0  0
 26 27  2  0  0  0  0
 26 35  1  0  0  0  0
 27 36  1  0  0  0  0
 37 38  1  0  0  0  0
 37 42  1  0  0  0  0
 38 39  1  0  0  0  0
 38 41  1  0  0  0  0
 38 43  1  0  0  0  0
 39 40  2  0  0  0  0
 39 47  1  0  0  0  0
 41 44  1  0  0  0  0
 41 45  1  0  0  0  0
 41 46  1  0  0  0  0
 47 48  1  0  0  0  0
 47 49  1  0  0  0  0
 48 50  1  0  0  0  0
 48 51  1  0  0  0  0
 48 52  1  0  0  0  0
M  END
$$$$

  -OEChem-05262217163D

 52 52  0     1  0  0  0  0  0999 V2000
   -2.7055    1.9234    4.4947 C   0  0  0  0  0  0  0  0  0  0  0  0
   -3.0729    3.0615    4.2502 O   0  0  0  0  0  0  0  0  0  0  0  0
   -3.0878    1.2690    5.8087 C   0  0  0  0  0  0  0  0  0  0  0  0
   -3.7441    0.4155    5.6217 H   0  0  0  0  0  0  0  0  0  0  0  0
   -2.1911    0.9244    6.3294 H   0  0  0  0  0  0  0  0  0  0  0  0
   -3.6125    1.9845    6.4479 H   0  0  0  0  0  0  0  0  0  0  0  0
   -1.9610    1.2156    3.5750 N   0  0  0  0  0  0  0  0  0  0  0  0
   -1.7141    1.6628    2.1968 C   0  0  2  0  0  0  0  0  0  0  0  0
   -1.4339    0.4643    1.2598 C   0  0  0  0  0  0  0  0  0  0  0  0
   -1.7897   -0.6650    1.5719 O   0  0  0  0  0  0  0  0  0  0  0  0
   -0.5743    2.6908    2.1873 C   0  0  0  0  0  0  0  0  0  0  0  0
   -1.8444    0.2200    3.7554 H   0  0  0  0  0  0  0  0  0  0  0  0
   -2.6153    2.1509    1.8100 H   0  0  0  0  0  0  0  0  0  0  0  0
    0.3302    2.2744    2.6341 H   0  0  0  0  0  0  0  0  0  0  0  0
   -0.3471    3.0062    1.1650 H   0  0  0  0  0  0  0  0  0  0  0  0
   -0.8604    3.5780    2.7602 H   0  0  0  0  0  0  0  0  0  0  0  0
   -1.1336    0.6599   -0.0673 N   0  0  0  0  0  0  0  0  0  0  0  0
    0.1849    0.3330   -0.6537 C   0  0  2  0  0  0  0  0  0  0  0  0
   -0.0396   -0.4020   -1.9919 C   0  0  0  0  0  0  0  0  0  0  0  0
   -1.0693   -1.0382   -2.1880 O   0  0  0  0  0  0  0  0  0  0  0  0
    1.1565   -0.5682    0.1577 C   0  0  0  0  0  0  0  0  0  0  0  0
    1.6974    0.0443    1.4298 C   0  0  0  0  0  0  0  0  0  0  0  0
    2.7754    0.9413    1.3705 C   0  0  0  0  0  0  0  0  0  0  0  0
    1.2521   -0.3898    2.6898 C   0  0  0  0  0  0  0  0  0  0  0  0
    3.3405    1.4568    2.5425 C   0  0  0  0  0  0  0  0  0  0  0  0
    1.8176    0.1202    3.8630 C   0  0  0  0  0  0  0  0  0  0  0  0
    2.8564    1.0518    3.7896 C   0  0  0  0  0  0  0  0  0  0  0  0
   -1.8477    0.1662   -0.6088 H   0  0  0  0  0  0  0  0  0  0  0  0
    0.6942    1.2774   -0.8648 H   0  0  0  0  0  0  0  0  0  0  0  0
    2.0119   -0.8371   -0.4712 H   0  0  0  0  0  0  0  0  0  0  0  0
    0.6413   -1.5042    0.4008 H   0  0  0  0  0  0  0  0  0  0  0  0
    3.1773    1.2494    0.4103 H   0  0  0  0  0  0  0  0  0  0  0  0
    0.4673   -1.1373    2.7649 H   0  0  0  0  0  0  0  0  0  0  0  0
    4.1618    2.1654    2.4853 H   0  0  0  0  0  0  0  0  0  0  0  0
    1.4557   -0.2151    4.8305 H   0  0  0  0  0  0  0  0  0  0  0  0
    3.2969    1.4488    4.6997 H   0  0  0  0  0  0  0  0  0  0  0  0
    0.8790   -0.2938   -3.0207 N   0  0  0  0  0  0  0  0  0  0  0  0
    0.7315   -0.9606   -4.3241 C   0  0  2  0  0  0  0  0  0  0  0  0
    1.0614   -2.4714   -4.2487 C   0  0  0  0  0  0  0  0  0  0  0  0
    2.0363   -2.9450   -4.8194 O   0  0  0  0  0  0  0  0  0  0  0  0
    1.6119   -0.2059   -5.3283 C   0  0  0  0  0  0  0  0  0  0  0  0
    1.7580    0.1747   -2.8201 H   0  0  0  0  0  0  0  0  0  0  0  0
   -0.3061   -0.8752   -4.6652 H   0  0  0  0  0  0  0  0  0  0  0  0
    2.6663   -0.2626   -5.0391 H   0  0  0  0  0  0  0  0  0  0  0  0
    1.5048   -0.6414   -6.3270 H   0  0  0  0  0  0  0  0  0  0  0  0
    1.3174    0.8468   -5.3783 H   0  0  0  0  0  0  0  0  0  0  0  0
    0.2571   -3.2972   -3.4882 N   0  0  0  0  0  0  0  0  0  0  0  0
    0.5115   -4.7164   -3.2812 C   0  0  0  0  0  0  0  0  0  0  0  0
   -0.4972   -2.8410   -2.9680 H   0  0  0  0  0  0  0  0  0  0  0  0
    0.5022   -5.2503   -4.2371 H   0  0  0  0  0  0  0  0  0  0  0  0
    1.4849   -4.8656   -2.8025 H   0  0  0  0  0  0  0  0  0  0  0  0
   -0.2607   -5.1479   -2.6370 H   0  0  0  0  0  0  0  0  0  0  0  0
  1  2  2  0  0  0  0
  1  3  1  0  0  0  0
  1  7  1  0  0  0  0
  3  4  1  0  0  0  0
  3  5  1  0  0  0  0
  3  6  1  0  0  0  0
  7  8  1  0  0  0  0
  7 12  1  0  0  0  0
  8  9  1  0  0  0  0
  8 11  1  0  0  0  0
  8 13  1  0  0  0  0
  9 10  2  0  0  0  0
  9 17  1  0  0  0  0
 11 14  1  0  0  0  0
 11 15  1  0  0  0  0
 11 16  1  0  0  0  0
 17 18  1  0  0  0  0
 17 28  1  0  0  0  0
 18 19  1  0  0  0  0
 18 21  1  0  0  0  0
 18 29  1  0  0  0  0
 19 20  2  0  0  0  0
 19 37  1  0  0  0  0
 21 22  1  0  0  0  0
 21 30  1  0  0  0  0
 21 31  1  0  0  0  0
 22 23  1  0  0  0  0
 22 24  2  0  0  0  0
 23 25  2  0  0  0  0
 23 32  1  0  0  0  0
 24 26  1  0  0  0  0
 24 33  1  0  0  0  0
 25 27  1  0  0  0  0
 25 34  1  0  0  0  0
 26 27  2  0  0  0  0
 26 35  1  0  0  0  0
 27 36  1  0  0  0  0
 37 38  1  0  0  0  0
 37 42  1  0  0  0  0
 38 39  1  0  0  0  0
 38 41  1  0  0  0  0
 38 43  1  0  0  0  0
 39 40  2  0  0  0  0
 39 47  1  0  0  0  0
 41 44  1  0  0  0  0
 41 45  1  0  0  0  0
 41 46  1  0  0  0  0
 47 48  1  0  0  0  0
 47 49  1  0  0  0  0
 48 50  1  0  0  0  0
 48 51  1  0  0  0  0
 48 52  1  0  0  0  0
M  END
$$$$

  -OEChem-05262217163D

 52 52  0     1  0  0  0  0  0999 V2000
   -2.8150    1.9022    4.4323 C   0  0  0  0  0  0  0  0  0  0  0  0
   -3.2122    3.0233    4.1578 O   0  0  0  0  0  0  0  0  0  0  0  0
   -3.2256    1.2517    5.7401 C   0  0  0  0  0  0  0  0  0  0  0  0
   -3.7992    0.3430    5.5410 H   0  0  0  0  0  0  0  0  0  0  0  0
   -2.3386    0.9946    6.3240 H   0  0  0  0  0  0  0  0  0  0  0  0
   -3.8442    1.9384    6.3248 H   0  0  0  0  0  0  0  0  0  0  0  0
   -2.0061    1.2135    3.5533 N   0  0  0  0  0  0  0  0  0  0  0  0
   -1.7222    1.6551    2.1805 C   0  0  2  0  0  0  0  0  0  0  0  0
   -1.3881    0.4563    1.2623 C   0  0  0  0  0  0  0  0  0  0  0  0
   -1.7141   -0.6813    1.5793 O   0  0  0  0  0  0  0  0  0  0  0  0
   -0.6002    2.7020    2.2020 C   0  0  0  0  0  0  0  0  0  0  0  0
   -1.8605    0.2248    3.7492 H   0  0  0  0  0  0  0  0  0  0  0  0
   -2.6181    2.1240    1.7595 H   0  0  0  0  0  0  0  0  0  0  0  0
    0.3000    2.2986    2.6698 H   0  0  0  0  0  0  0  0  0  0  0  0
   -0.3535    3.0243    1.1861 H   0  0  0  0  0  0  0  0  0  0  0  0
   -0.9153    3.5824    2.7701 H   0  0  0  0  0  0  0  0  0  0  0  0
   -1.0705    0.6488   -0.0610 N   0  0  0  0  0  0  0  0  0  0  0  0
    0.2516    0.3233   -0.6411 C   0  0  2  0  0  0  0  0  0  0  0  0
    0.0338   -0.4137   -1.9822 C   0  0  0  0  0  0  0  0  0  0  0  0
   -1.0707   -0.8602   -2.2757 O   0  0  0  0  0  0  0  0  0  0  0  0
    1.2210   -0.5607    0.1946 C   0  0  0  0  0  0  0  0  0  0  0  0
    1.7475    0.0792    1.4603 C   0  0  0  0  0  0  0  0  0  0  0  0
    2.8216    0.9807    1.3932 C   0  0  0  0  0  0  0  0  0  0  0  0
    1.2978   -0.3364    2.7250 C   0  0  0  0  0  0  0  0  0  0  0  0
    3.3778    1.5176    2.5596 C   0  0  0  0  0  0  0  0  0  0  0  0
    1.8534    0.1963    3.8928 C   0  0  0  0  0  0  0  0  0  0  0  0
    2.8885    1.1311    3.8103 C   0  0  0  0  0  0  0  0  0  0  0  0
   -1.7872    0.1800   -0.6213 H   0  0  0  0  0  0  0  0  0  0  0  0
    0.7581    1.2682   -0.8577 H   0  0  0  0  0  0  0  0  0  0  0  0
    2.0857   -0.8379   -0.4169 H   0  0  0  0  0  0  0  0  0  0  0  0
    0.7079   -1.4950    0.4495 H   0  0  0  0  0  0  0  0  0  0  0  0
    3.2283    1.2761    0.4312 H   0  0  0  0  0  0  0  0  0  0  0  0
    0.5178   -1.0876    2.8086 H   0  0  0  0  0  0  0  0  0  0  0  0
    4.1967    2.2284    2.4957 H   0  0  0  0  0  0  0  0  0  0  0  0
    1.4868   -0.1240    4.8635 H   0  0  0  0  0  0  0  0  0  0  0  0
    3.3217    1.5447    4.7167 H   0  0  0  0  0  0  0  0  0  0  0  0
    1.0679   -0.5672   -2.8888 N   0  0  0  0  0  0  0  0  0  0  0  0
    0.9409   -1.2886   -4.1648 C   0  0  2  0  0  0  0  0  0  0  0  0
    0.9590   -2.8242   -3.9705 C   0  0  0  0  0  0  0  0  0  0  0  0
    1.8762   -3.5153   -4.3964 O   0  0  0  0  0  0  0  0  0  0  0  0
    2.0595   -0.7880   -5.0873 C   0  0  0  0  0  0  0  0  0  0  0  0
    1.9948   -0.2674   -2.6004 H   0  0  0  0  0  0  0  0  0  0  0  0
   -0.0149   -1.0362   -4.6369 H   0  0  0  0  0  0  0  0  0  0  0  0
    3.0426   -1.0167   -4.6632 H   0  0  0  0  0  0  0  0  0  0  0  0
    1.9857   -1.2699   -6.0675 H   0  0  0  0  0  0  0  0  0  0  0  0
    1.9811    0.2941   -5.2293 H   0  0  0  0  0  0  0  0  0  0  0  0
   -0.0666   -3.4229   -3.2662 N   0  0  0  0  0  0  0  0  0  0  0  0
   -0.1172   -4.8439   -2.9517 C   0  0  0  0  0  0  0  0  0  0  0  0
   -0.7672   -2.7943   -2.8648 H   0  0  0  0  0  0  0  0  0  0  0  0
   -0.1438   -5.4384   -3.8707 H   0  0  0  0  0  0  0  0  0  0  0  0
    0.7597   -5.1384   -2.3661 H   0  0  0  0  0  0  0  0  0  0  0  0
   -1.0149   -5.0688   -2.3681 H   0  0  0  0  0  0  0  0  0  0  0  0
  1  2  2  0  0  0  0
  1  3  1  0  0  0  0
  1  7  1  0  0  0  0
  3  4  1  0  0  0  0
  3  5  1  0  0  0  0
  3  6  1  0  0  0  0
  7  8  1  0  0  0  0
  7 12  1  0  0  0  0
  8  9  1  0  0  0  0
  8 11  1  0  0  0  0
  8 13  1  0  0  0  0
  9 10  2  0  0  0  0
  9 17  1  0  0  0  0
 11 14  1  0  0  0  0
 11 15  1  0  0  0  0
 11 16  1  0  0  0  0
 17 18  1  0  0  0  0
 17 28  1  0  0  0  0
 18 19  1  0  0  0  0
 18 21  1  0  0  0  0
 18 29  1  0  0  0  0
 19 20  2  0  0  0  0
 19 37  1  0  0  0  0
 21 22  1  0  0  0  0
 21 30  1  0  0  0  0
 21 31  1  0  0  0  0
 22 23  1  0  0  0  0
 22 24  2  0  0  0  0
 23 25  2  0  0  0  0
 23 32  1  0  0  0  0
 24 26  1  0  0  0  0
 24 33  1  0  0  0  0
 25 27  1  0  0  0  0
 25 34  1  0  0  0  0
 26 27  2  0  0  0  0
 26 35  1  0  0  0  0
 27 36  1  0  0  0  0
 37 38  1  0  0  0  0
 37 42  1  0  0  0  0
 38 39  1  0  0  0  0
 38 41  1  0  0  0  0
 38 43  1  0  0  0  0
 39 40  2  0  0  0  0
 39 47  1  0  0  0  0
 41 44  1  0  0  0  0
 41 45  1  0  0  0  0
 41 46  1  0  0  0  0
 47 48  1  0  0  0  0
 47 49  1  0  0  0  0
 48 50  1  0  0  0  0
 48 51  1  0  0  0  0
 48 52  1  0  0  0  0
M  END
$$$$

  -OEChem-05262217163D

 52 52  0     1  0  0  0  0  0999 V2000
   -2.3715    0.0651    3.6370 C   0  0  0  0  0  0  0  0  0  0  0  0
   -2.5086   -0.8878    2.8851 O   0  0  0  0  0  0  0  0  0  0  0  0
   -2.1732   -0.1644    5.1234 C   0  0  0  0  0  0  0  0  0  0  0  0
   -2.1478   -1.2360    5.3397 H   0  0  0  0  0  0  0  0  0  0  0  0
   -1.2300    0.2825    5.4474 H   0  0  0  0  0  0  0  0  0  0  0  0
   -2.9948    0.2890    5.6830 H   0  0  0  0  0  0  0  0  0  0  0  0
   -2.3373    1.3492    3.1350 N   0  0  0  0  0  0  0  0  0  0  0  0
   -2.1868    1.6265    1.6996 C   0  0  2  0  0  0  0  0  0  0  0  0
   -0.7018    1.6913    1.2866 C   0  0  0  0  0  0  0  0  0  0  0  0
    0.1304    2.1095    2.0802 O   0  0  0  0  0  0  0  0  0  0  0  0
   -2.8886    2.9544    1.4065 C   0  0  0  0  0  0  0  0  0  0  0  0
   -1.9603    2.0484    3.7701 H   0  0  0  0  0  0  0  0  0  0  0  0
   -2.6714    0.8426    1.1075 H   0  0  0  0  0  0  0  0  0  0  0  0
   -2.4175    3.7690    1.9662 H   0  0  0  0  0  0  0  0  0  0  0  0
   -2.8327    3.1890    0.3390 H   0  0  0  0  0  0  0  0  0  0  0  0
   -3.9434    2.8969    1.6929 H   0  0  0  0  0  0  0  0  0  0  0  0
   -0.3380    1.5443   -0.0355 N   0  0  0  0  0  0  0  0  0  0  0  0
    0.8577    0.8553   -0.5712 C   0  0  2  0  0  0  0  0  0  0  0  0
    0.4721    0.3070   -1.9722 C   0  0  0  0  0  0  0  0  0  0  0  0
   -0.6801    0.4232   -2.3861 O   0  0  0  0  0  0  0  0  0  0  0  0
    1.3452   -0.4159    0.1970 C   0  0  0  0  0  0  0  0  0  0  0  0
    1.8973   -0.2348    1.5902 C   0  0  0  0  0  0  0  0  0  0  0  0
    3.2223    0.1881    1.7760 C   0  0  0  0  0  0  0  0  0  0  0  0
    1.1601   -0.6558    2.7097 C   0  0  0  0  0  0  0  0  0  0  0  0
    3.7732    0.2613    3.0603 C   0  0  0  0  0  0  0  0  0  0  0  0
    1.7093   -0.5865    3.9940 C   0  0  0  0  0  0  0  0  0  0  0  0
    3.0145   -0.1198    4.1708 C   0  0  0  0  0  0  0  0  0  0  0  0
   -1.1427    1.4332   -0.6546 H   0  0  0  0  0  0  0  0  0  0  0  0
    1.6798    1.5712   -0.6611 H   0  0  0  0  0  0  0  0  0  0  0  0
    2.1349   -0.9092   -0.3769 H   0  0  0  0  0  0  0  0  0  0  0  0
    0.5071   -1.1201    0.2472 H   0  0  0  0  0  0  0  0  0  0  0  0
    3.8278    0.4758    0.9229 H   0  0  0  0  0  0  0  0  0  0  0  0
    0.1528   -1.0403    2.5830 H   0  0  0  0  0  0  0  0  0  0  0  0
    4.7918    0.6120    3.1954 H   0  0  0  0  0  0  0  0  0  0  0  0
    1.1228   -0.9020    4.8509 H   0  0  0  0  0  0  0  0  0  0  0  0
    3.4410   -0.0615    5.1677 H   0  0  0  0  0  0  0  0  0  0  0  0
    1.3702   -0.3955   -2.7587 N   0  0  0  0  0  0  0  0  0  0  0  0
    1.0301   -1.0247   -4.0447 C   0  0  2  0  0  0  0  0  0  0  0  0
    0.2771   -2.3645   -3.8584 C   0  0  0  0  0  0  0  0  0  0  0  0
    0.7603   -3.4305   -4.2193 O   0  0  0  0  0  0  0  0  0  0  0  0
    2.3331   -1.1772   -4.8391 C   0  0  0  0  0  0  0  0  0  0  0  0
    2.2924   -0.5729   -2.3704 H   0  0  0  0  0  0  0  0  0  0  0  0
    0.3703   -0.3620   -4.6150 H   0  0  0  0  0  0  0  0  0  0  0  0
    3.0320   -1.8353   -4.3126 H   0  0  0  0  0  0  0  0  0  0  0  0
    2.1275   -1.6094   -5.8238 H   0  0  0  0  0  0  0  0  0  0  0  0
    2.8091   -0.2024   -4.9833 H   0  0  0  0  0  0  0  0  0  0  0  0
   -0.9589   -2.3584   -3.2428 N   0  0  0  0  0  0  0  0  0  0  0  0
   -1.7274   -3.5594   -2.9456 C   0  0  0  0  0  0  0  0  0  0  0  0
   -1.2924   -1.4516   -2.9077 H   0  0  0  0  0  0  0  0  0  0  0  0
   -1.9719   -4.0951   -3.8687 H   0  0  0  0  0  0  0  0  0  0  0  0
   -1.1574   -4.2260   -2.2900 H   0  0  0  0  0  0  0  0  0  0  0  0
   -2.6619   -3.2941   -2.4418 H   0  0  0  0  0  0  0  0  0  0  0  0
  1  2  2  0  0  0  0
  1  3  1  0  0  0  0
  1  7  1  0  0  0  0
  3  4  1  0  0  0  0
  3  5  1  0  0  0  0
  3  6  1  0  0  0  0
  7  8  1  0  0  0  0
  7 12  1  0  0  0  0
  8  9  1  0  0  0  0
  8 11  1  0  0  0  0
  8 13  1  0  0  0  0
  9 10  2  0  0  0  0
  9 17  1  0  0  0  0
 11 14  1  0  0  0  0
 11 15  1  0  0  0  0
 11 16  1  0  0  0  0
 17 18  1  0  0  0  0
 17 28  1  0  0  0  0
 18 19  1  0  0  0  0
 18 21  1  0  0  0  0
 18 29  1  0  0  0  0
 19 20  2  0  0  0  0
 19 37  1  0  0  0  0
 21 22  1  0  0  0  0
 21 30  1  0  0  0  0
 21 31  1  0  0  0  0
 22 23  1  0  0  0  0
 22 24  2  0  0  0  0
 23 25  2  0  0  0  0
 23 32  1  0  0  0  0
 24 26  1  0  0  0  0
 24 33  1  0  0  0  0
 25 27  1  0  0  0  0
 25 34  1  0  0  0  0
 26 27  2  0  0  0  0
 26 35  1  0  0  0  0
 27 36  1  0  0  0  0
 37 38  1  0  0  0  0
 37 42  1  0  0  0  0
 38 39  1  0  0  0  0
 38 41  1  0  0  0  0
 38 43  1  0  0  0  0
 39 40  2  0  0  0  0
 39 47  1  0  0  0  0
 41 44  1  0  0  0  0
 41 45  1  0  0  0  0
 41 46  1  0  0  0  0
 47 48  1  0  0  0  0
 47 49  1  0  0  0  0
 48 50  1  0  0  0  0
 48 51  1  0  0  0  0
 48 52  1  0  0  0  0
M  END
$$$$

  -OEChem-05262217163D

 52 52  0     1  0  0  0  0  0999 V2000
   -2.4336    0.0116    3.4863 C   0  0  0  0  0  0  0  0  0  0  0  0
   -2.4866   -0.9276    2.7068 O   0  0  0  0  0  0  0  0  0  0  0  0
   -2.3083   -0.2459    4.9759 C   0  0  0  0  0  0  0  0  0  0  0  0
   -2.2989   -1.3216    5.1734 H   0  0  0  0  0  0  0  0  0  0  0  0
   -1.3793    0.1894    5.3524 H   0  0  0  0  0  0  0  0  0  0  0  0
   -3.1535    0.2018    5.5044 H   0  0  0  0  0  0  0  0  0  0  0  0
   -2.4242    1.3070    3.0130 N   0  0  0  0  0  0  0  0  0  0  0  0
   -2.2089    1.6134    1.5923 C   0  0  2  0  0  0  0  0  0  0  0  0
   -0.7071    1.6519    1.2413 C   0  0  0  0  0  0  0  0  0  0  0  0
    0.0939    2.0774    2.0620 O   0  0  0  0  0  0  0  0  0  0  0  0
   -2.8674    2.9631    1.2969 C   0  0  0  0  0  0  0  0  0  0  0  0
   -2.1078    2.0065    3.6797 H   0  0  0  0  0  0  0  0  0  0  0  0
   -2.6871    0.8525    0.9658 H   0  0  0  0  0  0  0  0  0  0  0  0
   -2.4035    3.7554    1.8934 H   0  0  0  0  0  0  0  0  0  0  0  0
   -2.7578    3.2183    0.2383 H   0  0  0  0  0  0  0  0  0  0  0  0
   -3.9351    2.9252    1.5348 H   0  0  0  0  0  0  0  0  0  0  0  0
   -0.2949    1.4718   -0.0625 N   0  0  0  0  0  0  0  0  0  0  0  0
    0.9221    0.7875   -0.5570 C   0  0  2  0  0  0  0  0  0  0  0  0
    0.5590    0.2080   -1.9572 C   0  0  0  0  0  0  0  0  0  0  0  0
   -0.5107    0.5089   -2.4844 O   0  0  0  0  0  0  0  0  0  0  0  0
    1.4245   -0.4433    0.2684 C   0  0  0  0  0  0  0  0  0  0  0  0
    1.9542   -0.2002    1.6608 C   0  0  0  0  0  0  0  0  0  0  0  0
    3.2685    0.2550    1.8474 C   0  0  0  0  0  0  0  0  0  0  0  0
    1.2138   -0.6024    2.7853 C   0  0  0  0  0  0  0  0  0  0  0  0
    3.8036    0.3800    3.1343 C   0  0  0  0  0  0  0  0  0  0  0  0
    1.7476   -0.4827    4.0725 C   0  0  0  0  0  0  0  0  0  0  0  0
    3.0411    0.0162    4.2481 C   0  0  0  0  0  0  0  0  0  0  0  0
   -1.0730    1.3811   -0.7177 H   0  0  0  0  0  0  0  0  0  0  0  0
    1.7328    1.5156   -0.6559 H   0  0  0  0  0  0  0  0  0  0  0  0
    2.2389   -0.9357   -0.2694 H   0  0  0  0  0  0  0  0  0  0  0  0
    0.6020   -1.1647    0.3314 H   0  0  0  0  0  0  0  0  0  0  0  0
    3.8779    0.5277    0.9919 H   0  0  0  0  0  0  0  0  0  0  0  0
    0.2155   -1.0101    2.6595 H   0  0  0  0  0  0  0  0  0  0  0  0
    4.8129    0.7572    3.2679 H   0  0  0  0  0  0  0  0  0  0  0  0
    1.1584   -0.7823    4.9333 H   0  0  0  0  0  0  0  0  0  0  0  0
    3.4556    0.1136    5.2468 H   0  0  0  0  0  0  0  0  0  0  0  0
    1.3301   -0.7448   -2.6049 N   0  0  0  0  0  0  0  0  0  0  0  0
    0.9460   -1.4142   -3.8586 C   0  0  2  0  0  0  0  0  0  0  0  0
   -0.0716   -2.5553   -3.6178 C   0  0  0  0  0  0  0  0  0  0  0  0
    0.2068   -3.7256   -3.8476 O   0  0  0  0  0  0  0  0  0  0  0  0
    2.2345   -1.8966   -4.5366 C   0  0  0  0  0  0  0  0  0  0  0  0
    2.1543   -1.0864   -2.1188 H   0  0  0  0  0  0  0  0  0  0  0  0
    0.4687   -0.6932   -4.5312 H   0  0  0  0  0  0  0  0  0  0  0  0
    2.7554   -2.6227   -3.9043 H   0  0  0  0  0  0  0  0  0  0  0  0
    2.0019   -2.3761   -5.4929 H   0  0  0  0  0  0  0  0  0  0  0  0
    2.9044   -1.0529   -4.7282 H   0  0  0  0  0  0  0  0  0  0  0  0
   -1.3090   -2.2480   -3.0885 N   0  0  0  0  0  0  0  0  0  0  0  0
   -2.2999   -3.2449   -2.7071 C   0  0  0  0  0  0  0  0  0  0  0  0
   -1.4672   -1.2656   -2.8542 H   0  0  0  0  0  0  0  0  0  0  0  0
   -2.5957   -3.8427   -3.5755 H   0  0  0  0  0  0  0  0  0  0  0  0
   -1.8943   -3.9129   -1.9401 H   0  0  0  0  0  0  0  0  0  0  0  0
   -3.1917   -2.7556   -2.3039 H   0  0  0  0  0  0  0  0  0  0  0  0
  1  2  2  0  0  0  0
  1  3  1  0  0  0  0
  1  7  1  0  0  0  0
  3  4  1  0  0  0  0
  3  5  1  0  0  0  0
  3  6  1  0  0  0  0
  7  8  1  0  0  0  0
  7 12  1  0  0  0  0
  8  9  1  0  0  0  0
  8 11  1  0  0  0  0
  8 13  1  0  0  0  0
  9 10  2  0  0  0  0
  9 17  1  0  0  0  0
 11 14  1  0  0  0  0
 11 15  1  0  0  0  0
 11 16  1  0  0  0  0
 17 18  1  0  0  0  0
 17 28  1  0  0  0  0
 18 19  1  0  0  0  0
 18 21  1  0  0  0  0
 18 29  1  0  0  0  0
 19 20  2  0  0  0  0
 19 37  1  0  0  0  0
 21 22  1  0  0  0  0
 21 30  1  0  0  0  0
 21 31  1  0  0  0  0
 22 23  1  0  0  0  0
 22 24  2  0  0  0  0
 23 25  2  0  0  0  0
 23 32  1  0  0  0  0
 24 26  1  0  0  0  0
 24 33  1  0  0  0  0
 25 27  1  0  0  0  0
 25 34  1  0  0  0  0
 26 27  2  0  0  0  0
 26 35  1  0  0  0  0
 27 36  1  0  0  0  0
 37 38  1  0  0  0  0
 37 42  1  0  0  0  0
 38 39  1  0  0  0  0
 38 41  1  0  0  0  0
 38 43  1  0  0  0  0
 39 40  2  0  0  0  0
 39 47  1  0  0  0  0
 41 44  1  0  0  0  0
 41 45  1  0  0  0  0
 41 46  1  0  0  0  0
 47 48  1  0  0  0  0
 47 49  1  0  0  0  0
 48 50  1  0  0  0  0
 48 51  1  0  0  0  0
 48 52  1  0  0  0  0
M  END
$$$$

  -OEChem-05262217163D

 52 52  0     1  0  0  0  0  0999 V2000
   -2.4378   -0.0168    3.4264 C   0  0  0  0  0  0  0  0  0  0  0  0
   -2.4084   -0.9654    2.6568 O   0  0  0  0  0  0  0  0  0  0  0  0
   -2.3362   -0.2481    4.9219 C   0  0  0  0  0  0  0  0  0  0  0  0
   -2.2204   -1.3150    5.1320 H   0  0  0  0  0  0  0  0  0  0  0  0
   -1.4708    0.2857    5.3231 H   0  0  0  0  0  0  0  0  0  0  0  0
   -3.2409    0.1123    5.4173 H   0  0  0  0  0  0  0  0  0  0  0  0
   -2.4941    1.2713    2.9369 N   0  0  0  0  0  0  0  0  0  0  0  0
   -2.2459    1.5679    1.5199 C   0  0  2  0  0  0  0  0  0  0  0  0
   -0.7361    1.5955    1.2027 C   0  0  0  0  0  0  0  0  0  0  0  0
    0.0424    2.0555    2.0256 O   0  0  0  0  0  0  0  0  0  0  0  0
   -2.8910    2.9187    1.2015 C   0  0  0  0  0  0  0  0  0  0  0  0
   -2.2429    1.9965    3.6037 H   0  0  0  0  0  0  0  0  0  0  0  0
   -2.7150    0.8038    0.8905 H   0  0  0  0  0  0  0  0  0  0  0  0
   -2.4391    3.7124    1.8056 H   0  0  0  0  0  0  0  0  0  0  0  0
   -2.7534    3.1673    0.1445 H   0  0  0  0  0  0  0  0  0  0  0  0
   -3.9645    2.8860    1.4125 H   0  0  0  0  0  0  0  0  0  0  0  0
   -0.2930    1.3553   -0.0816 N   0  0  0  0  0  0  0  0  0  0  0  0
    0.9425    0.6688   -0.5257 C   0  0  2  0  0  0  0  0  0  0  0  0
    0.5982    0.0201   -1.9013 C   0  0  0  0  0  0  0  0  0  0  0  0
   -0.3256    0.4817   -2.5682 O   0  0  0  0  0  0  0  0  0  0  0  0
    1.4834   -0.4913    0.3733 C   0  0  0  0  0  0  0  0  0  0  0  0
    2.0092   -0.1469    1.7452 C   0  0  0  0  0  0  0  0  0  0  0  0
    3.3104    0.3572    1.8959 C   0  0  0  0  0  0  0  0  0  0  0  0
    1.2852   -0.5003    2.8965 C   0  0  0  0  0  0  0  0  0  0  0  0
    3.8459    0.5783    3.1698 C   0  0  0  0  0  0  0  0  0  0  0  0
    1.8182   -0.2809    4.1709 C   0  0  0  0  0  0  0  0  0  0  0  0
    3.0970    0.2660    4.3082 C   0  0  0  0  0  0  0  0  0  0  0  0
   -1.0498    1.2633   -0.7596 H   0  0  0  0  0  0  0  0  0  0  0  0
    1.7347    1.4110   -0.6632 H   0  0  0  0  0  0  0  0  0  0  0  0
    2.3161   -0.9834   -0.1369 H   0  0  0  0  0  0  0  0  0  0  0  0
    0.6860   -1.2346    0.4843 H   0  0  0  0  0  0  0  0  0  0  0  0
    3.9085    0.5924    1.0213 H   0  0  0  0  0  0  0  0  0  0  0  0
    0.2991   -0.9442    2.8015 H   0  0  0  0  0  0  0  0  0  0  0  0
    4.8445    0.9915    3.2747 H   0  0  0  0  0  0  0  0  0  0  0  0
    1.2394   -0.5398    5.0516 H   0  0  0  0  0  0  0  0  0  0  0  0
    3.5111    0.4406    5.2966 H   0  0  0  0  0  0  0  0  0  0  0  0
    1.1866   -1.1426   -2.3764 N   0  0  0  0  0  0  0  0  0  0  0  0
    0.8021   -1.8268   -3.6217 C   0  0  2  0  0  0  0  0  0  0  0  0
   -0.4791   -2.6781   -3.4504 C   0  0  0  0  0  0  0  0  0  0  0  0
   -0.4629   -3.8974   -3.5644 O   0  0  0  0  0  0  0  0  0  0  0  0
    2.0105   -2.6531   -4.0798 C   0  0  0  0  0  0  0  0  0  0  0  0
    1.8554   -1.6077   -1.7696 H   0  0  0  0  0  0  0  0  0  0  0  0
    0.5941   -1.0852   -4.4005 H   0  0  0  0  0  0  0  0  0  0  0  0
    2.2658   -3.4114   -3.3325 H   0  0  0  0  0  0  0  0  0  0  0  0
    1.7863   -3.1607   -5.0236 H   0  0  0  0  0  0  0  0  0  0  0  0
    2.8793   -2.0061   -4.2352 H   0  0  0  0  0  0  0  0  0  0  0  0
   -1.6646   -2.0459   -3.1328 N   0  0  0  0  0  0  0  0  0  0  0  0
   -2.9075   -2.7470   -2.8419 C   0  0  0  0  0  0  0  0  0  0  0  0
   -1.6086   -1.0360   -2.9840 H   0  0  0  0  0  0  0  0  0  0  0  0
   -3.2024   -3.3715   -3.6917 H   0  0  0  0  0  0  0  0  0  0  0  0
   -2.7898   -3.3843   -1.9592 H   0  0  0  0  0  0  0  0  0  0  0  0
   -3.7096   -2.0286   -2.6471 H   0  0  0  0  0  0  0  0  0  0  0  0
  1  2  2  0  0  0  0
  1  3  1  0  0  0  0
  1  7  1  0  0  0  0
  3  4  1  0  0  0  0
  3  5  1  0  0  0  0
  3  6  1  0  0  0  0
  7  8  1  0  0  0  0
  7 12  1  0  0  0  0
  8  9  1  0  0  0  0
  8 11  1  0  0  0  0
  8 13  1  0  0  0  0
  9 10  2  0  0  0  0
  9 17  1  0  0  0  0
 11 14  1  0  0  0  0
 11 15  1  0  0  0  0
 11 16  1  0  0  0  0
 17 18  1  0  0  0  0
 17 28  1  0  0  0  0
 18 19  1  0  0  0  0
 18 21  1  0  0  0  0
 18 29  1  0  0  0  0
 19 20  2  0  0  0  0
 19 37  1  0  0  0  0
 21 22  1  0  0  0  0
 21 30  1  0  0  0  0
 21 31  1  0  0  0  0
 22 23  1  0  0  0  0
 22 24  2  0  0  0  0
 23 25  2  0  0  0  0
 23 32  1  0  0  0  0
 24 26  1  0  0  0  0
 24 33  1  0  0  0  0
 25 27  1  0  0  0  0
 25 34  1  0  0  0  0
 26 27  2  0  0  0  0
 26 35  1  0  0  0  0
 27 36  1  0  0  0  0
 37 38  1  0  0  0  0
 37 42  1  0  0  0  0
 38 39  1  0  0  0  0
 38 41  1  0  0  0  0
 38 43  1  0  0  0  0
 39 40  2  0  0  0  0
 39 47  1  0  0  0  0
 41 44  1  0  0  0  0
 41 45  1  0  0  0  0
 41 46  1  0  0  0  0
 47 48  1  0  0  0  0
 47 49  1  0  0  0  0
 48 50  1  0  0  0  0
 48 51  1  0  0  0  0
 48 52  1  0  0  0  0
M  END
$$$$

  -OEChem-05262217163D

 52 52  0     1  0  0  0  0  0999 V2000
   -2.4316    0.0498    3.4895 C   0  0  0  0  0  0  0  0  0  0  0  0
   -2.3721   -0.9414    2.7773 O   0  0  0  0  0  0  0  0  0  0  0  0
   -2.3225   -0.0902    4.9960 C   0  0  0  0  0  0  0  0  0  0  0  0
   -2.2241   -1.1440    5.2707 H   0  0  0  0  0  0  0  0  0  0  0  0
   -1.4444    0.4512    5.3571 H   0  0  0  0  0  0  0  0  0  0  0  0
   -3.2166    0.3158    5.4753 H   0  0  0  0  0  0  0  0  0  0  0  0
   -2.5246    1.3042    2.9229 N   0  0  0  0  0  0  0  0  0  0  0  0
   -2.2744    1.5182    1.4909 C   0  0  2  0  0  0  0  0  0  0  0  0
   -0.7638    1.5409    1.1771 C   0  0  0  0  0  0  0  0  0  0  0  0
    0.0096    2.0332    1.9855 O   0  0  0  0  0  0  0  0  0  0  0  0
   -2.9312    2.8404    1.0880 C   0  0  0  0  0  0  0  0  0  0  0  0
   -2.2910    2.0739    3.5448 H   0  0  0  0  0  0  0  0  0  0  0  0
   -2.7335    0.7121    0.9082 H   0  0  0  0  0  0  0  0  0  0  0  0
   -2.4846    3.6743    1.6395 H   0  0  0  0  0  0  0  0  0  0  0  0
   -2.7976    3.0223    0.0171 H   0  0  0  0  0  0  0  0  0  0  0  0
   -4.0041    2.8127    1.3030 H   0  0  0  0  0  0  0  0  0  0  0  0
   -0.3156    1.2476   -0.0944 N   0  0  0  0  0  0  0  0  0  0  0  0
    0.9266    0.5534   -0.5042 C   0  0  2  0  0  0  0  0  0  0  0  0
    0.5879   -0.1571   -1.8482 C   0  0  0  0  0  0  0  0  0  0  0  0
   -0.1512    0.4127   -2.6463 O   0  0  0  0  0  0  0  0  0  0  0  0
    1.4994   -0.5470    0.4467 C   0  0  0  0  0  0  0  0  0  0  0  0
    2.0357   -0.1253    1.7930 C   0  0  0  0  0  0  0  0  0  0  0  0
    3.3293    0.4077    1.9020 C   0  0  0  0  0  0  0  0  0  0  0  0
    1.3314   -0.4326    2.9693 C   0  0  0  0  0  0  0  0  0  0  0  0
    3.8778    0.6962    3.1565 C   0  0  0  0  0  0  0  0  0  0  0  0
    1.8775   -0.1457    4.2243 C   0  0  0  0  0  0  0  0  0  0  0  0
    3.1498    0.4246    4.3184 C   0  0  0  0  0  0  0  0  0  0  0  0
   -1.0662    1.1468   -0.7764 H   0  0  0  0  0  0  0  0  0  0  0  0
    1.7060    1.3003   -0.6823 H   0  0  0  0  0  0  0  0  0  0  0  0
    2.3319   -1.0486   -0.0566 H   0  0  0  0  0  0  0  0  0  0  0  0
    0.7163   -1.2959    0.6106 H   0  0  0  0  0  0  0  0  0  0  0  0
    3.9117    0.6109    1.0091 H   0  0  0  0  0  0  0  0  0  0  0  0
    0.3493   -0.8915    2.9096 H   0  0  0  0  0  0  0  0  0  0  0  0
    4.8708    1.1291    3.2279 H   0  0  0  0  0  0  0  0  0  0  0  0
    1.3137   -0.3710    5.1237 H   0  0  0  0  0  0  0  0  0  0  0  0
    3.5747    0.6491    5.2921 H   0  0  0  0  0  0  0  0  0  0  0  0
    0.9415   -1.4641   -2.1510 N   0  0  0  0  0  0  0  0  0  0  0  0
    0.5614   -2.1707   -3.3854 C   0  0  2  0  0  0  0  0  0  0  0  0
   -0.8893   -2.7082   -3.3349 C   0  0  0  0  0  0  0  0  0  0  0  0
   -1.1348   -3.9077   -3.3650 O   0  0  0  0  0  0  0  0  0  0  0  0
    1.5978   -3.2779   -3.6175 C   0  0  0  0  0  0  0  0  0  0  0  0
    1.4156   -1.9972   -1.4273 H   0  0  0  0  0  0  0  0  0  0  0  0
    0.6188   -1.4815   -4.2347 H   0  0  0  0  0  0  0  0  0  0  0  0
    1.5801   -4.0024   -2.7968 H   0  0  0  0  0  0  0  0  0  0  0  0
    1.3820   -3.8087   -4.5506 H   0  0  0  0  0  0  0  0  0  0  0  0
    2.6032   -2.8521   -3.6883 H   0  0  0  0  0  0  0  0  0  0  0  0
   -1.9323   -1.8091   -3.2389 N   0  0  0  0  0  0  0  0  0  0  0  0
   -3.3303   -2.1949   -3.1053 C   0  0  0  0  0  0  0  0  0  0  0  0
   -1.6696   -0.8239   -3.1626 H   0  0  0  0  0  0  0  0  0  0  0  0
   -3.6402   -2.8121   -3.9550 H   0  0  0  0  0  0  0  0  0  0  0  0
   -3.4838   -2.7633   -2.1820 H   0  0  0  0  0  0  0  0  0  0  0  0
   -3.9659   -1.3050   -3.0754 H   0  0  0  0  0  0  0  0  0  0  0  0
  1  2  2  0  0  0  0
  1  3  1  0  0  0  0
  1  7  1  0  0  0  0
  3  4  1  0  0  0  0
  3  5  1  0  0  0  0
  3  6  1  0  0  0  0
  7  8  1  0  0  0  0
  7 12  1  0  0  0  0
  8  9  1  0  0  0  0
  8 11  1  0  0  0  0
  8 13  1  0  0  0  0
  9 10  2  0  0  0  0
  9 17  1  0  0  0  0
 11 14  1  0  0  0  0
 11 15  1  0  0  0  0
 11 16  1  0  0  0  0
 17 18  1  0  0  0  0
 17 28  1  0  0  0  0
 18 19  1  0  0  0  0
 18 21  1  0  0  0  0
 18 29  1  0  0  0  0
 19 20  2  0  0  0  0
 19 37  1  0  0  0  0
 21 22  1  0  0  0  0
 21 30  1  0  0  0  0
 21 31  1  0  0  0  0
 22 23  1  0  0  0  0
 22 24  2  0  0  0  0
 23 25  2  0  0  0  0
 23 32  1  0  0  0  0
 24 26  1  0  0  0  0
 24 33  1  0  0  0  0
 25 27  1  0  0  0  0
 25 34  1  0  0  0  0
 26 27  2  0  0  0  0
 26 35  1  0  0  0  0
 27 36  1  0  0  0  0
 37 38  1  0  0  0  0
 37 42  1  0  0  0  0
 38 39  1  0  0  0  0
 38 41  1  0  0  0  0
 38 43  1  0  0  0  0
 39 40  2  0  0  0  0
 39 47  1  0  0  0  0
 41 44  1  0  0  0  0
 41 45  1  0  0  0  0
 41 46  1  0  0  0  0
 47 48  1  0  0  0  0
 47 49  1  0  0  0  0
 48 50  1  0  0  0  0
 48 51  1  0  0  0  0
 48 52  1  0  0  0  0
M  END
$$$$

  -OEChem-05262217163D

 52 52  0     1  0  0  0  0  0999 V2000
   -2.3543    0.1879    3.7709 C   0  0  0  0  0  0  0  0  0  0  0  0
   -2.3070   -0.9012    3.2203 O   0  0  0  0  0  0  0  0  0  0  0  0
   -2.2542    0.2763    5.2819 C   0  0  0  0  0  0  0  0  0  0  0  0
   -2.2006   -0.7261    5.7157 H   0  0  0  0  0  0  0  0  0  0  0  0
   -1.3551    0.8306    5.5628 H   0  0  0  0  0  0  0  0  0  0  0  0
   -3.1316    0.7879    5.6849 H   0  0  0  0  0  0  0  0  0  0  0  0
   -2.4455    1.3450    3.0254 N   0  0  0  0  0  0  0  0  0  0  0  0
   -2.2027    1.3569    1.5757 C   0  0  2  0  0  0  0  0  0  0  0  0
   -0.6989    1.4724    1.2479 C   0  0  0  0  0  0  0  0  0  0  0  0
    0.0540    2.0149    2.0448 O   0  0  0  0  0  0  0  0  0  0  0  0
   -2.9787    2.5353    0.9830 C   0  0  0  0  0  0  0  0  0  0  0  0
   -2.2049    2.1948    3.5287 H   0  0  0  0  0  0  0  0  0  0  0  0
   -2.5779    0.4320    1.1236 H   0  0  0  0  0  0  0  0  0  0  0  0
   -2.6167    3.4811    1.3993 H   0  0  0  0  0  0  0  0  0  0  0  0
   -2.8575    2.5661   -0.1042 H   0  0  0  0  0  0  0  0  0  0  0  0
   -4.0451    2.4383    1.2091 H   0  0  0  0  0  0  0  0  0  0  0  0
   -0.2415    1.2142   -0.0277 N   0  0  0  0  0  0  0  0  0  0  0  0
    1.0075    0.5258   -0.4236 C   0  0  2  0  0  0  0  0  0  0  0  0
    0.7012   -0.1548   -1.7851 C   0  0  0  0  0  0  0  0  0  0  0  0
    0.2297    0.5312   -2.6853 O   0  0  0  0  0  0  0  0  0  0  0  0
    1.5736   -0.5807    0.5218 C   0  0  0  0  0  0  0  0  0  0  0  0
    2.0908   -0.1582    1.8753 C   0  0  0  0  0  0  0  0  0  0  0  0
    3.3798    0.3830    1.9959 C   0  0  0  0  0  0  0  0  0  0  0  0
    1.3720   -0.4578    3.0454 C   0  0  0  0  0  0  0  0  0  0  0  0
    3.9112    0.6869    3.2542 C   0  0  0  0  0  0  0  0  0  0  0  0
    1.9018   -0.1562    4.3044 C   0  0  0  0  0  0  0  0  0  0  0  0
    3.1696    0.4229    4.4095 C   0  0  0  0  0  0  0  0  0  0  0  0
   -0.9930    1.0847   -0.7032 H   0  0  0  0  0  0  0  0  0  0  0  0
    1.7877    1.2776   -0.5767 H   0  0  0  0  0  0  0  0  0  0  0  0
    2.4042   -1.0828    0.0142 H   0  0  0  0  0  0  0  0  0  0  0  0
    0.7887   -1.3280    0.6822 H   0  0  0  0  0  0  0  0  0  0  0  0
    3.9709    0.5821    1.1077 H   0  0  0  0  0  0  0  0  0  0  0  0
    0.3912   -0.9202    2.9799 H   0  0  0  0  0  0  0  0  0  0  0  0
    4.9009    1.1264    3.3332 H   0  0  0  0  0  0  0  0  0  0  0  0
    1.3265   -0.3757    5.1982 H   0  0  0  0  0  0  0  0  0  0  0  0
    3.5798    0.6612    5.3861 H   0  0  0  0  0  0  0  0  0  0  0  0
    0.7842   -1.5212   -2.0045 N   0  0  0  0  0  0  0  0  0  0  0  0
    0.1649   -2.1611   -3.1724 C   0  0  2  0  0  0  0  0  0  0  0  0
   -1.3619   -2.2984   -2.9960 C   0  0  0  0  0  0  0  0  0  0  0  0
   -1.8178   -2.7662   -1.9594 O   0  0  0  0  0  0  0  0  0  0  0  0
    0.8139   -3.5340   -3.3621 C   0  0  0  0  0  0  0  0  0  0  0  0
    0.8842   -2.0947   -1.1708 H   0  0  0  0  0  0  0  0  0  0  0  0
    0.3599   -1.5658   -4.0707 H   0  0  0  0  0  0  0  0  0  0  0  0
    0.6391   -4.1675   -2.4862 H   0  0  0  0  0  0  0  0  0  0  0  0
    0.3940   -4.0343   -4.2402 H   0  0  0  0  0  0  0  0  0  0  0  0
    1.8934   -3.4276   -3.5072 H   0  0  0  0  0  0  0  0  0  0  0  0
   -2.2228   -1.8939   -3.9987 N   0  0  0  0  0  0  0  0  0  0  0  0
   -3.6728   -1.9058   -3.8498 C   0  0  0  0  0  0  0  0  0  0  0  0
   -1.8166   -1.3637   -4.7646 H   0  0  0  0  0  0  0  0  0  0  0  0
   -4.0256   -2.9141   -3.6083 H   0  0  0  0  0  0  0  0  0  0  0  0
   -3.9817   -1.2235   -3.0509 H   0  0  0  0  0  0  0  0  0  0  0  0
   -4.1506   -1.5890   -4.7820 H   0  0  0  0  0  0  0  0  0  0  0  0
  1  2  2  0  0  0  0
  1  3  1  0  0  0  0
  1  7  1  0  0  0  0
  3  4  1  0  0  0  0
  3  5  1  0  0  0  0
  3  6  1  0  0  0  0
  7  8  1  0  0  0  0
  7 12  1  0  0  0  0
  8  9  1  0  0  0  0
  8 11  1  0  0  0  0
  8 13  1  0  0  0  0
  9 10  2  0  0  0  0
  9 17  1  0  0  0  0
 11 14  1  0  0  0  0
 11 15  1  0  0  0  0
 11 16  1  0  0  0  0
 17 18  1  0  0  0  0
 17 28  1  0  0  0  0
 18 19  1  0  0  0  0
 18 21  1  0  0  0  0
 18 29  1  0  0  0  0
 19 20  2  0  0  0  0
 19 37  1  0  0  0  0
 21 22  1  0  0  0  0
 21 30  1  0  0  0  0
 21 31  1  0  0  0  0
 22 23  1  0  0  0  0
 22 24  2  0  0  0  0
 23 25  2  0  0  0  0
 23 32  1  0  0  0  0
 24 26  1  0  0  0  0
 24 33  1  0  0  0  0
 25 27  1  0  0  0  0
 25 34  1  0  0  0  0
 26 27  2  0  0  0  0
 26 35  1  0  0  0  0
 27 36  1  0  0  0  0
 37 38  1  0  0  0  0
 37 42  1  0  0  0  0
 38 39  1  0  0  0  0
 38 41  1  0  0  0  0
 38 43  1  0  0  0  0
 39 40  2  0  0  0  0
 39 47  1  0  0  0  0
 41 44  1  0  0  0  0
 41 45  1  0  0  0  0
 41 46  1  0  0  0  0
 47 48  1  0  0  0  0
 47 49  1  0  0  0  0
 48 50  1  0  0  0  0
 48 51  1  0  0  0  0
 48 52  1  0  0  0  0
M  END
$$$$

  -OEChem-05262217163D

 52 52  0     1  0  0  0  0  0999 V2000
   -2.3376    0.0769    3.6090 C   0  0  0  0  0  0  0  0  0  0  0  0
   -2.2642   -1.0666    3.1856 O   0  0  0  0  0  0  0  0  0  0  0  0
   -2.2867    0.3291    5.1039 C   0  0  0  0  0  0  0  0  0  0  0  0
   -2.2813   -0.6201    5.6467 H   0  0  0  0  0  0  0  0  0  0  0  0
   -1.3802    0.8855    5.3554 H   0  0  0  0  0  0  0  0  0  0  0  0
   -3.1598    0.9072    5.4156 H   0  0  0  0  0  0  0  0  0  0  0  0
   -2.4114    1.1496    2.7450 N   0  0  0  0  0  0  0  0  0  0  0  0
   -2.0933    1.0345    1.3137 C   0  0  2  0  0  0  0  0  0  0  0  0
   -0.6146    1.3787    1.0324 C   0  0  0  0  0  0  0  0  0  0  0  0
    0.0348    2.0218    1.8476 O   0  0  0  0  0  0  0  0  0  0  0  0
   -3.0277    1.9737    0.5479 C   0  0  0  0  0  0  0  0  0  0  0  0
   -2.2022    2.0489    3.1713 H   0  0  0  0  0  0  0  0  0  0  0  0
   -2.2717    0.0127    0.9604 H   0  0  0  0  0  0  0  0  0  0  0  0
   -2.8536    3.0137    0.8419 H   0  0  0  0  0  0  0  0  0  0  0  0
   -2.8606    1.8826   -0.5300 H   0  0  0  0  0  0  0  0  0  0  0  0
   -4.0718    1.7206    0.7565 H   0  0  0  0  0  0  0  0  0  0  0  0
   -0.0700    1.1452   -0.2108 N   0  0  0  0  0  0  0  0  0  0  0  0
    1.2245    0.4858   -0.4867 C   0  0  2  0  0  0  0  0  0  0  0  0
    1.0201   -0.1898   -1.8629 C   0  0  0  0  0  0  0  0  0  0  0  0
    0.8273    0.5095   -2.8504 O   0  0  0  0  0  0  0  0  0  0  0  0
    1.7449   -0.5983    0.5067 C   0  0  0  0  0  0  0  0  0  0  0  0
    2.1352   -0.1439    1.8918 C   0  0  0  0  0  0  0  0  0  0  0  0
    3.3907    0.4418    2.1116 C   0  0  0  0  0  0  0  0  0  0  0  0
    1.3289   -0.4497    3.0011 C   0  0  0  0  0  0  0  0  0  0  0  0
    3.8011    0.7823    3.4052 C   0  0  0  0  0  0  0  0  0  0  0  0
    1.7377   -0.1132    4.2953 C   0  0  0  0  0  0  0  0  0  0  0  0
    2.9722    0.5100    4.4977 C   0  0  0  0  0  0  0  0  0  0  0  0
   -0.7889    0.8571   -0.8789 H   0  0  0  0  0  0  0  0  0  0  0  0
    1.9946    1.2572   -0.5860 H   0  0  0  0  0  0  0  0  0  0  0  0
    2.6221   -1.0832    0.0645 H   0  0  0  0  0  0  0  0  0  0  0  0
    0.9705   -1.3639    0.6205 H   0  0  0  0  0  0  0  0  0  0  0  0
    4.0481    0.6497    1.2733 H   0  0  0  0  0  0  0  0  0  0  0  0
    0.3747   -0.9484    2.8606 H   0  0  0  0  0  0  0  0  0  0  0  0
    4.7647    1.2579    3.5599 H   0  0  0  0  0  0  0  0  0  0  0  0
    1.0959   -0.3414    5.1403 H   0  0  0  0  0  0  0  0  0  0  0  0
    3.2896    0.7758    5.5013 H   0  0  0  0  0  0  0  0  0  0  0  0
    0.8335   -1.5569   -1.9913 N   0  0  0  0  0  0  0  0  0  0  0  0
   -0.1561   -2.0355   -2.9689 C   0  0  2  0  0  0  0  0  0  0  0  0
   -1.5906   -1.5236   -2.6650 C   0  0  0  0  0  0  0  0  0  0  0  0
   -1.8641   -1.0101   -1.5812 O   0  0  0  0  0  0  0  0  0  0  0  0
   -0.1222   -3.5651   -2.9496 C   0  0  0  0  0  0  0  0  0  0  0  0
    0.8408   -2.0516   -1.1044 H   0  0  0  0  0  0  0  0  0  0  0  0
    0.1252   -1.6895   -3.9696 H   0  0  0  0  0  0  0  0  0  0  0  0
   -0.4221   -3.9431   -1.9667 H   0  0  0  0  0  0  0  0  0  0  0  0
   -0.8050   -3.9732   -3.7013 H   0  0  0  0  0  0  0  0  0  0  0  0
    0.8877   -3.9255   -3.1700 H   0  0  0  0  0  0  0  0  0  0  0  0
   -2.5849   -1.6285   -3.6198 N   0  0  0  0  0  0  0  0  0  0  0  0
   -3.9351   -1.1127   -3.4268 C   0  0  0  0  0  0  0  0  0  0  0  0
   -2.3191   -1.9732   -4.5376 H   0  0  0  0  0  0  0  0  0  0  0  0
   -4.3950   -1.5610   -2.5395 H   0  0  0  0  0  0  0  0  0  0  0  0
   -3.9155   -0.0249   -3.3020 H   0  0  0  0  0  0  0  0  0  0  0  0
   -4.5584   -1.3514   -4.2940 H   0  0  0  0  0  0  0  0  0  0  0  0
  1  2  2  0  0  0  0
  1  3  1  0  0  0  0
  1  7  1  0  0  0  0
  3  4  1  0  0  0  0
  3  5  1  0  0  0  0
  3  6  1  0  0  0  0
  7  8  1  0  0  0  0
  7 12  1  0  0  0  0
  8  9  1  0  0  0  0
  8 11  1  0  0  0  0
  8 13  1  0  0  0  0
  9 10  2  0  0  0  0
  9 17  1  0  0  0  0
 11 14  1  0  0  0  0
 11 15  1  0  0  0  0
 11 16  1  0  0  0  0
 17 18  1  0  0  0  0
 17 28  1  0  0  0  0
 18 19  1  0  0  0  0
 18 21  1  0  0  0  0
 18 29  1  0  0  0  0
 19 20  2  0  0  0  0
 19 37  1  0  0  0  0
 21 22  1  0  0  0  0
 21 30  1  0  0  0  0
 21 31  1  0  0  0  0
 22 23  1  0  0  0  0
 22 24  2  0  0  0  0
 23 25  2  0  0  0  0
 23 32  1  0  0  0  0
 24 26  1  0  0  0  0
 24 33  1  0  0  0  0
 25 27  1  0  0  0  0
 25 34  1  0  0  0  0
 26 27  2  0  0  0  0
 26 35  1  0  0  0  0
 27 36  1  0  0  0  0
 37 38  1  0  0  0  0
 37 42  1  0  0  0  0
 38 39  1  0  0  0  0
 38 41  1  0  0  0  0
 38 43  1  0  0  0  0
 39 40  2  0  0  0  0
 39 47  1  0  0  0  0
 41 44  1  0  0  0  0
 41 45  1  0  0  0  0
 41 46  1  0  0  0  0
 47 48  1  0  0  0  0
 47 49  1  0  0  0  0
 48 50  1  0  0  0  0
 48 51  1  0  0  0  0
 48 52  1  0  0  0  0
M  END
$$$$

  -OEChem-05262217163D

 52 52  0     1  0  0  0  0  0999 V2000
   -2.3447    0.0707    3.5346 C   0  0  0  0  0  0  0  0  0  0  0  0
   -2.2200   -1.0439    3.0492 O   0  0  0  0  0  0  0  0  0  0  0  0
   -2.3066    0.2460    5.0405 C   0  0  0  0  0  0  0  0  0  0  0  0
   -2.2080   -0.7258    5.5318 H   0  0  0  0  0  0  0  0  0  0  0  0
   -1.4549    0.8710    5.3202 H   0  0  0  0  0  0  0  0  0  0  0  0
   -3.2281    0.7222    5.3835 H   0  0  0  0  0  0  0  0  0  0  0  0
   -2.4635    1.1820    2.7269 N   0  0  0  0  0  0  0  0  0  0  0  0
   -2.1635    1.1363    1.2890 C   0  0  2  0  0  0  0  0  0  0  0  0
   -0.6615    1.3574    1.0118 C   0  0  0  0  0  0  0  0  0  0  0  0
    0.0207    1.9934    1.8042 O   0  0  0  0  0  0  0  0  0  0  0  0
   -3.0053    2.2101    0.5973 C   0  0  0  0  0  0  0  0  0  0  0  0
   -2.2868    2.0682    3.1926 H   0  0  0  0  0  0  0  0  0  0  0  0
   -2.4448    0.1619    0.8745 H   0  0  0  0  0  0  0  0  0  0  0  0
   -2.7337    3.2058    0.9624 H   0  0  0  0  0  0  0  0  0  0  0  0
   -2.8449    2.1804   -0.4850 H   0  0  0  0  0  0  0  0  0  0  0  0
   -4.0687    2.0417    0.7928 H   0  0  0  0  0  0  0  0  0  0  0  0
   -0.1312    1.0155   -0.2128 N   0  0  0  0  0  0  0  0  0  0  0  0
    1.1554    0.3276   -0.4610 C   0  0  2  0  0  0  0  0  0  0  0  0
    0.9292   -0.4562   -1.7700 C   0  0  0  0  0  0  0  0  0  0  0  0
    0.9920    0.1295   -2.8434 O   0  0  0  0  0  0  0  0  0  0  0  0
    1.7136   -0.6800    0.5900 C   0  0  0  0  0  0  0  0  0  0  0  0
    2.1503   -0.1281    1.9255 C   0  0  0  0  0  0  0  0  0  0  0  0
    3.4120    0.4718    2.0558 C   0  0  0  0  0  0  0  0  0  0  0  0
    1.3871   -0.3548    3.0829 C   0  0  0  0  0  0  0  0  0  0  0  0
    3.8731    0.8981    3.3062 C   0  0  0  0  0  0  0  0  0  0  0  0
    1.8454    0.0704    4.3339 C   0  0  0  0  0  0  0  0  0  0  0  0
    3.0871    0.7024    4.4455 C   0  0  0  0  0  0  0  0  0  0  0  0
   -0.8654    0.7150   -0.8614 H   0  0  0  0  0  0  0  0  0  0  0  0
    1.9221    1.0883   -0.6384 H   0  0  0  0  0  0  0  0  0  0  0  0
    2.5736   -1.1971    0.1503 H   0  0  0  0  0  0  0  0  0  0  0  0
    0.9492   -1.4378    0.7875 H   0  0  0  0  0  0  0  0  0  0  0  0
    4.0363    0.6196    1.1802 H   0  0  0  0  0  0  0  0  0  0  0  0
    0.4292   -0.8604    3.0119 H   0  0  0  0  0  0  0  0  0  0  0  0
    4.8422    1.3800    3.3914 H   0  0  0  0  0  0  0  0  0  0  0  0
    1.2369   -0.0957    5.2169 H   0  0  0  0  0  0  0  0  0  0  0  0
    3.4429    1.0354    5.4156 H   0  0  0  0  0  0  0  0  0  0  0  0
    0.4402   -1.7521   -1.7517 N   0  0  0  0  0  0  0  0  0  0  0  0
   -0.5226   -2.1534   -2.7873 C   0  0  2  0  0  0  0  0  0  0  0  0
   -1.8426   -1.3419   -2.7060 C   0  0  0  0  0  0  0  0  0  0  0  0
   -2.1244   -0.6968   -1.6967 O   0  0  0  0  0  0  0  0  0  0  0  0
   -0.8015   -3.6474   -2.6108 C   0  0  0  0  0  0  0  0  0  0  0  0
    0.2407   -2.0952   -0.8161 H   0  0  0  0  0  0  0  0  0  0  0  0
   -0.0815   -1.9928   -3.7771 H   0  0  0  0  0  0  0  0  0  0  0  0
   -1.2566   -3.8410   -1.6339 H   0  0  0  0  0  0  0  0  0  0  0  0
   -1.4841   -4.0041   -3.3881 H   0  0  0  0  0  0  0  0  0  0  0  0
    0.1300   -4.2178   -2.6817 H   0  0  0  0  0  0  0  0  0  0  0  0
   -2.7151   -1.3202   -3.7781 N   0  0  0  0  0  0  0  0  0  0  0  0
   -3.9282   -0.5116   -3.8025 C   0  0  0  0  0  0  0  0  0  0  0  0
   -2.4168   -1.7804   -4.6332 H   0  0  0  0  0  0  0  0  0  0  0  0
   -4.6013   -0.8056   -2.9903 H   0  0  0  0  0  0  0  0  0  0  0  0
   -3.6832    0.5500   -3.6910 H   0  0  0  0  0  0  0  0  0  0  0  0
   -4.4547   -0.6473   -4.7521 H   0  0  0  0  0  0  0  0  0  0  0  0
  1  2  2  0  0  0  0
  1  3  1  0  0  0  0
  1  7  1  0  0  0  0
  3  4  1  0  0  0  0
  3  5  1  0  0  0  0
  3  6  1  0  0  0  0
  7  8  1  0  0  0  0
  7 12  1  0  0  0  0
  8  9  1  0  0  0  0
  8 11  1  0  0  0  0
  8 13  1  0  0  0  0
  9 10  2  0  0  0  0
  9 17  1  0  0  0  0
 11 14  1  0  0  0  0
 11 15  1  0  0  0  0
 11 16  1  0  0  0  0
 17 18  1  0  0  0  0
 17 28  1  0  0  0  0
 18 19  1  0  0  0  0
 18 21  1  0  0  0  0
 18 29  1  0  0  0  0
 19 20  2  0  0  0  0
 19 37  1  0  0  0  0
 21 22  1  0  0  0  0
 21 30  1  0  0  0  0
 21 31  1  0  0  0  0
 22 23  1  0  0  0  0
 22 24  2  0  0  0  0
 23 25  2  0  0  0  0
 23 32  1  0  0  0  0
 24 26  1  0  0  0  0
 24 33  1  0  0  0  0
 25 27  1  0  0  0  0
 25 34  1  0  0  0  0
 26 27  2  0  0  0  0
 26 35  1  0  0  0  0
 27 36  1  0  0  0  0
 37 38  1  0  0  0  0
 37 42  1  0  0  0  0
 38 39  1  0  0  0  0
 38 41  1  0  0  0  0
 38 43  1  0  0  0  0
 39 40  2  0  0  0  0
 39 47  1  0  0  0  0
 41 44  1  0  0  0  0
 41 45  1  0  0  0  0
 41 46  1  0  0  0  0
 47 48  1  0  0  0  0
 47 49  1  0  0  0  0
 48 50  1  0  0  0  0
 48 51  1  0  0  0  0
 48 52  1  0  0  0  0
M  END
$$$$

  -OEChem-05262217163D

 52 52  0     1  0  0  0  0  0999 V2000
   -2.2454   -0.5057    2.2662 C   0  0  0  0  0  0  0  0  0  0  0  0
   -1.8660   -1.0910    1.2608 O   0  0  0  0  0  0  0  0  0  0  0  0
   -2.5414   -1.2975    3.5258 C   0  0  0  0  0  0  0  0  0  0  0  0
   -2.4342   -2.3687    3.3328 H   0  0  0  0  0  0  0  0  0  0  0  0
   -1.8474   -1.0119    4.3199 H   0  0  0  0  0  0  0  0  0  0  0  0
   -3.5641   -1.1018    3.8571 H   0  0  0  0  0  0  0  0  0  0  0  0
   -2.3587    0.8705    2.2853 N   0  0  0  0  0  0  0  0  0  0  0  0
   -2.0239    1.7344    1.1444 C   0  0  2  0  0  0  0  0  0  0  0  0
   -0.5062    1.7537    0.8547 C   0  0  0  0  0  0  0  0  0  0  0  0
    0.2599    2.3905    1.5621 O   0  0  0  0  0  0  0  0  0  0  0  0
   -2.5569    3.1401    1.4383 C   0  0  0  0  0  0  0  0  0  0  0  0
   -2.5266    1.3105    3.1850 H   0  0  0  0  0  0  0  0  0  0  0  0
   -2.5363    1.3620    0.2511 H   0  0  0  0  0  0  0  0  0  0  0  0
   -2.0906    3.5503    2.3400 H   0  0  0  0  0  0  0  0  0  0  0  0
   -2.3357    3.8093    0.6007 H   0  0  0  0  0  0  0  0  0  0  0  0
   -3.6410    3.1146    1.5843 H   0  0  0  0  0  0  0  0  0  0  0  0
   -0.0513    1.0618   -0.2447 N   0  0  0  0  0  0  0  0  0  0  0  0
    1.1174    0.1601   -0.3244 C   0  0  2  0  0  0  0  0  0  0  0  0
    0.7170   -0.8466   -1.4131 C   0  0  0  0  0  0  0  0  0  0  0  0
    1.1190   -0.7197   -2.5631 O   0  0  0  0  0  0  0  0  0  0  0  0
    1.6037   -0.6613    0.9048 C   0  0  0  0  0  0  0  0  0  0  0  0
    2.1792    0.1123    2.0668 C   0  0  0  0  0  0  0  0  0  0  0  0
    3.5107    0.5514    2.0139 C   0  0  0  0  0  0  0  0  0  0  0  0
    1.4625    0.2739    3.2630 C   0  0  0  0  0  0  0  0  0  0  0  0
    4.0951    1.1932    3.1111 C   0  0  0  0  0  0  0  0  0  0  0  0
    2.0432    0.9168    4.3616 C   0  0  0  0  0  0  0  0  0  0  0  0
    3.3592    1.3813    4.2844 C   0  0  0  0  0  0  0  0  0  0  0  0
   -0.8310    0.7496   -0.8345 H   0  0  0  0  0  0  0  0  0  0  0  0
    1.9682    0.7450   -0.6871 H   0  0  0  0  0  0  0  0  0  0  0  0
    2.3699   -1.3656    0.5635 H   0  0  0  0  0  0  0  0  0  0  0  0
    0.7722   -1.2626    1.2813 H   0  0  0  0  0  0  0  0  0  0  0  0
    4.0939    0.4039    1.1102 H   0  0  0  0  0  0  0  0  0  0  0  0
    0.4434   -0.0868    3.3338 H   0  0  0  0  0  0  0  0  0  0  0  0
    5.1199    1.5464    3.0501 H   0  0  0  0  0  0  0  0  0  0  0  0
    1.4710    1.0588    5.2725 H   0  0  0  0  0  0  0  0  0  0  0  0
    3.8093    1.8864    5.1336 H   0  0  0  0  0  0  0  0  0  0  0  0
   -0.2149   -1.8255   -1.1146 N   0  0  0  0  0  0  0  0  0  0  0  0
   -1.1380   -2.2621   -2.1682 C   0  0  2  0  0  0  0  0  0  0  0  0
   -2.1141   -1.1362   -2.5979 C   0  0  0  0  0  0  0  0  0  0  0  0
   -2.2616   -0.1231   -1.9156 O   0  0  0  0  0  0  0  0  0  0  0  0
   -1.9148   -3.4645   -1.6286 C   0  0  0  0  0  0  0  0  0  0  0  0
   -0.6498   -1.6915   -0.1955 H   0  0  0  0  0  0  0  0  0  0  0  0
   -0.5678   -2.5770   -3.0486 H   0  0  0  0  0  0  0  0  0  0  0  0
   -2.5058   -3.1761   -0.7530 H   0  0  0  0  0  0  0  0  0  0  0  0
   -2.5926   -3.8577   -2.3920 H   0  0  0  0  0  0  0  0  0  0  0  0
   -1.2239   -4.2612   -1.3360 H   0  0  0  0  0  0  0  0  0  0  0  0
   -2.8307   -1.2547   -3.7746 N   0  0  0  0  0  0  0  0  0  0  0  0
   -3.7019   -0.2043   -4.2873 C   0  0  0  0  0  0  0  0  0  0  0  0
   -2.6192   -2.0496   -4.3702 H   0  0  0  0  0  0  0  0  0  0  0  0
   -4.4794    0.0396   -3.5556 H   0  0  0  0  0  0  0  0  0  0  0  0
   -3.1244    0.7008   -4.5036 H   0  0  0  0  0  0  0  0  0  0  0  0
   -4.1892   -0.5341   -5.2099 H   0  0  0  0  0  0  0  0  0  0  0  0
  1  2  2  0  0  0  0
  1  3  1  0  0  0  0
  1  7  1  0  0  0  0
  3  4  1  0  0  0  0
  3  5  1  0  0  0  0
  3  6  1  0  0  0  0
  7  8  1  0  0  0  0
  7 12  1  0  0  0  0
  8  9  1  0  0  0  0
  8 11  1  0  0  0  0
  8 13  1  0  0  0  0
  9 10  2  0  0  0  0
  9 17  1  0  0  0  0
 11 14  1  0  0  0  0
 11 15  1  0  0  0  0
 11 16  1  0  0  0  0
 17 18  1  0  0  0  0
 17 28  1  0  0  0  0
 18 19  1  0  0  0  0
 18 21  1  0  0  0  0
 18 29  1  0  0  0  0
 19 20  2  0  0  0  0
 19 37  1  0  0  0  0
 21 22  1  0  0  0  0
 21 30  1  0  0  0  0
 21 31  1  0  0  0  0
 22 23  1  0  0  0  0
 22 24  2  0  0  0  0
 23 25  2  0  0  0  0
 23 32  1  0  0  0  0
 24 26  1  0  0  0  0
 24 33  1  0  0  0  0
 25 27  1  0  0  0  0
 25 34  1  0  0  0  0
 26 27  2  0  0  0  0
 26 35  1  0  0  0  0
 27 36  1  0  0  0  0
 37 38  1  0  0  0  0
 37 42  1  0  0  0  0
 38 39  1  0  0  0  0
 38 41  1  0  0  0  0
 38 43  1  0  0  0  0
 39 40  2  0  0  0  0
 39 47  1  0  0  0  0
 41 44  1  0  0  0  0
 41 45  1  0  0  0  0
 41 46  1  0  0  0  0
 47 48  1  0  0  0  0
 47 49  1  0  0  0  0
 48 50  1  0  0  0  0
 48 51  1  0  0  0  0
 48 52  1  0  0  0  0
M  END
$$$$

  -OEChem-05262217163D

 52 52  0     1  0  0  0  0  0999 V2000
   -2.3419   -0.3525    2.3365 C   0  0  0  0  0  0  0  0  0  0  0  0
   -2.0426   -0.9710    1.3241 O   0  0  0  0  0  0  0  0  0  0  0  0
   -2.5929   -1.1043    3.6300 C   0  0  0  0  0  0  0  0  0  0  0  0
   -2.4765   -2.1801    3.4707 H   0  0  0  0  0  0  0  0  0  0  0  0
   -1.8807   -0.7840    4.3943 H   0  0  0  0  0  0  0  0  0  0  0  0
   -3.6084   -0.9092    3.9835 H   0  0  0  0  0  0  0  0  0  0  0  0
   -2.3940    1.0269    2.3258 N   0  0  0  0  0  0  0  0  0  0  0  0
   -2.0277    1.8392    1.1571 C   0  0  2  0  0  0  0  0  0  0  0  0
   -0.5155    1.7542    0.8522 C   0  0  0  0  0  0  0  0  0  0  0  0
    0.2933    2.3642    1.5348 O   0  0  0  0  0  0  0  0  0  0  0  0
   -2.4686    3.2819    1.4214 C   0  0  0  0  0  0  0  0  0  0  0  0
   -2.4719    1.4933    3.2247 H   0  0  0  0  0  0  0  0  0  0  0  0
   -2.5739    1.4769    0.2796 H   0  0  0  0  0  0  0  0  0  0  0  0
   -1.9653    3.6852    2.3061 H   0  0  0  0  0  0  0  0  0  0  0  0
   -2.2192    3.9148    0.5640 H   0  0  0  0  0  0  0  0  0  0  0  0
   -3.5498    3.3263    1.5820 H   0  0  0  0  0  0  0  0  0  0  0  0
   -0.1122    1.0041   -0.2300 N   0  0  0  0  0  0  0  0  0  0  0  0
    1.0455    0.0878   -0.3356 C   0  0  2  0  0  0  0  0  0  0  0  0
    0.6053   -0.9754   -1.3552 C   0  0  0  0  0  0  0  0  0  0  0  0
    1.1126   -1.0221   -2.4687 O   0  0  0  0  0  0  0  0  0  0  0  0
    1.5368   -0.7194    0.9005 C   0  0  0  0  0  0  0  0  0  0  0  0
    2.1416    0.0558    2.0461 C   0  0  0  0  0  0  0  0  0  0  0  0
    3.4793    0.4716    1.9735 C   0  0  0  0  0  0  0  0  0  0  0  0
    1.4438    0.2346    3.2513 C   0  0  0  0  0  0  0  0  0  0  0  0
    4.0892    1.1080    3.0600 C   0  0  0  0  0  0  0  0  0  0  0  0
    2.0502    0.8708    4.3400 C   0  0  0  0  0  0  0  0  0  0  0  0
    3.3727    1.3125    4.2426 C   0  0  0  0  0  0  0  0  0  0  0  0
   -0.9073    0.7236   -0.8146 H   0  0  0  0  0  0  0  0  0  0  0  0
    1.8944    0.6466   -0.7420 H   0  0  0  0  0  0  0  0  0  0  0  0
    2.2870   -1.4419    0.5610 H   0  0  0  0  0  0  0  0  0  0  0  0
    0.6972   -1.3004    1.2939 H   0  0  0  0  0  0  0  0  0  0  0  0
    4.0479    0.3098    1.0629 H   0  0  0  0  0  0  0  0  0  0  0  0
    0.4199   -0.1088    3.3365 H   0  0  0  0  0  0  0  0  0  0  0  0
    5.1188    1.4437    2.9828 H   0  0  0  0  0  0  0  0  0  0  0  0
    1.4934    1.0248    5.2586 H   0  0  0  0  0  0  0  0  0  0  0  0
    3.8431    1.8129    5.0833 H   0  0  0  0  0  0  0  0  0  0  0  0
   -0.5148   -1.7411   -1.0796 N   0  0  0  0  0  0  0  0  0  0  0  0
   -1.4236   -2.1168   -2.1668 C   0  0  2  0  0  0  0  0  0  0  0  0
   -2.2158   -0.8985   -2.7006 C   0  0  0  0  0  0  0  0  0  0  0  0
   -2.3329    0.1227   -2.0248 O   0  0  0  0  0  0  0  0  0  0  0  0
   -2.3794   -3.1789   -1.6218 C   0  0  0  0  0  0  0  0  0  0  0  0
   -0.9706   -1.5015   -0.1921 H   0  0  0  0  0  0  0  0  0  0  0  0
   -0.8521   -2.5492   -2.9951 H   0  0  0  0  0  0  0  0  0  0  0  0
   -2.9748   -2.7709   -0.7983 H   0  0  0  0  0  0  0  0  0  0  0  0
   -3.0596   -3.5215   -2.4072 H   0  0  0  0  0  0  0  0  0  0  0  0
   -1.8159   -4.0405   -1.2508 H   0  0  0  0  0  0  0  0  0  0  0  0
   -2.7935   -0.9436   -3.9561 N   0  0  0  0  0  0  0  0  0  0  0  0
   -3.4493    0.2029   -4.5731 C   0  0  0  0  0  0  0  0  0  0  0  0
   -2.5841   -1.7535   -4.5325 H   0  0  0  0  0  0  0  0  0  0  0  0
   -4.2412    0.5900   -3.9231 H   0  0  0  0  0  0  0  0  0  0  0  0
   -2.7245    1.0021   -4.7604 H   0  0  0  0  0  0  0  0  0  0  0  0
   -3.9006   -0.0878   -5.5266 H   0  0  0  0  0  0  0  0  0  0  0  0
  1  2  2  0  0  0  0
  1  3  1  0  0  0  0
  1  7  1  0  0  0  0
  3  4  1  0  0  0  0
  3  5  1  0  0  0  0
  3  6  1  0  0  0  0
  7  8  1  0  0  0  0
  7 12  1  0  0  0  0
  8  9  1  0  0  0  0
  8 11  1  0  0  0  0
  8 13  1  0  0  0  0
  9 10  2  0  0  0  0
  9 17  1  0  0  0  0
 11 14  1  0  0  0  0
 11 15  1  0  0  0  0
 11 16  1  0  0  0  0
 17 18  1  0  0  0  0
 17 28  1  0  0  0  0
 18 19  1  0  0  0  0
 18 21  1  0  0  0  0
 18 29  1  0  0  0  0
 19 20  2  0  0  0  0
 19 37  1  0  0  0  0
 21 22  1  0  0  0  0
 21 30  1  0  0  0  0
 21 31  1  0  0  0  0
 22 23  1  0  0  0  0
 22 24  2  0  0  0  0
 23 25  2  0  0  0  0
 23 32  1  0  0  0  0
 24 26  1  0  0  0  0
 24 33  1  0  0  0  0
 25 27  1  0  0  0  0
 25 34  1  0  0  0  0
 26 27  2  0  0  0  0
 26 35  1  0  0  0  0
 27 36  1  0  0  0  0
 37 38  1  0  0  0  0
 37 42  1  0  0  0  0
 38 39  1  0  0  0  0
 38 41  1  0  0  0  0
 38 43  1  0  0  0  0
 39 40  2  0  0  0  0
 39 47  1  0  0  0  0
 41 44  1  0  0  0  0
 41 45  1  0  0  0  0
 41 46  1  0  0  0  0
 47 48  1  0  0  0  0
 47 49  1  0  0  0  0
 48 50  1  0  0  0  0
 48 51  1  0  0  0  0
 48 52  1  0  0  0  0
M  END
$$$$

  -OEChem-05262217163D

 52 52  0     1  0  0  0  0  0999 V2000
   -2.4750   -0.2052    2.3569 C   0  0  0  0  0  0  0  0  0  0  0  0
   -2.2378   -0.8441    1.3405 O   0  0  0  0  0  0  0  0  0  0  0  0
   -2.7460   -0.9319    3.6604 C   0  0  0  0  0  0  0  0  0  0  0  0
   -2.7606   -2.0128    3.4944 H   0  0  0  0  0  0  0  0  0  0  0  0
   -1.9655   -0.6976    4.3885 H   0  0  0  0  0  0  0  0  0  0  0  0
   -3.7143   -0.6260    4.0640 H   0  0  0  0  0  0  0  0  0  0  0  0
   -2.4405    1.1744    2.3378 N   0  0  0  0  0  0  0  0  0  0  0  0
   -2.0200    1.9485    1.1622 C   0  0  2  0  0  0  0  0  0  0  0  0
   -0.5159    1.7543    0.8692 C   0  0  0  0  0  0  0  0  0  0  0  0
    0.3268    2.3316    1.5383 O   0  0  0  0  0  0  0  0  0  0  0  0
   -2.3679    3.4197    1.4081 C   0  0  0  0  0  0  0  0  0  0  0  0
   -2.4639    1.6486    3.2359 H   0  0  0  0  0  0  0  0  0  0  0  0
   -2.5852    1.6132    0.2857 H   0  0  0  0  0  0  0  0  0  0  0  0
   -1.8476    3.7988    2.2936 H   0  0  0  0  0  0  0  0  0  0  0  0
   -2.0701    4.0263    0.5469 H   0  0  0  0  0  0  0  0  0  0  0  0
   -3.4456    3.5360    1.5580 H   0  0  0  0  0  0  0  0  0  0  0  0
   -0.1627    0.9441   -0.1874 N   0  0  0  0  0  0  0  0  0  0  0  0
    0.9750    0.0039   -0.3220 C   0  0  2  0  0  0  0  0  0  0  0  0
    0.4886   -1.1073   -1.2696 C   0  0  0  0  0  0  0  0  0  0  0  0
    1.0821   -1.3263   -2.3176 O   0  0  0  0  0  0  0  0  0  0  0  0
    1.4839   -0.7827    0.9198 C   0  0  0  0  0  0  0  0  0  0  0  0
    2.1376    0.0009    2.0322 C   0  0  0  0  0  0  0  0  0  0  0  0
    3.4819    0.3835    1.9145 C   0  0  0  0  0  0  0  0  0  0  0  0
    1.4783    0.2169    3.2532 C   0  0  0  0  0  0  0  0  0  0  0  0
    4.1358    1.0277    2.9701 C   0  0  0  0  0  0  0  0  0  0  0  0
    2.1296    0.8604    4.3114 C   0  0  0  0  0  0  0  0  0  0  0  0
    3.4579    1.2712    4.1678 C   0  0  0  0  0  0  0  0  0  0  0  0
   -0.9682    0.7081   -0.7769 H   0  0  0  0  0  0  0  0  0  0  0  0
    1.8186    0.5316   -0.7774 H   0  0  0  0  0  0  0  0  0  0  0  0
    2.2087   -1.5304    0.5792 H   0  0  0  0  0  0  0  0  0  0  0  0
    0.6396   -1.3350    1.3452 H   0  0  0  0  0  0  0  0  0  0  0  0
    4.0208    0.1903    0.9921 H   0  0  0  0  0  0  0  0  0  0  0  0
    0.4496   -0.1019    3.3745 H   0  0  0  0  0  0  0  0  0  0  0  0
    5.1696    1.3396    2.8575 H   0  0  0  0  0  0  0  0  0  0  0  0
    1.6029    1.0447    5.2422 H   0  0  0  0  0  0  0  0  0  0  0  0
    3.9627    1.7772    4.9848 H   0  0  0  0  0  0  0  0  0  0  0  0
   -0.7714   -1.6486   -1.0780 N   0  0  0  0  0  0  0  0  0  0  0  0
   -1.6419   -1.9359   -2.2214 C   0  0  2  0  0  0  0  0  0  0  0  0
   -2.2478   -0.6386   -2.8053 C   0  0  0  0  0  0  0  0  0  0  0  0
   -2.3619    0.3662   -2.1053 O   0  0  0  0  0  0  0  0  0  0  0  0
   -2.7486   -2.8738   -1.7375 C   0  0  0  0  0  0  0  0  0  0  0  0
   -1.2466   -1.3255   -0.2276 H   0  0  0  0  0  0  0  0  0  0  0  0
   -1.0724   -2.4408   -3.0089 H   0  0  0  0  0  0  0  0  0  0  0  0
   -3.3422   -2.3920   -0.9533 H   0  0  0  0  0  0  0  0  0  0  0  0
   -3.4140   -3.1402   -2.5642 H   0  0  0  0  0  0  0  0  0  0  0  0
   -2.3148   -3.7926   -1.3309 H   0  0  0  0  0  0  0  0  0  0  0  0
   -2.6528   -0.5904   -4.1261 N   0  0  0  0  0  0  0  0  0  0  0  0
   -3.1244    0.6297   -4.7699 C   0  0  0  0  0  0  0  0  0  0  0  0
   -2.4385   -1.3967   -4.7058 H   0  0  0  0  0  0  0  0  0  0  0  0
   -4.0146    1.0137   -4.2608 H   0  0  0  0  0  0  0  0  0  0  0  0
   -2.3459    1.3996   -4.7481 H   0  0  0  0  0  0  0  0  0  0  0  0
   -3.3845    0.4298   -5.8138 H   0  0  0  0  0  0  0  0  0  0  0  0
  1  2  2  0  0  0  0
  1  3  1  0  0  0  0
  1  7  1  0  0  0  0
  3  4  1  0  0  0  0
  3  5  1  0  0  0  0
  3  6  1  0  0  0  0
  7  8  1  0  0  0  0
  7 12  1  0  0  0  0
  8  9  1  0  0  0  0
  8 11  1  0  0  0  0
  8 13  1  0  0  0  0
  9 10  2  0  0  0  0
  9 17  1  0  0  0  0
 11 14  1  0  0  0  0
 11 15  1  0  0  0  0
 11 16  1  0  0  0  0
 17 18  1  0  0  0  0
 17 28  1  0  0  0  0
 18 19  1  0  0  0  0
 18 21  1  0  0  0  0
 18 29  1  0  0  0  0
 19 20  2  0  0  0  0
 19 37  1  0  0  0  0
 21 22  1  0  0  0  0
 21 30  1  0  0  0  0
 21 31  1  0  0  0  0
 22 23  1  0  0  0  0
 22 24  2  0  0  0  0
 23 25  2  0  0  0  0
 23 32  1  0  0  0  0
 24 26  1  0  0  0  0
 24 33  1  0  0  0  0
 25 27  1  0  0  0  0
 25 34  1  0  0  0  0
 26 27  2  0  0  0  0
 26 35  1  0  0  0  0
 27 36  1  0  0  0  0
 37 38  1  0  0  0  0
 37 42  1  0  0  0  0
 38 39  1  0  0  0  0
 38 41  1  0  0  0  0
 38 43  1  0  0  0  0
 39 40  2  0  0  0  0
 39 47  1  0  0  0  0
 41 44  1  0  0  0  0
 41 45  1  0  0  0  0
 41 46  1  0  0  0  0
 47 48  1  0  0  0  0
 47 49  1  0  0  0  0
 48 50  1  0  0  0  0
 48 51  1  0  0  0  0
 48 52  1  0  0  0  0
M  END
$$$$

  -OEChem-05262217163D

 52 52  0     1  0  0  0  0  0999 V2000
   -2.7751    0.0831    2.3121 C   0  0  0  0  0  0  0  0  0  0  0  0
   -2.7915   -0.1398    1.1099 O   0  0  0  0  0  0  0  0  0  0  0  0
   -3.1455   -1.0078    3.2979 C   0  0  0  0  0  0  0  0  0  0  0  0
   -3.4718   -1.9048    2.7636 H   0  0  0  0  0  0  0  0  0  0  0  0
   -2.2812   -1.2618    3.9166 H   0  0  0  0  0  0  0  0  0  0  0  0
   -3.9601   -0.6683    3.9423 H   0  0  0  0  0  0  0  0  0  0  0  0
   -2.3543    1.3162    2.7623 N   0  0  0  0  0  0  0  0  0  0  0  0
   -1.9188    2.4013    1.8724 C   0  0  2  0  0  0  0  0  0  0  0  0
   -0.5378    2.1108    1.2367 C   0  0  0  0  0  0  0  0  0  0  0  0
    0.4734    2.6318    1.6786 O   0  0  0  0  0  0  0  0  0  0  0  0
   -1.9337    3.7015    2.6855 C   0  0  0  0  0  0  0  0  0  0  0  0
   -2.2637    1.4459    3.7666 H   0  0  0  0  0  0  0  0  0  0  0  0
   -2.6403    2.5159    1.0563 H   0  0  0  0  0  0  0  0  0  0  0  0
   -1.2504    3.6331    3.5384 H   0  0  0  0  0  0  0  0  0  0  0  0
   -1.6192    4.5420    2.0582 H   0  0  0  0  0  0  0  0  0  0  0  0
   -2.9414    3.9076    3.0591 H   0  0  0  0  0  0  0  0  0  0  0  0
   -0.4801    1.4338    0.0337 N   0  0  0  0  0  0  0  0  0  0  0  0
    0.5490    0.4619   -0.4137 C   0  0  2  0  0  0  0  0  0  0  0  0
   -0.0945   -0.5525   -1.3855 C   0  0  0  0  0  0  0  0  0  0  0  0
    0.5550   -0.9738   -2.3348 O   0  0  0  0  0  0  0  0  0  0  0  0
    1.1703   -0.4904    0.6539 C   0  0  0  0  0  0  0  0  0  0  0  0
    2.0361    0.1133    1.7333 C   0  0  0  0  0  0  0  0  0  0  0  0
    3.3767    0.4202    1.4573 C   0  0  0  0  0  0  0  0  0  0  0  0
    1.5727    0.2348    3.0542 C   0  0  0  0  0  0  0  0  0  0  0  0
    4.2219    0.8961    2.4652 C   0  0  0  0  0  0  0  0  0  0  0  0
    2.4157    0.7121    4.0639 C   0  0  0  0  0  0  0  0  0  0  0  0
    3.7401    1.0475    3.7683 C   0  0  0  0  0  0  0  0  0  0  0  0
   -1.4144    1.2161   -0.3085 H   0  0  0  0  0  0  0  0  0  0  0  0
    1.3507    1.0027   -0.9268 H   0  0  0  0  0  0  0  0  0  0  0  0
    1.7846   -1.2375    0.1380 H   0  0  0  0  0  0  0  0  0  0  0  0
    0.3539   -1.0365    1.1385 H   0  0  0  0  0  0  0  0  0  0  0  0
    3.7643    0.2981    0.4505 H   0  0  0  0  0  0  0  0  0  0  0  0
    0.5493   -0.0278    3.2962 H   0  0  0  0  0  0  0  0  0  0  0  0
    5.2525    1.1479    2.2343 H   0  0  0  0  0  0  0  0  0  0  0  0
    2.0422    0.8247    5.0767 H   0  0  0  0  0  0  0  0  0  0  0  0
    4.3941    1.4230    4.5493 H   0  0  0  0  0  0  0  0  0  0  0  0
   -1.4280   -0.9139   -1.2927 N   0  0  0  0  0  0  0  0  0  0  0  0
   -2.1029   -1.8419   -2.2121 C   0  0  2  0  0  0  0  0  0  0  0  0
   -2.5083   -1.1625   -3.5426 C   0  0  0  0  0  0  0  0  0  0  0  0
   -3.6783   -1.0756   -3.8975 O   0  0  0  0  0  0  0  0  0  0  0  0
   -3.2980   -2.4372   -1.4575 C   0  0  0  0  0  0  0  0  0  0  0  0
   -1.9364   -0.6280   -0.4517 H   0  0  0  0  0  0  0  0  0  0  0  0
   -1.4253   -2.6642   -2.4654 H   0  0  0  0  0  0  0  0  0  0  0  0
   -4.0087   -1.6518   -1.1801 H   0  0  0  0  0  0  0  0  0  0  0  0
   -3.8172   -3.1681   -2.0856 H   0  0  0  0  0  0  0  0  0  0  0  0
   -2.9609   -2.9410   -0.5466 H   0  0  0  0  0  0  0  0  0  0  0  0
   -1.5204   -0.6417   -4.3545 N   0  0  0  0  0  0  0  0  0  0  0  0
   -1.7767    0.0626   -5.6032 C   0  0  0  0  0  0  0  0  0  0  0  0
   -0.5657   -0.6901   -3.9884 H   0  0  0  0  0  0  0  0  0  0  0  0
   -2.3771   -0.5572   -6.2776 H   0  0  0  0  0  0  0  0  0  0  0  0
   -2.3134    0.9976   -5.4119 H   0  0  0  0  0  0  0  0  0  0  0  0
   -0.8322    0.2986   -6.1028 H   0  0  0  0  0  0  0  0  0  0  0  0
  1  2  2  0  0  0  0
  1  3  1  0  0  0  0
  1  7  1  0  0  0  0
  3  4  1  0  0  0  0
  3  5  1  0  0  0  0
  3  6  1  0  0  0  0
  7  8  1  0  0  0  0
  7 12  1  0  0  0  0
  8  9  1  0  0  0  0
  8 11  1  0  0  0  0
  8 13  1  0  0  0  0
  9 10  2  0  0  0  0
  9 17  1  0  0  0  0
 11 14  1  0  0  0  0
 11 15  1  0  0  0  0
 11 16  1  0  0  0  0
 17 18  1  0  0  0  0
 17 28  1  0  0  0  0
 18 19  1  0  0  0  0
 18 21  1  0  0  0  0
 18 29  1  0  0  0  0
 19 20  2  0  0  0  0
 19 37  1  0  0  0  0
 21 22  1  0  0  0  0
 21 30  1  0  0  0  0
 21 31  1  0  0  0  0
 22 23  1  0  0  0  0
 22 24  2  0  0  0  0
 23 25  2  0  0  0  0
 23 32  1  0  0  0  0
 24 26  1  0  0  0  0
 24 33  1  0  0  0  0
 25 27  1  0  0  0  0
 25 34  1  0  0  0  0
 26 27  2  0  0  0  0
 26 35  1  0  0  0  0
 27 36  1  0  0  0  0
 37 38  1  0  0  0  0
 37 42  1  0  0  0  0
 38 39  1  0  0  0  0
 38 41  1  0  0  0  0
 38 43  1  0  0  0  0
 39 40  2  0  0  0  0
 39 47  1  0  0  0  0
 41 44  1  0  0  0  0
 41 45  1  0  0  0  0
 41 46  1  0  0  0  0
 47 48  1  0  0  0  0
 47 49  1  0  0  0  0
 48 50  1  0  0  0  0
 48 51  1  0  0  0  0
 48 52  1  0  0  0  0
M  END
$$$$

  -OEChem-05262217163D

 52 52  0     1  0  0  0  0  0999 V2000
   -3.0974    0.3777    1.9578 C   0  0  0  0  0  0  0  0  0  0  0  0
   -3.1260    0.5086    0.7426 O   0  0  0  0  0  0  0  0  0  0  0  0
   -3.7646   -0.8126    2.6191 C   0  0  0  0  0  0  0  0  0  0  0  0
   -4.2588   -1.4344    1.8673 H   0  0  0  0  0  0  0  0  0  0  0  0
   -3.0196   -1.4182    3.1411 H   0  0  0  0  0  0  0  0  0  0  0  0
   -4.5136   -0.4701    3.3374 H   0  0  0  0  0  0  0  0  0  0  0  0
   -2.3924    1.2906    2.7116 N   0  0  0  0  0  0  0  0  0  0  0  0
   -1.7664    2.5022    2.1599 C   0  0  2  0  0  0  0  0  0  0  0  0
   -0.4449    2.2038    1.4075 C   0  0  0  0  0  0  0  0  0  0  0  0
    0.5995    2.7343    1.7496 O   0  0  0  0  0  0  0  0  0  0  0  0
   -1.5825    3.4839    3.3250 C   0  0  0  0  0  0  0  0  0  0  0  0
   -2.3695    1.1485    3.7178 H   0  0  0  0  0  0  0  0  0  0  0  0
   -2.4474    2.9693    1.4402 H   0  0  0  0  0  0  0  0  0  0  0  0
   -0.8956    3.0730    4.0724 H   0  0  0  0  0  0  0  0  0  0  0  0
   -1.1687    4.4299    2.9610 H   0  0  0  0  0  0  0  0  0  0  0  0
   -2.5429    3.6927    3.8059 H   0  0  0  0  0  0  0  0  0  0  0  0
   -0.4881    1.5561    0.1873 N   0  0  0  0  0  0  0  0  0  0  0  0
    0.5003    0.5895   -0.3602 C   0  0  2  0  0  0  0  0  0  0  0  0
   -0.1811   -0.4254   -1.3141 C   0  0  0  0  0  0  0  0  0  0  0  0
    0.5039   -1.0314   -2.1304 O   0  0  0  0  0  0  0  0  0  0  0  0
    1.1926   -0.3727    0.6598 C   0  0  0  0  0  0  0  0  0  0  0  0
    2.1360    0.2135    1.6825 C   0  0  0  0  0  0  0  0  0  0  0  0
    3.4570    0.5132    1.3179 C   0  0  0  0  0  0  0  0  0  0  0  0
    1.7674    0.3179    3.0345 C   0  0  0  0  0  0  0  0  0  0  0  0
    4.3749    0.9670    2.2711 C   0  0  0  0  0  0  0  0  0  0  0  0
    2.6827    0.7735    3.9896 C   0  0  0  0  0  0  0  0  0  0  0  0
    3.9865    1.1020    3.6071 C   0  0  0  0  0  0  0  0  0  0  0  0
   -1.4533    1.3615   -0.0788 H   0  0  0  0  0  0  0  0  0  0  0  0
    1.2655    1.1431   -0.9134 H   0  0  0  0  0  0  0  0  0  0  0  0
    1.7719   -1.1198    0.1053 H   0  0  0  0  0  0  0  0  0  0  0  0
    0.4084   -0.9202    1.1928 H   0  0  0  0  0  0  0  0  0  0  0  0
    3.7723    0.4011    0.2851 H   0  0  0  0  0  0  0  0  0  0  0  0
    0.7617    0.0571    3.3446 H   0  0  0  0  0  0  0  0  0  0  0  0
    5.3890    1.2133    1.9717 H   0  0  0  0  0  0  0  0  0  0  0  0
    2.3810    0.8726    5.0275 H   0  0  0  0  0  0  0  0  0  0  0  0
    4.6976    1.4580    4.3463 H   0  0  0  0  0  0  0  0  0  0  0  0
   -1.5528   -0.6119   -1.3736 N   0  0  0  0  0  0  0  0  0  0  0  0
   -2.2220   -1.5766   -2.2610 C   0  0  2  0  0  0  0  0  0  0  0  0
   -2.3856   -1.0481   -3.7071 C   0  0  0  0  0  0  0  0  0  0  0  0
   -3.4827   -0.9715   -4.2480 O   0  0  0  0  0  0  0  0  0  0  0  0
   -3.5603   -1.9377   -1.6048 C   0  0  0  0  0  0  0  0  0  0  0  0
   -2.1323   -0.1357   -0.6803 H   0  0  0  0  0  0  0  0  0  0  0  0
   -1.6243   -2.4920   -2.3225 H   0  0  0  0  0  0  0  0  0  0  0  0
   -4.2022   -1.0539   -1.5293 H   0  0  0  0  0  0  0  0  0  0  0  0
   -4.0824   -2.6946   -2.1986 H   0  0  0  0  0  0  0  0  0  0  0  0
   -3.3972   -2.3390   -0.6003 H   0  0  0  0  0  0  0  0  0  0  0  0
   -1.2617   -0.6785   -4.4188 N   0  0  0  0  0  0  0  0  0  0  0  0
   -1.2870   -0.1806   -5.7869 C   0  0  0  0  0  0  0  0  0  0  0  0
   -0.3686   -0.7630   -3.9266 H   0  0  0  0  0  0  0  0  0  0  0  0
   -1.7228   -0.9284   -6.4575 H   0  0  0  0  0  0  0  0  0  0  0  0
   -1.8802    0.7376   -5.8487 H   0  0  0  0  0  0  0  0  0  0  0  0
   -0.2704    0.0398   -6.1268 H   0  0  0  0  0  0  0  0  0  0  0  0
  1  2  2  0  0  0  0
  1  3  1  0  0  0  0
  1  7  1  0  0  0  0
  3  4  1  0  0  0  0
  3  5  1  0  0  0  0
  3  6  1  0  0  0  0
  7  8  1  0  0  0  0
  7 12  1  0  0  0  0
  8  9  1  0  0  0  0
  8 11  1  0  0  0  0
  8 13  1  0  0  0  0
  9 10  2  0  0  0  0
  9 17  1  0  0  0  0
 11 14  1  0  0  0  0
 11 15  1  0  0  0  0
 11 16  1  0  0  0  0
 17 18  1  0  0  0  0
 17 28  1  0  0  0  0
 18 19  1  0  0  0  0
 18 21  1  0  0  0  0
 18 29  1  0  0  0  0
 19 20  2  0  0  0  0
 19 37  1  0  0  0  0
 21 22  1  0  0  0  0
 21 30  1  0  0  0  0
 21 31  1  0  0  0  0
 22 23  1  0  0  0  0
 22 24  2  0  0  0  0
 23 25  2  0  0  0  0
 23 32  1  0  0  0  0
 24 26  1  0  0  0  0
 24 33  1  0  0  0  0
 25 27  1  0  0  0  0
 25 34  1  0  0  0  0
 26 27  2  0  0  0  0
 26 35  1  0  0  0  0
 27 36  1  0  0  0  0
 37 38  1  0  0  0  0
 37 42  1  0  0  0  0
 38 39  1  0  0  0  0
 38 41  1  0  0  0  0
 38 43  1  0  0  0  0
 39 40  2  0  0  0  0
 39 47  1  0  0  0  0
 41 44  1  0  0  0  0
 41 45  1  0  0  0  0
 41 46  1  0  0  0  0
 47 48  1  0  0  0  0
 47 49  1  0  0  0  0
 48 50  1  0  0  0  0
 48 51  1  0  0  0  0
 48 52  1  0  0  0  0
M  END
$$$$

  -OEChem-05262217163D

 52 52  0     1  0  0  0  0  0999 V2000
   -2.0129    0.5857    4.3579 C   0  0  0  0  0  0  0  0  0  0  0  0
   -2.3605   -0.4727    3.8569 O   0  0  0  0  0  0  0  0  0  0  0  0
   -1.5002    0.6201    5.7850 C   0  0  0  0  0  0  0  0  0  0  0  0
   -1.4224   -0.3959    6.1823 H   0  0  0  0  0  0  0  0  0  0  0  0
   -0.5120    1.0858    5.8163 H   0  0  0  0  0  0  0  0  0  0  0  0
   -2.1854    1.1940    6.4137 H   0  0  0  0  0  0  0  0  0  0  0  0
   -2.0295    1.7433    3.6090 N   0  0  0  0  0  0  0  0  0  0  0  0
   -2.2113    1.7381    2.1510 C   0  0  2  0  0  0  0  0  0  0  0  0
   -0.8594    1.6736    1.4098 C   0  0  0  0  0  0  0  0  0  0  0  0
    0.1141    2.2357    1.8901 O   0  0  0  0  0  0  0  0  0  0  0  0
   -2.9740    3.0115    1.7775 C   0  0  0  0  0  0  0  0  0  0  0  0
   -1.4856    2.5130    3.9931 H   0  0  0  0  0  0  0  0  0  0  0  0
   -2.8111    0.8748    1.8447 H   0  0  0  0  0  0  0  0  0  0  0  0
   -2.3970    3.8998    2.0554 H   0  0  0  0  0  0  0  0  0  0  0  0
   -3.1638    3.0450    0.7005 H   0  0  0  0  0  0  0  0  0  0  0  0
   -3.9360    3.0429    2.2989 H   0  0  0  0  0  0  0  0  0  0  0  0
   -0.8035    1.2953    0.0820 N   0  0  0  0  0  0  0  0  0  0  0  0
    0.2517    0.4432   -0.5312 C   0  0  2  0  0  0  0  0  0  0  0  0
   -0.3371   -0.3542   -1.7289 C   0  0  0  0  0  0  0  0  0  0  0  0
    0.3803   -1.0765   -2.4115 O   0  0  0  0  0  0  0  0  0  0  0  0
    0.8604   -0.6827    0.3718 C   0  0  0  0  0  0  0  0  0  0  0  0
    1.6854   -0.2686    1.5666 C   0  0  0  0  0  0  0  0  0  0  0  0
    3.0278    0.1011    1.3967 C   0  0  0  0  0  0  0  0  0  0  0  0
    1.1906   -0.4310    2.8712 C   0  0  0  0  0  0  0  0  0  0  0  0
    3.8358    0.3830    2.5036 C   0  0  0  0  0  0  0  0  0  0  0  0
    1.9969   -0.1550    3.9803 C   0  0  0  0  0  0  0  0  0  0  0  0
    3.3186    0.2605    3.7966 C   0  0  0  0  0  0  0  0  0  0  0  0
   -1.7340    1.0706   -0.2471 H   0  0  0  0  0  0  0  0  0  0  0  0
    1.0592    1.0866   -0.8951 H   0  0  0  0  0  0  0  0  0  0  0  0
    1.5125   -1.3212   -0.2337 H   0  0  0  0  0  0  0  0  0  0  0  0
    0.0393   -1.3184    0.7203 H   0  0  0  0  0  0  0  0  0  0  0  0
    3.4454    0.1811    0.3979 H   0  0  0  0  0  0  0  0  0  0  0  0
    0.1752   -0.7812    3.0258 H   0  0  0  0  0  0  0  0  0  0  0  0
    4.8667    0.6907    2.3578 H   0  0  0  0  0  0  0  0  0  0  0  0
    1.5992   -0.2753    4.9828 H   0  0  0  0  0  0  0  0  0  0  0  0
    3.9464    0.4763    4.6557 H   0  0  0  0  0  0  0  0  0  0  0  0
   -1.6654   -0.2375   -2.1155 N   0  0  0  0  0  0  0  0  0  0  0  0
   -2.2325   -0.9400   -3.2789 C   0  0  2  0  0  0  0  0  0  0  0  0
   -1.8725   -0.2395   -4.6110 C   0  0  0  0  0  0  0  0  0  0  0  0
   -2.7148    0.3604   -5.2672 O   0  0  0  0  0  0  0  0  0  0  0  0
   -3.7453   -1.0533   -3.0550 C   0  0  0  0  0  0  0  0  0  0  0  0
   -2.1559    0.5937   -1.8076 H   0  0  0  0  0  0  0  0  0  0  0  0
   -1.8312   -1.9581   -3.3302 H   0  0  0  0  0  0  0  0  0  0  0  0
   -4.2033   -0.0610   -2.9934 H   0  0  0  0  0  0  0  0  0  0  0  0
   -4.2101   -1.5967   -3.8839 H   0  0  0  0  0  0  0  0  0  0  0  0
   -3.9544   -1.5948   -2.1273 H   0  0  0  0  0  0  0  0  0  0  0  0
   -0.5581   -0.2350   -5.0322 N   0  0  0  0  0  0  0  0  0  0  0  0
   -0.0804    0.5020   -6.1939 C   0  0  0  0  0  0  0  0  0  0  0  0
    0.1204   -0.6462   -4.3857 H   0  0  0  0  0  0  0  0  0  0  0  0
   -0.5830    0.1533   -7.1020 H   0  0  0  0  0  0  0  0  0  0  0  0
   -0.2719    1.5733   -6.0731 H   0  0  0  0  0  0  0  0  0  0  0  0
    0.9968    0.3539   -6.3169 H   0  0  0  0  0  0  0  0  0  0  0  0
  1  2  2  0  0  0  0
  1  3  1  0  0  0  0
  1  7  1  0  0  0  0
  3  4  1  0  0  0  0
  3  5  1  0  0  0  0
  3  6  1  0  0  0  0
  7  8  1  0  0  0  0
  7 12  1  0  0  0  0
  8  9  1  0  0  0  0
  8 11  1  0  0  0  0
  8 13  1  0  0  0  0
  9 10  2  0  0  0  0
  9 17  1  0  0  0  0
 11 14  1  0  0  0  0
 11 15  1  0  0  0  0
 11 16  1  0  0  0  0
 17 18  1  0  0  0  0
 17 28  1  0  0  0  0
 18 19  1  0  0  0  0
 18 21  1  0  0  0  0
 18 29  1  0  0  0  0
 19 20  2  0  0  0  0
 19 37  1  0  0  0  0
 21 22  1  0  0  0  0
 21 30  1  0  0  0  0
 21 31  1  0  0  0  0
 22 23  1  0  0  0  0
 22 24  2  0  0  0  0
 23 25  2  0  0  0  0
 23 32  1  0  0  0  0
 24 26  1  0  0  0  0
 24 33  1  0  0  0  0
 25 27  1  0  0  0  0
 25 34  1  0  0  0  0
 26 27  2  0  0  0  0
 26 35  1  0  0  0  0
 27 36  1  0  0  0  0
 37 38  1  0  0  0  0
 37 42  1  0  0  0  0
 38 39  1  0  0  0  0
 38 41  1  0  0  0  0
 38 43  1  0  0  0  0
 39 40  2  0  0  0  0
 39 47  1  0  0  0  0
 41 44  1  0  0  0  0
 41 45  1  0  0  0  0
 41 46  1  0  0  0  0
 47 48  1  0  0  0  0
 47 49  1  0  0  0  0
 48 50  1  0  0  0  0
 48 51  1  0  0  0  0
 48 52  1  0  0  0  0
M  END
$$$$

  -OEChem-05262217163D

 52 52  0     1  0  0  0  0  0999 V2000
   -1.9498    0.5914    4.4621 C   0  0  0  0  0  0  0  0  0  0  0  0
   -2.2981   -0.5050    4.0523 O   0  0  0  0  0  0  0  0  0  0  0  0
   -1.4034    0.7380    5.8696 C   0  0  0  0  0  0  0  0  0  0  0  0
   -1.3509   -0.2392    6.3578 H   0  0  0  0  0  0  0  0  0  0  0  0
   -0.3998    1.1695    5.8368 H   0  0  0  0  0  0  0  0  0  0  0  0
   -2.0537    1.3911    6.4566 H   0  0  0  0  0  0  0  0  0  0  0  0
   -2.0012    1.6925    3.6333 N   0  0  0  0  0  0  0  0  0  0  0  0
   -2.1962    1.5902    2.1799 C   0  0  2  0  0  0  0  0  0  0  0  0
   -0.8509    1.6423    1.4250 C   0  0  0  0  0  0  0  0  0  0  0  0
    0.1015    2.2247    1.9244 O   0  0  0  0  0  0  0  0  0  0  0  0
   -3.1038    2.7474    1.7547 C   0  0  0  0  0  0  0  0  0  0  0  0
   -1.4632    2.4945    3.9551 H   0  0  0  0  0  0  0  0  0  0  0  0
   -2.6927    0.6486    1.9225 H   0  0  0  0  0  0  0  0  0  0  0  0
   -2.6267    3.7088    1.9720 H   0  0  0  0  0  0  0  0  0  0  0  0
   -3.3141    2.6987    0.6821 H   0  0  0  0  0  0  0  0  0  0  0  0
   -4.0550    2.7003    2.2945 H   0  0  0  0  0  0  0  0  0  0  0  0
   -0.7796    1.3344    0.0807 N   0  0  0  0  0  0  0  0  0  0  0  0
    0.2806    0.5027   -0.5486 C   0  0  2  0  0  0  0  0  0  0  0  0
   -0.3397   -0.2065   -1.7871 C   0  0  0  0  0  0  0  0  0  0  0  0
    0.2065   -1.1491   -2.3487 O   0  0  0  0  0  0  0  0  0  0  0  0
    0.8723   -0.6595    0.3185 C   0  0  0  0  0  0  0  0  0  0  0  0
    1.6803   -0.2907    1.5402 C   0  0  0  0  0  0  0  0  0  0  0  0
    3.0261    0.0831    1.4082 C   0  0  0  0  0  0  0  0  0  0  0  0
    1.1601   -0.4955    2.8294 C   0  0  0  0  0  0  0  0  0  0  0  0
    3.8135    0.3237    2.5397 C   0  0  0  0  0  0  0  0  0  0  0  0
    1.9462   -0.2614    3.9622 C   0  0  0  0  0  0  0  0  0  0  0  0
    3.2718    0.1571    3.8177 C   0  0  0  0  0  0  0  0  0  0  0  0
   -1.7047    1.0949   -0.2624 H   0  0  0  0  0  0  0  0  0  0  0  0
    1.0967    1.1533   -0.8784 H   0  0  0  0  0  0  0  0  0  0  0  0
    1.5373   -1.2695   -0.3020 H   0  0  0  0  0  0  0  0  0  0  0  0
    0.0472   -1.3106    0.6263 H   0  0  0  0  0  0  0  0  0  0  0  0
    3.4629    0.1983    0.4212 H   0  0  0  0  0  0  0  0  0  0  0  0
    0.1403   -0.8460    2.9551 H   0  0  0  0  0  0  0  0  0  0  0  0
    4.8476    0.6343    2.4246 H   0  0  0  0  0  0  0  0  0  0  0  0
    1.5288   -0.4162    4.9520 H   0  0  0  0  0  0  0  0  0  0  0  0
    3.8837    0.3404    4.6956 H   0  0  0  0  0  0  0  0  0  0  0  0
   -1.5517    0.2243   -2.3083 N   0  0  0  0  0  0  0  0  0  0  0  0
   -2.1906   -0.3869   -3.4855 C   0  0  2  0  0  0  0  0  0  0  0  0
   -1.5355    0.0706   -4.8107 C   0  0  0  0  0  0  0  0  0  0  0  0
   -2.1043    0.8412   -5.5738 O   0  0  0  0  0  0  0  0  0  0  0  0
   -3.6878   -0.0611   -3.4165 C   0  0  0  0  0  0  0  0  0  0  0  0
   -1.8012    1.1874   -2.1007 H   0  0  0  0  0  0  0  0  0  0  0  0
   -2.0891   -1.4768   -3.4364 H   0  0  0  0  0  0  0  0  0  0  0  0
   -3.8516    1.0208   -3.4471 H   0  0  0  0  0  0  0  0  0  0  0  0
   -4.2124   -0.5133   -4.2642 H   0  0  0  0  0  0  0  0  0  0  0  0
   -4.1209   -0.4560   -2.4925 H   0  0  0  0  0  0  0  0  0  0  0  0
   -0.2616   -0.3661   -5.1137 N   0  0  0  0  0  0  0  0  0  0  0  0
    0.4928    0.0766   -6.2783 C   0  0  0  0  0  0  0  0  0  0  0  0
    0.2149   -0.8986   -4.3811 H   0  0  0  0  0  0  0  0  0  0  0  0
   -0.0654   -0.1291   -7.1977 H   0  0  0  0  0  0  0  0  0  0  0  0
    0.6924    1.1514   -6.2196 H   0  0  0  0  0  0  0  0  0  0  0  0
    1.4491   -0.4528   -6.3313 H   0  0  0  0  0  0  0  0  0  0  0  0
  1  2  2  0  0  0  0
  1  3  1  0  0  0  0
  1  7  1  0  0  0  0
  3  4  1  0  0  0  0
  3  5  1  0  0  0  0
  3  6  1  0  0  0  0
  7  8  1  0  0  0  0
  7 12  1  0  0  0  0
  8  9  1  0  0  0  0
  8 11  1  0  0  0  0
  8 13  1  0  0  0  0
  9 10  2  0  0  0  0
  9 17  1  0  0  0  0
 11 14  1  0  0  0  0
 11 15  1  0  0  0  0
 11 16  1  0  0  0  0
 17 18  1  0  0  0  0
 17 28  1  0  0  0  0
 18 19  1  0  0  0  0
 18 21  1  0  0  0  0
 18 29  1  0  0  0  0
 19 20  2  0  0  0  0
 19 37  1  0  0  0  0
 21 22  1  0  0  0  0
 21 30  1  0  0  0  0
 21 31  1  0  0  0  0
 22 23  1  0  0  0  0
 22 24  2  0  0  0  0
 23 25  2  0  0  0  0
 23 32  1  0  0  0  0
 24 26  1  0  0  0  0
 24 33  1  0  0  0  0
 25 27  1  0  0  0  0
 25 34  1  0  0  0  0
 26 27  2  0  0  0  0
 26 35  1  0  0  0  0
 27 36  1  0  0  0  0
 37 38  1  0  0  0  0
 37 42  1  0  0  0  0
 38 39  1  0  0  0  0
 38 41  1  0  0  0  0
 38 43  1  0  0  0  0
 39 40  2  0  0  0  0
 39 47  1  0  0  0  0
 41 44  1  0  0  0  0
 41 45  1  0  0  0  0
 41 46  1  0  0  0  0
 47 48  1  0  0  0  0
 47 49  1  0  0  0  0
 48 50  1  0  0  0  0
 48 51  1  0  0  0  0
 48 52  1  0  0  0  0
M  END
$$$$

  -OEChem-05262217163D

 52 52  0     1  0  0  0  0  0999 V2000
   -1.9938    0.5151    4.3940 C   0  0  0  0  0  0  0  0  0  0  0  0
   -2.3595   -0.5488    3.9192 O   0  0  0  0  0  0  0  0  0  0  0  0
   -1.4815    0.5754    5.8204 C   0  0  0  0  0  0  0  0  0  0  0  0
   -1.4572   -0.4275    6.2560 H   0  0  0  0  0  0  0  0  0  0  0  0
   -0.4707    0.9905    5.8367 H   0  0  0  0  0  0  0  0  0  0  0  0
   -2.1371    1.2072    6.4246 H   0  0  0  0  0  0  0  0  0  0  0  0
   -1.9978    1.6584    3.6232 N   0  0  0  0  0  0  0  0  0  0  0  0
   -2.1839    1.6380    2.1655 C   0  0  2  0  0  0  0  0  0  0  0  0
   -0.8319    1.6670    1.4227 C   0  0  0  0  0  0  0  0  0  0  0  0
    0.1293    2.2203    1.9375 O   0  0  0  0  0  0  0  0  0  0  0  0
   -3.0359    2.8542    1.7952 C   0  0  0  0  0  0  0  0  0  0  0  0
   -1.4429    2.4274    3.9932 H   0  0  0  0  0  0  0  0  0  0  0  0
   -2.7196    0.7337    1.8581 H   0  0  0  0  0  0  0  0  0  0  0  0
   -2.5204    3.7804    2.0693 H   0  0  0  0  0  0  0  0  0  0  0  0
   -3.2355    2.8729    0.7196 H   0  0  0  0  0  0  0  0  0  0  0  0
   -3.9942    2.8184    2.3231 H   0  0  0  0  0  0  0  0  0  0  0  0
   -0.7557    1.3704    0.0764 N   0  0  0  0  0  0  0  0  0  0  0  0
    0.2860    0.5190   -0.5555 C   0  0  2  0  0  0  0  0  0  0  0  0
   -0.3702   -0.1457   -1.7991 C   0  0  0  0  0  0  0  0  0  0  0  0
   -0.0392   -1.2423   -2.2352 O   0  0  0  0  0  0  0  0  0  0  0  0
    0.8659   -0.6572    0.2991 C   0  0  0  0  0  0  0  0  0  0  0  0
    1.6895   -0.3065    1.5152 C   0  0  0  0  0  0  0  0  0  0  0  0
    3.0395    0.0469    1.3722 C   0  0  0  0  0  0  0  0  0  0  0  0
    1.1772   -0.5055    2.8083 C   0  0  0  0  0  0  0  0  0  0  0  0
    3.8401    0.2735    2.4971 C   0  0  0  0  0  0  0  0  0  0  0  0
    1.9762   -0.2836    3.9347 C   0  0  0  0  0  0  0  0  0  0  0  0
    3.3068    0.1145    3.7794 C   0  0  0  0  0  0  0  0  0  0  0  0
   -1.6831    1.1736   -0.2903 H   0  0  0  0  0  0  0  0  0  0  0  0
    1.1140    1.1549   -0.8838 H   0  0  0  0  0  0  0  0  0  0  0  0
    1.5152   -1.2716   -0.3340 H   0  0  0  0  0  0  0  0  0  0  0  0
    0.0339   -1.2975    0.6112 H   0  0  0  0  0  0  0  0  0  0  0  0
    3.4700    0.1552    0.3817 H   0  0  0  0  0  0  0  0  0  0  0  0
    0.1536   -0.8414    2.9413 H   0  0  0  0  0  0  0  0  0  0  0  0
    4.8779    0.5669    2.3732 H   0  0  0  0  0  0  0  0  0  0  0  0
    1.5653   -0.4312    4.9282 H   0  0  0  0  0  0  0  0  0  0  0  0
    3.9289    0.2883    4.6522 H   0  0  0  0  0  0  0  0  0  0  0  0
   -1.3809    0.5248   -2.4713 N   0  0  0  0  0  0  0  0  0  0  0  0
   -2.0421    0.0105   -3.6824 C   0  0  2  0  0  0  0  0  0  0  0  0
   -1.1692    0.1853   -4.9487 C   0  0  0  0  0  0  0  0  0  0  0  0
   -1.4848    0.9585   -5.8444 O   0  0  0  0  0  0  0  0  0  0  0  0
   -3.4021    0.7110   -3.7958 C   0  0  0  0  0  0  0  0  0  0  0  0
   -1.4479    1.5234   -2.2892 H   0  0  0  0  0  0  0  0  0  0  0  0
   -2.2323   -1.0626   -3.5700 H   0  0  0  0  0  0  0  0  0  0  0  0
   -3.2734    1.7927   -3.9046 H   0  0  0  0  0  0  0  0  0  0  0  0
   -3.9470    0.3394   -4.6697 H   0  0  0  0  0  0  0  0  0  0  0  0
   -4.0068    0.5167   -2.9049 H   0  0  0  0  0  0  0  0  0  0  0  0
    0.0119   -0.5214   -5.0534 N   0  0  0  0  0  0  0  0  0  0  0  0
    0.9487   -0.3809   -6.1597 C   0  0  0  0  0  0  0  0  0  0  0  0
    0.2727   -1.0870   -4.2412 H   0  0  0  0  0  0  0  0  0  0  0  0
    0.4666   -0.6487   -7.1056 H   0  0  0  0  0  0  0  0  0  0  0  0
    1.3100    0.6505   -6.2270 H   0  0  0  0  0  0  0  0  0  0  0  0
    1.8086   -1.0410   -6.0109 H   0  0  0  0  0  0  0  0  0  0  0  0
  1  2  2  0  0  0  0
  1  3  1  0  0  0  0
  1  7  1  0  0  0  0
  3  4  1  0  0  0  0
  3  5  1  0  0  0  0
  3  6  1  0  0  0  0
  7  8  1  0  0  0  0
  7 12  1  0  0  0  0
  8  9  1  0  0  0  0
  8 11  1  0  0  0  0
  8 13  1  0  0  0  0
  9 10  2  0  0  0  0
  9 17  1  0  0  0  0
 11 14  1  0  0  0  0
 11 15  1  0  0  0  0
 11 16  1  0  0  0  0
 17 18  1  0  0  0  0
 17 28  1  0  0  0  0
 18 19  1  0  0  0  0
 18 21  1  0  0  0  0
 18 29  1  0  0  0  0
 19 20  2  0  0  0  0
 19 37  1  0  0  0  0
 21 22  1  0  0  0  0
 21 30  1  0  0  0  0
 21 31  1  0  0  0  0
 22 23  1  0  0  0  0
 22 24  2  0  0  0  0
 23 25  2  0  0  0  0
 23 32  1  0  0  0  0
 24 26  1  0  0  0  0
 24 33  1  0  0  0  0
 25 27  1  0  0  0  0
 25 34  1  0  0  0  0
 26 27  2  0  0  0  0
 26 35  1  0  0  0  0
 27 36  1  0  0  0  0
 37 38  1  0  0  0  0
 37 42  1  0  0  0  0
 38 39  1  0  0  0  0
 38 41  1  0  0  0  0
 38 43  1  0  0  0  0
 39 40  2  0  0  0  0
 39 47  1  0  0  0  0
 41 44  1  0  0  0  0
 41 45  1  0  0  0  0
 41 46  1  0  0  0  0
 47 48  1  0  0  0  0
 47 49  1  0  0  0  0
 48 50  1  0  0  0  0
 48 51  1  0  0  0  0
 48 52  1  0  0  0  0
M  END
$$$$

  -OEChem-05262217163D

 52 52  0     1  0  0  0  0  0999 V2000
   -2.0073    0.4790    4.3656 C   0  0  0  0  0  0  0  0  0  0  0  0
   -2.3712   -0.5705    3.8586 O   0  0  0  0  0  0  0  0  0  0  0  0
   -1.5039    0.4971    5.7965 C   0  0  0  0  0  0  0  0  0  0  0  0
   -1.4922   -0.5171    6.2058 H   0  0  0  0  0  0  0  0  0  0  0  0
   -0.4894    0.9021    5.8305 H   0  0  0  0  0  0  0  0  0  0  0  0
   -2.1576    1.1183    6.4136 H   0  0  0  0  0  0  0  0  0  0  0  0
   -2.0070    1.6438    3.6272 N   0  0  0  0  0  0  0  0  0  0  0  0
   -2.1827    1.6614    2.1678 C   0  0  2  0  0  0  0  0  0  0  0  0
   -0.8250    1.6751    1.4351 C   0  0  0  0  0  0  0  0  0  0  0  0
    0.1449    2.1940    1.9696 O   0  0  0  0  0  0  0  0  0  0  0  0
   -3.0014    2.9064    1.8181 C   0  0  0  0  0  0  0  0  0  0  0  0
   -1.4534    2.4014    4.0215 H   0  0  0  0  0  0  0  0  0  0  0  0
   -2.7384    0.7777    1.8365 H   0  0  0  0  0  0  0  0  0  0  0  0
   -2.4599    3.8141    2.1046 H   0  0  0  0  0  0  0  0  0  0  0  0
   -3.2019    2.9460    0.7432 H   0  0  0  0  0  0  0  0  0  0  0  0
   -3.9597    2.8903    2.3468 H   0  0  0  0  0  0  0  0  0  0  0  0
   -0.7437    1.4133    0.0817 N   0  0  0  0  0  0  0  0  0  0  0  0
    0.2868    0.5617   -0.5652 C   0  0  2  0  0  0  0  0  0  0  0  0
   -0.3844   -0.0497   -1.8256 C   0  0  0  0  0  0  0  0  0  0  0  0
   -0.2893   -1.2271   -2.1527 O   0  0  0  0  0  0  0  0  0  0  0  0
    0.8529   -0.6427    0.2579 C   0  0  0  0  0  0  0  0  0  0  0  0
    1.6820   -0.3336    1.4819 C   0  0  0  0  0  0  0  0  0  0  0  0
    3.0365    0.0072    1.3491 C   0  0  0  0  0  0  0  0  0  0  0  0
    1.1655   -0.5559    2.7694 C   0  0  0  0  0  0  0  0  0  0  0  0
    3.8373    0.2009    2.4804 C   0  0  0  0  0  0  0  0  0  0  0  0
    1.9644   -0.3678    3.9017 C   0  0  0  0  0  0  0  0  0  0  0  0
    3.2994    0.0201    3.7580 C   0  0  0  0  0  0  0  0  0  0  0  0
   -1.6706    1.2636   -0.3095 H   0  0  0  0  0  0  0  0  0  0  0  0
    1.1252    1.1923   -0.8760 H   0  0  0  0  0  0  0  0  0  0  0  0
    1.4884   -1.2490   -0.3970 H   0  0  0  0  0  0  0  0  0  0  0  0
    0.0129   -1.2784    0.5582 H   0  0  0  0  0  0  0  0  0  0  0  0
    3.4705    0.1319    0.3620 H   0  0  0  0  0  0  0  0  0  0  0  0
    0.1378   -0.8827    2.8932 H   0  0  0  0  0  0  0  0  0  0  0  0
    4.8785    0.4861    2.3655 H   0  0  0  0  0  0  0  0  0  0  0  0
    1.5483   -0.5329    4.8904 H   0  0  0  0  0  0  0  0  0  0  0  0
    3.9206    0.1685    4.6361 H   0  0  0  0  0  0  0  0  0  0  0  0
   -1.1365    0.7783   -2.6427 N   0  0  0  0  0  0  0  0  0  0  0  0
   -1.7709    0.3429   -3.8982 C   0  0  2  0  0  0  0  0  0  0  0  0
   -0.7531    0.2157   -5.0578 C   0  0  0  0  0  0  0  0  0  0  0  0
   -0.7888    0.9597   -6.0300 O   0  0  0  0  0  0  0  0  0  0  0  0
   -2.9052    1.3279   -4.2057 C   0  0  0  0  0  0  0  0  0  0  0  0
   -1.0472    1.7781   -2.4768 H   0  0  0  0  0  0  0  0  0  0  0  0
   -2.2218   -0.6457   -3.7583 H   0  0  0  0  0  0  0  0  0  0  0  0
   -2.5104    2.3376   -4.3577 H   0  0  0  0  0  0  0  0  0  0  0  0
   -3.4337    1.0236   -5.1149 H   0  0  0  0  0  0  0  0  0  0  0  0
   -3.6241    1.3522   -3.3814 H   0  0  0  0  0  0  0  0  0  0  0  0
    0.2384   -0.7414   -4.9765 N   0  0  0  0  0  0  0  0  0  0  0  0
    1.2968   -0.9063   -5.9631 C   0  0  0  0  0  0  0  0  0  0  0  0
    0.2697   -1.2848   -4.1101 H   0  0  0  0  0  0  0  0  0  0  0  0
    0.8723   -1.1337   -6.9464 H   0  0  0  0  0  0  0  0  0  0  0  0
    1.8953    0.0074   -6.0391 H   0  0  0  0  0  0  0  0  0  0  0  0
    1.9566   -1.7298   -5.6737 H   0  0  0  0  0  0  0  0  0  0  0  0
  1  2  2  0  0  0  0
  1  3  1  0  0  0  0
  1  7  1  0  0  0  0
  3  4  1  0  0  0  0
  3  5  1  0  0  0  0
  3  6  1  0  0  0  0
  7  8  1  0  0  0  0
  7 12  1  0  0  0  0
  8  9  1  0  0  0  0
  8 11  1  0  0  0  0
  8 13  1  0  0  0  0
  9 10  2  0  0  0  0
  9 17  1  0  0  0  0
 11 14  1  0  0  0  0
 11 15  1  0  0  0  0
 11 16  1  0  0  0  0
 17 18  1  0  0  0  0
 17 28  1  0  0  0  0
 18 19  1  0  0  0  0
 18 21  1  0  0  0  0
 18 29  1  0  0  0  0
 19 20  2  0  0  0  0
 19 37  1  0  0  0  0
 21 22  1  0  0  0  0
 21 30  1  0  0  0  0
 21 31  1  0  0  0  0
 22 23  1  0  0  0  0
 22 24  2  0  0  0  0
 23 25  2  0  0  0  0
 23 32  1  0  0  0  0
 24 26  1  0  0  0  0
 24 33  1  0  0  0  0
 25 27  1  0  0  0  0
 25 34  1  0  0  0  0
 26 27  2  0  0  0  0
 26 35  1  0  0  0  0
 27 36  1  0  0  0  0
 37 38  1  0  0  0  0
 37 42  1  0  0  0  0
 38 39  1  0  0  0  0
 38 41  1  0  0  0  0
 38 43  1  0  0  0  0
 39 40  2  0  0  0  0
 39 47  1  0  0  0  0
 41 44  1  0  0  0  0
 41 45  1  0  0  0  0
 41 46  1  0  0  0  0
 47 48  1  0  0  0  0
 47 49  1  0  0  0  0
 48 50  1  0  0  0  0
 48 51  1  0  0  0  0
 48 52  1  0  0  0  0
M  END
$$$$

  -OEChem-05262217163D

 52 52  0     1  0  0  0  0  0999 V2000
   -2.0616    0.4227    4.3156 C   0  0  0  0  0  0  0  0  0  0  0  0
   -2.4205   -0.6066    3.7656 O   0  0  0  0  0  0  0  0  0  0  0  0
   -1.5823    0.3867    5.7546 C   0  0  0  0  0  0  0  0  0  0  0  0
   -1.6424   -0.6325    6.1465 H   0  0  0  0  0  0  0  0  0  0  0  0
   -0.5448    0.7254    5.8111 H   0  0  0  0  0  0  0  0  0  0  0  0
   -2.2054    1.0384    6.3718 H   0  0  0  0  0  0  0  0  0  0  0  0
   -2.0446    1.6130    3.6193 N   0  0  0  0  0  0  0  0  0  0  0  0
   -2.1905    1.6809    2.1579 C   0  0  2  0  0  0  0  0  0  0  0  0
   -0.8182    1.6925    1.4524 C   0  0  0  0  0  0  0  0  0  0  0  0
    0.1500    2.1739    2.0240 O   0  0  0  0  0  0  0  0  0  0  0  0
   -2.9798    2.9518    1.8336 C   0  0  0  0  0  0  0  0  0  0  0  0
   -1.4943    2.3530    4.0498 H   0  0  0  0  0  0  0  0  0  0  0  0
   -2.7554    0.8187    1.7873 H   0  0  0  0  0  0  0  0  0  0  0  0
   -2.4322    3.8392    2.1679 H   0  0  0  0  0  0  0  0  0  0  0  0
   -3.1501    3.0342    0.7558 H   0  0  0  0  0  0  0  0  0  0  0  0
   -3.9523    2.9318    2.3360 H   0  0  0  0  0  0  0  0  0  0  0  0
   -0.7152    1.4772    0.0926 N   0  0  0  0  0  0  0  0  0  0  0  0
    0.3159    0.6394   -0.5664 C   0  0  2  0  0  0  0  0  0  0  0  0
   -0.3405    0.0822   -1.8559 C   0  0  0  0  0  0  0  0  0  0  0  0
   -0.5085   -1.1106   -2.0832 O   0  0  0  0  0  0  0  0  0  0  0  0
    0.8675   -0.5970    0.2152 C   0  0  0  0  0  0  0  0  0  0  0  0
    1.6874   -0.3370    1.4566 C   0  0  0  0  0  0  0  0  0  0  0  0
    3.0445    0.0009    1.3458 C   0  0  0  0  0  0  0  0  0  0  0  0
    1.1591   -0.6001    2.7317 C   0  0  0  0  0  0  0  0  0  0  0  0
    3.8387    0.1471    2.4886 C   0  0  0  0  0  0  0  0  0  0  0  0
    1.9515   -0.4584    3.8756 C   0  0  0  0  0  0  0  0  0  0  0  0
    3.2907   -0.0768    3.7551 C   0  0  0  0  0  0  0  0  0  0  0  0
   -1.6355    1.3594   -0.3240 H   0  0  0  0  0  0  0  0  0  0  0  0
    1.1644    1.2734   -0.8409 H   0  0  0  0  0  0  0  0  0  0  0  0
    1.4966   -1.1855   -0.4617 H   0  0  0  0  0  0  0  0  0  0  0  0
    0.0200   -1.2342    0.4918 H   0  0  0  0  0  0  0  0  0  0  0  0
    3.4860    0.1603    0.3673 H   0  0  0  0  0  0  0  0  0  0  0  0
    0.1272   -0.9208    2.8364 H   0  0  0  0  0  0  0  0  0  0  0  0
    4.8826    0.4290    2.3909 H   0  0  0  0  0  0  0  0  0  0  0  0
    1.5281   -0.6553    4.8554 H   0  0  0  0  0  0  0  0  0  0  0  0
    3.9072    0.0355    4.6418 H   0  0  0  0  0  0  0  0  0  0  0  0
   -0.7926    0.9839   -2.8031 N   0  0  0  0  0  0  0  0  0  0  0  0
   -1.3900    0.5997   -4.0926 C   0  0  2  0  0  0  0  0  0  0  0  0
   -0.3270    0.1284   -5.1147 C   0  0  0  0  0  0  0  0  0  0  0  0
   -0.0809    0.7693   -6.1291 O   0  0  0  0  0  0  0  0  0  0  0  0
   -2.2110    1.7947   -4.5932 C   0  0  0  0  0  0  0  0  0  0  0  0
   -0.5407    1.9597   -2.6632 H   0  0  0  0  0  0  0  0  0  0  0  0
   -2.0817   -0.2363   -3.9421 H   0  0  0  0  0  0  0  0  0  0  0  0
   -1.5677    2.6656   -4.7548 H   0  0  0  0  0  0  0  0  0  0  0  0
   -2.7003    1.5469   -5.5408 H   0  0  0  0  0  0  0  0  0  0  0  0
   -2.9840    2.0592   -3.8653 H   0  0  0  0  0  0  0  0  0  0  0  0
    0.3799   -1.0298   -4.8593 N   0  0  0  0  0  0  0  0  0  0  0  0
    1.4531   -1.5334   -5.7051 C   0  0  0  0  0  0  0  0  0  0  0  0
    0.1915   -1.4846   -3.9621 H   0  0  0  0  0  0  0  0  0  0  0  0
    1.0789   -1.7500   -6.7111 H   0  0  0  0  0  0  0  0  0  0  0  0
    2.2606   -0.7977   -5.7790 H   0  0  0  0  0  0  0  0  0  0  0  0
    1.8631   -2.4560   -5.2834 H   0  0  0  0  0  0  0  0  0  0  0  0
  1  2  2  0  0  0  0
  1  3  1  0  0  0  0
  1  7  1  0  0  0  0
  3  4  1  0  0  0  0
  3  5  1  0  0  0  0
  3  6  1  0  0  0  0
  7  8  1  0  0  0  0
  7 12  1  0  0  0  0
  8  9  1  0  0  0  0
  8 11  1  0  0  0  0
  8 13  1  0  0  0  0
  9 10  2  0  0  0  0
  9 17  1  0  0  0  0
 11 14  1  0  0  0  0
 11 15  1  0  0  0  0
 11 16  1  0  0  0  0
 17 18  1  0  0  0  0
 17 28  1  0  0  0  0
 18 19  1  0  0  0  0
 18 21  1  0  0  0  0
 18 29  1  0  0  0  0
 19 20  2  0  0  0  0
 19 37  1  0  0  0  0
 21 22  1  0  0  0  0
 21 30  1  0  0  0  0
 21 31  1  0  0  0  0
 22 23  1  0  0  0  0
 22 24  2  0  0  0  0
 23 25  2  0  0  0  0
 23 32  1  0  0  0  0
 24 26  1  0  0  0  0
 24 33  1  0  0  0  0
 25 27  1  0  0  0  0
 25 34  1  0  0  0  0
 26 27  2  0  0  0  0
 26 35  1  0  0  0  0
 27 36  1  0  0  0  0
 37 38  1  0  0  0  0
 37 42  1  0  0  0  0
 38 39  1  0  0  0  0
 38 41  1  0  0  0  0
 38 43  1  0  0  0  0
 39 40  2  0  0  0  0
 39 47  1  0  0  0  0
 41 44  1  0  0  0  0
 41 45  1  0  0  0  0
 41 46  1  0  0  0  0
 47 48  1  0  0  0  0
 47 49  1  0  0  0  0
 48 50  1  0  0  0  0
 48 51  1  0  0  0  0
 48 52  1  0  0  0  0
M  END
$$$$

  -OEChem-05262217163D

 52 52  0     1  0  0  0  0  0999 V2000
   -2.0423    0.3892    4.3353 C   0  0  0  0  0  0  0  0  0  0  0  0
   -2.4032   -0.6560    3.8177 O   0  0  0  0  0  0  0  0  0  0  0  0
   -1.5431    0.3937    5.7678 C   0  0  0  0  0  0  0  0  0  0  0  0
   -1.5563   -0.6209    6.1758 H   0  0  0  0  0  0  0  0  0  0  0  0
   -0.5193    0.7746    5.8049 H   0  0  0  0  0  0  0  0  0  0  0  0
   -2.1835    1.0299    6.3835 H   0  0  0  0  0  0  0  0  0  0  0  0
   -2.0388    1.5629    3.6113 N   0  0  0  0  0  0  0  0  0  0  0  0
   -2.1820    1.6016    2.1482 C   0  0  2  0  0  0  0  0  0  0  0  0
   -0.8092    1.7123    1.4514 C   0  0  0  0  0  0  0  0  0  0  0  0
    0.1411    2.1942    2.0531 O   0  0  0  0  0  0  0  0  0  0  0  0
   -3.0687    2.8016    1.8065 C   0  0  0  0  0  0  0  0  0  0  0  0
   -1.4919    2.3155    4.0241 H   0  0  0  0  0  0  0  0  0  0  0  0
   -2.6721    0.6929    1.7826 H   0  0  0  0  0  0  0  0  0  0  0  0
   -2.5964    3.7333    2.1345 H   0  0  0  0  0  0  0  0  0  0  0  0
   -3.2402    2.8593    0.7276 H   0  0  0  0  0  0  0  0  0  0  0  0
   -4.0388    2.7081    2.3048 H   0  0  0  0  0  0  0  0  0  0  0  0
   -0.6820    1.5621    0.0852 N   0  0  0  0  0  0  0  0  0  0  0  0
    0.3601    0.7446   -0.5778 C   0  0  2  0  0  0  0  0  0  0  0  0
   -0.2496    0.2406   -1.9077 C   0  0  0  0  0  0  0  0  0  0  0  0
   -0.7096   -0.8859   -2.0553 O   0  0  0  0  0  0  0  0  0  0  0  0
    0.8835   -0.5288    0.1606 C   0  0  0  0  0  0  0  0  0  0  0  0
    1.6716   -0.3255    1.4320 C   0  0  0  0  0  0  0  0  0  0  0  0
    3.0323    0.0096    1.3678 C   0  0  0  0  0  0  0  0  0  0  0  0
    1.1092   -0.6323    2.6823 C   0  0  0  0  0  0  0  0  0  0  0  0
    3.7982    0.1069    2.5346 C   0  0  0  0  0  0  0  0  0  0  0  0
    1.8736   -0.5400    3.8498 C   0  0  0  0  0  0  0  0  0  0  0  0
    3.2174   -0.1627    3.7772 C   0  0  0  0  0  0  0  0  0  0  0  0
   -1.5938    1.4505   -0.3521 H   0  0  0  0  0  0  0  0  0  0  0  0
    1.2209    1.3840   -0.7954 H   0  0  0  0  0  0  0  0  0  0  0  0
    1.5198   -1.0946   -0.5289 H   0  0  0  0  0  0  0  0  0  0  0  0
    0.0263   -1.1702    0.3945 H   0  0  0  0  0  0  0  0  0  0  0  0
    3.4990    0.2052    0.4077 H   0  0  0  0  0  0  0  0  0  0  0  0
    0.0729   -0.9492    2.7502 H   0  0  0  0  0  0  0  0  0  0  0  0
    4.8453    0.3874    2.4741 H   0  0  0  0  0  0  0  0  0  0  0  0
    1.4243   -0.7715    4.8102 H   0  0  0  0  0  0  0  0  0  0  0  0
    3.8123   -0.0898    4.6826 H   0  0  0  0  0  0  0  0  0  0  0  0
   -0.3750    1.1313   -2.9584 N   0  0  0  0  0  0  0  0  0  0  0  0
   -0.9216    0.7820   -4.2797 C   0  0  2  0  0  0  0  0  0  0  0  0
    0.0711   -0.0530   -5.1255 C   0  0  0  0  0  0  0  0  0  0  0  0
    0.5843    0.3958   -6.1430 O   0  0  0  0  0  0  0  0  0  0  0  0
   -1.3329    2.0898   -4.9683 C   0  0  0  0  0  0  0  0  0  0  0  0
    0.0597    2.0438   -2.8446 H   0  0  0  0  0  0  0  0  0  0  0  0
   -1.8251    0.1759   -4.1532 H   0  0  0  0  0  0  0  0  0  0  0  0
   -0.4628    2.7366   -5.1208 H   0  0  0  0  0  0  0  0  0  0  0  0
   -1.7803    1.8779   -5.9448 H   0  0  0  0  0  0  0  0  0  0  0  0
   -2.0683    2.6275   -4.3621 H   0  0  0  0  0  0  0  0  0  0  0  0
    0.4045   -1.3266   -4.7086 N   0  0  0  0  0  0  0  0  0  0  0  0
    1.3780   -2.1744   -5.3833 C   0  0  0  0  0  0  0  0  0  0  0  0
    0.0187   -1.6229   -3.8082 H   0  0  0  0  0  0  0  0  0  0  0  0
    1.0776   -2.3513   -6.4214 H   0  0  0  0  0  0  0  0  0  0  0  0
    2.3662   -1.7030   -5.3769 H   0  0  0  0  0  0  0  0  0  0  0  0
    1.4520   -3.1413   -4.8765 H   0  0  0  0  0  0  0  0  0  0  0  0
  1  2  2  0  0  0  0
  1  3  1  0  0  0  0
  1  7  1  0  0  0  0
  3  4  1  0  0  0  0
  3  5  1  0  0  0  0
  3  6  1  0  0  0  0
  7  8  1  0  0  0  0
  7 12  1  0  0  0  0
  8  9  1  0  0  0  0
  8 11  1  0  0  0  0
  8 13  1  0  0  0  0
  9 10  2  0  0  0  0
  9 17  1  0  0  0  0
 11 14  1  0  0  0  0
 11 15  1  0  0  0  0
 11 16  1  0  0  0  0
 17 18  1  0  0  0  0
 17 28  1  0  0  0  0
 18 19  1  0  0  0  0
 18 21  1  0  0  0  0
 18 29  1  0  0  0  0
 19 20  2  0  0  0  0
 19 37  1  0  0  0  0
 21 22  1  0  0  0  0
 21 30  1  0  0  0  0
 21 31  1  0  0  0  0
 22 23  1  0  0  0  0
 22 24  2  0  0  0  0
 23 25  2  0  0  0  0
 23 32  1  0  0  0  0
 24 26  1  0  0  0  0
 24 33  1  0  0  0  0
 25 27  1  0  0  0  0
 25 34  1  0  0  0  0
 26 27  2  0  0  0  0
 26 35  1  0  0  0  0
 27 36  1  0  0  0  0
 37 38  1  0  0  0  0
 37 42  1  0  0  0  0
 38 39  1  0  0  0  0
 38 41  1  0  0  0  0
 38 43  1  0  0  0  0
 39 40  2  0  0  0  0
 39 47  1  0  0  0  0
 41 44  1  0  0  0  0
 41 45  1  0  0  0  0
 41 46  1  0  0  0  0
 47 48  1  0  0  0  0
 47 49  1  0  0  0  0
 48 50  1  0  0  0  0
 48 51  1  0  0  0  0
 48 52  1  0  0  0  0
M  END
$$$$

  -OEChem-05262217163D

 52 52  0     1  0  0  0  0  0999 V2000
   -2.0539    0.3657    4.2943 C   0  0  0  0  0  0  0  0  0  0  0  0
   -2.3836   -0.6897    3.7766 O   0  0  0  0  0  0  0  0  0  0  0  0
   -1.5826    0.3882    5.7360 C   0  0  0  0  0  0  0  0  0  0  0  0
   -1.5732   -0.6253    6.1465 H   0  0  0  0  0  0  0  0  0  0  0  0
   -0.5714    0.7993    5.7903 H   0  0  0  0  0  0  0  0  0  0  0  0
   -2.2529    1.0064    6.3381 H   0  0  0  0  0  0  0  0  0  0  0  0
   -2.0614    1.5361    3.5652 N   0  0  0  0  0  0  0  0  0  0  0  0
   -2.1659    1.5651    2.0986 C   0  0  2  0  0  0  0  0  0  0  0  0
   -0.7791    1.7206    1.4382 C   0  0  0  0  0  0  0  0  0  0  0  0
    0.1542    2.1869    2.0785 O   0  0  0  0  0  0  0  0  0  0  0  0
   -3.0847    2.7317    1.7284 C   0  0  0  0  0  0  0  0  0  0  0  0
   -1.5388    2.3007    3.9867 H   0  0  0  0  0  0  0  0  0  0  0  0
   -2.6133    0.6386    1.7225 H   0  0  0  0  0  0  0  0  0  0  0  0
   -2.6524    3.6811    2.0608 H   0  0  0  0  0  0  0  0  0  0  0  0
   -3.2328    2.7764    0.6453 H   0  0  0  0  0  0  0  0  0  0  0  0
   -4.0624    2.6078    2.2046 H   0  0  0  0  0  0  0  0  0  0  0  0
   -0.6168    1.6132    0.0720 N   0  0  0  0  0  0  0  0  0  0  0  0
    0.4530    0.8285   -0.5823 C   0  0  2  0  0  0  0  0  0  0  0  0
   -0.1097    0.3531   -1.9400 C   0  0  0  0  0  0  0  0  0  0  0  0
   -0.8361   -0.6296   -2.0366 O   0  0  0  0  0  0  0  0  0  0  0  0
    0.9558   -0.4743    0.1157 C   0  0  0  0  0  0  0  0  0  0  0  0
    1.6938   -0.3252    1.4238 C   0  0  0  0  0  0  0  0  0  0  0  0
    3.0536    0.0188    1.4298 C   0  0  0  0  0  0  0  0  0  0  0  0
    1.0821   -0.6874    2.6356 C   0  0  0  0  0  0  0  0  0  0  0  0
    3.7697    0.0695    2.6307 C   0  0  0  0  0  0  0  0  0  0  0  0
    1.7963   -0.6417    3.8366 C   0  0  0  0  0  0  0  0  0  0  0  0
    3.1396   -0.2558    3.8357 C   0  0  0  0  0  0  0  0  0  0  0  0
   -1.5152    1.4907   -0.3902 H   0  0  0  0  0  0  0  0  0  0  0  0
    1.3153    1.4811   -0.7470 H   0  0  0  0  0  0  0  0  0  0  0  0
    1.6196   -1.0048   -0.5758 H   0  0  0  0  0  0  0  0  0  0  0  0
    0.0956   -1.1304    0.2903 H   0  0  0  0  0  0  0  0  0  0  0  0
    3.5592    0.2577    0.4998 H   0  0  0  0  0  0  0  0  0  0  0  0
    0.0458   -1.0117    2.6473 H   0  0  0  0  0  0  0  0  0  0  0  0
    4.8169    0.3564    2.6266 H   0  0  0  0  0  0  0  0  0  0  0  0
    1.3073   -0.9147    4.7664 H   0  0  0  0  0  0  0  0  0  0  0  0
    3.6953   -0.2188    4.7678 H   0  0  0  0  0  0  0  0  0  0  0  0
    0.0606    1.1454   -3.0603 N   0  0  0  0  0  0  0  0  0  0  0  0
   -0.4560    0.8077   -4.3964 C   0  0  2  0  0  0  0  0  0  0  0  0
    0.3632   -0.3172   -5.0756 C   0  0  0  0  0  0  0  0  0  0  0  0
    1.0418   -0.1069   -6.0732 O   0  0  0  0  0  0  0  0  0  0  0  0
   -0.4853    2.1021   -5.2187 C   0  0  0  0  0  0  0  0  0  0  0  0
    0.6799    1.9473   -2.9734 H   0  0  0  0  0  0  0  0  0  0  0  0
   -1.4865    0.4470   -4.3100 H   0  0  0  0  0  0  0  0  0  0  0  0
    0.5247    2.5066   -5.3403 H   0  0  0  0  0  0  0  0  0  0  0  0
   -0.9010    1.9089   -6.2129 H   0  0  0  0  0  0  0  0  0  0  0  0
   -1.1074    2.8545   -4.7246 H   0  0  0  0  0  0  0  0  0  0  0  0
    0.3501   -1.5834   -4.5245 N   0  0  0  0  0  0  0  0  0  0  0  0
    1.1457   -2.6967   -5.0238 C   0  0  0  0  0  0  0  0  0  0  0  0
   -0.1634   -1.6881   -3.6456 H   0  0  0  0  0  0  0  0  0  0  0  0
    0.9145   -2.8913   -6.0761 H   0  0  0  0  0  0  0  0  0  0  0  0
    2.2141   -2.4758   -4.9318 H   0  0  0  0  0  0  0  0  0  0  0  0
    0.9273   -3.6027   -4.4503 H   0  0  0  0  0  0  0  0  0  0  0  0
  1  2  2  0  0  0  0
  1  3  1  0  0  0  0
  1  7  1  0  0  0  0
  3  4  1  0  0  0  0
  3  5  1  0  0  0  0
  3  6  1  0  0  0  0
  7  8  1  0  0  0  0
  7 12  1  0  0  0  0
  8  9  1  0  0  0  0
  8 11  1  0  0  0  0
  8 13  1  0  0  0  0
  9 10  2  0  0  0  0
  9 17  1  0  0  0  0
 11 14  1  0  0  0  0
 11 15  1  0  0  0  0
 11 16  1  0  0  0  0
 17 18  1  0  0  0  0
 17 28  1  0  0  0  0
 18 19  1  0  0  0  0
 18 21  1  0  0  0  0
 18 29  1  0  0  0  0
 19 20  2  0  0  0  0
 19 37  1  0  0  0  0
 21 22  1  0  0  0  0
 21 30  1  0  0  0  0
 21 31  1  0  0  0  0
 22 23  1  0  0  0  0
 22 24  2  0  0  0  0
 23 25  2  0  0  0  0
 23 32  1  0  0  0  0
 24 26  1  0  0  0  0
 24 33  1  0  0  0  0
 25 27  1  0  0  0  0
 25 34  1  0  0  0  0
 26 27  2  0  0  0  0
 26 35  1  0  0  0  0
 27 36  1  0  0  0  0
 37 38  1  0  0  0  0
 37 42  1  0  0  0  0
 38 39  1  0  0  0  0
 38 41  1  0  0  0  0
 38 43  1  0  0  0  0
 39 40  2  0  0  0  0
 39 47  1  0  0  0  0
 41 44  1  0  0  0  0
 41 45  1  0  0  0  0
 41 46  1  0  0  0  0
 47 48  1  0  0  0  0
 47 49  1  0  0  0  0
 48 50  1  0  0  0  0
 48 51  1  0  0  0  0
 48 52  1  0  0  0  0
M  END
$$$$

  -OEChem-05262217163D

 52 52  0     1  0  0  0  0  0999 V2000
   -2.1235    0.3937    4.2720 C   0  0  0  0  0  0  0  0  0  0  0  0
   -2.4712   -0.6251    3.6961 O   0  0  0  0  0  0  0  0  0  0  0  0
   -1.6877    0.3308    5.7236 C   0  0  0  0  0  0  0  0  0  0  0  0
   -1.7176   -0.7018    6.0827 H   0  0  0  0  0  0  0  0  0  0  0  0
   -0.6670    0.7081    5.8231 H   0  0  0  0  0  0  0  0  0  0  0  0
   -2.3550    0.9387    6.3392 H   0  0  0  0  0  0  0  0  0  0  0  0
   -2.0793    1.5982    3.6019 N   0  0  0  0  0  0  0  0  0  0  0  0
   -2.1523    1.6981    2.1366 C   0  0  2  0  0  0  0  0  0  0  0  0
   -0.7463    1.7960    1.5089 C   0  0  0  0  0  0  0  0  0  0  0  0
    0.1854    2.2405    2.1672 O   0  0  0  0  0  0  0  0  0  0  0  0
   -2.9853    2.9370    1.7983 C   0  0  0  0  0  0  0  0  0  0  0  0
   -1.5412    2.3247    4.0690 H   0  0  0  0  0  0  0  0  0  0  0  0
   -2.6501    0.8193    1.7124 H   0  0  0  0  0  0  0  0  0  0  0  0
   -2.4943    3.8427    2.1694 H   0  0  0  0  0  0  0  0  0  0  0  0
   -3.1127    3.0299    0.7154 H   0  0  0  0  0  0  0  0  0  0  0  0
   -3.9767    2.8637    2.2565 H   0  0  0  0  0  0  0  0  0  0  0  0
   -0.5662    1.6597    0.1485 N   0  0  0  0  0  0  0  0  0  0  0  0
    0.5127    0.8729   -0.4852 C   0  0  2  0  0  0  0  0  0  0  0  0
   -0.0484    0.3752   -1.8327 C   0  0  0  0  0  0  0  0  0  0  0  0
   -1.0142   -0.3792   -1.8673 O   0  0  0  0  0  0  0  0  0  0  0  0
    1.0047   -0.4289    0.2169 C   0  0  0  0  0  0  0  0  0  0  0  0
    1.7219   -0.2766    1.5366 C   0  0  0  0  0  0  0  0  0  0  0  0
    3.0808    0.0703    1.5635 C   0  0  0  0  0  0  0  0  0  0  0  0
    1.0898   -0.6300    2.7406 C   0  0  0  0  0  0  0  0  0  0  0  0
    3.7770    0.1293    2.7760 C   0  0  0  0  0  0  0  0  0  0  0  0
    1.7842   -0.5752    3.9534 C   0  0  0  0  0  0  0  0  0  0  0  0
    3.1271   -0.1878    3.9726 C   0  0  0  0  0  0  0  0  0  0  0  0
   -1.4571    1.5170   -0.3246 H   0  0  0  0  0  0  0  0  0  0  0  0
    1.3739    1.5263   -0.6529 H   0  0  0  0  0  0  0  0  0  0  0  0
    1.6804   -0.9573   -0.4644 H   0  0  0  0  0  0  0  0  0  0  0  0
    0.1422   -1.0861    0.3744 H   0  0  0  0  0  0  0  0  0  0  0  0
    3.6004    0.3050    0.6401 H   0  0  0  0  0  0  0  0  0  0  0  0
    0.0527   -0.9525    2.7362 H   0  0  0  0  0  0  0  0  0  0  0  0
    4.8238    0.4177    2.7866 H   0  0  0  0  0  0  0  0  0  0  0  0
    1.2797   -0.8420    4.8765 H   0  0  0  0  0  0  0  0  0  0  0  0
    3.6675   -0.1427    4.9131 H   0  0  0  0  0  0  0  0  0  0  0  0
    0.3663    0.9654   -3.0115 N   0  0  0  0  0  0  0  0  0  0  0  0
   -0.0496    0.4664   -4.3279 C   0  0  2  0  0  0  0  0  0  0  0  0
    0.8005   -0.7461   -4.7593 C   0  0  0  0  0  0  0  0  0  0  0  0
    2.0226   -0.6572   -4.7814 O   0  0  0  0  0  0  0  0  0  0  0  0
    0.0838    1.6139   -5.3318 C   0  0  0  0  0  0  0  0  0  0  0  0
    1.2404    1.4836   -2.9699 H   0  0  0  0  0  0  0  0  0  0  0  0
   -1.1010    0.1616   -4.3024 H   0  0  0  0  0  0  0  0  0  0  0  0
    1.1227    1.9541   -5.3929 H   0  0  0  0  0  0  0  0  0  0  0  0
   -0.2322    1.2865   -6.3270 H   0  0  0  0  0  0  0  0  0  0  0  0
   -0.5433    2.4582   -5.0290 H   0  0  0  0  0  0  0  0  0  0  0  0
    0.1934   -1.9360   -5.1132 N   0  0  0  0  0  0  0  0  0  0  0  0
    0.9449   -3.1458   -5.4239 C   0  0  0  0  0  0  0  0  0  0  0  0
   -0.8003   -2.0193   -4.9156 H   0  0  0  0  0  0  0  0  0  0  0  0
    1.6597   -2.9571   -6.2320 H   0  0  0  0  0  0  0  0  0  0  0  0
    1.4932   -3.4930   -4.5419 H   0  0  0  0  0  0  0  0  0  0  0  0
    0.2652   -3.9405   -5.7465 H   0  0  0  0  0  0  0  0  0  0  0  0
  1  2  2  0  0  0  0
  1  3  1  0  0  0  0
  1  7  1  0  0  0  0
  3  4  1  0  0  0  0
  3  5  1  0  0  0  0
  3  6  1  0  0  0  0
  7  8  1  0  0  0  0
  7 12  1  0  0  0  0
  8  9  1  0  0  0  0
  8 11  1  0  0  0  0
  8 13  1  0  0  0  0
  9 10  2  0  0  0  0
  9 17  1  0  0  0  0
 11 14  1  0  0  0  0
 11 15  1  0  0  0  0
 11 16  1  0  0  0  0
 17 18  1  0  0  0  0
 17 28  1  0  0  0  0
 18 19  1  0  0  0  0
 18 21  1  0  0  0  0
 18 29  1  0  0  0  0
 19 20  2  0  0  0  0
 19 37  1  0  0  0  0
 21 22  1  0  0  0  0
 21 30  1  0  0  0  0
 21 31  1  0  0  0  0
 22 23  1  0  0  0  0
 22 24  2  0  0  0  0
 23 25  2  0  0  0  0
 23 32  1  0  0  0  0
 24 26  1  0  0  0  0
 24 33  1  0  0  0  0
 25 27  1  0  0  0  0
 25 34  1  0  0  0  0
 26 27  2  0  0  0  0
 26 35  1  0  0  0  0
 27 36  1  0  0  0  0
 37 38  1  0  0  0  0
 37 42  1  0  0  0  0
 38 39  1  0  0  0  0
 38 41  1  0  0  0  0
 38 43  1  0  0  0  0
 39 40  2  0  0  0  0
 39 47  1  0  0  0  0
 41 44  1  0  0  0  0
 41 45  1  0  0  0  0
 41 46  1  0  0  0  0
 47 48  1  0  0  0  0
 47 49  1  0  0  0  0
 48 50  1  0  0  0  0
 48 51  1  0  0  0  0
 48 52  1  0  0  0  0
M  END
$$$$

  -OEChem-05262217163D

 52 52  0     1  0  0  0  0  0999 V2000
   -2.1338    0.3733    4.2246 C   0  0  0  0  0  0  0  0  0  0  0  0
   -2.4940   -0.6327    3.6341 O   0  0  0  0  0  0  0  0  0  0  0  0
   -1.7247    0.2869    5.6826 C   0  0  0  0  0  0  0  0  0  0  0  0
   -1.7526   -0.7524    6.0214 H   0  0  0  0  0  0  0  0  0  0  0  0
   -0.7096    0.6711    5.8091 H   0  0  0  0  0  0  0  0  0  0  0  0
   -2.4091    0.8768    6.2967 H   0  0  0  0  0  0  0  0  0  0  0  0
   -2.0552    1.5833    3.5677 N   0  0  0  0  0  0  0  0  0  0  0  0
   -2.1141    1.7046    2.1032 C   0  0  2  0  0  0  0  0  0  0  0  0
   -0.7043    1.8389    1.4915 C   0  0  0  0  0  0  0  0  0  0  0  0
    0.2180    2.2750    2.1690 O   0  0  0  0  0  0  0  0  0  0  0  0
   -2.9699    2.9302    1.7756 C   0  0  0  0  0  0  0  0  0  0  0  0
   -1.5100    2.2950    4.0495 H   0  0  0  0  0  0  0  0  0  0  0  0
   -2.5875    0.8224    1.6590 H   0  0  0  0  0  0  0  0  0  0  0  0
   -2.5117    3.8376    2.1824 H   0  0  0  0  0  0  0  0  0  0  0  0
   -3.0737    3.0480    0.6926 H   0  0  0  0  0  0  0  0  0  0  0  0
   -3.9692    2.8189    2.2081 H   0  0  0  0  0  0  0  0  0  0  0  0
   -0.5066    1.7169    0.1325 N   0  0  0  0  0  0  0  0  0  0  0  0
    0.5826    0.9384   -0.4925 C   0  0  2  0  0  0  0  0  0  0  0  0
    0.0439    0.4508   -1.8518 C   0  0  0  0  0  0  0  0  0  0  0  0
   -1.0508   -0.0996   -1.9164 O   0  0  0  0  0  0  0  0  0  0  0  0
    1.0444   -0.3827    0.1912 C   0  0  0  0  0  0  0  0  0  0  0  0
    1.7256   -0.2646    1.5328 C   0  0  0  0  0  0  0  0  0  0  0  0
    3.0852    0.0715    1.6063 C   0  0  0  0  0  0  0  0  0  0  0  0
    1.0569   -0.6404    2.7096 C   0  0  0  0  0  0  0  0  0  0  0  0
    3.7460    0.1007    2.8393 C   0  0  0  0  0  0  0  0  0  0  0  0
    1.7168   -0.6185    3.9424 C   0  0  0  0  0  0  0  0  0  0  0  0
    3.0606   -0.2403    4.0090 C   0  0  0  0  0  0  0  0  0  0  0  0
   -1.3890    1.5683   -0.3566 H   0  0  0  0  0  0  0  0  0  0  0  0
    1.4491    1.5908   -0.6351 H   0  0  0  0  0  0  0  0  0  0  0  0
    1.7356   -0.9024   -0.4818 H   0  0  0  0  0  0  0  0  0  0  0  0
    0.1718   -1.0355    0.3077 H   0  0  0  0  0  0  0  0  0  0  0  0
    3.6325    0.3225    0.7035 H   0  0  0  0  0  0  0  0  0  0  0  0
    0.0186   -0.9558    2.6681 H   0  0  0  0  0  0  0  0  0  0  0  0
    4.7929    0.3840    2.8866 H   0  0  0  0  0  0  0  0  0  0  0  0
    1.1850   -0.9035    4.8445 H   0  0  0  0  0  0  0  0  0  0  0  0
    3.5736   -0.2200    4.9656 H   0  0  0  0  0  0  0  0  0  0  0  0
    0.6767    0.8136   -3.0257 N   0  0  0  0  0  0  0  0  0  0  0  0
    0.2813    0.2605   -4.3270 C   0  0  2  0  0  0  0  0  0  0  0  0
    0.9074   -1.1300   -4.5573 C   0  0  0  0  0  0  0  0  0  0  0  0
    2.1090   -1.2942   -4.3791 O   0  0  0  0  0  0  0  0  0  0  0  0
    0.7227    1.2421   -5.4147 C   0  0  0  0  0  0  0  0  0  0  0  0
    1.6401    1.1270   -2.9347 H   0  0  0  0  0  0  0  0  0  0  0  0
   -0.8081    0.1640   -4.3814 H   0  0  0  0  0  0  0  0  0  0  0  0
    1.8094    1.3738   -5.3975 H   0  0  0  0  0  0  0  0  0  0  0  0
    0.4349    0.8690   -6.4024 H   0  0  0  0  0  0  0  0  0  0  0  0
    0.2497    2.2168   -5.2608 H   0  0  0  0  0  0  0  0  0  0  0  0
    0.1219   -2.1933   -4.9604 N   0  0  0  0  0  0  0  0  0  0  0  0
    0.6335   -3.5531   -5.0766 C   0  0  0  0  0  0  0  0  0  0  0  0
   -0.8847   -2.0540   -4.9375 H   0  0  0  0  0  0  0  0  0  0  0  0
    1.4996   -3.5823   -5.7462 H   0  0  0  0  0  0  0  0  0  0  0  0
    0.9342   -3.9336   -4.0948 H   0  0  0  0  0  0  0  0  0  0  0  0
   -0.1375   -4.2134   -5.4852 H   0  0  0  0  0  0  0  0  0  0  0  0
  1  2  2  0  0  0  0
  1  3  1  0  0  0  0
  1  7  1  0  0  0  0
  3  4  1  0  0  0  0
  3  5  1  0  0  0  0
  3  6  1  0  0  0  0
  7  8  1  0  0  0  0
  7 12  1  0  0  0  0
  8  9  1  0  0  0  0
  8 11  1  0  0  0  0
  8 13  1  0  0  0  0
  9 10  2  0  0  0  0
  9 17  1  0  0  0  0
 11 14  1  0  0  0  0
 11 15  1  0  0  0  0
 11 16  1  0  0  0  0
 17 18  1  0  0  0  0
 17 28  1  0  0  0  0
 18 19  1  0  0  0  0
 18 21  1  0  0  0  0
 18 29  1  0  0  0  0
 19 20  2  0  0  0  0
 19 37  1  0  0  0  0
 21 22  1  0  0  0  0
 21 30  1  0  0  0  0
 21 31  1  0  0  0  0
 22 23  1  0  0  0  0
 22 24  2  0  0  0  0
 23 25  2  0  0  0  0
 23 32  1  0  0  0  0
 24 26  1  0  0  0  0
 24 33  1  0  0  0  0
 25 27  1  0  0  0  0
 25 34  1  0  0  0  0
 26 27  2  0  0  0  0
 26 35  1  0  0  0  0
 27 36  1  0  0  0  0
 37 38  1  0  0  0  0
 37 42  1  0  0  0  0
 38 39  1  0  0  0  0
 38 41  1  0  0  0  0
 38 43  1  0  0  0  0
 39 40  2  0  0  0  0
 39 47  1  0  0  0  0
 41 44  1  0  0  0  0
 41 45  1  0  0  0  0
 41 46  1  0  0  0  0
 47 48  1  0  0  0  0
 47 49  1  0  0  0  0
 48 50  1  0  0  0  0
 48 51  1  0  0  0  0
 48 52  1  0  0  0  0
M  END
$$$$

  -OEChem-05262217163D

 52 52  0     1  0  0  0  0  0999 V2000
   -2.1529    0.3665    4.1715 C   0  0  0  0  0  0  0  0  0  0  0  0
   -2.5065   -0.6355    3.5700 O   0  0  0  0  0  0  0  0  0  0  0  0
   -1.7497    0.2690    5.6305 C   0  0  0  0  0  0  0  0  0  0  0  0
   -1.7619   -0.7749    5.9563 H   0  0  0  0  0  0  0  0  0  0  0  0
   -0.7416    0.6686    5.7661 H   0  0  0  0  0  0  0  0  0  0  0  0
   -2.4468    0.8401    6.2483 H   0  0  0  0  0  0  0  0  0  0  0  0
   -2.0749    1.5830    3.5267 N   0  0  0  0  0  0  0  0  0  0  0  0
   -2.1103    1.7139    2.0623 C   0  0  2  0  0  0  0  0  0  0  0  0
   -0.6886    1.8431    1.4768 C   0  0  0  0  0  0  0  0  0  0  0  0
    0.2294    2.2449    2.1811 O   0  0  0  0  0  0  0  0  0  0  0  0
   -2.9516    2.9474    1.7260 C   0  0  0  0  0  0  0  0  0  0  0  0
   -1.5300    2.2879    4.0186 H   0  0  0  0  0  0  0  0  0  0  0  0
   -2.5827    0.8378    1.6050 H   0  0  0  0  0  0  0  0  0  0  0  0
   -2.4931    3.8502    2.1424 H   0  0  0  0  0  0  0  0  0  0  0  0
   -3.0370    3.0692    0.6419 H   0  0  0  0  0  0  0  0  0  0  0  0
   -3.9587    2.8432    2.1417 H   0  0  0  0  0  0  0  0  0  0  0  0
   -0.4693    1.7524    0.1188 N   0  0  0  0  0  0  0  0  0  0  0  0
    0.6267    0.9877   -0.5115 C   0  0  2  0  0  0  0  0  0  0  0  0
    0.1136    0.5313   -1.8916 C   0  0  0  0  0  0  0  0  0  0  0  0
   -1.0520    0.1695   -2.0244 O   0  0  0  0  0  0  0  0  0  0  0  0
    1.0621   -0.3584    0.1400 C   0  0  0  0  0  0  0  0  0  0  0  0
    1.7156   -0.2909    1.4986 C   0  0  0  0  0  0  0  0  0  0  0  0
    3.0766    0.0286    1.6103 C   0  0  0  0  0  0  0  0  0  0  0  0
    1.0180   -0.6942    2.6494 C   0  0  0  0  0  0  0  0  0  0  0  0
    3.7114    0.0118    2.8569 C   0  0  0  0  0  0  0  0  0  0  0  0
    1.6514   -0.7159    3.8961 C   0  0  0  0  0  0  0  0  0  0  0  0
    2.9979   -0.3563    4.0015 C   0  0  0  0  0  0  0  0  0  0  0  0
   -1.3426    1.6274   -0.3943 H   0  0  0  0  0  0  0  0  0  0  0  0
    1.4984    1.6396   -0.6212 H   0  0  0  0  0  0  0  0  0  0  0  0
    1.7632   -0.8650   -0.5332 H   0  0  0  0  0  0  0  0  0  0  0  0
    0.1803   -1.0045    0.2159 H   0  0  0  0  0  0  0  0  0  0  0  0
    3.6455    0.3014    0.7273 H   0  0  0  0  0  0  0  0  0  0  0  0
   -0.0229   -0.9959    2.5777 H   0  0  0  0  0  0  0  0  0  0  0  0
    4.7603    0.2806    2.9341 H   0  0  0  0  0  0  0  0  0  0  0  0
    1.0976   -1.0206    4.7784 H   0  0  0  0  0  0  0  0  0  0  0  0
    3.4912   -0.3708    4.9684 H   0  0  0  0  0  0  0  0  0  0  0  0
    0.9133    0.6493   -3.0124 N   0  0  0  0  0  0  0  0  0  0  0  0
    0.5505    0.0234   -4.2895 C   0  0  2  0  0  0  0  0  0  0  0  0
    0.9356   -1.4700   -4.3038 C   0  0  0  0  0  0  0  0  0  0  0  0
    2.0662   -1.8089   -3.9730 O   0  0  0  0  0  0  0  0  0  0  0  0
    1.2654    0.7813   -5.4101 C   0  0  0  0  0  0  0  0  0  0  0  0
    1.9060    0.7838   -2.8363 H   0  0  0  0  0  0  0  0  0  0  0  0
   -0.5280    0.1063   -4.4597 H   0  0  0  0  0  0  0  0  0  0  0  0
    2.3513    0.7255   -5.2816 H   0  0  0  0  0  0  0  0  0  0  0  0
    1.0091    0.3507   -6.3830 H   0  0  0  0  0  0  0  0  0  0  0  0
    0.9664    1.8341   -5.4072 H   0  0  0  0  0  0  0  0  0  0  0  0
    0.0132   -2.4298   -4.6756 N   0  0  0  0  0  0  0  0  0  0  0  0
    0.2852   -3.8597   -4.5934 C   0  0  0  0  0  0  0  0  0  0  0  0
   -0.9508   -2.1241   -4.7780 H   0  0  0  0  0  0  0  0  0  0  0  0
    1.1822   -4.1133   -5.1682 H   0  0  0  0  0  0  0  0  0  0  0  0
    0.4373   -4.1609   -3.5515 H   0  0  0  0  0  0  0  0  0  0  0  0
   -0.5556   -4.4292   -5.0011 H   0  0  0  0  0  0  0  0  0  0  0  0
  1  2  2  0  0  0  0
  1  3  1  0  0  0  0
  1  7  1  0  0  0  0
  3  4  1  0  0  0  0
  3  5  1  0  0  0  0
  3  6  1  0  0  0  0
  7  8  1  0  0  0  0
  7 12  1  0  0  0  0
  8  9  1  0  0  0  0
  8 11  1  0  0  0  0
  8 13  1  0  0  0  0
  9 10  2  0  0  0  0
  9 17  1  0  0  0  0
 11 14  1  0  0  0  0
 11 15  1  0  0  0  0
 11 16  1  0  0  0  0
 17 18  1  0  0  0  0
 17 28  1  0  0  0  0
 18 19  1  0  0  0  0
 18 21  1  0  0  0  0
 18 29  1  0  0  0  0
 19 20  2  0  0  0  0
 19 37  1  0  0  0  0
 21 22  1  0  0  0  0
 21 30  1  0  0  0  0
 21 31  1  0  0  0  0
 22 23  1  0  0  0  0
 22 24  2  0  0  0  0
 23 25  2  0  0  0  0
 23 32  1  0  0  0  0
 24 26  1  0  0  0  0
 24 33  1  0  0  0  0
 25 27  1  0  0  0  0
 25 34  1  0  0  0  0
 26 27  2  0  0  0  0
 26 35  1  0  0  0  0
 27 36  1  0  0  0  0
 37 38  1  0  0  0  0
 37 42  1  0  0  0  0
 38 39  1  0  0  0  0
 38 41  1  0  0  0  0
 38 43  1  0  0  0  0
 39 40  2  0  0  0  0
 39 47  1  0  0  0  0
 41 44  1  0  0  0  0
 41 45  1  0  0  0  0
 41 46  1  0  0  0  0
 47 48  1  0  0  0  0
 47 49  1  0  0  0  0
 48 50  1  0  0  0  0
 48 51  1  0  0  0  0
 48 52  1  0  0  0  0
M  END
$$$$

  -OEChem-05262217163D

 52 52  0     1  0  0  0  0  0999 V2000
   -2.2026    0.3361    4.0849 C   0  0  0  0  0  0  0  0  0  0  0  0
   -2.5211   -0.6633    3.4598 O   0  0  0  0  0  0  0  0  0  0  0  0
   -1.8487    0.2273    5.5560 C   0  0  0  0  0  0  0  0  0  0  0  0
   -1.9696   -0.8043    5.8987 H   0  0  0  0  0  0  0  0  0  0  0  0
   -0.8108    0.5317    5.7124 H   0  0  0  0  0  0  0  0  0  0  0  0
   -2.5033    0.8738    6.1455 H   0  0  0  0  0  0  0  0  0  0  0  0
   -2.1179    1.5608    3.4568 N   0  0  0  0  0  0  0  0  0  0  0  0
   -2.1053    1.7084    1.9937 C   0  0  2  0  0  0  0  0  0  0  0  0
   -0.6657    1.8268    1.4503 C   0  0  0  0  0  0  0  0  0  0  0  0
    0.2360    2.2118    2.1843 O   0  0  0  0  0  0  0  0  0  0  0  0
   -2.9209    2.9556    1.6456 C   0  0  0  0  0  0  0  0  0  0  0  0
   -1.6060    2.2695    3.9773 H   0  0  0  0  0  0  0  0  0  0  0  0
   -2.5746    0.8431    1.5132 H   0  0  0  0  0  0  0  0  0  0  0  0
   -2.4620    3.8484    2.0827 H   0  0  0  0  0  0  0  0  0  0  0  0
   -2.9745    3.0877    0.5606 H   0  0  0  0  0  0  0  0  0  0  0  0
   -3.9404    2.8611    2.0320 H   0  0  0  0  0  0  0  0  0  0  0  0
   -0.4119    1.7516    0.0970 N   0  0  0  0  0  0  0  0  0  0  0  0
    0.7025    1.0078   -0.5270 C   0  0  2  0  0  0  0  0  0  0  0  0
    0.2223    0.5645   -1.9254 C   0  0  0  0  0  0  0  0  0  0  0  0
   -0.9733    0.3802   -2.1393 O   0  0  0  0  0  0  0  0  0  0  0  0
    1.1243   -0.3477    0.1163 C   0  0  0  0  0  0  0  0  0  0  0  0
    1.7437   -0.3014    1.4917 C   0  0  0  0  0  0  0  0  0  0  0  0
    3.1012    0.0172    1.6451 C   0  0  0  0  0  0  0  0  0  0  0  0
    1.0172   -0.7272    2.6162 C   0  0  0  0  0  0  0  0  0  0  0  0
    3.7024   -0.0208    2.9081 C   0  0  0  0  0  0  0  0  0  0  0  0
    1.6172   -0.7703    3.8785 C   0  0  0  0  0  0  0  0  0  0  0  0
    2.9592   -0.4093    4.0265 C   0  0  0  0  0  0  0  0  0  0  0  0
   -1.2702    1.6446   -0.4456 H   0  0  0  0  0  0  0  0  0  0  0  0
    1.5722    1.6661   -0.6104 H   0  0  0  0  0  0  0  0  0  0  0  0
    1.8431   -0.8465   -0.5431 H   0  0  0  0  0  0  0  0  0  0  0  0
    0.2412   -0.9951    0.1593 H   0  0  0  0  0  0  0  0  0  0  0  0
    3.6937    0.3059    0.7830 H   0  0  0  0  0  0  0  0  0  0  0  0
   -0.0206   -1.0299    2.5119 H   0  0  0  0  0  0  0  0  0  0  0  0
    4.7482    0.2483    3.0186 H   0  0  0  0  0  0  0  0  0  0  0  0
    1.0402   -1.0920    4.7397 H   0  0  0  0  0  0  0  0  0  0  0  0
    3.4261   -0.4402    5.0061 H   0  0  0  0  0  0  0  0  0  0  0  0
    1.1226    0.4163   -2.9640 N   0  0  0  0  0  0  0  0  0  0  0  0
    0.7597   -0.2645   -4.2128 C   0  0  2  0  0  0  0  0  0  0  0  0
    0.8529   -1.7953   -4.0513 C   0  0  0  0  0  0  0  0  0  0  0  0
    1.8820   -2.2976   -3.6142 O   0  0  0  0  0  0  0  0  0  0  0  0
    1.7017    0.2264   -5.3146 C   0  0  0  0  0  0  0  0  0  0  0  0
    2.1044    0.3890   -2.6992 H   0  0  0  0  0  0  0  0  0  0  0  0
   -0.2639   -0.0058   -4.5038 H   0  0  0  0  0  0  0  0  0  0  0  0
    2.7422   -0.0039   -5.0632 H   0  0  0  0  0  0  0  0  0  0  0  0
    1.4597   -0.2593   -6.2651 H   0  0  0  0  0  0  0  0  0  0  0  0
    1.6041    1.3087   -5.4434 H   0  0  0  0  0  0  0  0  0  0  0  0
   -0.2208   -2.6020   -4.3769 N   0  0  0  0  0  0  0  0  0  0  0  0
   -0.2349   -4.0376   -4.1239 C   0  0  0  0  0  0  0  0  0  0  0  0
   -1.1034   -2.1343   -4.5652 H   0  0  0  0  0  0  0  0  0  0  0  0
    0.6155   -4.5230   -4.6144 H   0  0  0  0  0  0  0  0  0  0  0  0
   -0.1825   -4.2374   -3.0485 H   0  0  0  0  0  0  0  0  0  0  0  0
   -1.1555   -4.4811   -4.5154 H   0  0  0  0  0  0  0  0  0  0  0  0
  1  2  2  0  0  0  0
  1  3  1  0  0  0  0
  1  7  1  0  0  0  0
  3  4  1  0  0  0  0
  3  5  1  0  0  0  0
  3  6  1  0  0  0  0
  7  8  1  0  0  0  0
  7 12  1  0  0  0  0
  8  9  1  0  0  0  0
  8 11  1  0  0  0  0
  8 13  1  0  0  0  0
  9 10  2  0  0  0  0
  9 17  1  0  0  0  0
 11 14  1  0  0  0  0
 11 15  1  0  0  0  0
 11 16  1  0  0  0  0
 17 18  1  0  0  0  0
 17 28  1  0  0  0  0
 18 19  1  0  0  0  0
 18 21  1  0  0  0  0
 18 29  1  0  0  0  0
 19 20  2  0  0  0  0
 19 37  1  0  0  0  0
 21 22  1  0  0  0  0
 21 30  1  0  0  0  0
 21 31  1  0  0  0  0
 22 23  1  0  0  0  0
 22 24  2  0  0  0  0
 23 25  2  0  0  0  0
 23 32  1  0  0  0  0
 24 26  1  0  0  0  0
 24 33  1  0  0  0  0
 25 27  1  0  0  0  0
 25 34  1  0  0  0  0
 26 27  2  0  0  0  0
 26 35  1  0  0  0  0
 27 36  1  0  0  0  0
 37 38  1  0  0  0  0
 37 42  1  0  0  0  0
 38 39  1  0  0  0  0
 38 41  1  0  0  0  0
 38 43  1  0  0  0  0
 39 40  2  0  0  0  0
 39 47  1  0  0  0  0
 41 44  1  0  0  0  0
 41 45  1  0  0  0  0
 41 46  1  0  0  0  0
 47 48  1  0  0  0  0
 47 49  1  0  0  0  0
 48 50  1  0  0  0  0
 48 51  1  0  0  0  0
 48 52  1  0  0  0  0
M  END
$$$$

  -OEChem-05262217163D

 52 52  0     1  0  0  0  0  0999 V2000
   -2.2502    0.3062    3.9931 C   0  0  0  0  0  0  0  0  0  0  0  0
   -2.5359   -0.6941    3.3536 O   0  0  0  0  0  0  0  0  0  0  0  0
   -1.9338    0.1928    5.4723 C   0  0  0  0  0  0  0  0  0  0  0  0
   -1.9862   -0.8520    5.7910 H   0  0  0  0  0  0  0  0  0  0  0  0
   -0.9269    0.5707    5.6678 H   0  0  0  0  0  0  0  0  0  0  0  0
   -2.6535    0.7746    6.0531 H   0  0  0  0  0  0  0  0  0  0  0  0
   -2.1675    1.5360    3.3747 N   0  0  0  0  0  0  0  0  0  0  0  0
   -2.1066    1.6870    1.9133 C   0  0  2  0  0  0  0  0  0  0  0  0
   -0.6498    1.8030    1.4180 C   0  0  0  0  0  0  0  0  0  0  0  0
    0.2270    2.1860    2.1825 O   0  0  0  0  0  0  0  0  0  0  0  0
   -2.9097    2.9355    1.5411 C   0  0  0  0  0  0  0  0  0  0  0  0
   -1.6783    2.2475    3.9129 H   0  0  0  0  0  0  0  0  0  0  0  0
   -2.5612    0.8234    1.4161 H   0  0  0  0  0  0  0  0  0  0  0  0
   -2.4676    3.8268    1.9979 H   0  0  0  0  0  0  0  0  0  0  0  0
   -2.9249    3.0723    0.4554 H   0  0  0  0  0  0  0  0  0  0  0  0
   -3.9424    2.8387    1.8904 H   0  0  0  0  0  0  0  0  0  0  0  0
   -0.3526    1.7290    0.0737 N   0  0  0  0  0  0  0  0  0  0  0  0
    0.7882    1.0057   -0.5284 C   0  0  2  0  0  0  0  0  0  0  0  0
    0.3452    0.5592   -1.9426 C   0  0  0  0  0  0  0  0  0  0  0  0
   -0.8456    0.5582   -2.2472 O   0  0  0  0  0  0  0  0  0  0  0  0
    1.2047   -0.3451    0.1345 C   0  0  0  0  0  0  0  0  0  0  0  0
    1.7849   -0.2917    1.5274 C   0  0  0  0  0  0  0  0  0  0  0  0
    3.1346    0.0384    1.7214 C   0  0  0  0  0  0  0  0  0  0  0  0
    1.0328   -0.7350    2.6284 C   0  0  0  0  0  0  0  0  0  0  0  0
    3.7011   -0.0021    3.0006 C   0  0  0  0  0  0  0  0  0  0  0  0
    1.5982   -0.7832    3.9065 C   0  0  0  0  0  0  0  0  0  0  0  0
    2.9312   -0.4079    4.0948 C   0  0  0  0  0  0  0  0  0  0  0  0
   -1.1900    1.6380   -0.5039 H   0  0  0  0  0  0  0  0  0  0  0  0
    1.6515    1.6745   -0.5920 H   0  0  0  0  0  0  0  0  0  0  0  0
    1.9477   -0.8440   -0.4965 H   0  0  0  0  0  0  0  0  0  0  0  0
    0.3253   -0.9988    0.1529 H   0  0  0  0  0  0  0  0  0  0  0  0
    3.7479    0.3409    0.8790 H   0  0  0  0  0  0  0  0  0  0  0  0
    0.0018   -1.0486    2.4933 H   0  0  0  0  0  0  0  0  0  0  0  0
    4.7403    0.2780    3.1434 H   0  0  0  0  0  0  0  0  0  0  0  0
    1.0017   -1.1207    4.7483 H   0  0  0  0  0  0  0  0  0  0  0  0
    3.3710   -0.4408    5.0869 H   0  0  0  0  0  0  0  0  0  0  0  0
    1.2712    0.1332   -2.8780 N   0  0  0  0  0  0  0  0  0  0  0  0
    0.8748   -0.5914   -4.0916 C   0  0  2  0  0  0  0  0  0  0  0  0
    0.6589   -2.0888   -3.7923 C   0  0  0  0  0  0  0  0  0  0  0  0
    1.5356   -2.7251   -3.2190 O   0  0  0  0  0  0  0  0  0  0  0  0
    1.9700   -0.3972   -5.1429 C   0  0  0  0  0  0  0  0  0  0  0  0
    2.2071   -0.0493   -2.5242 H   0  0  0  0  0  0  0  0  0  0  0  0
   -0.0560   -0.1781   -4.4940 H   0  0  0  0  0  0  0  0  0  0  0  0
    2.9255   -0.7918   -4.7821 H   0  0  0  0  0  0  0  0  0  0  0  0
    1.7061   -0.9209   -6.0670 H   0  0  0  0  0  0  0  0  0  0  0  0
    2.0940    0.6661   -5.3704 H   0  0  0  0  0  0  0  0  0  0  0  0
   -0.5219   -2.7129   -4.1475 N   0  0  0  0  0  0  0  0  0  0  0  0
   -0.8339   -4.0854   -3.7678 C   0  0  0  0  0  0  0  0  0  0  0  0
   -1.2795   -2.1129   -4.4623 H   0  0  0  0  0  0  0  0  0  0  0  0
   -0.0608   -4.7704   -4.1317 H   0  0  0  0  0  0  0  0  0  0  0  0
   -0.9001   -4.1754   -2.6784 H   0  0  0  0  0  0  0  0  0  0  0  0
   -1.7919   -4.3889   -4.2009 H   0  0  0  0  0  0  0  0  0  0  0  0
  1  2  2  0  0  0  0
  1  3  1  0  0  0  0
  1  7  1  0  0  0  0
  3  4  1  0  0  0  0
  3  5  1  0  0  0  0
  3  6  1  0  0  0  0
  7  8  1  0  0  0  0
  7 12  1  0  0  0  0
  8  9  1  0  0  0  0
  8 11  1  0  0  0  0
  8 13  1  0  0  0  0
  9 10  2  0  0  0  0
  9 17  1  0  0  0  0
 11 14  1  0  0  0  0
 11 15  1  0  0  0  0
 11 16  1  0  0  0  0
 17 18  1  0  0  0  0
 17 28  1  0  0  0  0
 18 19  1  0  0  0  0
 18 21  1  0  0  0  0
 18 29  1  0  0  0  0
 19 20  2  0  0  0  0
 19 37  1  0  0  0  0
 21 22  1  0  0  0  0
 21 30  1  0  0  0  0
 21 31  1  0  0  0  0
 22 23  1  0  0  0  0
 22 24  2  0  0  0  0
 23 25  2  0  0  0  0
 23 32  1  0  0  0  0
 24 26  1  0  0  0  0
 24 33  1  0  0  0  0
 25 27  1  0  0  0  0
 25 34  1  0  0  0  0
 26 27  2  0  0  0  0
 26 35  1  0  0  0  0
 27 36  1  0  0  0  0
 37 38  1  0  0  0  0
 37 42  1  0  0  0  0
 38 39  1  0  0  0  0
 38 41  1  0  0  0  0
 38 43  1  0  0  0  0
 39 40  2  0  0  0  0
 39 47  1  0  0  0  0
 41 44  1  0  0  0  0
 41 45  1  0  0  0  0
 41 46  1  0  0  0  0
 47 48  1  0  0  0  0
 47 49  1  0  0  0  0
 48 50  1  0  0  0  0
 48 51  1  0  0  0  0
 48 52  1  0  0  0  0
M  END
$$$$

  -OEChem-05262217163D

 52 52  0     1  0  0  0  0  0999 V2000
   -2.4623    0.1979    3.7806 C   0  0  0  0  0  0  0  0  0  0  0  0
   -2.8314   -0.6958    3.0341 O   0  0  0  0  0  0  0  0  0  0  0  0
   -2.2580   -0.0844    5.2568 C   0  0  0  0  0  0  0  0  0  0  0  0
   -2.4909   -1.1298    5.4772 H   0  0  0  0  0  0  0  0  0  0  0  0
   -1.2188    0.1114    5.5331 H   0  0  0  0  0  0  0  0  0  0  0  0
   -2.9136    0.5549    5.8530 H   0  0  0  0  0  0  0  0  0  0  0  0
   -2.1964    1.4579    3.2870 N   0  0  0  0  0  0  0  0  0  0  0  0
   -2.0599    1.7322    1.8496 C   0  0  2  0  0  0  0  0  0  0  0  0
   -0.5921    1.6263    1.3864 C   0  0  0  0  0  0  0  0  0  0  0  0
    0.3175    1.8322    2.1803 O   0  0  0  0  0  0  0  0  0  0  0  0
   -2.6081    3.1371    1.5898 C   0  0  0  0  0  0  0  0  0  0  0  0
   -1.6562    2.0546    3.9089 H   0  0  0  0  0  0  0  0  0  0  0  0
   -2.6504    1.0187    1.2651 H   0  0  0  0  0  0  0  0  0  0  0  0
   -2.0251    3.8841    2.1385 H   0  0  0  0  0  0  0  0  0  0  0  0
   -2.5604    3.3748    0.5225 H   0  0  0  0  0  0  0  0  0  0  0  0
   -3.6522    3.2022    1.9120 H   0  0  0  0  0  0  0  0  0  0  0  0
   -0.2867    1.5284    0.0443 N   0  0  0  0  0  0  0  0  0  0  0  0
    0.8898    0.8569   -0.5459 C   0  0  2  0  0  0  0  0  0  0  0  0
    0.6185    0.6841   -2.0632 C   0  0  0  0  0  0  0  0  0  0  0  0
   -0.4828    0.9678   -2.5305 O   0  0  0  0  0  0  0  0  0  0  0  0
    1.1217   -0.6047   -0.0478 C   0  0  0  0  0  0  0  0  0  0  0  0
    1.5054   -0.7955    1.3990 C   0  0  0  0  0  0  0  0  0  0  0  0
    2.8336   -0.6125    1.8123 C   0  0  0  0  0  0  0  0  0  0  0  0
    0.5697   -1.2892    2.3232 C   0  0  0  0  0  0  0  0  0  0  0  0
    3.2075   -0.8673    3.1366 C   0  0  0  0  0  0  0  0  0  0  0  0
    0.9430   -1.5501    3.6451 C   0  0  0  0  0  0  0  0  0  0  0  0
    2.2615   -1.3335    4.0545 C   0  0  0  0  0  0  0  0  0  0  0  0
   -1.0980    1.5386   -0.5747 H   0  0  0  0  0  0  0  0  0  0  0  0
    1.7864    1.4635   -0.3857 H   0  0  0  0  0  0  0  0  0  0  0  0
    1.9172   -1.0692   -0.6380 H   0  0  0  0  0  0  0  0  0  0  0  0
    0.2096   -1.1800   -0.2433 H   0  0  0  0  0  0  0  0  0  0  0  0
    3.5811   -0.2617    1.1086 H   0  0  0  0  0  0  0  0  0  0  0  0
   -0.4562   -1.4747    2.0180 H   0  0  0  0  0  0  0  0  0  0  0  0
    4.2340   -0.7058    3.4514 H   0  0  0  0  0  0  0  0  0  0  0  0
    0.2068   -1.9269    4.3482 H   0  0  0  0  0  0  0  0  0  0  0  0
    2.5525   -1.5337    5.0814 H   0  0  0  0  0  0  0  0  0  0  0  0
    1.5415    0.0856   -2.9044 N   0  0  0  0  0  0  0  0  0  0  0  0
    1.2740   -0.2661   -4.3080 C   0  0  2  0  0  0  0  0  0  0  0  0
    0.4342   -1.5604   -4.4287 C   0  0  0  0  0  0  0  0  0  0  0  0
    0.8946   -2.5843   -4.9182 O   0  0  0  0  0  0  0  0  0  0  0  0
    2.6259   -0.3618   -5.0257 C   0  0  0  0  0  0  0  0  0  0  0  0
    2.4031   -0.2522   -2.4844 H   0  0  0  0  0  0  0  0  0  0  0  0
    0.7013    0.5352   -4.7873 H   0  0  0  0  0  0  0  0  0  0  0  0
    3.2438   -1.1500   -4.5834 H   0  0  0  0  0  0  0  0  0  0  0  0
    2.4757   -0.5944   -6.0849 H   0  0  0  0  0  0  0  0  0  0  0  0
    3.1643    0.5882   -4.9548 H   0  0  0  0  0  0  0  0  0  0  0  0
   -0.8517   -1.5713   -3.9258 N   0  0  0  0  0  0  0  0  0  0  0  0
   -1.6971   -2.7561   -3.8778 C   0  0  0  0  0  0  0  0  0  0  0  0
   -1.1609   -0.7141   -3.4615 H   0  0  0  0  0  0  0  0  0  0  0  0
   -1.8777   -3.1382   -4.8879 H   0  0  0  0  0  0  0  0  0  0  0  0
   -1.2210   -3.5421   -3.2822 H   0  0  0  0  0  0  0  0  0  0  0  0
   -2.6621   -2.5133   -3.4223 H   0  0  0  0  0  0  0  0  0  0  0  0
  1  2  2  0  0  0  0
  1  3  1  0  0  0  0
  1  7  1  0  0  0  0
  3  4  1  0  0  0  0
  3  5  1  0  0  0  0
  3  6  1  0  0  0  0
  7  8  1  0  0  0  0
  7 12  1  0  0  0  0
  8  9  1  0  0  0  0
  8 11  1  0  0  0  0
  8 13  1  0  0  0  0
  9 10  2  0  0  0  0
  9 17  1  0  0  0  0
 11 14  1  0  0  0  0
 11 15  1  0  0  0  0
 11 16  1  0  0  0  0
 17 18  1  0  0  0  0
 17 28  1  0  0  0  0
 18 19  1  0  0  0  0
 18 21  1  0  0  0  0
 18 29  1  0  0  0  0
 19 20  2  0  0  0  0
 19 37  1  0  0  0  0
 21 22  1  0  0  0  0
 21 30  1  0  0  0  0
 21 31  1  0  0  0  0
 22 23  1  0  0  0  0
 22 24  2  0  0  0  0
 23 25  2  0  0  0  0
 23 32  1  0  0  0  0
 24 26  1  0  0  0  0
 24 33  1  0  0  0  0
 25 27  1  0  0  0  0
 25 34  1  0  0  0  0
 26 27  2  0  0  0  0
 26 35  1  0  0  0  0
 27 36  1  0  0  0  0
 37 38  1  0  0  0  0
 37 42  1  0  0  0  0
 38 39  1  0  0  0  0
 38 41  1  0  0  0  0
 38 43  1  0  0  0  0
 39 40  2  0  0  0  0
 39 47  1  0  0  0  0
 41 44  1  0  0  0  0
 41 45  1  0  0  0  0
 41 46  1  0  0  0  0
 47 48  1  0  0  0  0
 47 49  1  0  0  0  0
 48 50  1  0  0  0  0
 48 51  1  0  0  0  0
 48 52  1  0  0  0  0
M  END
$$$$

  -OEChem-05262217163D

 52 52  0     1  0  0  0  0  0999 V2000
   -2.5087    0.2178    3.7239 C   0  0  0  0  0  0  0  0  0  0  0  0
   -2.8503   -0.7004    2.9941 O   0  0  0  0  0  0  0  0  0  0  0  0
   -2.3281   -0.0225    5.2107 C   0  0  0  0  0  0  0  0  0  0  0  0
   -2.5813   -1.0569    5.4595 H   0  0  0  0  0  0  0  0  0  0  0  0
   -1.2894    0.1648    5.4948 H   0  0  0  0  0  0  0  0  0  0  0  0
   -2.9802    0.6457    5.7784 H   0  0  0  0  0  0  0  0  0  0  0  0
   -2.2454    1.4667    3.2019 N   0  0  0  0  0  0  0  0  0  0  0  0
   -2.0728    1.6997    1.7610 C   0  0  2  0  0  0  0  0  0  0  0  0
   -0.5931    1.5808    1.3408 C   0  0  0  0  0  0  0  0  0  0  0  0
    0.2930    1.8189    2.1519 O   0  0  0  0  0  0  0  0  0  0  0  0
   -2.6148    3.0957    1.4462 C   0  0  0  0  0  0  0  0  0  0  0  0
   -1.7245    2.0846    3.8197 H   0  0  0  0  0  0  0  0  0  0  0  0
   -2.6488    0.9689    1.1832 H   0  0  0  0  0  0  0  0  0  0  0  0
   -2.0498    3.8593    1.9906 H   0  0  0  0  0  0  0  0  0  0  0  0
   -2.5359    3.3038    0.3747 H   0  0  0  0  0  0  0  0  0  0  0  0
   -3.6682    3.1669    1.7351 H   0  0  0  0  0  0  0  0  0  0  0  0
   -0.2517    1.4350    0.0116 N   0  0  0  0  0  0  0  0  0  0  0  0
    0.9441    0.7586   -0.5358 C   0  0  2  0  0  0  0  0  0  0  0  0
    0.6919    0.5350   -2.0556 C   0  0  0  0  0  0  0  0  0  0  0  0
   -0.3016    1.0241   -2.5898 O   0  0  0  0  0  0  0  0  0  0  0  0
    1.1920   -0.6741    0.0396 C   0  0  0  0  0  0  0  0  0  0  0  0
    1.5608   -0.7901    1.4981 C   0  0  0  0  0  0  0  0  0  0  0  0
    2.8812   -0.5674    1.9166 C   0  0  0  0  0  0  0  0  0  0  0  0
    0.6230   -1.2590    2.4336 C   0  0  0  0  0  0  0  0  0  0  0  0
    3.2442   -0.7553    3.2548 C   0  0  0  0  0  0  0  0  0  0  0  0
    0.9854   -1.4522    3.7701 C   0  0  0  0  0  0  0  0  0  0  0  0
    2.2954   -1.1941    4.1833 C   0  0  0  0  0  0  0  0  0  0  0  0
   -1.0392    1.4608   -0.6362 H   0  0  0  0  0  0  0  0  0  0  0  0
    1.8293    1.3853   -0.3895 H   0  0  0  0  0  0  0  0  0  0  0  0
    2.0086   -1.1525   -0.5078 H   0  0  0  0  0  0  0  0  0  0  0  0
    0.2936   -1.2746   -0.1418 H   0  0  0  0  0  0  0  0  0  0  0  0
    3.6303   -0.2353    1.2055 H   0  0  0  0  0  0  0  0  0  0  0  0
   -0.3959   -1.4768    2.1262 H   0  0  0  0  0  0  0  0  0  0  0  0
    4.2642   -0.5621    3.5722 H   0  0  0  0  0  0  0  0  0  0  0  0
    0.2480   -1.8087    4.4824 H   0  0  0  0  0  0  0  0  0  0  0  0
    2.5777   -1.3408    5.2215 H   0  0  0  0  0  0  0  0  0  0  0  0
    1.4584   -0.3274   -2.8240 N   0  0  0  0  0  0  0  0  0  0  0  0
    1.1574   -0.6906   -4.2180 C   0  0  2  0  0  0  0  0  0  0  0  0
    0.0366   -1.7535   -4.3089 C   0  0  0  0  0  0  0  0  0  0  0  0
    0.2580   -2.8910   -4.7048 O   0  0  0  0  0  0  0  0  0  0  0  0
    2.4682   -1.1500   -4.8682 C   0  0  0  0  0  0  0  0  0  0  0  0
    2.2075   -0.8284   -2.3550 H   0  0  0  0  0  0  0  0  0  0  0  0
    0.8095    0.1932   -4.7637 H   0  0  0  0  0  0  0  0  0  0  0  0
    2.8664   -2.0316   -4.3554 H   0  0  0  0  0  0  0  0  0  0  0  0
    2.2987   -1.4089   -5.9183 H   0  0  0  0  0  0  0  0  0  0  0  0
    3.2154   -0.3517   -4.8266 H   0  0  0  0  0  0  0  0  0  0  0  0
   -1.2363   -1.4197   -3.8914 N   0  0  0  0  0  0  0  0  0  0  0  0
   -2.3414   -2.3659   -3.8215 C   0  0  0  0  0  0  0  0  0  0  0  0
   -1.3444   -0.4885   -3.4829 H   0  0  0  0  0  0  0  0  0  0  0  0
   -2.5183   -2.8220   -4.8012 H   0  0  0  0  0  0  0  0  0  0  0  0
   -2.1210   -3.1578   -3.0981 H   0  0  0  0  0  0  0  0  0  0  0  0
   -3.2571   -1.8546   -3.5097 H   0  0  0  0  0  0  0  0  0  0  0  0
  1  2  2  0  0  0  0
  1  3  1  0  0  0  0
  1  7  1  0  0  0  0
  3  4  1  0  0  0  0
  3  5  1  0  0  0  0
  3  6  1  0  0  0  0
  7  8  1  0  0  0  0
  7 12  1  0  0  0  0
  8  9  1  0  0  0  0
  8 11  1  0  0  0  0
  8 13  1  0  0  0  0
  9 10  2  0  0  0  0
  9 17  1  0  0  0  0
 11 14  1  0  0  0  0
 11 15  1  0  0  0  0
 11 16  1  0  0  0  0
 17 18  1  0  0  0  0
 17 28  1  0  0  0  0
 18 19  1  0  0  0  0
 18 21  1  0  0  0  0
 18 29  1  0  0  0  0
 19 20  2  0  0  0  0
 19 37  1  0  0  0  0
 21 22  1  0  0  0  0
 21 30  1  0  0  0  0
 21 31  1  0  0  0  0
 22 23  1  0  0  0  0
 22 24  2  0  0  0  0
 23 25  2  0  0  0  0
 23 32  1  0  0  0  0
 24 26  1  0  0  0  0
 24 33  1  0  0  0  0
 25 27  1  0  0  0  0
 25 34  1  0  0  0  0
 26 27  2  0  0  0  0
 26 35  1  0  0  0  0
 27 36  1  0  0  0  0
 37 38  1  0  0  0  0
 37 42  1  0  0  0  0
 38 39  1  0  0  0  0
 38 41  1  0  0  0  0
 38 43  1  0  0  0  0
 39 40  2  0  0  0  0
 39 47  1  0  0  0  0
 41 44  1  0  0  0  0
 41 45  1  0  0  0  0
 41 46  1  0  0  0  0
 47 48  1  0  0  0  0
 47 49  1  0  0  0  0
 48 50  1  0  0  0  0
 48 51  1  0  0  0  0
 48 52  1  0  0  0  0
M  END
$$$$

  -OEChem-05262217163D

 52 52  0     1  0  0  0  0  0999 V2000
   -2.5530    0.1880    3.5992 C   0  0  0  0  0  0  0  0  0  0  0  0
   -2.8178   -0.7277    2.8351 O   0  0  0  0  0  0  0  0  0  0  0  0
   -2.4089   -0.0807    5.0849 C   0  0  0  0  0  0  0  0  0  0  0  0
   -2.5391   -1.1468    5.2902 H   0  0  0  0  0  0  0  0  0  0  0  0
   -1.4155    0.2243    5.4232 H   0  0  0  0  0  0  0  0  0  0  0  0
   -3.1640    0.4808    5.6404 H   0  0  0  0  0  0  0  0  0  0  0  0
   -2.3326    1.4598    3.1136 N   0  0  0  0  0  0  0  0  0  0  0  0
   -2.1106    1.7203    1.6848 C   0  0  2  0  0  0  0  0  0  0  0  0
   -0.6267    1.5429    1.3021 C   0  0  0  0  0  0  0  0  0  0  0  0
    0.2447    1.8112    2.1189 O   0  0  0  0  0  0  0  0  0  0  0  0
   -2.5787    3.1474    1.3908 C   0  0  0  0  0  0  0  0  0  0  0  0
   -1.8658    2.0888    3.7623 H   0  0  0  0  0  0  0  0  0  0  0  0
   -2.7049    1.0307    1.0759 H   0  0  0  0  0  0  0  0  0  0  0  0
   -1.9965    3.8703    1.9718 H   0  0  0  0  0  0  0  0  0  0  0  0
   -2.4571    3.3784    0.3279 H   0  0  0  0  0  0  0  0  0  0  0  0
   -3.6360    3.2603    1.6502 H   0  0  0  0  0  0  0  0  0  0  0  0
   -0.2655    1.3189   -0.0112 N   0  0  0  0  0  0  0  0  0  0  0  0
    0.9419    0.6285   -0.5149 C   0  0  2  0  0  0  0  0  0  0  0  0
    0.6846    0.3209   -2.0209 C   0  0  0  0  0  0  0  0  0  0  0  0
   -0.1399    0.9888   -2.6408 O   0  0  0  0  0  0  0  0  0  0  0  0
    1.2455   -0.7496    0.1586 C   0  0  0  0  0  0  0  0  0  0  0  0
    1.6381   -0.7507    1.6155 C   0  0  0  0  0  0  0  0  0  0  0  0
    2.9566   -0.4566    1.9943 C   0  0  0  0  0  0  0  0  0  0  0  0
    0.7334   -1.1910    2.5962 C   0  0  0  0  0  0  0  0  0  0  0  0
    3.3483   -0.5437    3.3348 C   0  0  0  0  0  0  0  0  0  0  0  0
    1.1244   -1.2842    3.9357 C   0  0  0  0  0  0  0  0  0  0  0  0
    2.4311   -0.9546    4.3069 C   0  0  0  0  0  0  0  0  0  0  0  0
   -1.0375    1.3409   -0.6766 H   0  0  0  0  0  0  0  0  0  0  0  0
    1.8108    1.2867   -0.4171 H   0  0  0  0  0  0  0  0  0  0  0  0
    2.0767   -1.2308   -0.3640 H   0  0  0  0  0  0  0  0  0  0  0  0
    0.3677   -1.3935    0.0331 H   0  0  0  0  0  0  0  0  0  0  0  0
    3.6816   -0.1464    1.2490 H   0  0  0  0  0  0  0  0  0  0  0  0
   -0.2811   -1.4640    2.3202 H   0  0  0  0  0  0  0  0  0  0  0  0
    4.3658   -0.2941    3.6200 H   0  0  0  0  0  0  0  0  0  0  0  0
    0.4128   -1.6185    4.6840 H   0  0  0  0  0  0  0  0  0  0  0  0
    2.7351   -1.0236    5.3469 H   0  0  0  0  0  0  0  0  0  0  0  0
    1.2299   -0.7661   -2.6874 N   0  0  0  0  0  0  0  0  0  0  0  0
    0.9303   -1.1296   -4.0818 C   0  0  2  0  0  0  0  0  0  0  0  0
   -0.4233   -1.8677   -4.2181 C   0  0  0  0  0  0  0  0  0  0  0  0
   -0.4865   -3.0418   -4.5610 O   0  0  0  0  0  0  0  0  0  0  0  0
    2.1140   -1.9543   -4.6030 C   0  0  0  0  0  0  0  0  0  0  0  0
    1.8179   -1.3964   -2.1503 H   0  0  0  0  0  0  0  0  0  0  0  0
    0.8647   -0.2226   -4.6926 H   0  0  0  0  0  0  0  0  0  0  0  0
    2.2274   -2.8768   -4.0243 H   0  0  0  0  0  0  0  0  0  0  0  0
    1.9554   -2.2230   -5.6525 H   0  0  0  0  0  0  0  0  0  0  0  0
    3.0418   -1.3786   -4.5313 H   0  0  0  0  0  0  0  0  0  0  0  0
   -1.5870   -1.1884   -3.9188 N   0  0  0  0  0  0  0  0  0  0  0  0
   -2.9091   -1.7994   -3.9165 C   0  0  0  0  0  0  0  0  0  0  0  0
   -1.4698   -0.2399   -3.5553 H   0  0  0  0  0  0  0  0  0  0  0  0
   -3.1361   -2.2269   -4.8988 H   0  0  0  0  0  0  0  0  0  0  0  0
   -2.9619   -2.5939   -3.1649 H   0  0  0  0  0  0  0  0  0  0  0  0
   -3.6703   -1.0489   -3.6830 H   0  0  0  0  0  0  0  0  0  0  0  0
  1  2  2  0  0  0  0
  1  3  1  0  0  0  0
  1  7  1  0  0  0  0
  3  4  1  0  0  0  0
  3  5  1  0  0  0  0
  3  6  1  0  0  0  0
  7  8  1  0  0  0  0
  7 12  1  0  0  0  0
  8  9  1  0  0  0  0
  8 11  1  0  0  0  0
  8 13  1  0  0  0  0
  9 10  2  0  0  0  0
  9 17  1  0  0  0  0
 11 14  1  0  0  0  0
 11 15  1  0  0  0  0
 11 16  1  0  0  0  0
 17 18  1  0  0  0  0
 17 28  1  0  0  0  0
 18 19  1  0  0  0  0
 18 21  1  0  0  0  0
 18 29  1  0  0  0  0
 19 20  2  0  0  0  0
 19 37  1  0  0  0  0
 21 22  1  0  0  0  0
 21 30  1  0  0  0  0
 21 31  1  0  0  0  0
 22 23  1  0  0  0  0
 22 24  2  0  0  0  0
 23 25  2  0  0  0  0
 23 32  1  0  0  0  0
 24 26  1  0  0  0  0
 24 33  1  0  0  0  0
 25 27  1  0  0  0  0
 25 34  1  0  0  0  0
 26 27  2  0  0  0  0
 26 35  1  0  0  0  0
 27 36  1  0  0  0  0
 37 38  1  0  0  0  0
 37 42  1  0  0  0  0
 38 39  1  0  0  0  0
 38 41  1  0  0  0  0
 38 43  1  0  0  0  0
 39 40  2  0  0  0  0
 39 47  1  0  0  0  0
 41 44  1  0  0  0  0
 41 45  1  0  0  0  0
 41 46  1  0  0  0  0
 47 48  1  0  0  0  0
 47 49  1  0  0  0  0
 48 50  1  0  0  0  0
 48 51  1  0  0  0  0
 48 52  1  0  0  0  0
M  END
$$$$

  -OEChem-05262217163D

 52 52  0     1  0  0  0  0  0999 V2000
   -2.4850    0.3023    3.7811 C   0  0  0  0  0  0  0  0  0  0  0  0
   -2.7769   -0.6809    3.1179 O   0  0  0  0  0  0  0  0  0  0  0  0
   -2.3174    0.1808    5.2837 C   0  0  0  0  0  0  0  0  0  0  0  0
   -2.5556   -0.8357    5.6095 H   0  0  0  0  0  0  0  0  0  0  0  0
   -1.2853    0.4087    5.5620 H   0  0  0  0  0  0  0  0  0  0  0  0
   -2.9866    0.8796    5.7914 H   0  0  0  0  0  0  0  0  0  0  0  0
   -2.2636    1.5192    3.1712 N   0  0  0  0  0  0  0  0  0  0  0  0
   -2.0592    1.6444    1.7212 C   0  0  2  0  0  0  0  0  0  0  0  0
   -0.5679    1.5085    1.3482 C   0  0  0  0  0  0  0  0  0  0  0  0
    0.2917    1.7944    2.1721 O   0  0  0  0  0  0  0  0  0  0  0  0
   -2.6047    3.0086    1.2925 C   0  0  0  0  0  0  0  0  0  0  0  0
   -1.7733    2.1977    3.7488 H   0  0  0  0  0  0  0  0  0  0  0  0
   -2.6155    0.8664    1.1873 H   0  0  0  0  0  0  0  0  0  0  0  0
   -2.0520    3.8151    1.7854 H   0  0  0  0  0  0  0  0  0  0  0  0
   -2.5118    3.1355    0.2095 H   0  0  0  0  0  0  0  0  0  0  0  0
   -3.6623    3.0947    1.5610 H   0  0  0  0  0  0  0  0  0  0  0  0
   -0.1862    1.2961    0.0390 N   0  0  0  0  0  0  0  0  0  0  0  0
    1.0219    0.5891   -0.4383 C   0  0  2  0  0  0  0  0  0  0  0  0
    0.7945    0.3025   -1.9514 C   0  0  0  0  0  0  0  0  0  0  0  0
    0.2236    1.1477   -2.6340 O   0  0  0  0  0  0  0  0  0  0  0  0
    1.3007   -0.7908    0.2395 C   0  0  0  0  0  0  0  0  0  0  0  0
    1.6674   -0.7930    1.7032 C   0  0  0  0  0  0  0  0  0  0  0  0
    2.9811   -0.5104    2.1065 C   0  0  0  0  0  0  0  0  0  0  0  0
    0.7375   -1.2149    2.6684 C   0  0  0  0  0  0  0  0  0  0  0  0
    3.3446   -0.5947    3.4552 C   0  0  0  0  0  0  0  0  0  0  0  0
    1.1001   -1.3040    4.0158 C   0  0  0  0  0  0  0  0  0  0  0  0
    2.4033   -0.9890    4.4110 C   0  0  0  0  0  0  0  0  0  0  0  0
   -0.9481    1.3216   -0.6368 H   0  0  0  0  0  0  0  0  0  0  0  0
    1.8969    1.2357   -0.3207 H   0  0  0  0  0  0  0  0  0  0  0  0
    2.1352   -1.2763   -0.2761 H   0  0  0  0  0  0  0  0  0  0  0  0
    0.4182   -1.4264    0.1032 H   0  0  0  0  0  0  0  0  0  0  0  0
    3.7233   -0.2116    1.3733 H   0  0  0  0  0  0  0  0  0  0  0  0
   -0.2759   -1.4748    2.3753 H   0  0  0  0  0  0  0  0  0  0  0  0
    4.3591   -0.3556    3.7593 H   0  0  0  0  0  0  0  0  0  0  0  0
    0.3677   -1.6237    4.7505 H   0  0  0  0  0  0  0  0  0  0  0  0
    2.6858   -1.0553    5.4573 H   0  0  0  0  0  0  0  0  0  0  0  0
    1.0667   -0.9135   -2.5600 N   0  0  0  0  0  0  0  0  0  0  0  0
    0.5561   -1.2650   -3.8914 C   0  0  2  0  0  0  0  0  0  0  0  0
   -0.9061   -1.7497   -3.8167 C   0  0  0  0  0  0  0  0  0  0  0  0
   -1.2022   -2.6838   -3.0810 O   0  0  0  0  0  0  0  0  0  0  0  0
    1.4624   -2.3500   -4.4778 C   0  0  0  0  0  0  0  0  0  0  0  0
    1.2787   -1.6866   -1.9349 H   0  0  0  0  0  0  0  0  0  0  0  0
    0.6015   -0.3952   -4.5552 H   0  0  0  0  0  0  0  0  0  0  0  0
    1.4541   -3.2435   -3.8451 H   0  0  0  0  0  0  0  0  0  0  0  0
    1.1180   -2.6310   -5.4779 H   0  0  0  0  0  0  0  0  0  0  0  0
    2.4912   -1.9852   -4.5550 H   0  0  0  0  0  0  0  0  0  0  0  0
   -1.8881   -1.1305   -4.5667 N   0  0  0  0  0  0  0  0  0  0  0  0
   -3.3010   -1.4706   -4.4533 C   0  0  0  0  0  0  0  0  0  0  0  0
   -1.6324   -0.2583   -5.0220 H   0  0  0  0  0  0  0  0  0  0  0  0
   -3.4568   -2.5368   -4.6494 H   0  0  0  0  0  0  0  0  0  0  0  0
   -3.6709   -1.2395   -3.4488 H   0  0  0  0  0  0  0  0  0  0  0  0
   -3.8868   -0.8994   -5.1800 H   0  0  0  0  0  0  0  0  0  0  0  0
  1  2  2  0  0  0  0
  1  3  1  0  0  0  0
  1  7  1  0  0  0  0
  3  4  1  0  0  0  0
  3  5  1  0  0  0  0
  3  6  1  0  0  0  0
  7  8  1  0  0  0  0
  7 12  1  0  0  0  0
  8  9  1  0  0  0  0
  8 11  1  0  0  0  0
  8 13  1  0  0  0  0
  9 10  2  0  0  0  0
  9 17  1  0  0  0  0
 11 14  1  0  0  0  0
 11 15  1  0  0  0  0
 11 16  1  0  0  0  0
 17 18  1  0  0  0  0
 17 28  1  0  0  0  0
 18 19  1  0  0  0  0
 18 21  1  0  0  0  0
 18 29  1  0  0  0  0
 19 20  2  0  0  0  0
 19 37  1  0  0  0  0
 21 22  1  0  0  0  0
 21 30  1  0  0  0  0
 21 31  1  0  0  0  0
 22 23  1  0  0  0  0
 22 24  2  0  0  0  0
 23 25  2  0  0  0  0
 23 32  1  0  0  0  0
 24 26  1  0  0  0  0
 24 33  1  0  0  0  0
 25 27  1  0  0  0  0
 25 34  1  0  0  0  0
 26 27  2  0  0  0  0
 26 35  1  0  0  0  0
 27 36  1  0  0  0  0
 37 38  1  0  0  0  0
 37 42  1  0  0  0  0
 38 39  1  0  0  0  0
 38 41  1  0  0  0  0
 38 43  1  0  0  0  0
 39 40  2  0  0  0  0
 39 47  1  0  0  0  0
 41 44  1  0  0  0  0
 41 45  1  0  0  0  0
 41 46  1  0  0  0  0
 47 48  1  0  0  0  0
 47 49  1  0  0  0  0
 48 50  1  0  0  0  0
 48 51  1  0  0  0  0
 48 52  1  0  0  0  0
M  END
$$$$

  -OEChem-05262217163D

 52 52  0     1  0  0  0  0  0999 V2000
   -2.4654    0.2873    3.7776 C   0  0  0  0  0  0  0  0  0  0  0  0
   -2.7431   -0.7018    3.1173 O   0  0  0  0  0  0  0  0  0  0  0  0
   -2.2817    0.1674    5.2783 C   0  0  0  0  0  0  0  0  0  0  0  0
   -2.4470   -0.8653    5.5975 H   0  0  0  0  0  0  0  0  0  0  0  0
   -1.2661    0.4627    5.5531 H   0  0  0  0  0  0  0  0  0  0  0  0
   -2.9949    0.8145    5.7945 H   0  0  0  0  0  0  0  0  0  0  0  0
   -2.2668    1.5061    3.1633 N   0  0  0  0  0  0  0  0  0  0  0  0
   -2.0761    1.6280    1.7108 C   0  0  2  0  0  0  0  0  0  0  0  0
   -0.5896    1.4837    1.3230 C   0  0  0  0  0  0  0  0  0  0  0  0
    0.2780    1.8116    2.1224 O   0  0  0  0  0  0  0  0  0  0  0  0
   -2.6168    2.9946    1.2843 C   0  0  0  0  0  0  0  0  0  0  0  0
   -1.7848    2.1953    3.7354 H   0  0  0  0  0  0  0  0  0  0  0  0
   -2.6432    0.8527    1.1843 H   0  0  0  0  0  0  0  0  0  0  0  0
   -2.0637    3.7985    1.7811 H   0  0  0  0  0  0  0  0  0  0  0  0
   -2.5193    3.1244    0.2020 H   0  0  0  0  0  0  0  0  0  0  0  0
   -3.6752    3.0819    1.5491 H   0  0  0  0  0  0  0  0  0  0  0  0
   -0.2255    1.2136    0.0189 N   0  0  0  0  0  0  0  0  0  0  0  0
    0.9803    0.4862   -0.4337 C   0  0  2  0  0  0  0  0  0  0  0  0
    0.7492    0.1247   -1.9265 C   0  0  0  0  0  0  0  0  0  0  0  0
    0.4471    1.0206   -2.7064 O   0  0  0  0  0  0  0  0  0  0  0  0
    1.2961   -0.8503    0.3103 C   0  0  0  0  0  0  0  0  0  0  0  0
    1.6958   -0.7693    1.7629 C   0  0  0  0  0  0  0  0  0  0  0  0
    3.0141   -0.4463    2.1170 C   0  0  0  0  0  0  0  0  0  0  0  0
    0.7980   -1.1561    2.7721 C   0  0  0  0  0  0  0  0  0  0  0  0
    3.4124   -0.4527    3.4585 C   0  0  0  0  0  0  0  0  0  0  0  0
    1.1960   -1.1693    4.1128 C   0  0  0  0  0  0  0  0  0  0  0  0
    2.5026   -0.8118    4.4573 C   0  0  0  0  0  0  0  0  0  0  0  0
   -1.0050    1.1838   -0.6353 H   0  0  0  0  0  0  0  0  0  0  0  0
    1.8488    1.1481   -0.3612 H   0  0  0  0  0  0  0  0  0  0  0  0
    2.1188   -1.3535   -0.2087 H   0  0  0  0  0  0  0  0  0  0  0  0
    0.4174   -1.5009    0.2390 H   0  0  0  0  0  0  0  0  0  0  0  0
    3.7324   -0.1753    1.3500 H   0  0  0  0  0  0  0  0  0  0  0  0
   -0.2171   -1.4481    2.5179 H   0  0  0  0  0  0  0  0  0  0  0  0
    4.4292   -0.1797    3.7235 H   0  0  0  0  0  0  0  0  0  0  0  0
    0.4885   -1.4631    4.8817 H   0  0  0  0  0  0  0  0  0  0  0  0
    2.8128   -0.8179    5.4975 H   0  0  0  0  0  0  0  0  0  0  0  0
    0.7321   -1.1728   -2.4155 N   0  0  0  0  0  0  0  0  0  0  0  0
    0.1952   -1.5023   -3.7422 C   0  0  2  0  0  0  0  0  0  0  0  0
   -1.3478   -1.5117   -3.7415 C   0  0  0  0  0  0  0  0  0  0  0  0
   -1.9550   -2.1253   -2.8716 O   0  0  0  0  0  0  0  0  0  0  0  0
    0.7446   -2.8716   -4.1493 C   0  0  0  0  0  0  0  0  0  0  0  0
    0.7031   -1.9088   -1.7149 H   0  0  0  0  0  0  0  0  0  0  0  0
    0.5383   -0.7662   -4.4770 H   0  0  0  0  0  0  0  0  0  0  0  0
    0.4227   -3.6421   -3.4408 H   0  0  0  0  0  0  0  0  0  0  0  0
    0.3830   -3.1451   -5.1456 H   0  0  0  0  0  0  0  0  0  0  0  0
    1.8387   -2.8514   -4.1713 H   0  0  0  0  0  0  0  0  0  0  0  0
   -2.0529   -0.8352   -4.7189 N   0  0  0  0  0  0  0  0  0  0  0  0
   -3.5071   -0.7357   -4.7221 C   0  0  0  0  0  0  0  0  0  0  0  0
   -1.5206   -0.2154   -5.3232 H   0  0  0  0  0  0  0  0  0  0  0  0
   -3.9586   -1.7307   -4.7941 H   0  0  0  0  0  0  0  0  0  0  0  0
   -3.8612   -0.2531   -3.8049 H   0  0  0  0  0  0  0  0  0  0  0  0
   -3.8432   -0.1422   -5.5779 H   0  0  0  0  0  0  0  0  0  0  0  0
  1  2  2  0  0  0  0
  1  3  1  0  0  0  0
  1  7  1  0  0  0  0
  3  4  1  0  0  0  0
  3  5  1  0  0  0  0
  3  6  1  0  0  0  0
  7  8  1  0  0  0  0
  7 12  1  0  0  0  0
  8  9  1  0  0  0  0
  8 11  1  0  0  0  0
  8 13  1  0  0  0  0
  9 10  2  0  0  0  0
  9 17  1  0  0  0  0
 11 14  1  0  0  0  0
 11 15  1  0  0  0  0
 11 16  1  0  0  0  0
 17 18  1  0  0  0  0
 17 28  1  0  0  0  0
 18 19  1  0  0  0  0
 18 21  1  0  0  0  0
 18 29  1  0  0  0  0
 19 20  2  0  0  0  0
 19 37  1  0  0  0  0
 21 22  1  0  0  0  0
 21 30  1  0  0  0  0
 21 31  1  0  0  0  0
 22 23  1  0  0  0  0
 22 24  2  0  0  0  0
 23 25  2  0  0  0  0
 23 32  1  0  0  0  0
 24 26  1  0  0  0  0
 24 33  1  0  0  0  0
 25 27  1  0  0  0  0
 25 34  1  0  0  0  0
 26 27  2  0  0  0  0
 26 35  1  0  0  0  0
 27 36  1  0  0  0  0
 37 38  1  0  0  0  0
 37 42  1  0  0  0  0
 38 39  1  0  0  0  0
 38 41  1  0  0  0  0
 38 43  1  0  0  0  0
 39 40  2  0  0  0  0
 39 47  1  0  0  0  0
 41 44  1  0  0  0  0
 41 45  1  0  0  0  0
 41 46  1  0  0  0  0
 47 48  1  0  0  0  0
 47 49  1  0  0  0  0
 48 50  1  0  0  0  0
 48 51  1  0  0  0  0
 48 52  1  0  0  0  0
M  END
$$$$

  -OEChem-05262217163D

 52 52  0     1  0  0  0  0  0999 V2000
   -2.4753    0.2842    3.6013 C   0  0  0  0  0  0  0  0  0  0  0  0
   -2.7141   -0.8039    3.1002 O   0  0  0  0  0  0  0  0  0  0  0  0
   -2.3382    0.4072    5.1070 C   0  0  0  0  0  0  0  0  0  0  0  0
   -2.5348   -0.5565    5.5847 H   0  0  0  0  0  0  0  0  0  0  0  0
   -1.3247    0.7277    5.3620 H   0  0  0  0  0  0  0  0  0  0  0  0
   -3.0517    1.1418    5.4879 H   0  0  0  0  0  0  0  0  0  0  0  0
   -2.2801    1.4001    2.8153 N   0  0  0  0  0  0  0  0  0  0  0  0
   -2.0050    1.3164    1.3733 C   0  0  2  0  0  0  0  0  0  0  0  0
   -0.4897    1.3819    1.0879 C   0  0  0  0  0  0  0  0  0  0  0  0
    0.2819    1.8055    1.9409 O   0  0  0  0  0  0  0  0  0  0  0  0
   -2.7381    2.4726    0.6899 C   0  0  0  0  0  0  0  0  0  0  0  0
   -1.8379    2.1786    3.2984 H   0  0  0  0  0  0  0  0  0  0  0  0
   -2.3831    0.3758    0.9575 H   0  0  0  0  0  0  0  0  0  0  0  0
   -2.3645    3.4345    1.0558 H   0  0  0  0  0  0  0  0  0  0  0  0
   -2.5910    2.4310   -0.3939 H   0  0  0  0  0  0  0  0  0  0  0  0
   -3.8117    2.4133    0.8942 H   0  0  0  0  0  0  0  0  0  0  0  0
   -0.0064    1.1328   -0.1780 N   0  0  0  0  0  0  0  0  0  0  0  0
    1.2471    0.4183   -0.4941 C   0  0  2  0  0  0  0  0  0  0  0  0
    1.1417    0.0802   -2.0003 C   0  0  0  0  0  0  0  0  0  0  0  0
    1.1119    0.9906   -2.8198 O   0  0  0  0  0  0  0  0  0  0  0  0
    1.5038   -0.9127    0.2768 C   0  0  0  0  0  0  0  0  0  0  0  0
    1.7466   -0.8143    1.7628 C   0  0  0  0  0  0  0  0  0  0  0  0
    3.0139   -0.4652    2.2520 C   0  0  0  0  0  0  0  0  0  0  0  0
    0.7502   -1.2002    2.6752 C   0  0  0  0  0  0  0  0  0  0  0  0
    3.2650   -0.4477    3.6286 C   0  0  0  0  0  0  0  0  0  0  0  0
    1.0012   -1.1903    4.0505 C   0  0  0  0  0  0  0  0  0  0  0  0
    2.2575   -0.8075    4.5291 C   0  0  0  0  0  0  0  0  0  0  0  0
   -0.7536    0.9447   -0.8512 H   0  0  0  0  0  0  0  0  0  0  0  0
    2.0966    1.0913   -0.3393 H   0  0  0  0  0  0  0  0  0  0  0  0
    2.3747   -1.4092   -0.1648 H   0  0  0  0  0  0  0  0  0  0  0  0
    0.6419   -1.5715    0.1293 H   0  0  0  0  0  0  0  0  0  0  0  0
    3.8060   -0.1912    1.5625 H   0  0  0  0  0  0  0  0  0  0  0  0
   -0.2291   -1.5095    2.3208 H   0  0  0  0  0  0  0  0  0  0  0  0
    4.2433   -0.1544    3.9970 H   0  0  0  0  0  0  0  0  0  0  0  0
    0.2172   -1.4841    4.7417 H   0  0  0  0  0  0  0  0  0  0  0  0
    2.4518   -0.7936    5.5973 H   0  0  0  0  0  0  0  0  0  0  0  0
    0.8615   -1.2006   -2.4497 N   0  0  0  0  0  0  0  0  0  0  0  0
   -0.0883   -1.3482   -3.5629 C   0  0  2  0  0  0  0  0  0  0  0  0
   -1.4974   -0.7966   -3.2134 C   0  0  0  0  0  0  0  0  0  0  0  0
   -1.8107   -0.5542   -2.0482 O   0  0  0  0  0  0  0  0  0  0  0  0
   -0.1681   -2.8358   -3.9112 C   0  0  0  0  0  0  0  0  0  0  0  0
    0.7559   -1.8774   -1.7001 H   0  0  0  0  0  0  0  0  0  0  0  0
    0.2852   -0.8021   -4.4361 H   0  0  0  0  0  0  0  0  0  0  0  0
   -0.5626   -3.4077   -3.0651 H   0  0  0  0  0  0  0  0  0  0  0  0
   -0.8244   -2.9928   -4.7727 H   0  0  0  0  0  0  0  0  0  0  0  0
    0.8258   -3.2206   -4.1602 H   0  0  0  0  0  0  0  0  0  0  0  0
   -2.4196   -0.5574   -4.2153 N   0  0  0  0  0  0  0  0  0  0  0  0
   -3.7323    0.0276   -3.9682 C   0  0  0  0  0  0  0  0  0  0  0  0
   -2.1051   -0.6650   -5.1753 H   0  0  0  0  0  0  0  0  0  0  0  0
   -4.2868   -0.5679   -3.2351 H   0  0  0  0  0  0  0  0  0  0  0  0
   -3.6301    1.0493   -3.5878 H   0  0  0  0  0  0  0  0  0  0  0  0
   -4.3133    0.0584   -4.8949 H   0  0  0  0  0  0  0  0  0  0  0  0
  1  2  2  0  0  0  0
  1  3  1  0  0  0  0
  1  7  1  0  0  0  0
  3  4  1  0  0  0  0
  3  5  1  0  0  0  0
  3  6  1  0  0  0  0
  7  8  1  0  0  0  0
  7 12  1  0  0  0  0
  8  9  1  0  0  0  0
  8 11  1  0  0  0  0
  8 13  1  0  0  0  0
  9 10  2  0  0  0  0
  9 17  1  0  0  0  0
 11 14  1  0  0  0  0
 11 15  1  0  0  0  0
 11 16  1  0  0  0  0
 17 18  1  0  0  0  0
 17 28  1  0  0  0  0
 18 19  1  0  0  0  0
 18 21  1  0  0  0  0
 18 29  1  0  0  0  0
 19 20  2  0  0  0  0
 19 37  1  0  0  0  0
 21 22  1  0  0  0  0
 21 30  1  0  0  0  0
 21 31  1  0  0  0  0
 22 23  1  0  0  0  0
 22 24  2  0  0  0  0
 23 25  2  0  0  0  0
 23 32  1  0  0  0  0
 24 26  1  0  0  0  0
 24 33  1  0  0  0  0
 25 27  1  0  0  0  0
 25 34  1  0  0  0  0
 26 27  2  0  0  0  0
 26 35  1  0  0  0  0
 27 36  1  0  0  0  0
 37 38  1  0  0  0  0
 37 42  1  0  0  0  0
 38 39  1  0  0  0  0
 38 41  1  0  0  0  0
 38 43  1  0  0  0  0
 39 40  2  0  0  0  0
 39 47  1  0  0  0  0
 41 44  1  0  0  0  0
 41 45  1  0  0  0  0
 41 46  1  0  0  0  0
 47 48  1  0  0  0  0
 47 49  1  0  0  0  0
 48 50  1  0  0  0  0
 48 51  1  0  0  0  0
 48 52  1  0  0  0  0
M  END
$$$$

  -OEChem-05262217163D

 52 52  0     1  0  0  0  0  0999 V2000
   -2.5164    0.2570    3.4812 C   0  0  0  0  0  0  0  0  0  0  0  0
   -2.7111   -0.8058    2.9107 O   0  0  0  0  0  0  0  0  0  0  0  0
   -2.4391    0.2961    4.9956 C   0  0  0  0  0  0  0  0  0  0  0  0
   -2.5622   -0.7099    5.4060 H   0  0  0  0  0  0  0  0  0  0  0  0
   -1.4681    0.6880    5.3089 H   0  0  0  0  0  0  0  0  0  0  0  0
   -3.2289    0.9381    5.3926 H   0  0  0  0  0  0  0  0  0  0  0  0
   -2.3215    1.4184    2.7635 N   0  0  0  0  0  0  0  0  0  0  0  0
   -2.0347    1.4138    1.3216 C   0  0  2  0  0  0  0  0  0  0  0  0
   -0.5180    1.3631    1.0455 C   0  0  0  0  0  0  0  0  0  0  0  0
    0.2738    1.7884    1.8778 O   0  0  0  0  0  0  0  0  0  0  0  0
   -2.6484    2.6767    0.7145 C   0  0  0  0  0  0  0  0  0  0  0  0
   -1.9090    2.1811    3.2949 H   0  0  0  0  0  0  0  0  0  0  0  0
   -2.4952    0.5435    0.8403 H   0  0  0  0  0  0  0  0  0  0  0  0
   -2.1859    3.5724    1.1413 H   0  0  0  0  0  0  0  0  0  0  0  0
   -2.4963    2.6897   -0.3692 H   0  0  0  0  0  0  0  0  0  0  0  0
   -3.7240    2.7085    0.9124 H   0  0  0  0  0  0  0  0  0  0  0  0
   -0.0593    1.0084   -0.2043 N   0  0  0  0  0  0  0  0  0  0  0  0
    1.1810    0.2640   -0.5040 C   0  0  2  0  0  0  0  0  0  0  0  0
    1.0305   -0.1861   -1.9726 C   0  0  0  0  0  0  0  0  0  0  0  0
    1.2342    0.6151   -2.8758 O   0  0  0  0  0  0  0  0  0  0  0  0
    1.4809   -1.0068    0.3471 C   0  0  0  0  0  0  0  0  0  0  0  0
    1.7852   -0.7985    1.8103 C   0  0  0  0  0  0  0  0  0  0  0  0
    3.0702   -0.4079    2.2143 C   0  0  0  0  0  0  0  0  0  0  0  0
    0.8331   -1.1178    2.7929 C   0  0  0  0  0  0  0  0  0  0  0  0
    3.3832   -0.2874    3.5727 C   0  0  0  0  0  0  0  0  0  0  0  0
    1.1451   -1.0021    4.1512 C   0  0  0  0  0  0  0  0  0  0  0  0
    2.4196   -0.5816    4.5422 C   0  0  0  0  0  0  0  0  0  0  0  0
   -0.8220    0.8214   -0.8631 H   0  0  0  0  0  0  0  0  0  0  0  0
    2.0331    0.9474   -0.4292 H   0  0  0  0  0  0  0  0  0  0  0  0
    2.3345   -1.5291   -0.0987 H   0  0  0  0  0  0  0  0  0  0  0  0
    0.6220   -1.6822    0.2874 H   0  0  0  0  0  0  0  0  0  0  0  0
    3.8286   -0.1829    1.4711 H   0  0  0  0  0  0  0  0  0  0  0  0
   -0.1578   -1.4558    2.5046 H   0  0  0  0  0  0  0  0  0  0  0  0
    4.3754    0.0352    3.8732 H   0  0  0  0  0  0  0  0  0  0  0  0
    0.3962   -1.2434    4.8989 H   0  0  0  0  0  0  0  0  0  0  0  0
    2.6626   -0.4872    5.5962 H   0  0  0  0  0  0  0  0  0  0  0  0
    0.4400   -1.3983   -2.2909 N   0  0  0  0  0  0  0  0  0  0  0  0
   -0.4848   -1.4462   -3.4320 C   0  0  2  0  0  0  0  0  0  0  0  0
   -1.7458   -0.5741   -3.1939 C   0  0  0  0  0  0  0  0  0  0  0  0
   -2.0461   -0.1982   -2.0610 O   0  0  0  0  0  0  0  0  0  0  0  0
   -0.8772   -2.9086   -3.6520 C   0  0  0  0  0  0  0  0  0  0  0  0
    0.1450   -1.9276   -1.4757 H   0  0  0  0  0  0  0  0  0  0  0  0
    0.0219   -1.0800   -4.3317 H   0  0  0  0  0  0  0  0  0  0  0  0
   -1.4022   -3.3019   -2.7753 H   0  0  0  0  0  0  0  0  0  0  0  0
   -1.5348   -3.0026   -4.5216 H   0  0  0  0  0  0  0  0  0  0  0  0
    0.0150   -3.5180   -3.8274 H   0  0  0  0  0  0  0  0  0  0  0  0
   -2.5408   -0.1920   -4.2580 N   0  0  0  0  0  0  0  0  0  0  0  0
   -3.6767    0.7119   -4.1201 C   0  0  0  0  0  0  0  0  0  0  0  0
   -2.2114   -0.4219   -5.1912 H   0  0  0  0  0  0  0  0  0  0  0  0
   -4.3988    0.3158   -3.3983 H   0  0  0  0  0  0  0  0  0  0  0  0
   -3.3424    1.6977   -3.7804 H   0  0  0  0  0  0  0  0  0  0  0  0
   -4.1835    0.8302   -5.0824 H   0  0  0  0  0  0  0  0  0  0  0  0
  1  2  2  0  0  0  0
  1  3  1  0  0  0  0
  1  7  1  0  0  0  0
  3  4  1  0  0  0  0
  3  5  1  0  0  0  0
  3  6  1  0  0  0  0
  7  8  1  0  0  0  0
  7 12  1  0  0  0  0
  8  9  1  0  0  0  0
  8 11  1  0  0  0  0
  8 13  1  0  0  0  0
  9 10  2  0  0  0  0
  9 17  1  0  0  0  0
 11 14  1  0  0  0  0
 11 15  1  0  0  0  0
 11 16  1  0  0  0  0
 17 18  1  0  0  0  0
 17 28  1  0  0  0  0
 18 19  1  0  0  0  0
 18 21  1  0  0  0  0
 18 29  1  0  0  0  0
 19 20  2  0  0  0  0
 19 37  1  0  0  0  0
 21 22  1  0  0  0  0
 21 30  1  0  0  0  0
 21 31  1  0  0  0  0
 22 23  1  0  0  0  0
 22 24  2  0  0  0  0
 23 25  2  0  0  0  0
 23 32  1  0  0  0  0
 24 26  1  0  0  0  0
 24 33  1  0  0  0  0
 25 27  1  0  0  0  0
 25 34  1  0  0  0  0
 26 27  2  0  0  0  0
 26 35  1  0  0  0  0
 27 36  1  0  0  0  0
 37 38  1  0  0  0  0
 37 42  1  0  0  0  0
 38 39  1  0  0  0  0
 38 41  1  0  0  0  0
 38 43  1  0  0  0  0
 39 40  2  0  0  0  0
 39 47  1  0  0  0  0
 41 44  1  0  0  0  0
 41 45  1  0  0  0  0
 41 46  1  0  0  0  0
 47 48  1  0  0  0  0
 47 49  1  0  0  0  0
 48 50  1  0  0  0  0
 48 51  1  0  0  0  0
 48 52  1  0  0  0  0
M  END
$$$$

  -OEChem-05262217163D

 52 52  0     1  0  0  0  0  0999 V2000
   -2.5102    0.3829    3.4870 C   0  0  0  0  0  0  0  0  0  0  0  0
   -2.7074   -0.6861    2.9286 O   0  0  0  0  0  0  0  0  0  0  0  0
   -2.4375    0.4412    5.0010 C   0  0  0  0  0  0  0  0  0  0  0  0
   -2.6160   -0.5503    5.4262 H   0  0  0  0  0  0  0  0  0  0  0  0
   -1.4481    0.7857    5.3122 H   0  0  0  0  0  0  0  0  0  0  0  0
   -3.1934    1.1306    5.3848 H   0  0  0  0  0  0  0  0  0  0  0  0
   -2.3079    1.5333    2.7535 N   0  0  0  0  0  0  0  0  0  0  0  0
   -2.0256    1.5024    1.3115 C   0  0  2  0  0  0  0  0  0  0  0  0
   -0.5157    1.3565    1.0298 C   0  0  0  0  0  0  0  0  0  0  0  0
    0.3042    1.7671    1.8415 O   0  0  0  0  0  0  0  0  0  0  0  0
   -2.5676    2.7939    0.6960 C   0  0  0  0  0  0  0  0  0  0  0  0
   -1.8931    2.3026    3.2728 H   0  0  0  0  0  0  0  0  0  0  0  0
   -2.5407    0.6578    0.8403 H   0  0  0  0  0  0  0  0  0  0  0  0
   -2.0556    3.6654    1.1164 H   0  0  0  0  0  0  0  0  0  0  0  0
   -2.4164    2.7911   -0.3882 H   0  0  0  0  0  0  0  0  0  0  0  0
   -3.6397    2.8867    0.8945 H   0  0  0  0  0  0  0  0  0  0  0  0
   -0.0915    0.9288   -0.2098 N   0  0  0  0  0  0  0  0  0  0  0  0
    1.1318    0.1559   -0.5138 C   0  0  2  0  0  0  0  0  0  0  0  0
    0.9359   -0.3688   -1.9493 C   0  0  0  0  0  0  0  0  0  0  0  0
    1.3450    0.2837   -2.9001 O   0  0  0  0  0  0  0  0  0  0  0  0
    1.4337   -1.0931    0.3663 C   0  0  0  0  0  0  0  0  0  0  0  0
    1.7738   -0.8452    1.8146 C   0  0  0  0  0  0  0  0  0  0  0  0
    3.0721   -0.4605    2.1795 C   0  0  0  0  0  0  0  0  0  0  0  0
    0.8365   -1.1162    2.8252 C   0  0  0  0  0  0  0  0  0  0  0  0
    3.4145   -0.3018    3.5272 C   0  0  0  0  0  0  0  0  0  0  0  0
    1.1783   -0.9620    4.1725 C   0  0  0  0  0  0  0  0  0  0  0  0
    2.4668   -0.5501    4.5246 C   0  0  0  0  0  0  0  0  0  0  0  0
   -0.8667    0.7779   -0.8636 H   0  0  0  0  0  0  0  0  0  0  0  0
    1.9963    0.8271   -0.4907 H   0  0  0  0  0  0  0  0  0  0  0  0
    2.2711   -1.6378   -0.0830 H   0  0  0  0  0  0  0  0  0  0  0  0
    0.5688   -1.7625    0.3437 H   0  0  0  0  0  0  0  0  0  0  0  0
    3.8182   -0.2717    1.4138 H   0  0  0  0  0  0  0  0  0  0  0  0
   -0.1660   -1.4453    2.5673 H   0  0  0  0  0  0  0  0  0  0  0  0
    4.4171    0.0148    3.7972 H   0  0  0  0  0  0  0  0  0  0  0  0
    0.4410   -1.1666    4.9420 H   0  0  0  0  0  0  0  0  0  0  0  0
    2.7325   -0.4264    5.5699 H   0  0  0  0  0  0  0  0  0  0  0  0
    0.0664   -1.4207   -2.1865 N   0  0  0  0  0  0  0  0  0  0  0  0
   -0.8118   -1.3742   -3.3630 C   0  0  2  0  0  0  0  0  0  0  0  0
   -1.9209   -0.3053   -3.2000 C   0  0  0  0  0  0  0  0  0  0  0  0
   -2.2090    0.1262   -2.0843 O   0  0  0  0  0  0  0  0  0  0  0  0
   -1.4258   -2.7639   -3.5427 C   0  0  0  0  0  0  0  0  0  0  0  0
   -0.3653   -1.7831   -1.3404 H   0  0  0  0  0  0  0  0  0  0  0  0
   -0.2267   -1.1330   -4.2574 H   0  0  0  0  0  0  0  0  0  0  0  0
   -2.0299   -3.0336   -2.6702 H   0  0  0  0  0  0  0  0  0  0  0  0
   -2.0668   -2.7874   -4.4293 H   0  0  0  0  0  0  0  0  0  0  0  0
   -0.6371   -3.5128   -3.6667 H   0  0  0  0  0  0  0  0  0  0  0  0
   -2.5925    0.1847   -4.3040 N   0  0  0  0  0  0  0  0  0  0  0  0
   -3.5861    1.2489   -4.2258 C   0  0  0  0  0  0  0  0  0  0  0  0
   -2.2674   -0.1133   -5.2193 H   0  0  0  0  0  0  0  0  0  0  0  0
   -4.4146    0.9537   -3.5732 H   0  0  0  0  0  0  0  0  0  0  0  0
   -3.1356    2.1661   -3.8316 H   0  0  0  0  0  0  0  0  0  0  0  0
   -3.9912    1.4621   -5.2197 H   0  0  0  0  0  0  0  0  0  0  0  0
  1  2  2  0  0  0  0
  1  3  1  0  0  0  0
  1  7  1  0  0  0  0
  3  4  1  0  0  0  0
  3  5  1  0  0  0  0
  3  6  1  0  0  0  0
  7  8  1  0  0  0  0
  7 12  1  0  0  0  0
  8  9  1  0  0  0  0
  8 11  1  0  0  0  0
  8 13  1  0  0  0  0
  9 10  2  0  0  0  0
  9 17  1  0  0  0  0
 11 14  1  0  0  0  0
 11 15  1  0  0  0  0
 11 16  1  0  0  0  0
 17 18  1  0  0  0  0
 17 28  1  0  0  0  0
 18 19  1  0  0  0  0
 18 21  1  0  0  0  0
 18 29  1  0  0  0  0
 19 20  2  0  0  0  0
 19 37  1  0  0  0  0
 21 22  1  0  0  0  0
 21 30  1  0  0  0  0
 21 31  1  0  0  0  0
 22 23  1  0  0  0  0
 22 24  2  0  0  0  0
 23 25  2  0  0  0  0
 23 32  1  0  0  0  0
 24 26  1  0  0  0  0
 24 33  1  0  0  0  0
 25 27  1  0  0  0  0
 25 34  1  0  0  0  0
 26 27  2  0  0  0  0
 26 35  1  0  0  0  0
 27 36  1  0  0  0  0
 37 38  1  0  0  0  0
 37 42  1  0  0  0  0
 38 39  1  0  0  0  0
 38 41  1  0  0  0  0
 38 43  1  0  0  0  0
 39 40  2  0  0  0  0
 39 47  1  0  0  0  0
 41 44  1  0  0  0  0
 41 45  1  0  0  0  0
 41 46  1  0  0  0  0
 47 48  1  0  0  0  0
 47 49  1  0  0  0  0
 48 50  1  0  0  0  0
 48 51  1  0  0  0  0
 48 52  1  0  0  0  0
M  END
$$$$

  -OEChem-05262217163D

 52 52  0     1  0  0  0  0  0999 V2000
   -2.5604    0.3443    3.2950 C   0  0  0  0  0  0  0  0  0  0  0  0
   -2.7050   -0.6457    2.5927 O   0  0  0  0  0  0  0  0  0  0  0  0
   -2.5790    0.2098    4.8056 C   0  0  0  0  0  0  0  0  0  0  0  0
   -2.7821   -0.8263    5.0904 H   0  0  0  0  0  0  0  0  0  0  0  0
   -1.6110    0.5059    5.2170 H   0  0  0  0  0  0  0  0  0  0  0  0
   -3.3580    0.8499    5.2270 H   0  0  0  0  0  0  0  0  0  0  0  0
   -2.3313    1.5787    2.7238 N   0  0  0  0  0  0  0  0  0  0  0  0
   -2.0029    1.7233    1.2994 C   0  0  2  0  0  0  0  0  0  0  0  0
   -0.5158    1.4197    1.0245 C   0  0  0  0  0  0  0  0  0  0  0  0
    0.3392    1.7857    1.8197 O   0  0  0  0  0  0  0  0  0  0  0  0
   -2.3481    3.1507    0.8716 C   0  0  0  0  0  0  0  0  0  0  0  0
   -1.9542    2.2834    3.3516 H   0  0  0  0  0  0  0  0  0  0  0  0
   -2.6102    1.0324    0.7035 H   0  0  0  0  0  0  0  0  0  0  0  0
   -1.7465    3.8757    1.4294 H   0  0  0  0  0  0  0  0  0  0  0  0
   -2.1506    3.2831   -0.1969 H   0  0  0  0  0  0  0  0  0  0  0  0
   -3.4068    3.3567    1.0554 H   0  0  0  0  0  0  0  0  0  0  0  0
   -0.1500    0.8830   -0.1915 N   0  0  0  0  0  0  0  0  0  0  0  0
    1.0414    0.0638   -0.5069 C   0  0  2  0  0  0  0  0  0  0  0  0
    0.7638   -0.5661   -1.8828 C   0  0  0  0  0  0  0  0  0  0  0  0
    1.3442   -0.1587   -2.8796 O   0  0  0  0  0  0  0  0  0  0  0  0
    1.3653   -1.1415    0.4222 C   0  0  0  0  0  0  0  0  0  0  0  0
    1.7839   -0.8273    1.8368 C   0  0  0  0  0  0  0  0  0  0  0  0
    3.1072   -0.4523    2.1111 C   0  0  0  0  0  0  0  0  0  0  0  0
    0.8996   -1.0303    2.9090 C   0  0  0  0  0  0  0  0  0  0  0  0
    3.5268   -0.2342    3.4279 C   0  0  0  0  0  0  0  0  0  0  0  0
    1.3182   -0.8175    4.2269 C   0  0  0  0  0  0  0  0  0  0  0  0
    2.6316   -0.4144    4.4866 C   0  0  0  0  0  0  0  0  0  0  0  0
   -0.9290    0.8045   -0.8534 H   0  0  0  0  0  0  0  0  0  0  0  0
    1.9197    0.7144   -0.5735 H   0  0  0  0  0  0  0  0  0  0  0  0
    2.1702   -1.7250   -0.0378 H   0  0  0  0  0  0  0  0  0  0  0  0
    0.4889   -1.7954    0.4709 H   0  0  0  0  0  0  0  0  0  0  0  0
    3.8121   -0.3178    1.2967 H   0  0  0  0  0  0  0  0  0  0  0  0
   -0.1196   -1.3523    2.7188 H   0  0  0  0  0  0  0  0  0  0  0  0
    4.5487    0.0743    3.6261 H   0  0  0  0  0  0  0  0  0  0  0  0
    0.6229   -0.9692    5.0462 H   0  0  0  0  0  0  0  0  0  0  0  0
    2.9576   -0.2449    5.5082 H   0  0  0  0  0  0  0  0  0  0  0  0
   -0.3413   -1.3874   -2.0295 N   0  0  0  0  0  0  0  0  0  0  0  0
   -1.1609   -1.3013   -3.2440 C   0  0  2  0  0  0  0  0  0  0  0  0
   -2.0293   -0.0210   -3.2423 C   0  0  0  0  0  0  0  0  0  0  0  0
   -2.2970    0.5421   -2.1817 O   0  0  0  0  0  0  0  0  0  0  0  0
   -2.0443   -2.5485   -3.3004 C   0  0  0  0  0  0  0  0  0  0  0  0
   -0.8577   -1.5270   -1.1636 H   0  0  0  0  0  0  0  0  0  0  0  0
   -0.5189   -1.2867   -4.1316 H   0  0  0  0  0  0  0  0  0  0  0  0
   -2.7104   -2.5863   -2.4321 H   0  0  0  0  0  0  0  0  0  0  0  0
   -2.6560   -2.5427   -4.2077 H   0  0  0  0  0  0  0  0  0  0  0  0
   -1.4256   -3.4513   -3.3056 H   0  0  0  0  0  0  0  0  0  0  0  0
   -2.5065    0.5050   -4.4277 N   0  0  0  0  0  0  0  0  0  0  0  0
   -3.2596    1.7511   -4.5017 C   0  0  0  0  0  0  0  0  0  0  0  0
   -2.1873    0.0748   -5.2912 H   0  0  0  0  0  0  0  0  0  0  0  0
   -4.1859    1.6747   -3.9225 H   0  0  0  0  0  0  0  0  0  0  0  0
   -2.6650    2.5823   -4.1083 H   0  0  0  0  0  0  0  0  0  0  0  0
   -3.5205    1.9740   -5.5409 H   0  0  0  0  0  0  0  0  0  0  0  0
  1  2  2  0  0  0  0
  1  3  1  0  0  0  0
  1  7  1  0  0  0  0
  3  4  1  0  0  0  0
  3  5  1  0  0  0  0
  3  6  1  0  0  0  0
  7  8  1  0  0  0  0
  7 12  1  0  0  0  0
  8  9  1  0  0  0  0
  8 11  1  0  0  0  0
  8 13  1  0  0  0  0
  9 10  2  0  0  0  0
  9 17  1  0  0  0  0
 11 14  1  0  0  0  0
 11 15  1  0  0  0  0
 11 16  1  0  0  0  0
 17 18  1  0  0  0  0
 17 28  1  0  0  0  0
 18 19  1  0  0  0  0
 18 21  1  0  0  0  0
 18 29  1  0  0  0  0
 19 20  2  0  0  0  0
 19 37  1  0  0  0  0
 21 22  1  0  0  0  0
 21 30  1  0  0  0  0
 21 31  1  0  0  0  0
 22 23  1  0  0  0  0
 22 24  2  0  0  0  0
 23 25  2  0  0  0  0
 23 32  1  0  0  0  0
 24 26  1  0  0  0  0
 24 33  1  0  0  0  0
 25 27  1  0  0  0  0
 25 34  1  0  0  0  0
 26 27  2  0  0  0  0
 26 35  1  0  0  0  0
 27 36  1  0  0  0  0
 37 38  1  0  0  0  0
 37 42  1  0  0  0  0
 38 39  1  0  0  0  0
 38 41  1  0  0  0  0
 38 43  1  0  0  0  0
 39 40  2  0  0  0  0
 39 47  1  0  0  0  0
 41 44  1  0  0  0  0
 41 45  1  0  0  0  0
 41 46  1  0  0  0  0
 47 48  1  0  0  0  0
 47 49  1  0  0  0  0
 48 50  1  0  0  0  0
 48 51  1  0  0  0  0
 48 52  1  0  0  0  0
M  END
$$$$

  -OEChem-05262217163D

 52 52  0     1  0  0  0  0  0999 V2000
   -2.5933    0.4145    3.1521 C   0  0  0  0  0  0  0  0  0  0  0  0
   -2.7487   -0.5110    2.3681 O   0  0  0  0  0  0  0  0  0  0  0  0
   -2.6451    0.1586    4.6463 C   0  0  0  0  0  0  0  0  0  0  0  0
   -2.8829   -0.8908    4.8416 H   0  0  0  0  0  0  0  0  0  0  0  0
   -1.6771    0.3908    5.0971 H   0  0  0  0  0  0  0  0  0  0  0  0
   -3.4132    0.7854    5.1057 H   0  0  0  0  0  0  0  0  0  0  0  0
   -2.3046    1.6804    2.6860 N   0  0  0  0  0  0  0  0  0  0  0  0
   -1.9275    1.9133    1.2862 C   0  0  2  0  0  0  0  0  0  0  0  0
   -0.4733    1.4760    1.0164 C   0  0  0  0  0  0  0  0  0  0  0  0
    0.4138    1.8023    1.7923 O   0  0  0  0  0  0  0  0  0  0  0  0
   -2.1147    3.3990    0.9751 C   0  0  0  0  0  0  0  0  0  0  0  0
   -1.9266    2.3243    3.3755 H   0  0  0  0  0  0  0  0  0  0  0  0
   -2.5885    1.3424    0.6241 H   0  0  0  0  0  0  0  0  0  0  0  0
   -1.4549    4.0107    1.5990 H   0  0  0  0  0  0  0  0  0  0  0  0
   -1.8808    3.5965   -0.0759 H   0  0  0  0  0  0  0  0  0  0  0  0
   -3.1509    3.6973    1.1610 H   0  0  0  0  0  0  0  0  0  0  0  0
   -0.1742    0.8431   -0.1710 N   0  0  0  0  0  0  0  0  0  0  0  0
    0.9720   -0.0367   -0.4970 C   0  0  2  0  0  0  0  0  0  0  0  0
    0.6146   -0.7504   -1.8127 C   0  0  0  0  0  0  0  0  0  0  0  0
    1.3198   -0.6117   -2.8023 O   0  0  0  0  0  0  0  0  0  0  0  0
    1.2781   -1.2114    0.4746 C   0  0  0  0  0  0  0  0  0  0  0  0
    1.7607   -0.8547    1.8582 C   0  0  0  0  0  0  0  0  0  0  0  0
    3.1078   -0.5271    2.0698 C   0  0  0  0  0  0  0  0  0  0  0  0
    0.9059   -0.9670    2.9668 C   0  0  0  0  0  0  0  0  0  0  0  0
    3.5817   -0.2648    3.3596 C   0  0  0  0  0  0  0  0  0  0  0  0
    1.3785   -0.7089    4.2579 C   0  0  0  0  0  0  0  0  0  0  0  0
    2.7161   -0.3525    4.4542 C   0  0  0  0  0  0  0  0  0  0  0  0
   -0.9468    0.8446   -0.8442 H   0  0  0  0  0  0  0  0  0  0  0  0
    1.8725    0.5702   -0.6356 H   0  0  0  0  0  0  0  0  0  0  0  0
    2.0415   -1.8499    0.0156 H   0  0  0  0  0  0  0  0  0  0  0  0
    0.3757   -1.8232    0.5783 H   0  0  0  0  0  0  0  0  0  0  0  0
    3.7893   -0.4639    1.2274 H   0  0  0  0  0  0  0  0  0  0  0  0
   -0.1321   -1.2502    2.8233 H   0  0  0  0  0  0  0  0  0  0  0  0
    4.6219    0.0073    3.5089 H   0  0  0  0  0  0  0  0  0  0  0  0
    0.7069   -0.7865    5.1064 H   0  0  0  0  0  0  0  0  0  0  0  0
    3.0835   -0.1462    5.4548 H   0  0  0  0  0  0  0  0  0  0  0  0
   -0.6560   -1.2832   -1.9518 N   0  0  0  0  0  0  0  0  0  0  0  0
   -1.4033   -1.1208   -3.2039 C   0  0  2  0  0  0  0  0  0  0  0  0
   -2.0553    0.2788   -3.2782 C   0  0  0  0  0  0  0  0  0  0  0  0
   -2.2641    0.9148   -2.2460 O   0  0  0  0  0  0  0  0  0  0  0  0
   -2.4694   -2.2160   -3.2564 C   0  0  0  0  0  0  0  0  0  0  0  0
   -1.2126   -1.2332   -1.1004 H   0  0  0  0  0  0  0  0  0  0  0  0
   -0.7364   -1.2417   -4.0645 H   0  0  0  0  0  0  0  0  0  0  0  0
   -3.1644   -2.1162   -2.4161 H   0  0  0  0  0  0  0  0  0  0  0  0
   -3.0393   -2.1514   -4.1884 H   0  0  0  0  0  0  0  0  0  0  0  0
   -1.9999   -3.2035   -3.2055 H   0  0  0  0  0  0  0  0  0  0  0  0
   -2.3980    0.8319   -4.4973 N   0  0  0  0  0  0  0  0  0  0  0  0
   -2.9405    2.1775   -4.6387 C   0  0  0  0  0  0  0  0  0  0  0  0
   -2.1340    0.3199   -5.3344 H   0  0  0  0  0  0  0  0  0  0  0  0
   -3.9017    2.2593   -4.1204 H   0  0  0  0  0  0  0  0  0  0  0  0
   -2.2492    2.9164   -4.2194 H   0  0  0  0  0  0  0  0  0  0  0  0
   -3.0972    2.4128   -5.6958 H   0  0  0  0  0  0  0  0  0  0  0  0
  1  2  2  0  0  0  0
  1  3  1  0  0  0  0
  1  7  1  0  0  0  0
  3  4  1  0  0  0  0
  3  5  1  0  0  0  0
  3  6  1  0  0  0  0
  7  8  1  0  0  0  0
  7 12  1  0  0  0  0
  8  9  1  0  0  0  0
  8 11  1  0  0  0  0
  8 13  1  0  0  0  0
  9 10  2  0  0  0  0
  9 17  1  0  0  0  0
 11 14  1  0  0  0  0
 11 15  1  0  0  0  0
 11 16  1  0  0  0  0
 17 18  1  0  0  0  0
 17 28  1  0  0  0  0
 18 19  1  0  0  0  0
 18 21  1  0  0  0  0
 18 29  1  0  0  0  0
 19 20  2  0  0  0  0
 19 37  1  0  0  0  0
 21 22  1  0  0  0  0
 21 30  1  0  0  0  0
 21 31  1  0  0  0  0
 22 23  1  0  0  0  0
 22 24  2  0  0  0  0
 23 25  2  0  0  0  0
 23 32  1  0  0  0  0
 24 26  1  0  0  0  0
 24 33  1  0  0  0  0
 25 27  1  0  0  0  0
 25 34  1  0  0  0  0
 26 27  2  0  0  0  0
 26 35  1  0  0  0  0
 27 36  1  0  0  0  0
 37 38  1  0  0  0  0
 37 42  1  0  0  0  0
 38 39  1  0  0  0  0
 38 41  1  0  0  0  0
 38 43  1  0  0  0  0
 39 40  2  0  0  0  0
 39 47  1  0  0  0  0
 41 44  1  0  0  0  0
 41 45  1  0  0  0  0
 41 46  1  0  0  0  0
 47 48  1  0  0  0  0
 47 49  1  0  0  0  0
 48 50  1  0  0  0  0
 48 51  1  0  0  0  0
 48 52  1  0  0  0  0
M  END
$$$$

  -OEChem-05262217163D

 52 52  0     1  0  0  0  0  0999 V2000
   -2.9467    0.3814    1.9428 C   0  0  0  0  0  0  0  0  0  0  0  0
   -2.9542    0.5322    0.7285 O   0  0  0  0  0  0  0  0  0  0  0  0
   -3.6903   -0.7825    2.5693 C   0  0  0  0  0  0  0  0  0  0  0  0
   -4.1930   -1.3707    1.7960 H   0  0  0  0  0  0  0  0  0  0  0  0
   -2.9911   -1.4302    3.1041 H   0  0  0  0  0  0  0  0  0  0  0  0
   -4.4421   -0.4120    3.2709 H   0  0  0  0  0  0  0  0  0  0  0  0
   -2.2116    1.2388    2.7365 N   0  0  0  0  0  0  0  0  0  0  0  0
   -1.5208    2.4471    2.2531 C   0  0  2  0  0  0  0  0  0  0  0  0
   -0.2416    2.1315    1.4375 C   0  0  0  0  0  0  0  0  0  0  0  0
    0.8626    2.5144    1.7941 O   0  0  0  0  0  0  0  0  0  0  0  0
   -1.2343    3.3211    3.4811 C   0  0  0  0  0  0  0  0  0  0  0  0
   -2.2182    1.0615    3.7373 H   0  0  0  0  0  0  0  0  0  0  0  0
   -2.1926    3.0079    1.5944 H   0  0  0  0  0  0  0  0  0  0  0  0
   -0.5569    2.8063    4.1703 H   0  0  0  0  0  0  0  0  0  0  0  0
   -0.7647    4.2619    3.1757 H   0  0  0  0  0  0  0  0  0  0  0  0
   -2.1629    3.5572    4.0096 H   0  0  0  0  0  0  0  0  0  0  0  0
   -0.3816    1.5423    0.1981 N   0  0  0  0  0  0  0  0  0  0  0  0
    0.5531    0.5789   -0.4235 C   0  0  2  0  0  0  0  0  0  0  0  0
   -0.1300   -0.1116   -1.6246 C   0  0  0  0  0  0  0  0  0  0  0  0
    0.5484   -0.4913   -2.5713 O   0  0  0  0  0  0  0  0  0  0  0  0
    0.9679   -0.6308    0.4640 C   0  0  0  0  0  0  0  0  0  0  0  0
    1.8093   -0.3322    1.6800 C   0  0  0  0  0  0  0  0  0  0  0  0
    3.1923   -0.1451    1.5429 C   0  0  0  0  0  0  0  0  0  0  0  0
    1.2494   -0.3484    2.9681 C   0  0  0  0  0  0  0  0  0  0  0  0
    3.9955    0.0693    2.6675 C   0  0  0  0  0  0  0  0  0  0  0  0
    2.0514   -0.1343    4.0942 C   0  0  0  0  0  0  0  0  0  0  0  0
    3.4249    0.0785    3.9436 C   0  0  0  0  0  0  0  0  0  0  0  0
   -1.3655    1.3830   -0.0207 H   0  0  0  0  0  0  0  0  0  0  0  0
    1.4462    1.1104   -0.7685 H   0  0  0  0  0  0  0  0  0  0  0  0
    1.5332   -1.3399   -0.1516 H   0  0  0  0  0  0  0  0  0  0  0  0
    0.0603   -1.1503    0.7886 H   0  0  0  0  0  0  0  0  0  0  0  0
    3.6462   -0.1547    0.5564 H   0  0  0  0  0  0  0  0  0  0  0  0
    0.1869   -0.5216    3.0957 H   0  0  0  0  0  0  0  0  0  0  0  0
    5.0622    0.2308    2.5470 H   0  0  0  0  0  0  0  0  0  0  0  0
    1.6098   -0.1324    5.0855 H   0  0  0  0  0  0  0  0  0  0  0  0
    4.0494    0.2497    4.8153 H   0  0  0  0  0  0  0  0  0  0  0  0
   -1.4993   -0.3230   -1.6699 N   0  0  0  0  0  0  0  0  0  0  0  0
   -2.1936   -1.0508   -2.7429 C   0  0  2  0  0  0  0  0  0  0  0  0
   -2.3904   -0.2011   -4.0233 C   0  0  0  0  0  0  0  0  0  0  0  0
   -3.4999   -0.0080   -4.5070 O   0  0  0  0  0  0  0  0  0  0  0  0
   -3.5185   -1.5489   -2.1524 C   0  0  0  0  0  0  0  0  0  0  0  0
   -2.0528   -0.0343   -0.8604 H   0  0  0  0  0  0  0  0  0  0  0  0
   -1.6024   -1.9271   -3.0291 H   0  0  0  0  0  0  0  0  0  0  0  0
   -4.1531   -0.7033   -1.8677 H   0  0  0  0  0  0  0  0  0  0  0  0
   -4.0578   -2.1549   -2.8873 H   0  0  0  0  0  0  0  0  0  0  0  0
   -3.3354   -2.1632   -1.2658 H   0  0  0  0  0  0  0  0  0  0  0  0
   -1.2845    0.3326   -4.6545 N   0  0  0  0  0  0  0  0  0  0  0  0
   -1.3429    1.1490   -5.8584 C   0  0  0  0  0  0  0  0  0  0  0  0
   -0.3805    0.1500   -4.2109 H   0  0  0  0  0  0  0  0  0  0  0  0
   -1.7905    0.5844   -6.6828 H   0  0  0  0  0  0  0  0  0  0  0  0
   -1.9400    2.0492   -5.6809 H   0  0  0  0  0  0  0  0  0  0  0  0
   -0.3351    1.4546   -6.1552 H   0  0  0  0  0  0  0  0  0  0  0  0
  1  2  2  0  0  0  0
  1  3  1  0  0  0  0
  1  7  1  0  0  0  0
  3  4  1  0  0  0  0
  3  5  1  0  0  0  0
  3  6  1  0  0  0  0
  7  8  1  0  0  0  0
  7 12  1  0  0  0  0
  8  9  1  0  0  0  0
  8 11  1  0  0  0  0
  8 13  1  0  0  0  0
  9 10  2  0  0  0  0
  9 17  1  0  0  0  0
 11 14  1  0  0  0  0
 11 15  1  0  0  0  0
 11 16  1  0  0  0  0
 17 18  1  0  0  0  0
 17 28  1  0  0  0  0
 18 19  1  0  0  0  0
 18 21  1  0  0  0  0
 18 29  1  0  0  0  0
 19 20  2  0  0  0  0
 19 37  1  0  0  0  0
 21 22  1  0  0  0  0
 21 30  1  0  0  0  0
 21 31  1  0  0  0  0
 22 23  1  0  0  0  0
 22 24  2  0  0  0  0
 23 25  2  0  0  0  0
 23 32  1  0  0  0  0
 24 26  1  0  0  0  0
 24 33  1  0  0  0  0
 25 27  1  0  0  0  0
 25 34  1  0  0  0  0
 26 27  2  0  0  0  0
 26 35  1  0  0  0  0
 27 36  1  0  0  0  0
 37 38  1  0  0  0  0
 37 42  1  0  0  0  0
 38 39  1  0  0  0  0
 38 41  1  0  0  0  0
 38 43  1  0  0  0  0
 39 40  2  0  0  0  0
 39 47  1  0  0  0  0
 41 44  1  0  0  0  0
 41 45  1  0  0  0  0
 41 46  1  0  0  0  0
 47 48  1  0  0  0  0
 47 49  1  0  0  0  0
 48 50  1  0  0  0  0
 48 51  1  0  0  0  0
 48 52  1  0  0  0  0
M  END
$$$$

  -OEChem-05262217163D

 52 52  0     1  0  0  0  0  0999 V2000
   -2.4196    0.4110    3.7712 C   0  0  0  0  0  0  0  0  0  0  0  0
   -2.7866   -0.3665    2.9017 O   0  0  0  0  0  0  0  0  0  0  0  0
   -2.2280   -0.0695    5.1970 C   0  0  0  0  0  0  0  0  0  0  0  0
   -2.4306   -1.1419    5.2644 H   0  0  0  0  0  0  0  0  0  0  0  0
   -1.2000    0.1156    5.5175 H   0  0  0  0  0  0  0  0  0  0  0  0
   -2.9111    0.4615    5.8642 H   0  0  0  0  0  0  0  0  0  0  0  0
   -2.1209    1.7162    3.4407 N   0  0  0  0  0  0  0  0  0  0  0  0
   -2.0104    2.1502    2.0435 C   0  0  2  0  0  0  0  0  0  0  0  0
   -0.6739    1.7008    1.4172 C   0  0  0  0  0  0  0  0  0  0  0  0
    0.3722    1.9492    1.9974 O   0  0  0  0  0  0  0  0  0  0  0  0
   -2.1481    3.6744    2.0042 C   0  0  0  0  0  0  0  0  0  0  0  0
   -1.5838    2.2347    4.1311 H   0  0  0  0  0  0  0  0  0  0  0  0
   -2.8300    1.7196    1.4589 H   0  0  0  0  0  0  0  0  0  0  0  0
   -1.3480    4.1487    2.5821 H   0  0  0  0  0  0  0  0  0  0  0  0
   -2.0896    4.0355    0.9727 H   0  0  0  0  0  0  0  0  0  0  0  0
   -3.1114    3.9803    2.4240 H   0  0  0  0  0  0  0  0  0  0  0  0
   -0.6475    1.2434    0.1130 N   0  0  0  0  0  0  0  0  0  0  0  0
    0.4018    0.4218   -0.5403 C   0  0  2  0  0  0  0  0  0  0  0  0
   -0.1330   -0.1617   -1.8688 C   0  0  0  0  0  0  0  0  0  0  0  0
    0.6533   -0.4433   -2.7647 O   0  0  0  0  0  0  0  0  0  0  0  0
    0.8184   -0.8768    0.2169 C   0  0  0  0  0  0  0  0  0  0  0  0
    1.5319   -0.7252    1.5375 C   0  0  0  0  0  0  0  0  0  0  0  0
    2.9080   -0.4562    1.5672 C   0  0  0  0  0  0  0  0  0  0  0  0
    0.8657   -0.9893    2.7458 C   0  0  0  0  0  0  0  0  0  0  0  0
    3.5944   -0.3921    2.7846 C   0  0  0  0  0  0  0  0  0  0  0  0
    1.5513   -0.9305    3.9641 C   0  0  0  0  0  0  0  0  0  0  0  0
    2.9154   -0.6246    3.9841 C   0  0  0  0  0  0  0  0  0  0  0  0
   -1.5418    1.2959   -0.3618 H   0  0  0  0  0  0  0  0  0  0  0  0
    1.2844    1.0396   -0.7366 H   0  0  0  0  0  0  0  0  0  0  0  0
    1.4786   -1.4653   -0.4306 H   0  0  0  0  0  0  0  0  0  0  0  0
   -0.0799   -1.4815    0.3812 H   0  0  0  0  0  0  0  0  0  0  0  0
    3.4469   -0.2853    0.6405 H   0  0  0  0  0  0  0  0  0  0  0  0
   -0.1895   -1.2432    2.7380 H   0  0  0  0  0  0  0  0  0  0  0  0
    4.6556   -0.1640    2.7964 H   0  0  0  0  0  0  0  0  0  0  0  0
    1.0259   -1.1283    4.8927 H   0  0  0  0  0  0  0  0  0  0  0  0
    3.4495   -0.5740    4.9280 H   0  0  0  0  0  0  0  0  0  0  0  0
   -1.4874   -0.1728   -2.1662 N   0  0  0  0  0  0  0  0  0  0  0  0
   -2.0406   -0.6014   -3.4608 C   0  0  2  0  0  0  0  0  0  0  0  0
   -1.9505    0.5146   -4.5295 C   0  0  0  0  0  0  0  0  0  0  0  0
   -2.9527    1.0321   -5.0079 O   0  0  0  0  0  0  0  0  0  0  0  0
   -3.4792   -1.0726   -3.2121 C   0  0  0  0  0  0  0  0  0  0  0  0
   -2.1300   -0.0930   -1.3853 H   0  0  0  0  0  0  0  0  0  0  0  0
   -1.4720   -1.4574   -3.8404 H   0  0  0  0  0  0  0  0  0  0  0  0
   -4.0954   -0.2513   -2.8318 H   0  0  0  0  0  0  0  0  0  0  0  0
   -3.9251   -1.4343   -4.1444 H   0  0  0  0  0  0  0  0  0  0  0  0
   -3.4941   -1.8897   -2.4843 H   0  0  0  0  0  0  0  0  0  0  0  0
   -0.7064    0.9596   -4.9289 N   0  0  0  0  0  0  0  0  0  0  0  0
   -0.4949    2.0569   -5.8627 C   0  0  0  0  0  0  0  0  0  0  0  0
    0.0951    0.5533   -4.4388 H   0  0  0  0  0  0  0  0  0  0  0  0
   -0.9565    1.8313   -6.8297 H   0  0  0  0  0  0  0  0  0  0  0  0
   -0.9301    2.9823   -5.4714 H   0  0  0  0  0  0  0  0  0  0  0  0
    0.5761    2.2163   -6.0200 H   0  0  0  0  0  0  0  0  0  0  0  0
  1  2  2  0  0  0  0
  1  3  1  0  0  0  0
  1  7  1  0  0  0  0
  3  4  1  0  0  0  0
  3  5  1  0  0  0  0
  3  6  1  0  0  0  0
  7  8  1  0  0  0  0
  7 12  1  0  0  0  0
  8  9  1  0  0  0  0
  8 11  1  0  0  0  0
  8 13  1  0  0  0  0
  9 10  2  0  0  0  0
  9 17  1  0  0  0  0
 11 14  1  0  0  0  0
 11 15  1  0  0  0  0
 11 16  1  0  0  0  0
 17 18  1  0  0  0  0
 17 28  1  0  0  0  0
 18 19  1  0  0  0  0
 18 21  1  0  0  0  0
 18 29  1  0  0  0  0
 19 20  2  0  0  0  0
 19 37  1  0  0  0  0
 21 22  1  0  0  0  0
 21 30  1  0  0  0  0
 21 31  1  0  0  0  0
 22 23  1  0  0  0  0
 22 24  2  0  0  0  0
 23 25  2  0  0  0  0
 23 32  1  0  0  0  0
 24 26  1  0  0  0  0
 24 33  1  0  0  0  0
 25 27  1  0  0  0  0
 25 34  1  0  0  0  0
 26 27  2  0  0  0  0
 26 35  1  0  0  0  0
 27 36  1  0  0  0  0
 37 38  1  0  0  0  0
 37 42  1  0  0  0  0
 38 39  1  0  0  0  0
 38 41  1  0  0  0  0
 38 43  1  0  0  0  0
 39 40  2  0  0  0  0
 39 47  1  0  0  0  0
 41 44  1  0  0  0  0
 41 45  1  0  0  0  0
 41 46  1  0  0  0  0
 47 48  1  0  0  0  0
 47 49  1  0  0  0  0
 48 50  1  0  0  0  0
 48 51  1  0  0  0  0
 48 52  1  0  0  0  0
M  END
$$$$

  -OEChem-05262217163D

 52 52  0     1  0  0  0  0  0999 V2000
   -1.9255    0.5830    4.5604 C   0  0  0  0  0  0  0  0  0  0  0  0
   -2.4918   -0.4305    4.1807 O   0  0  0  0  0  0  0  0  0  0  0  0
   -1.3344    0.6461    5.9559 C   0  0  0  0  0  0  0  0  0  0  0  0
   -1.5010   -0.2992    6.4799 H   0  0  0  0  0  0  0  0  0  0  0  0
   -0.2590    0.8327    5.8975 H   0  0  0  0  0  0  0  0  0  0  0  0
   -1.8059    1.4519    6.5239 H   0  0  0  0  0  0  0  0  0  0  0  0
   -1.7948    1.6672    3.7187 N   0  0  0  0  0  0  0  0  0  0  0  0
   -2.0749    1.6110    2.2770 C   0  0  2  0  0  0  0  0  0  0  0  0
   -0.7731    1.5727    1.4493 C   0  0  0  0  0  0  0  0  0  0  0  0
    0.2670    2.0084    1.9253 O   0  0  0  0  0  0  0  0  0  0  0  0
   -2.9088    2.8448    1.9234 C   0  0  0  0  0  0  0  0  0  0  0  0
   -1.1031    2.3553    4.0105 H   0  0  0  0  0  0  0  0  0  0  0  0
   -2.6553    0.7163    2.0294 H   0  0  0  0  0  0  0  0  0  0  0  0
   -2.3470    3.7608    2.1339 H   0  0  0  0  0  0  0  0  0  0  0  0
   -3.1772    2.8378    0.8628 H   0  0  0  0  0  0  0  0  0  0  0  0
   -3.8315    2.8588    2.5124 H   0  0  0  0  0  0  0  0  0  0  0  0
   -0.7984    1.2913    0.0961 N   0  0  0  0  0  0  0  0  0  0  0  0
    0.2594    0.5131   -0.5973 C   0  0  2  0  0  0  0  0  0  0  0  0
   -0.2416    0.0755   -1.9994 C   0  0  0  0  0  0  0  0  0  0  0  0
    0.4770   -0.5691   -2.7546 O   0  0  0  0  0  0  0  0  0  0  0  0
    0.6271   -0.8407    0.0933 C   0  0  0  0  0  0  0  0  0  0  0  0
    1.2983   -0.7774    1.4444 C   0  0  0  0  0  0  0  0  0  0  0  0
    2.6768   -0.5353    1.5352 C   0  0  0  0  0  0  0  0  0  0  0  0
    0.5901   -1.1052    2.6130 C   0  0  0  0  0  0  0  0  0  0  0  0
    3.3246   -0.5623    2.7753 C   0  0  0  0  0  0  0  0  0  0  0  0
    1.2375   -1.1423    3.8520 C   0  0  0  0  0  0  0  0  0  0  0  0
    2.6043   -0.8630    3.9352 C   0  0  0  0  0  0  0  0  0  0  0  0
   -1.7381    1.0501   -0.2008 H   0  0  0  0  0  0  0  0  0  0  0  0
    1.1572    1.1301   -0.7098 H   0  0  0  0  0  0  0  0  0  0  0  0
    1.3057   -1.4036   -0.5568 H   0  0  0  0  0  0  0  0  0  0  0  0
   -0.2856   -1.4392    0.1840 H   0  0  0  0  0  0  0  0  0  0  0  0
    3.2488   -0.3158    0.6388 H   0  0  0  0  0  0  0  0  0  0  0  0
   -0.4685   -1.3434    2.5661 H   0  0  0  0  0  0  0  0  0  0  0  0
    4.3889   -0.3559    2.8349 H   0  0  0  0  0  0  0  0  0  0  0  0
    0.6772   -1.3995    4.7457 H   0  0  0  0  0  0  0  0  0  0  0  0
    3.1087   -0.8902    4.8964 H   0  0  0  0  0  0  0  0  0  0  0  0
   -1.5093    0.4131   -2.4500 N   0  0  0  0  0  0  0  0  0  0  0  0
   -2.0169    0.0523   -3.7838 C   0  0  2  0  0  0  0  0  0  0  0  0
   -1.4533    0.9751   -4.8910 C   0  0  0  0  0  0  0  0  0  0  0  0
   -2.1619    1.7910   -5.4674 O   0  0  0  0  0  0  0  0  0  0  0  0
   -3.5492    0.0744   -3.7126 C   0  0  0  0  0  0  0  0  0  0  0  0
   -1.9387    1.2146   -1.9997 H   0  0  0  0  0  0  0  0  0  0  0  0
   -1.7131   -0.9711   -4.0314 H   0  0  0  0  0  0  0  0  0  0  0  0
   -3.9110    1.0789   -3.4706 H   0  0  0  0  0  0  0  0  0  0  0  0
   -3.9766   -0.2233   -4.6757 H   0  0  0  0  0  0  0  0  0  0  0  0
   -3.9063   -0.6212   -2.9470 H   0  0  0  0  0  0  0  0  0  0  0  0
   -0.1089    0.9110   -5.1977 N   0  0  0  0  0  0  0  0  0  0  0  0
    0.5518    1.8023   -6.1413 C   0  0  0  0  0  0  0  0  0  0  0  0
    0.4578    0.2956   -4.6081 H   0  0  0  0  0  0  0  0  0  0  0  0
    0.0817    1.7318   -7.1277 H   0  0  0  0  0  0  0  0  0  0  0  0
    0.4921    2.8394   -5.7950 H   0  0  0  0  0  0  0  0  0  0  0  0
    1.6066    1.5295   -6.2421 H   0  0  0  0  0  0  0  0  0  0  0  0
  1  2  2  0  0  0  0
  1  3  1  0  0  0  0
  1  7  1  0  0  0  0
  3  4  1  0  0  0  0
  3  5  1  0  0  0  0
  3  6  1  0  0  0  0
  7  8  1  0  0  0  0
  7 12  1  0  0  0  0
  8  9  1  0  0  0  0
  8 11  1  0  0  0  0
  8 13  1  0  0  0  0
  9 10  2  0  0  0  0
  9 17  1  0  0  0  0
 11 14  1  0  0  0  0
 11 15  1  0  0  0  0
 11 16  1  0  0  0  0
 17 18  1  0  0  0  0
 17 28  1  0  0  0  0
 18 19  1  0  0  0  0
 18 21  1  0  0  0  0
 18 29  1  0  0  0  0
 19 20  2  0  0  0  0
 19 37  1  0  0  0  0
 21 22  1  0  0  0  0
 21 30  1  0  0  0  0
 21 31  1  0  0  0  0
 22 23  1  0  0  0  0
 22 24  2  0  0  0  0
 23 25  2  0  0  0  0
 23 32  1  0  0  0  0
 24 26  1  0  0  0  0
 24 33  1  0  0  0  0
 25 27  1  0  0  0  0
 25 34  1  0  0  0  0
 26 27  2  0  0  0  0
 26 35  1  0  0  0  0
 27 36  1  0  0  0  0
 37 38  1  0  0  0  0
 37 42  1  0  0  0  0
 38 39  1  0  0  0  0
 38 41  1  0  0  0  0
 38 43  1  0  0  0  0
 39 40  2  0  0  0  0
 39 47  1  0  0  0  0
 41 44  1  0  0  0  0
 41 45  1  0  0  0  0
 41 46  1  0  0  0  0
 47 48  1  0  0  0  0
 47 49  1  0  0  0  0
 48 50  1  0  0  0  0
 48 51  1  0  0  0  0
 48 52  1  0  0  0  0
M  END
$$$$

  -OEChem-05262217163D

 52 52  0     1  0  0  0  0  0999 V2000
   -1.9893    0.5135    4.4614 C   0  0  0  0  0  0  0  0  0  0  0  0
   -2.5493   -0.4624    3.9861 O   0  0  0  0  0  0  0  0  0  0  0  0
   -1.4192    0.4540    5.8658 C   0  0  0  0  0  0  0  0  0  0  0  0
   -1.5486   -0.5482    6.2837 H   0  0  0  0  0  0  0  0  0  0  0  0
   -0.3528    0.6917    5.8452 H   0  0  0  0  0  0  0  0  0  0  0  0
   -1.9330    1.1732    6.5083 H   0  0  0  0  0  0  0  0  0  0  0  0
   -1.8351    1.6610    3.7126 N   0  0  0  0  0  0  0  0  0  0  0  0
   -2.0776    1.7103    2.2640 C   0  0  2  0  0  0  0  0  0  0  0  0
   -0.7654    1.5749    1.4634 C   0  0  0  0  0  0  0  0  0  0  0  0
    0.2872    1.9649    1.9502 O   0  0  0  0  0  0  0  0  0  0  0  0
   -2.7630    3.0449    1.9584 C   0  0  0  0  0  0  0  0  0  0  0  0
   -1.1494    2.3207    4.0741 H   0  0  0  0  0  0  0  0  0  0  0  0
   -2.7466    0.8996    1.9569 H   0  0  0  0  0  0  0  0  0  0  0  0
   -2.1148    3.8819    2.2379 H   0  0  0  0  0  0  0  0  0  0  0  0
   -2.9925    3.1255    0.8915 H   0  0  0  0  0  0  0  0  0  0  0  0
   -3.6993    3.1264    2.5197 H   0  0  0  0  0  0  0  0  0  0  0  0
   -0.7899    1.2936    0.1104 N   0  0  0  0  0  0  0  0  0  0  0  0
    0.2446    0.4967   -0.5972 C   0  0  2  0  0  0  0  0  0  0  0  0
   -0.3077    0.0967   -1.9929 C   0  0  0  0  0  0  0  0  0  0  0  0
    0.2419   -0.7418   -2.6980 O   0  0  0  0  0  0  0  0  0  0  0  0
    0.6156   -0.8605    0.0859 C   0  0  0  0  0  0  0  0  0  0  0  0
    1.3173   -0.8013    1.4211 C   0  0  0  0  0  0  0  0  0  0  0  0
    2.6998   -0.5709    1.4801 C   0  0  0  0  0  0  0  0  0  0  0  0
    0.6331   -1.1239    2.6046 C   0  0  0  0  0  0  0  0  0  0  0  0
    3.3747   -0.6004    2.7051 C   0  0  0  0  0  0  0  0  0  0  0  0
    1.3079   -1.1639    3.8289 C   0  0  0  0  0  0  0  0  0  0  0  0
    2.6779   -0.8925    3.8813 C   0  0  0  0  0  0  0  0  0  0  0  0
   -1.7358    1.0923   -0.2017 H   0  0  0  0  0  0  0  0  0  0  0  0
    1.1479    1.1017   -0.7259 H   0  0  0  0  0  0  0  0  0  0  0  0
    1.2777   -1.4290   -0.5758 H   0  0  0  0  0  0  0  0  0  0  0  0
   -0.2999   -1.4515    0.1958 H   0  0  0  0  0  0  0  0  0  0  0  0
    3.2545   -0.3591    0.5713 H   0  0  0  0  0  0  0  0  0  0  0  0
   -0.4276   -1.3557    2.5779 H   0  0  0  0  0  0  0  0  0  0  0  0
    4.4416   -0.4026    2.7400 H   0  0  0  0  0  0  0  0  0  0  0  0
    0.7666   -1.4180    4.7347 H   0  0  0  0  0  0  0  0  0  0  0  0
    3.2029   -0.9196    4.8311 H   0  0  0  0  0  0  0  0  0  0  0  0
   -1.4263    0.7324   -2.5105 N   0  0  0  0  0  0  0  0  0  0  0  0
   -1.9504    0.4804   -3.8631 C   0  0  2  0  0  0  0  0  0  0  0  0
   -1.1166    1.2004   -4.9496 C   0  0  0  0  0  0  0  0  0  0  0  0
   -1.5621    2.1547   -5.5746 O   0  0  0  0  0  0  0  0  0  0  0  0
   -3.4280    0.8915   -3.8721 C   0  0  0  0  0  0  0  0  0  0  0  0
   -1.6571    1.6258   -2.0844 H   0  0  0  0  0  0  0  0  0  0  0  0
   -1.9067   -0.5919   -4.0833 H   0  0  0  0  0  0  0  0  0  0  0  0
   -3.5361    1.9575   -3.6482 H   0  0  0  0  0  0  0  0  0  0  0  0
   -3.8674    0.6996   -4.8564 H   0  0  0  0  0  0  0  0  0  0  0  0
   -3.9873    0.3173   -3.1273 H   0  0  0  0  0  0  0  0  0  0  0  0
    0.1801    0.7864   -5.1792 N   0  0  0  0  0  0  0  0  0  0  0  0
    1.0962    1.4491   -6.0965 C   0  0  0  0  0  0  0  0  0  0  0  0
    0.5347    0.0544   -4.5581 H   0  0  0  0  0  0  0  0  0  0  0  0
    0.7084    1.4095   -7.1196 H   0  0  0  0  0  0  0  0  0  0  0  0
    1.2342    2.4972   -5.8112 H   0  0  0  0  0  0  0  0  0  0  0  0
    2.0715    0.9535   -6.0767 H   0  0  0  0  0  0  0  0  0  0  0  0
  1  2  2  0  0  0  0
  1  3  1  0  0  0  0
  1  7  1  0  0  0  0
  3  4  1  0  0  0  0
  3  5  1  0  0  0  0
  3  6  1  0  0  0  0
  7  8  1  0  0  0  0
  7 12  1  0  0  0  0
  8  9  1  0  0  0  0
  8 11  1  0  0  0  0
  8 13  1  0  0  0  0
  9 10  2  0  0  0  0
  9 17  1  0  0  0  0
 11 14  1  0  0  0  0
 11 15  1  0  0  0  0
 11 16  1  0  0  0  0
 17 18  1  0  0  0  0
 17 28  1  0  0  0  0
 18 19  1  0  0  0  0
 18 21  1  0  0  0  0
 18 29  1  0  0  0  0
 19 20  2  0  0  0  0
 19 37  1  0  0  0  0
 21 22  1  0  0  0  0
 21 30  1  0  0  0  0
 21 31  1  0  0  0  0
 22 23  1  0  0  0  0
 22 24  2  0  0  0  0
 23 25  2  0  0  0  0
 23 32  1  0  0  0  0
 24 26  1  0  0  0  0
 24 33  1  0  0  0  0
 25 27  1  0  0  0  0
 25 34  1  0  0  0  0
 26 27  2  0  0  0  0
 26 35  1  0  0  0  0
 27 36  1  0  0  0  0
 37 38  1  0  0  0  0
 37 42  1  0  0  0  0
 38 39  1  0  0  0  0
 38 41  1  0  0  0  0
 38 43  1  0  0  0  0
 39 40  2  0  0  0  0
 39 47  1  0  0  0  0
 41 44  1  0  0  0  0
 41 45  1  0  0  0  0
 41 46  1  0  0  0  0
 47 48  1  0  0  0  0
 47 49  1  0  0  0  0
 48 50  1  0  0  0  0
 48 51  1  0  0  0  0
 48 52  1  0  0  0  0
M  END
$$$$

  -OEChem-05262217163D

 52 52  0     1  0  0  0  0  0999 V2000
   -2.0421    0.4308    4.4090 C   0  0  0  0  0  0  0  0  0  0  0  0
   -2.6034   -0.5147    3.8773 O   0  0  0  0  0  0  0  0  0  0  0  0
   -1.5155    0.3029    5.8254 C   0  0  0  0  0  0  0  0  0  0  0  0
   -1.6554   -0.7191    6.1885 H   0  0  0  0  0  0  0  0  0  0  0  0
   -0.4496    0.5434    5.8507 H   0  0  0  0  0  0  0  0  0  0  0  0
   -2.0524    0.9886    6.4852 H   0  0  0  0  0  0  0  0  0  0  0  0
   -1.8545    1.6086    3.7169 N   0  0  0  0  0  0  0  0  0  0  0  0
   -2.0708    1.7281    2.2684 C   0  0  2  0  0  0  0  0  0  0  0  0
   -0.7487    1.5941    1.4848 C   0  0  0  0  0  0  0  0  0  0  0  0
    0.3020    1.9544    1.9981 O   0  0  0  0  0  0  0  0  0  0  0  0
   -2.7168    3.0913    2.0093 C   0  0  0  0  0  0  0  0  0  0  0  0
   -1.1663    2.2402    4.1214 H   0  0  0  0  0  0  0  0  0  0  0  0
   -2.7550    0.9494    1.9155 H   0  0  0  0  0  0  0  0  0  0  0  0
   -2.0467    3.8988    2.3223 H   0  0  0  0  0  0  0  0  0  0  0  0
   -2.9374    3.2160    0.9450 H   0  0  0  0  0  0  0  0  0  0  0  0
   -3.6541    3.1786    2.5679 H   0  0  0  0  0  0  0  0  0  0  0  0
   -0.7574    1.3465    0.1255 N   0  0  0  0  0  0  0  0  0  0  0  0
    0.2720    0.5549   -0.5927 C   0  0  2  0  0  0  0  0  0  0  0  0
   -0.3008    0.2166   -1.9969 C   0  0  0  0  0  0  0  0  0  0  0  0
    0.0183   -0.7809   -2.6339 O   0  0  0  0  0  0  0  0  0  0  0  0
    0.6372   -0.8181    0.0610 C   0  0  0  0  0  0  0  0  0  0  0  0
    1.3393   -0.7914    1.3972 C   0  0  0  0  0  0  0  0  0  0  0  0
    2.7229   -0.5689    1.4618 C   0  0  0  0  0  0  0  0  0  0  0  0
    0.6528   -1.1371    2.5731 C   0  0  0  0  0  0  0  0  0  0  0  0
    3.3974   -0.6307    2.6860 C   0  0  0  0  0  0  0  0  0  0  0  0
    1.3268   -1.2072    3.7967 C   0  0  0  0  0  0  0  0  0  0  0  0
    2.6989   -0.9464    3.8552 C   0  0  0  0  0  0  0  0  0  0  0  0
   -1.7013    1.1903   -0.2190 H   0  0  0  0  0  0  0  0  0  0  0  0
    1.1806    1.1547   -0.7075 H   0  0  0  0  0  0  0  0  0  0  0  0
    1.2981   -1.3713   -0.6149 H   0  0  0  0  0  0  0  0  0  0  0  0
   -0.2800   -1.4087    0.1576 H   0  0  0  0  0  0  0  0  0  0  0  0
    3.2785   -0.3390    0.5580 H   0  0  0  0  0  0  0  0  0  0  0  0
   -0.4088   -1.3639    2.5399 H   0  0  0  0  0  0  0  0  0  0  0  0
    4.4654   -0.4395    2.7255 H   0  0  0  0  0  0  0  0  0  0  0  0
    0.7839   -1.4756    4.6974 H   0  0  0  0  0  0  0  0  0  0  0  0
    3.2239   -0.9995    4.8041 H   0  0  0  0  0  0  0  0  0  0  0  0
   -1.1924    1.0939   -2.5930 N   0  0  0  0  0  0  0  0  0  0  0  0
   -1.7351    0.9181   -3.9497 C   0  0  2  0  0  0  0  0  0  0  0  0
   -0.7124    1.3078   -5.0437 C   0  0  0  0  0  0  0  0  0  0  0  0
   -0.8710    2.2961   -5.7497 O   0  0  0  0  0  0  0  0  0  0  0  0
   -3.0364    1.7251   -4.0345 C   0  0  0  0  0  0  0  0  0  0  0  0
   -1.2521    2.0195   -2.1751 H   0  0  0  0  0  0  0  0  0  0  0  0
   -1.9902   -0.1351   -4.1105 H   0  0  0  0  0  0  0  0  0  0  0  0
   -2.8429    2.7900   -3.8704 H   0  0  0  0  0  0  0  0  0  0  0  0
   -3.4912    1.6057   -5.0232 H   0  0  0  0  0  0  0  0  0  0  0  0
   -3.7512    1.3779   -3.2824 H   0  0  0  0  0  0  0  0  0  0  0  0
    0.4235    0.5394   -5.2013 N   0  0  0  0  0  0  0  0  0  0  0  0
    1.4965    0.8557   -6.1337 C   0  0  0  0  0  0  0  0  0  0  0  0
    0.5550   -0.2137   -4.5209 H   0  0  0  0  0  0  0  0  0  0  0  0
    1.1145    0.8913   -7.1593 H   0  0  0  0  0  0  0  0  0  0  0  0
    1.9432    1.8250   -5.8892 H   0  0  0  0  0  0  0  0  0  0  0  0
    2.2774    0.0909   -6.0826 H   0  0  0  0  0  0  0  0  0  0  0  0
  1  2  2  0  0  0  0
  1  3  1  0  0  0  0
  1  7  1  0  0  0  0
  3  4  1  0  0  0  0
  3  5  1  0  0  0  0
  3  6  1  0  0  0  0
  7  8  1  0  0  0  0
  7 12  1  0  0  0  0
  8  9  1  0  0  0  0
  8 11  1  0  0  0  0
  8 13  1  0  0  0  0
  9 10  2  0  0  0  0
  9 17  1  0  0  0  0
 11 14  1  0  0  0  0
 11 15  1  0  0  0  0
 11 16  1  0  0  0  0
 17 18  1  0  0  0  0
 17 28  1  0  0  0  0
 18 19  1  0  0  0  0
 18 21  1  0  0  0  0
 18 29  1  0  0  0  0
 19 20  2  0  0  0  0
 19 37  1  0  0  0  0
 21 22  1  0  0  0  0
 21 30  1  0  0  0  0
 21 31  1  0  0  0  0
 22 23  1  0  0  0  0
 22 24  2  0  0  0  0
 23 25  2  0  0  0  0
 23 32  1  0  0  0  0
 24 26  1  0  0  0  0
 24 33  1  0  0  0  0
 25 27  1  0  0  0  0
 25 34  1  0  0  0  0
 26 27  2  0  0  0  0
 26 35  1  0  0  0  0
 27 36  1  0  0  0  0
 37 38  1  0  0  0  0
 37 42  1  0  0  0  0
 38 39  1  0  0  0  0
 38 41  1  0  0  0  0
 38 43  1  0  0  0  0
 39 40  2  0  0  0  0
 39 47  1  0  0  0  0
 41 44  1  0  0  0  0
 41 45  1  0  0  0  0
 41 46  1  0  0  0  0
 47 48  1  0  0  0  0
 47 49  1  0  0  0  0
 48 50  1  0  0  0  0
 48 51  1  0  0  0  0
 48 52  1  0  0  0  0
M  END
$$$$

  -OEChem-05262217163D

 52 52  0     1  0  0  0  0  0999 V2000
   -2.0111    0.4157    4.4421 C   0  0  0  0  0  0  0  0  0  0  0  0
   -2.5540   -0.5561    3.9397 O   0  0  0  0  0  0  0  0  0  0  0  0
   -1.4562    0.3318    5.8513 C   0  0  0  0  0  0  0  0  0  0  0  0
   -1.5757   -0.6816    6.2446 H   0  0  0  0  0  0  0  0  0  0  0  0
   -0.3931    0.5856    5.8492 H   0  0  0  0  0  0  0  0  0  0  0  0
   -1.9884    1.0284    6.5035 H   0  0  0  0  0  0  0  0  0  0  0  0
   -1.8673    1.5844    3.7242 N   0  0  0  0  0  0  0  0  0  0  0  0
   -2.0836    1.6640    2.2724 C   0  0  2  0  0  0  0  0  0  0  0  0
   -0.7512    1.5879    1.4974 C   0  0  0  0  0  0  0  0  0  0  0  0
    0.2903    1.9384    2.0364 O   0  0  0  0  0  0  0  0  0  0  0  0
   -2.8050    2.9832    1.9846 C   0  0  0  0  0  0  0  0  0  0  0  0
   -1.1919    2.2407    4.1105 H   0  0  0  0  0  0  0  0  0  0  0  0
   -2.7196    0.8405    1.9309 H   0  0  0  0  0  0  0  0  0  0  0  0
   -2.1869    3.8337    2.2907 H   0  0  0  0  0  0  0  0  0  0  0  0
   -3.0221    3.0778    0.9164 H   0  0  0  0  0  0  0  0  0  0  0  0
   -3.7513    3.0239    2.5332 H   0  0  0  0  0  0  0  0  0  0  0  0
   -0.7344    1.3945    0.1295 N   0  0  0  0  0  0  0  0  0  0  0  0
    0.3008    0.6164   -0.5925 C   0  0  2  0  0  0  0  0  0  0  0  0
   -0.2558    0.3479   -2.0164 C   0  0  0  0  0  0  0  0  0  0  0  0
   -0.1999   -0.7380   -2.5827 O   0  0  0  0  0  0  0  0  0  0  0  0
    0.6465   -0.7805    0.0173 C   0  0  0  0  0  0  0  0  0  0  0  0
    1.3257   -0.8036    1.3652 C   0  0  0  0  0  0  0  0  0  0  0  0
    2.7087   -0.5916    1.4630 C   0  0  0  0  0  0  0  0  0  0  0  0
    0.6146   -1.1796    2.5168 C   0  0  0  0  0  0  0  0  0  0  0  0
    3.3598   -0.6960    2.6971 C   0  0  0  0  0  0  0  0  0  0  0  0
    1.2645   -1.2925    3.7499 C   0  0  0  0  0  0  0  0  0  0  0  0
    2.6369   -1.0439    3.8422 C   0  0  0  0  0  0  0  0  0  0  0  0
   -1.6713    1.2706   -0.2463 H   0  0  0  0  0  0  0  0  0  0  0  0
    1.2174    1.2096   -0.6684 H   0  0  0  0  0  0  0  0  0  0  0  0
    1.3132   -1.3099   -0.6721 H   0  0  0  0  0  0  0  0  0  0  0  0
   -0.2749   -1.3696    0.0796 H   0  0  0  0  0  0  0  0  0  0  0  0
    3.2822   -0.3359    0.5778 H   0  0  0  0  0  0  0  0  0  0  0  0
   -0.4485   -1.3949    2.4575 H   0  0  0  0  0  0  0  0  0  0  0  0
    4.4278   -0.5119    2.7637 H   0  0  0  0  0  0  0  0  0  0  0  0
    0.7012   -1.5841    4.6309 H   0  0  0  0  0  0  0  0  0  0  0  0
    3.1429   -1.1307    4.7987 H   0  0  0  0  0  0  0  0  0  0  0  0
   -0.8548    1.3928   -2.6985 N   0  0  0  0  0  0  0  0  0  0  0  0
   -1.3925    1.2928   -4.0650 C   0  0  2  0  0  0  0  0  0  0  0  0
   -0.2788    1.3114   -5.1405 C   0  0  0  0  0  0  0  0  0  0  0  0
   -0.1749    2.2311   -5.9426 O   0  0  0  0  0  0  0  0  0  0  0  0
   -2.4115    2.4260   -4.2394 C   0  0  0  0  0  0  0  0  0  0  0  0
   -0.7521    2.3184   -2.2886 H   0  0  0  0  0  0  0  0  0  0  0  0
   -1.9298    0.3449   -4.1785 H   0  0  0  0  0  0  0  0  0  0  0  0
   -1.9256    3.4016   -4.1368 H   0  0  0  0  0  0  0  0  0  0  0  0
   -2.8712    2.3718   -5.2316 H   0  0  0  0  0  0  0  0  0  0  0  0
   -3.2034    2.3468   -3.4885 H   0  0  0  0  0  0  0  0  0  0  0  0
    0.6327    0.2750   -5.1806 N   0  0  0  0  0  0  0  0  0  0  0  0
    1.7623    0.2166   -6.0980 C   0  0  0  0  0  0  0  0  0  0  0  0
    0.5467   -0.4296   -4.4434 H   0  0  0  0  0  0  0  0  0  0  0  0
    1.4167    0.2639   -7.1360 H   0  0  0  0  0  0  0  0  0  0  0  0
    2.4472    1.0509   -5.9152 H   0  0  0  0  0  0  0  0  0  0  0  0
    2.3113   -0.7199   -5.9602 H   0  0  0  0  0  0  0  0  0  0  0  0
  1  2  2  0  0  0  0
  1  3  1  0  0  0  0
  1  7  1  0  0  0  0
  3  4  1  0  0  0  0
  3  5  1  0  0  0  0
  3  6  1  0  0  0  0
  7  8  1  0  0  0  0
  7 12  1  0  0  0  0
  8  9  1  0  0  0  0
  8 11  1  0  0  0  0
  8 13  1  0  0  0  0
  9 10  2  0  0  0  0
  9 17  1  0  0  0  0
 11 14  1  0  0  0  0
 11 15  1  0  0  0  0
 11 16  1  0  0  0  0
 17 18  1  0  0  0  0
 17 28  1  0  0  0  0
 18 19  1  0  0  0  0
 18 21  1  0  0  0  0
 18 29  1  0  0  0  0
 19 20  2  0  0  0  0
 19 37  1  0  0  0  0
 21 22  1  0  0  0  0
 21 30  1  0  0  0  0
 21 31  1  0  0  0  0
 22 23  1  0  0  0  0
 22 24  2  0  0  0  0
 23 25  2  0  0  0  0
 23 32  1  0  0  0  0
 24 26  1  0  0  0  0
 24 33  1  0  0  0  0
 25 27  1  0  0  0  0
 25 34  1  0  0  0  0
 26 27  2  0  0  0  0
 26 35  1  0  0  0  0
 27 36  1  0  0  0  0
 37 38  1  0  0  0  0
 37 42  1  0  0  0  0
 38 39  1  0  0  0  0
 38 41  1  0  0  0  0
 38 43  1  0  0  0  0
 39 40  2  0  0  0  0
 39 47  1  0  0  0  0
 41 44  1  0  0  0  0
 41 45  1  0  0  0  0
 41 46  1  0  0  0  0
 47 48  1  0  0  0  0
 47 49  1  0  0  0  0
 48 50  1  0  0  0  0
 48 51  1  0  0  0  0
 48 52  1  0  0  0  0
M  END
$$$$

  -OEChem-05262217163D

 52 52  0     1  0  0  0  0  0999 V2000
   -2.0396    0.3666    4.4264 C   0  0  0  0  0  0  0  0  0  0  0  0
   -2.5923   -0.5952    3.9158 O   0  0  0  0  0  0  0  0  0  0  0  0
   -1.4949    0.2676    5.8386 C   0  0  0  0  0  0  0  0  0  0  0  0
   -1.6684   -0.7342    6.2411 H   0  0  0  0  0  0  0  0  0  0  0  0
   -0.4202    0.4665    5.8383 H   0  0  0  0  0  0  0  0  0  0  0  0
   -1.9926    0.9969    6.4822 H   0  0  0  0  0  0  0  0  0  0  0  0
   -1.8740    1.5371    3.7167 N   0  0  0  0  0  0  0  0  0  0  0  0
   -2.0776    1.6303    2.2639 C   0  0  2  0  0  0  0  0  0  0  0  0
   -0.7346    1.6024    1.5051 C   0  0  0  0  0  0  0  0  0  0  0  0
    0.2974    1.9388    2.0713 O   0  0  0  0  0  0  0  0  0  0  0  0
   -2.8339    2.9315    1.9861 C   0  0  0  0  0  0  0  0  0  0  0  0
   -1.1904    2.1803    4.1109 H   0  0  0  0  0  0  0  0  0  0  0  0
   -2.6841    0.7932    1.9024 H   0  0  0  0  0  0  0  0  0  0  0  0
   -2.2466    3.7945    2.3164 H   0  0  0  0  0  0  0  0  0  0  0  0
   -3.0376    3.0378    0.9163 H   0  0  0  0  0  0  0  0  0  0  0  0
   -3.7893    2.9344    2.5204 H   0  0  0  0  0  0  0  0  0  0  0  0
   -0.6940    1.4565    0.1326 N   0  0  0  0  0  0  0  0  0  0  0  0
    0.3480    0.6923   -0.5896 C   0  0  2  0  0  0  0  0  0  0  0  0
   -0.1829    0.4784   -2.0297 C   0  0  0  0  0  0  0  0  0  0  0  0
   -0.4102   -0.6216   -2.5213 O   0  0  0  0  0  0  0  0  0  0  0  0
    0.6757   -0.7250   -0.0203 C   0  0  0  0  0  0  0  0  0  0  0  0
    1.3307   -0.7931    1.3383 C   0  0  0  0  0  0  0  0  0  0  0  0
    2.7127   -0.5912    1.4694 C   0  0  0  0  0  0  0  0  0  0  0  0
    0.5945   -1.1946    2.4655 C   0  0  0  0  0  0  0  0  0  0  0  0
    3.3375   -0.7319    2.7137 C   0  0  0  0  0  0  0  0  0  0  0  0
    1.2181   -1.3422    3.7080 C   0  0  0  0  0  0  0  0  0  0  0  0
    2.5895   -1.1042    3.8348 C   0  0  0  0  0  0  0  0  0  0  0  0
   -1.6240    1.3518   -0.2658 H   0  0  0  0  0  0  0  0  0  0  0  0
    1.2714    1.2788   -0.6265 H   0  0  0  0  0  0  0  0  0  0  0  0
    1.3437   -1.2372   -0.7217 H   0  0  0  0  0  0  0  0  0  0  0  0
   -0.2509   -1.3082    0.0151 H   0  0  0  0  0  0  0  0  0  0  0  0
    3.3059   -0.3158    0.6033 H   0  0  0  0  0  0  0  0  0  0  0  0
   -0.4686   -1.4012    2.3811 H   0  0  0  0  0  0  0  0  0  0  0  0
    4.4048   -0.5565    2.8078 H   0  0  0  0  0  0  0  0  0  0  0  0
    0.6348   -1.6516    4.5696 H   0  0  0  0  0  0  0  0  0  0  0  0
    3.0752   -1.2178    4.7993 H   0  0  0  0  0  0  0  0  0  0  0  0
   -0.4619    1.5949   -2.7969 N   0  0  0  0  0  0  0  0  0  0  0  0
   -0.9726    1.5533   -4.1766 C   0  0  2  0  0  0  0  0  0  0  0  0
    0.1281    1.1917   -5.2038 C   0  0  0  0  0  0  0  0  0  0  0  0
    0.4918    1.9839   -6.0643 O   0  0  0  0  0  0  0  0  0  0  0  0
   -1.6298    2.9099   -4.4606 C   0  0  0  0  0  0  0  0  0  0  0  0
   -0.2015    2.4971   -2.4056 H   0  0  0  0  0  0  0  0  0  0  0  0
   -1.7498    0.7854   -4.2557 H   0  0  0  0  0  0  0  0  0  0  0  0
   -0.8926    3.7170   -4.3977 H   0  0  0  0  0  0  0  0  0  0  0  0
   -2.0638    2.9171   -5.4657 H   0  0  0  0  0  0  0  0  0  0  0  0
   -2.4284    3.1071   -3.7391 H   0  0  0  0  0  0  0  0  0  0  0  0
    0.7303   -0.0488   -5.1326 N   0  0  0  0  0  0  0  0  0  0  0  0
    1.8237   -0.4761   -5.9943 C   0  0  0  0  0  0  0  0  0  0  0  0
    0.4384   -0.6479   -4.3561 H   0  0  0  0  0  0  0  0  0  0  0  0
    1.5098   -0.4693   -7.0433 H   0  0  0  0  0  0  0  0  0  0  0  0
    2.6855    0.1895   -5.8788 H   0  0  0  0  0  0  0  0  0  0  0  0
    2.1337   -1.4925   -5.7329 H   0  0  0  0  0  0  0  0  0  0  0  0
  1  2  2  0  0  0  0
  1  3  1  0  0  0  0
  1  7  1  0  0  0  0
  3  4  1  0  0  0  0
  3  5  1  0  0  0  0
  3  6  1  0  0  0  0
  7  8  1  0  0  0  0
  7 12  1  0  0  0  0
  8  9  1  0  0  0  0
  8 11  1  0  0  0  0
  8 13  1  0  0  0  0
  9 10  2  0  0  0  0
  9 17  1  0  0  0  0
 11 14  1  0  0  0  0
 11 15  1  0  0  0  0
 11 16  1  0  0  0  0
 17 18  1  0  0  0  0
 17 28  1  0  0  0  0
 18 19  1  0  0  0  0
 18 21  1  0  0  0  0
 18 29  1  0  0  0  0
 19 20  2  0  0  0  0
 19 37  1  0  0  0  0
 21 22  1  0  0  0  0
 21 30  1  0  0  0  0
 21 31  1  0  0  0  0
 22 23  1  0  0  0  0
 22 24  2  0  0  0  0
 23 25  2  0  0  0  0
 23 32  1  0  0  0  0
 24 26  1  0  0  0  0
 24 33  1  0  0  0  0
 25 27  1  0  0  0  0
 25 34  1  0  0  0  0
 26 27  2  0  0  0  0
 26 35  1  0  0  0  0
 27 36  1  0  0  0  0
 37 38  1  0  0  0  0
 37 42  1  0  0  0  0
 38 39  1  0  0  0  0
 38 41  1  0  0  0  0
 38 43  1  0  0  0  0
 39 40  2  0  0  0  0
 39 47  1  0  0  0  0
 41 44  1  0  0  0  0
 41 45  1  0  0  0  0
 41 46  1  0  0  0  0
 47 48  1  0  0  0  0
 47 49  1  0  0  0  0
 48 50  1  0  0  0  0
 48 51  1  0  0  0  0
 48 52  1  0  0  0  0
M  END
$$$$

  -OEChem-05262217163D

 52 52  0     1  0  0  0  0  0999 V2000
   -2.0916    0.3030    4.3628 C   0  0  0  0  0  0  0  0  0  0  0  0
   -2.6328   -0.6426    3.8113 O   0  0  0  0  0  0  0  0  0  0  0  0
   -1.5598    0.1557    5.7757 C   0  0  0  0  0  0  0  0  0  0  0  0
   -1.7724   -0.8470    6.1567 H   0  0  0  0  0  0  0  0  0  0  0  0
   -0.4786    0.3149    5.7842 H   0  0  0  0  0  0  0  0  0  0  0  0
   -2.0335    0.8899    6.4316 H   0  0  0  0  0  0  0  0  0  0  0  0
   -1.9187    1.4977    3.6964 N   0  0  0  0  0  0  0  0  0  0  0  0
   -2.0883    1.6363    2.2428 C   0  0  2  0  0  0  0  0  0  0  0  0
   -0.7275    1.6205    1.5154 C   0  0  0  0  0  0  0  0  0  0  0  0
    0.2921    1.9340    2.1170 O   0  0  0  0  0  0  0  0  0  0  0  0
   -2.8263    2.9529    1.9897 C   0  0  0  0  0  0  0  0  0  0  0  0
   -1.2448    2.1285    4.1254 H   0  0  0  0  0  0  0  0  0  0  0  0
   -2.6931    0.8161    1.8420 H   0  0  0  0  0  0  0  0  0  0  0  0
   -2.2352    3.7995    2.3535 H   0  0  0  0  0  0  0  0  0  0  0  0
   -3.0109    3.0913    0.9202 H   0  0  0  0  0  0  0  0  0  0  0  0
   -3.7903    2.9513    2.5083 H   0  0  0  0  0  0  0  0  0  0  0  0
   -0.6512    1.5136    0.1408 N   0  0  0  0  0  0  0  0  0  0  0  0
    0.4091    0.7685   -0.5720 C   0  0  2  0  0  0  0  0  0  0  0  0
   -0.0732    0.5910   -2.0312 C   0  0  0  0  0  0  0  0  0  0  0  0
   -0.5758   -0.4439   -2.4552 O   0  0  0  0  0  0  0  0  0  0  0  0
    0.7247   -0.6655   -0.0416 C   0  0  0  0  0  0  0  0  0  0  0  0
    1.3447   -0.7742    1.3308 C   0  0  0  0  0  0  0  0  0  0  0  0
    2.7223   -0.5732    1.5031 C   0  0  0  0  0  0  0  0  0  0  0  0
    0.5816   -1.2120    2.4262 C   0  0  0  0  0  0  0  0  0  0  0  0
    3.3156   -0.7487    2.7584 C   0  0  0  0  0  0  0  0  0  0  0  0
    1.1743   -1.3970    3.6791 C   0  0  0  0  0  0  0  0  0  0  0  0
    2.5408   -1.1573    3.8482 C   0  0  0  0  0  0  0  0  0  0  0  0
   -1.5702    1.4178   -0.2856 H   0  0  0  0  0  0  0  0  0  0  0  0
    1.3333    1.3545   -0.5618 H   0  0  0  0  0  0  0  0  0  0  0  0
    1.4042   -1.1560   -0.7472 H   0  0  0  0  0  0  0  0  0  0  0  0
   -0.2026   -1.2491   -0.0412 H   0  0  0  0  0  0  0  0  0  0  0  0
    3.3365   -0.2684    0.6618 H   0  0  0  0  0  0  0  0  0  0  0  0
   -0.4785   -1.4181    2.3087 H   0  0  0  0  0  0  0  0  0  0  0  0
    4.3795   -0.5720    2.8849 H   0  0  0  0  0  0  0  0  0  0  0  0
    0.5708   -1.7362    4.5153 H   0  0  0  0  0  0  0  0  0  0  0  0
    3.0020   -1.2978    4.8210 H   0  0  0  0  0  0  0  0  0  0  0  0
   -0.0287    1.6823   -2.8791 N   0  0  0  0  0  0  0  0  0  0  0  0
   -0.4987    1.6745   -4.2736 C   0  0  2  0  0  0  0  0  0  0  0  0
    0.4916    0.9629   -5.2276 C   0  0  0  0  0  0  0  0  0  0  0  0
    1.0666    1.5649   -6.1259 O   0  0  0  0  0  0  0  0  0  0  0  0
   -0.7681    3.1310   -4.6720 C   0  0  0  0  0  0  0  0  0  0  0  0
    0.4113    2.5272   -2.5228 H   0  0  0  0  0  0  0  0  0  0  0  0
   -1.4486    1.1327   -4.3362 H   0  0  0  0  0  0  0  0  0  0  0  0
    0.1552    3.7181   -4.6363 H   0  0  0  0  0  0  0  0  0  0  0  0
   -1.1668    3.1771   -5.6905 H   0  0  0  0  0  0  0  0  0  0  0  0
   -1.4987    3.5841   -3.9951 H   0  0  0  0  0  0  0  0  0  0  0  0
    0.7426   -0.3834   -5.0517 N   0  0  0  0  0  0  0  0  0  0  0  0
    1.6880   -1.1492   -5.8521 C   0  0  0  0  0  0  0  0  0  0  0  0
    0.2836   -0.8280   -4.2526 H   0  0  0  0  0  0  0  0  0  0  0  0
    1.4009   -1.1281   -6.9086 H   0  0  0  0  0  0  0  0  0  0  0  0
    2.6973   -0.7366   -5.7519 H   0  0  0  0  0  0  0  0  0  0  0  0
    1.7050   -2.1916   -5.5196 H   0  0  0  0  0  0  0  0  0  0  0  0
  1  2  2  0  0  0  0
  1  3  1  0  0  0  0
  1  7  1  0  0  0  0
  3  4  1  0  0  0  0
  3  5  1  0  0  0  0
  3  6  1  0  0  0  0
  7  8  1  0  0  0  0
  7 12  1  0  0  0  0
  8  9  1  0  0  0  0
  8 11  1  0  0  0  0
  8 13  1  0  0  0  0
  9 10  2  0  0  0  0
  9 17  1  0  0  0  0
 11 14  1  0  0  0  0
 11 15  1  0  0  0  0
 11 16  1  0  0  0  0
 17 18  1  0  0  0  0
 17 28  1  0  0  0  0
 18 19  1  0  0  0  0
 18 21  1  0  0  0  0
 18 29  1  0  0  0  0
 19 20  2  0  0  0  0
 19 37  1  0  0  0  0
 21 22  1  0  0  0  0
 21 30  1  0  0  0  0
 21 31  1  0  0  0  0
 22 23  1  0  0  0  0
 22 24  2  0  0  0  0
 23 25  2  0  0  0  0
 23 32  1  0  0  0  0
 24 26  1  0  0  0  0
 24 33  1  0  0  0  0
 25 27  1  0  0  0  0
 25 34  1  0  0  0  0
 26 27  2  0  0  0  0
 26 35  1  0  0  0  0
 27 36  1  0  0  0  0
 37 38  1  0  0  0  0
 37 42  1  0  0  0  0
 38 39  1  0  0  0  0
 38 41  1  0  0  0  0
 38 43  1  0  0  0  0
 39 40  2  0  0  0  0
 39 47  1  0  0  0  0
 41 44  1  0  0  0  0
 41 45  1  0  0  0  0
 41 46  1  0  0  0  0
 47 48  1  0  0  0  0
 47 49  1  0  0  0  0
 48 50  1  0  0  0  0
 48 51  1  0  0  0  0
 48 52  1  0  0  0  0
M  END
$$$$

  -OEChem-05262217163D

 52 52  0     1  0  0  0  0  0999 V2000
   -2.1331    0.2561    4.3131 C   0  0  0  0  0  0  0  0  0  0  0  0
   -2.6690   -0.6791    3.7392 O   0  0  0  0  0  0  0  0  0  0  0  0
   -1.6531    0.0910    5.7428 C   0  0  0  0  0  0  0  0  0  0  0  0
   -1.8627   -0.9223    6.0970 H   0  0  0  0  0  0  0  0  0  0  0  0
   -0.5760    0.2682    5.7973 H   0  0  0  0  0  0  0  0  0  0  0  0
   -2.1656    0.8042    6.3927 H   0  0  0  0  0  0  0  0  0  0  0  0
   -1.9288    1.4548    3.6622 N   0  0  0  0  0  0  0  0  0  0  0  0
   -2.0698    1.6154    2.2073 C   0  0  2  0  0  0  0  0  0  0  0  0
   -0.6950    1.6498    1.5082 C   0  0  0  0  0  0  0  0  0  0  0  0
    0.3083    1.9566    2.1404 O   0  0  0  0  0  0  0  0  0  0  0  0
   -2.8379    2.9149    1.9571 C   0  0  0  0  0  0  0  0  0  0  0  0
   -1.2605    2.0761    4.1137 H   0  0  0  0  0  0  0  0  0  0  0  0
   -2.6418    0.7859    1.7784 H   0  0  0  0  0  0  0  0  0  0  0  0
   -2.2824    3.7715    2.3528 H   0  0  0  0  0  0  0  0  0  0  0  0
   -2.9958    3.0680    0.8852 H   0  0  0  0  0  0  0  0  0  0  0  0
   -3.8159    2.8755    2.4474 H   0  0  0  0  0  0  0  0  0  0  0  0
   -0.5879    1.5727    0.1336 N   0  0  0  0  0  0  0  0  0  0  0  0
    0.4956    0.8497   -0.5631 C   0  0  2  0  0  0  0  0  0  0  0  0
    0.0606    0.6908   -2.0373 C   0  0  0  0  0  0  0  0  0  0  0  0
   -0.6934   -0.2046   -2.4023 O   0  0  0  0  0  0  0  0  0  0  0  0
    0.7930   -0.5991   -0.0668 C   0  0  0  0  0  0  0  0  0  0  0  0
    1.3644   -0.7480    1.3226 C   0  0  0  0  0  0  0  0  0  0  0  0
    2.7344   -0.5525    1.5511 C   0  0  0  0  0  0  0  0  0  0  0  0
    0.5612   -1.2140    2.3770 C   0  0  0  0  0  0  0  0  0  0  0  0
    3.2810   -0.7655    2.8218 C   0  0  0  0  0  0  0  0  0  0  0  0
    1.1073   -1.4356    3.6448 C   0  0  0  0  0  0  0  0  0  0  0  0
    2.4669   -1.2041    3.8705 C   0  0  0  0  0  0  0  0  0  0  0  0
   -1.4946    1.4672   -0.3170 H   0  0  0  0  0  0  0  0  0  0  0  0
    1.4174    1.4370   -0.5088 H   0  0  0  0  0  0  0  0  0  0  0  0
    1.4961   -1.0675   -0.7641 H   0  0  0  0  0  0  0  0  0  0  0  0
   -0.1325   -1.1832   -0.1137 H   0  0  0  0  0  0  0  0  0  0  0  0
    3.3796   -0.2243    0.7425 H   0  0  0  0  0  0  0  0  0  0  0  0
   -0.4946   -1.4133    2.2160 H   0  0  0  0  0  0  0  0  0  0  0  0
    4.3392   -0.5934    2.9921 H   0  0  0  0  0  0  0  0  0  0  0  0
    0.4722   -1.7954    4.4485 H   0  0  0  0  0  0  0  0  0  0  0  0
    2.8916   -1.3729    4.8554 H   0  0  0  0  0  0  0  0  0  0  0  0
    0.3976    1.6679   -2.9555 N   0  0  0  0  0  0  0  0  0  0  0  0
   -0.0221    1.6625   -4.3665 C   0  0  2  0  0  0  0  0  0  0  0  0
    0.7764    0.6449   -5.2181 C   0  0  0  0  0  0  0  0  0  0  0  0
    1.5070    1.0033   -6.1336 O   0  0  0  0  0  0  0  0  0  0  0  0
    0.1021    3.1010   -4.8847 C   0  0  0  0  0  0  0  0  0  0  0  0
    1.0190    2.4085   -2.6406 H   0  0  0  0  0  0  0  0  0  0  0  0
   -1.0774    1.3765   -4.4333 H   0  0  0  0  0  0  0  0  0  0  0  0
    1.1427    3.4386   -4.8404 H   0  0  0  0  0  0  0  0  0  0  0  0
   -0.2358    3.1595   -5.9244 H   0  0  0  0  0  0  0  0  0  0  0  0
   -0.5129    3.7783   -4.2844 H   0  0  0  0  0  0  0  0  0  0  0  0
    0.6715   -0.7013   -4.9288 N   0  0  0  0  0  0  0  0  0  0  0  0
    1.4101   -1.7460   -5.6250 C   0  0  0  0  0  0  0  0  0  0  0  0
    0.0908   -0.9468   -4.1231 H   0  0  0  0  0  0  0  0  0  0  0  0
    1.1601   -1.7462   -6.6910 H   0  0  0  0  0  0  0  0  0  0  0  0
    2.4885   -1.5909   -5.5152 H   0  0  0  0  0  0  0  0  0  0  0  0
    1.1572   -2.7268   -5.2107 H   0  0  0  0  0  0  0  0  0  0  0  0
  1  2  2  0  0  0  0
  1  3  1  0  0  0  0
  1  7  1  0  0  0  0
  3  4  1  0  0  0  0
  3  5  1  0  0  0  0
  3  6  1  0  0  0  0
  7  8  1  0  0  0  0
  7 12  1  0  0  0  0
  8  9  1  0  0  0  0
  8 11  1  0  0  0  0
  8 13  1  0  0  0  0
  9 10  2  0  0  0  0
  9 17  1  0  0  0  0
 11 14  1  0  0  0  0
 11 15  1  0  0  0  0
 11 16  1  0  0  0  0
 17 18  1  0  0  0  0
 17 28  1  0  0  0  0
 18 19  1  0  0  0  0
 18 21  1  0  0  0  0
 18 29  1  0  0  0  0
 19 20  2  0  0  0  0
 19 37  1  0  0  0  0
 21 22  1  0  0  0  0
 21 30  1  0  0  0  0
 21 31  1  0  0  0  0
 22 23  1  0  0  0  0
 22 24  2  0  0  0  0
 23 25  2  0  0  0  0
 23 32  1  0  0  0  0
 24 26  1  0  0  0  0
 24 33  1  0  0  0  0
 25 27  1  0  0  0  0
 25 34  1  0  0  0  0
 26 27  2  0  0  0  0
 26 35  1  0  0  0  0
 27 36  1  0  0  0  0
 37 38  1  0  0  0  0
 37 42  1  0  0  0  0
 38 39  1  0  0  0  0
 38 41  1  0  0  0  0
 38 43  1  0  0  0  0
 39 40  2  0  0  0  0
 39 47  1  0  0  0  0
 41 44  1  0  0  0  0
 41 45  1  0  0  0  0
 41 46  1  0  0  0  0
 47 48  1  0  0  0  0
 47 49  1  0  0  0  0
 48 50  1  0  0  0  0
 48 51  1  0  0  0  0
 48 52  1  0  0  0  0
M  END
$$$$

  -OEChem-05262217163D

 52 52  0     1  0  0  0  0  0999 V2000
   -2.2296    0.1917    4.1495 C   0  0  0  0  0  0  0  0  0  0  0  0
   -2.7008   -0.7242    3.4935 O   0  0  0  0  0  0  0  0  0  0  0  0
   -1.8461   -0.0348    5.5992 C   0  0  0  0  0  0  0  0  0  0  0  0
   -1.9847   -1.0861    5.8666 H   0  0  0  0  0  0  0  0  0  0  0  0
   -0.7978    0.2328    5.7540 H   0  0  0  0  0  0  0  0  0  0  0  0
   -2.4728    0.5802    6.2494 H   0  0  0  0  0  0  0  0  0  0  0  0
   -2.0144    1.4273    3.5763 N   0  0  0  0  0  0  0  0  0  0  0  0
   -2.0674    1.6562    2.1254 C   0  0  2  0  0  0  0  0  0  0  0  0
   -0.6579    1.6531    1.4987 C   0  0  0  0  0  0  0  0  0  0  0  0
    0.3195    1.9394    2.1792 O   0  0  0  0  0  0  0  0  0  0  0  0
   -2.7604    3.0010    1.8939 C   0  0  0  0  0  0  0  0  0  0  0  0
   -1.3961    2.0411    4.1022 H   0  0  0  0  0  0  0  0  0  0  0  0
   -2.6556    0.8750    1.6323 H   0  0  0  0  0  0  0  0  0  0  0  0
   -2.1845    3.8132    2.3490 H   0  0  0  0  0  0  0  0  0  0  0  0
   -2.8596    3.2033    0.8231 H   0  0  0  0  0  0  0  0  0  0  0  0
   -3.7612    2.9913    2.3369 H   0  0  0  0  0  0  0  0  0  0  0  0
   -0.4938    1.5672    0.1311 N   0  0  0  0  0  0  0  0  0  0  0  0
    0.6233    0.8639   -0.5282 C   0  0  2  0  0  0  0  0  0  0  0  0
    0.2306    0.6971   -2.0100 C   0  0  0  0  0  0  0  0  0  0  0  0
   -0.7219   -0.0049   -2.3336 O   0  0  0  0  0  0  0  0  0  0  0  0
    0.9247   -0.5853   -0.0420 C   0  0  0  0  0  0  0  0  0  0  0  0
    1.4464   -0.7420    1.3658 C   0  0  0  0  0  0  0  0  0  0  0  0
    2.8042   -0.5273    1.6465 C   0  0  0  0  0  0  0  0  0  0  0  0
    0.6113   -1.2262    2.3862 C   0  0  0  0  0  0  0  0  0  0  0  0
    3.3071   -0.7438    2.9345 C   0  0  0  0  0  0  0  0  0  0  0  0
    1.1133   -1.4482    3.6722 C   0  0  0  0  0  0  0  0  0  0  0  0
    2.4608   -1.2011    3.9490 C   0  0  0  0  0  0  0  0  0  0  0  0
   -1.3794    1.4539   -0.3596 H   0  0  0  0  0  0  0  0  0  0  0  0
    1.5321    1.4669   -0.4416 H   0  0  0  0  0  0  0  0  0  0  0  0
    1.6606   -1.0337   -0.7182 H   0  0  0  0  0  0  0  0  0  0  0  0
    0.0108   -1.1826   -0.1327 H   0  0  0  0  0  0  0  0  0  0  0  0
    3.4745   -0.1824    0.8658 H   0  0  0  0  0  0  0  0  0  0  0  0
   -0.4349   -1.4373    2.1841 H   0  0  0  0  0  0  0  0  0  0  0  0
    4.3560   -0.5594    3.1461 H   0  0  0  0  0  0  0  0  0  0  0  0
    0.4550   -1.8200    4.4513 H   0  0  0  0  0  0  0  0  0  0  0  0
    2.8516   -1.3716    4.9476 H   0  0  0  0  0  0  0  0  0  0  0  0
    0.8183    1.4910   -2.9774 N   0  0  0  0  0  0  0  0  0  0  0  0
    0.4102    1.5134   -4.3912 C   0  0  2  0  0  0  0  0  0  0  0  0
    0.9125    0.2747   -5.1734 C   0  0  0  0  0  0  0  0  0  0  0  0
    1.7018    0.3770   -6.1044 O   0  0  0  0  0  0  0  0  0  0  0  0
    0.9045    2.8370   -4.9888 C   0  0  0  0  0  0  0  0  0  0  0  0
    1.5891    2.0878   -2.6894 H   0  0  0  0  0  0  0  0  0  0  0  0
   -0.6834    1.5098   -4.4552 H   0  0  0  0  0  0  0  0  0  0  0  0
    1.9975    2.8914   -4.9567 H   0  0  0  0  0  0  0  0  0  0  0  0
    0.5851    2.9231   -6.0325 H   0  0  0  0  0  0  0  0  0  0  0  0
    0.4939    3.6850   -4.4322 H   0  0  0  0  0  0  0  0  0  0  0  0
    0.4656   -0.9789   -4.8047 N   0  0  0  0  0  0  0  0  0  0  0  0
    0.8920   -2.2185   -5.4394 C   0  0  0  0  0  0  0  0  0  0  0  0
   -0.1574   -1.0168   -3.9939 H   0  0  0  0  0  0  0  0  0  0  0  0
    0.5693   -2.2433   -6.4854 H   0  0  0  0  0  0  0  0  0  0  0  0
    1.9824   -2.3131   -5.4037 H   0  0  0  0  0  0  0  0  0  0  0  0
    0.4540   -3.0768   -4.9209 H   0  0  0  0  0  0  0  0  0  0  0  0
  1  2  2  0  0  0  0
  1  3  1  0  0  0  0
  1  7  1  0  0  0  0
  3  4  1  0  0  0  0
  3  5  1  0  0  0  0
  3  6  1  0  0  0  0
  7  8  1  0  0  0  0
  7 12  1  0  0  0  0
  8  9  1  0  0  0  0
  8 11  1  0  0  0  0
  8 13  1  0  0  0  0
  9 10  2  0  0  0  0
  9 17  1  0  0  0  0
 11 14  1  0  0  0  0
 11 15  1  0  0  0  0
 11 16  1  0  0  0  0
 17 18  1  0  0  0  0
 17 28  1  0  0  0  0
 18 19  1  0  0  0  0
 18 21  1  0  0  0  0
 18 29  1  0  0  0  0
 19 20  2  0  0  0  0
 19 37  1  0  0  0  0
 21 22  1  0  0  0  0
 21 30  1  0  0  0  0
 21 31  1  0  0  0  0
 22 23  1  0  0  0  0
 22 24  2  0  0  0  0
 23 25  2  0  0  0  0
 23 32  1  0  0  0  0
 24 26  1  0  0  0  0
 24 33  1  0  0  0  0
 25 27  1  0  0  0  0
 25 34  1  0  0  0  0
 26 27  2  0  0  0  0
 26 35  1  0  0  0  0
 27 36  1  0  0  0  0
 37 38  1  0  0  0  0
 37 42  1  0  0  0  0
 38 39  1  0  0  0  0
 38 41  1  0  0  0  0
 38 43  1  0  0  0  0
 39 40  2  0  0  0  0
 39 47  1  0  0  0  0
 41 44  1  0  0  0  0
 41 45  1  0  0  0  0
 41 46  1  0  0  0  0
 47 48  1  0  0  0  0
 47 49  1  0  0  0  0
 48 50  1  0  0  0  0
 48 51  1  0  0  0  0
 48 52  1  0  0  0  0
M  END
$$$$

  -OEChem-05262217163D

 52 52  0     1  0  0  0  0  0999 V2000
   -2.1337    0.3594    4.3698 C   0  0  0  0  0  0  0  0  0  0  0  0
   -2.7063   -0.5540    3.7959 O   0  0  0  0  0  0  0  0  0  0  0  0
   -1.6302    0.1641    5.7872 C   0  0  0  0  0  0  0  0  0  0  0  0
   -1.8888   -0.8361    6.1461 H   0  0  0  0  0  0  0  0  0  0  0  0
   -0.5436    0.2790    5.8142 H   0  0  0  0  0  0  0  0  0  0  0  0
   -2.0837    0.9050    6.4498 H   0  0  0  0  0  0  0  0  0  0  0  0
   -1.9027    1.5594    3.7307 N   0  0  0  0  0  0  0  0  0  0  0  0
   -2.0285    1.7307    2.2755 C   0  0  2  0  0  0  0  0  0  0  0  0
   -0.6455    1.7321    1.5908 C   0  0  0  0  0  0  0  0  0  0  0  0
    0.3649    1.9567    2.2471 O   0  0  0  0  0  0  0  0  0  0  0  0
   -2.7623    3.0505    2.0263 C   0  0  0  0  0  0  0  0  0  0  0  0
   -1.2092    2.1514    4.1834 H   0  0  0  0  0  0  0  0  0  0  0  0
   -2.6162    0.9173    1.8367 H   0  0  0  0  0  0  0  0  0  0  0  0
   -2.1848    3.8916    2.4236 H   0  0  0  0  0  0  0  0  0  0  0  0
   -2.9151    3.2087    0.9544 H   0  0  0  0  0  0  0  0  0  0  0  0
   -3.7413    3.0368    2.5157 H   0  0  0  0  0  0  0  0  0  0  0  0
   -0.5268    1.6889    0.2165 N   0  0  0  0  0  0  0  0  0  0  0  0
    0.5419    0.9577   -0.4907 C   0  0  2  0  0  0  0  0  0  0  0  0
    0.1230    0.8466   -1.9698 C   0  0  0  0  0  0  0  0  0  0  0  0
   -0.9759    0.3898   -2.2693 O   0  0  0  0  0  0  0  0  0  0  0  0
    0.7592   -0.5259   -0.0716 C   0  0  0  0  0  0  0  0  0  0  0  0
    1.2821   -0.7777    1.3214 C   0  0  0  0  0  0  0  0  0  0  0  0
    2.6520   -0.6587    1.5963 C   0  0  0  0  0  0  0  0  0  0  0  0
    0.4262   -1.2539    2.3283 C   0  0  0  0  0  0  0  0  0  0  0  0
    3.1512   -0.9674    2.8664 C   0  0  0  0  0  0  0  0  0  0  0  0
    0.9245   -1.5699    3.5958 C   0  0  0  0  0  0  0  0  0  0  0  0
    2.2874   -1.4217    3.8679 C   0  0  0  0  0  0  0  0  0  0  0  0
   -1.4267    1.6259   -0.2583 H   0  0  0  0  0  0  0  0  0  0  0  0
    1.4830    1.5085   -0.3981 H   0  0  0  0  0  0  0  0  0  0  0  0
    1.4627   -0.9870   -0.7738 H   0  0  0  0  0  0  0  0  0  0  0  0
   -0.1897   -1.0623   -0.1824 H   0  0  0  0  0  0  0  0  0  0  0  0
    3.3344   -0.3197    0.8234 H   0  0  0  0  0  0  0  0  0  0  0  0
   -0.6337   -1.3876    2.1308 H   0  0  0  0  0  0  0  0  0  0  0  0
    4.2117   -0.8595    3.0713 H   0  0  0  0  0  0  0  0  0  0  0  0
    0.2489   -1.9380    4.3620 H   0  0  0  0  0  0  0  0  0  0  0  0
    2.6762   -1.6670    4.8516 H   0  0  0  0  0  0  0  0  0  0  0  0
    0.9149    1.3902   -2.9635 N   0  0  0  0  0  0  0  0  0  0  0  0
    0.6769    1.1131   -4.3852 C   0  0  2  0  0  0  0  0  0  0  0  0
    1.2771   -0.2494   -4.7883 C   0  0  0  0  0  0  0  0  0  0  0  0
    2.4649   -0.4753   -4.5870 O   0  0  0  0  0  0  0  0  0  0  0  0
    1.2961    2.2492   -5.2032 C   0  0  0  0  0  0  0  0  0  0  0  0
    1.8677    1.6246   -2.6953 H   0  0  0  0  0  0  0  0  0  0  0  0
   -0.3981    1.0954   -4.5940 H   0  0  0  0  0  0  0  0  0  0  0  0
    2.3746    2.3113   -5.0245 H   0  0  0  0  0  0  0  0  0  0  0  0
    1.1320    2.0804   -6.2720 H   0  0  0  0  0  0  0  0  0  0  0  0
    0.8409    3.2060   -4.9295 H   0  0  0  0  0  0  0  0  0  0  0  0
    0.4792   -1.2279   -5.3504 N   0  0  0  0  0  0  0  0  0  0  0  0
    0.9619   -2.5740   -5.6332 C   0  0  0  0  0  0  0  0  0  0  0  0
   -0.5244   -1.0665   -5.3305 H   0  0  0  0  0  0  0  0  0  0  0  0
    1.8411   -2.5384   -6.2853 H   0  0  0  0  0  0  0  0  0  0  0  0
    1.2328   -3.0862   -4.7041 H   0  0  0  0  0  0  0  0  0  0  0  0
    0.1850   -3.1565   -6.1377 H   0  0  0  0  0  0  0  0  0  0  0  0
  1  2  2  0  0  0  0
  1  3  1  0  0  0  0
  1  7  1  0  0  0  0
  3  4  1  0  0  0  0
  3  5  1  0  0  0  0
  3  6  1  0  0  0  0
  7  8  1  0  0  0  0
  7 12  1  0  0  0  0
  8  9  1  0  0  0  0
  8 11  1  0  0  0  0
  8 13  1  0  0  0  0
  9 10  2  0  0  0  0
  9 17  1  0  0  0  0
 11 14  1  0  0  0  0
 11 15  1  0  0  0  0
 11 16  1  0  0  0  0
 17 18  1  0  0  0  0
 17 28  1  0  0  0  0
 18 19  1  0  0  0  0
 18 21  1  0  0  0  0
 18 29  1  0  0  0  0
 19 20  2  0  0  0  0
 19 37  1  0  0  0  0
 21 22  1  0  0  0  0
 21 30  1  0  0  0  0
 21 31  1  0  0  0  0
 22 23  1  0  0  0  0
 22 24  2  0  0  0  0
 23 25  2  0  0  0  0
 23 32  1  0  0  0  0
 24 26  1  0  0  0  0
 24 33  1  0  0  0  0
 25 27  1  0  0  0  0
 25 34  1  0  0  0  0
 26 27  2  0  0  0  0
 26 35  1  0  0  0  0
 27 36  1  0  0  0  0
 37 38  1  0  0  0  0
 37 42  1  0  0  0  0
 38 39  1  0  0  0  0
 38 41  1  0  0  0  0
 38 43  1  0  0  0  0
 39 40  2  0  0  0  0
 39 47  1  0  0  0  0
 41 44  1  0  0  0  0
 41 45  1  0  0  0  0
 41 46  1  0  0  0  0
 47 48  1  0  0  0  0
 47 49  1  0  0  0  0
 48 50  1  0  0  0  0
 48 51  1  0  0  0  0
 48 52  1  0  0  0  0
M  END
$$$$

  -OEChem-05262217163D

 52 52  0     1  0  0  0  0  0999 V2000
   -2.2019    0.3203    4.2670 C   0  0  0  0  0  0  0  0  0  0  0  0
   -2.7488   -0.5747    3.6415 O   0  0  0  0  0  0  0  0  0  0  0  0
   -1.7794    0.0894    5.7056 C   0  0  0  0  0  0  0  0  0  0  0  0
   -2.0623   -0.9172    6.0259 H   0  0  0  0  0  0  0  0  0  0  0  0
   -0.6955    0.1972    5.7968 H   0  0  0  0  0  0  0  0  0  0  0  0
   -2.2674    0.8168    6.3591 H   0  0  0  0  0  0  0  0  0  0  0  0
   -1.9367    1.5355    3.6719 N   0  0  0  0  0  0  0  0  0  0  0  0
   -2.0090    1.7510    2.2193 C   0  0  2  0  0  0  0  0  0  0  0  0
   -0.6044    1.7442    1.5804 C   0  0  0  0  0  0  0  0  0  0  0  0
    0.3866    1.9543    2.2702 O   0  0  0  0  0  0  0  0  0  0  0  0
   -2.7108    3.0908    1.9843 C   0  0  0  0  0  0  0  0  0  0  0  0
   -1.2604    2.1113    4.1690 H   0  0  0  0  0  0  0  0  0  0  0  0
   -2.5971    0.9625    1.7378 H   0  0  0  0  0  0  0  0  0  0  0  0
   -2.1336    3.9099    2.4253 H   0  0  0  0  0  0  0  0  0  0  0  0
   -2.8231    3.2823    0.9128 H   0  0  0  0  0  0  0  0  0  0  0  0
   -3.7065    3.0810    2.4393 H   0  0  0  0  0  0  0  0  0  0  0  0
   -0.4451    1.7010    0.2105 N   0  0  0  0  0  0  0  0  0  0  0  0
    0.6424    0.9797   -0.4779 C   0  0  2  0  0  0  0  0  0  0  0  0
    0.2564    0.8726   -1.9655 C   0  0  0  0  0  0  0  0  0  0  0  0
   -0.9028    0.6238   -2.2847 O   0  0  0  0  0  0  0  0  0  0  0  0
    0.8496   -0.5077   -0.0696 C   0  0  0  0  0  0  0  0  0  0  0  0
    1.3367   -0.7685    1.3349 C   0  0  0  0  0  0  0  0  0  0  0  0
    2.6991   -0.6491    1.6460 C   0  0  0  0  0  0  0  0  0  0  0  0
    0.4558   -1.2485    2.3182 C   0  0  0  0  0  0  0  0  0  0  0  0
    3.1649   -0.9567    2.9293 C   0  0  0  0  0  0  0  0  0  0  0  0
    0.9209   -1.5636    3.5987 C   0  0  0  0  0  0  0  0  0  0  0  0
    2.2754   -1.4116    3.9076 C   0  0  0  0  0  0  0  0  0  0  0  0
   -1.3283    1.6541   -0.2976 H   0  0  0  0  0  0  0  0  0  0  0  0
    1.5787    1.5342   -0.3631 H   0  0  0  0  0  0  0  0  0  0  0  0
    1.5712   -0.9642   -0.7566 H   0  0  0  0  0  0  0  0  0  0  0  0
   -0.0968   -1.0416   -0.2114 H   0  0  0  0  0  0  0  0  0  0  0  0
    3.4020   -0.3087    0.8925 H   0  0  0  0  0  0  0  0  0  0  0  0
   -0.5984   -1.3832    2.0923 H   0  0  0  0  0  0  0  0  0  0  0  0
    4.2193   -0.8458    3.1633 H   0  0  0  0  0  0  0  0  0  0  0  0
    0.2261   -1.9328    4.3466 H   0  0  0  0  0  0  0  0  0  0  0  0
    2.6379   -1.6537    4.9019 H   0  0  0  0  0  0  0  0  0  0  0  0
    1.1859    1.1398   -2.9527 N   0  0  0  0  0  0  0  0  0  0  0  0
    0.9332    0.8136   -4.3611 C   0  0  2  0  0  0  0  0  0  0  0  0
    1.1913   -0.6817   -4.6362 C   0  0  0  0  0  0  0  0  0  0  0  0
    2.2617   -1.1841   -4.3135 O   0  0  0  0  0  0  0  0  0  0  0  0
    1.8406    1.6921   -5.2253 C   0  0  0  0  0  0  0  0  0  0  0  0
    2.1581    1.1597   -2.6544 H   0  0  0  0  0  0  0  0  0  0  0  0
   -0.1057    1.0415   -4.6220 H   0  0  0  0  0  0  0  0  0  0  0  0
    2.8943    1.5006   -4.9974 H   0  0  0  0  0  0  0  0  0  0  0  0
    1.6724    1.4826   -6.2862 H   0  0  0  0  0  0  0  0  0  0  0  0
    1.6298    2.7503   -5.0428 H   0  0  0  0  0  0  0  0  0  0  0  0
    0.2181   -1.4628   -5.2298 N   0  0  0  0  0  0  0  0  0  0  0  0
    0.3608   -2.9023   -5.4086 C   0  0  0  0  0  0  0  0  0  0  0  0
   -0.7062   -1.0503   -5.3239 H   0  0  0  0  0  0  0  0  0  0  0  0
    1.2400   -3.1262   -6.0219 H   0  0  0  0  0  0  0  0  0  0  0  0
    0.4707   -3.4004   -4.4395 H   0  0  0  0  0  0  0  0  0  0  0  0
   -0.5218   -3.3102   -5.9105 H   0  0  0  0  0  0  0  0  0  0  0  0
  1  2  2  0  0  0  0
  1  3  1  0  0  0  0
  1  7  1  0  0  0  0
  3  4  1  0  0  0  0
  3  5  1  0  0  0  0
  3  6  1  0  0  0  0
  7  8  1  0  0  0  0
  7 12  1  0  0  0  0
  8  9  1  0  0  0  0
  8 11  1  0  0  0  0
  8 13  1  0  0  0  0
  9 10  2  0  0  0  0
  9 17  1  0  0  0  0
 11 14  1  0  0  0  0
 11 15  1  0  0  0  0
 11 16  1  0  0  0  0
 17 18  1  0  0  0  0
 17 28  1  0  0  0  0
 18 19  1  0  0  0  0
 18 21  1  0  0  0  0
 18 29  1  0  0  0  0
 19 20  2  0  0  0  0
 19 37  1  0  0  0  0
 21 22  1  0  0  0  0
 21 30  1  0  0  0  0
 21 31  1  0  0  0  0
 22 23  1  0  0  0  0
 22 24  2  0  0  0  0
 23 25  2  0  0  0  0
 23 32  1  0  0  0  0
 24 26  1  0  0  0  0
 24 33  1  0  0  0  0
 25 27  1  0  0  0  0
 25 34  1  0  0  0  0
 26 27  2  0  0  0  0
 26 35  1  0  0  0  0
 27 36  1  0  0  0  0
 37 38  1  0  0  0  0
 37 42  1  0  0  0  0
 38 39  1  0  0  0  0
 38 41  1  0  0  0  0
 38 43  1  0  0  0  0
 39 40  2  0  0  0  0
 39 47  1  0  0  0  0
 41 44  1  0  0  0  0
 41 45  1  0  0  0  0
 41 46  1  0  0  0  0
 47 48  1  0  0  0  0
 47 49  1  0  0  0  0
 48 50  1  0  0  0  0
 48 51  1  0  0  0  0
 48 52  1  0  0  0  0
M  END
$$$$

  -OEChem-05262217163D

 52 52  0     1  0  0  0  0  0999 V2000
   -2.2458    0.3112    4.1796 C   0  0  0  0  0  0  0  0  0  0  0  0
   -2.7852   -0.5743    3.5342 O   0  0  0  0  0  0  0  0  0  0  0  0
   -1.8406    0.0582    5.6193 C   0  0  0  0  0  0  0  0  0  0  0  0
   -2.1277   -0.9530    5.9201 H   0  0  0  0  0  0  0  0  0  0  0  0
   -0.7579    0.1641    5.7249 H   0  0  0  0  0  0  0  0  0  0  0  0
   -2.3363    0.7755    6.2777 H   0  0  0  0  0  0  0  0  0  0  0  0
   -1.9678    1.5331    3.6045 N   0  0  0  0  0  0  0  0  0  0  0  0
   -2.0039    1.7615    2.1524 C   0  0  2  0  0  0  0  0  0  0  0  0
   -0.5851    1.7435    1.5461 C   0  0  0  0  0  0  0  0  0  0  0  0
    0.3915    1.9323    2.2624 O   0  0  0  0  0  0  0  0  0  0  0  0
   -2.6827    3.1116    1.9115 C   0  0  0  0  0  0  0  0  0  0  0  0
   -1.3015    2.1019    4.1224 H   0  0  0  0  0  0  0  0  0  0  0  0
   -2.5900    0.9842    1.6505 H   0  0  0  0  0  0  0  0  0  0  0  0
   -2.1096    3.9185    2.3793 H   0  0  0  0  0  0  0  0  0  0  0  0
   -2.7602    3.3160    0.8393 H   0  0  0  0  0  0  0  0  0  0  0  0
   -3.6916    3.1074    2.3356 H   0  0  0  0  0  0  0  0  0  0  0  0
   -0.3938    1.7160    0.1798 N   0  0  0  0  0  0  0  0  0  0  0  0
    0.7114    1.0094   -0.4960 C   0  0  2  0  0  0  0  0  0  0  0  0
    0.3659    0.9136   -1.9964 C   0  0  0  0  0  0  0  0  0  0  0  0
   -0.8058    0.8506   -2.3595 O   0  0  0  0  0  0  0  0  0  0  0  0
    0.8943   -0.4858   -0.1017 C   0  0  0  0  0  0  0  0  0  0  0  0
    1.3380   -0.7756    1.3116 C   0  0  0  0  0  0  0  0  0  0  0  0
    2.6917   -0.6757    1.6653 C   0  0  0  0  0  0  0  0  0  0  0  0
    0.4233   -1.2652    2.2590 C   0  0  0  0  0  0  0  0  0  0  0  0
    3.1165   -1.0163    2.9545 C   0  0  0  0  0  0  0  0  0  0  0  0
    0.8470   -1.6103    3.5457 C   0  0  0  0  0  0  0  0  0  0  0  0
    2.1936   -1.4812    3.8964 C   0  0  0  0  0  0  0  0  0  0  0  0
   -1.2617    1.6932   -0.3561 H   0  0  0  0  0  0  0  0  0  0  0  0
    1.6459    1.5597   -0.3503 H   0  0  0  0  0  0  0  0  0  0  0  0
    1.6310   -0.9424   -0.7723 H   0  0  0  0  0  0  0  0  0  0  0  0
   -0.0531   -1.0070   -0.2790 H   0  0  0  0  0  0  0  0  0  0  0  0
    3.4196   -0.3250    0.9408 H   0  0  0  0  0  0  0  0  0  0  0  0
   -0.6254   -1.3838    2.0012 H   0  0  0  0  0  0  0  0  0  0  0  0
    4.1647   -0.9230    3.2220 H   0  0  0  0  0  0  0  0  0  0  0  0
    0.1266   -1.9851    4.2662 H   0  0  0  0  0  0  0  0  0  0  0  0
    2.5238   -1.7479    4.8957 H   0  0  0  0  0  0  0  0  0  0  0  0
    1.3696    0.8910   -2.9469 N   0  0  0  0  0  0  0  0  0  0  0  0
    1.1145    0.4950   -4.3366 C   0  0  2  0  0  0  0  0  0  0  0  0
    1.0854   -1.0411   -4.4712 C   0  0  0  0  0  0  0  0  0  0  0  0
    2.0513   -1.7022   -4.1076 O   0  0  0  0  0  0  0  0  0  0  0  0
    2.2092    1.1043   -5.2161 C   0  0  0  0  0  0  0  0  0  0  0  0
    2.3130    0.7465   -2.5955 H   0  0  0  0  0  0  0  0  0  0  0  0
    0.1517    0.8930   -4.6740 H   0  0  0  0  0  0  0  0  0  0  0  0
    3.1960    0.7385   -4.9137 H   0  0  0  0  0  0  0  0  0  0  0  0
    2.0471    0.8354   -6.2646 H   0  0  0  0  0  0  0  0  0  0  0  0
    2.2001    2.1954   -5.1326 H   0  0  0  0  0  0  0  0  0  0  0  0
   -0.0366   -1.6790   -4.9648 N   0  0  0  0  0  0  0  0  0  0  0  0
   -0.1804   -3.1296   -4.9733 C   0  0  0  0  0  0  0  0  0  0  0  0
   -0.8718   -1.1095   -5.0738 H   0  0  0  0  0  0  0  0  0  0  0  0
    0.6721   -3.5987   -5.4761 H   0  0  0  0  0  0  0  0  0  0  0  0
   -0.2408   -3.5136   -3.9496 H   0  0  0  0  0  0  0  0  0  0  0  0
   -1.0918   -3.4153   -5.5072 H   0  0  0  0  0  0  0  0  0  0  0  0
  1  2  2  0  0  0  0
  1  3  1  0  0  0  0
  1  7  1  0  0  0  0
  3  4  1  0  0  0  0
  3  5  1  0  0  0  0
  3  6  1  0  0  0  0
  7  8  1  0  0  0  0
  7 12  1  0  0  0  0
  8  9  1  0  0  0  0
  8 11  1  0  0  0  0
  8 13  1  0  0  0  0
  9 10  2  0  0  0  0
  9 17  1  0  0  0  0
 11 14  1  0  0  0  0
 11 15  1  0  0  0  0
 11 16  1  0  0  0  0
 17 18  1  0  0  0  0
 17 28  1  0  0  0  0
 18 19  1  0  0  0  0
 18 21  1  0  0  0  0
 18 29  1  0  0  0  0
 19 20  2  0  0  0  0
 19 37  1  0  0  0  0
 21 22  1  0  0  0  0
 21 30  1  0  0  0  0
 21 31  1  0  0  0  0
 22 23  1  0  0  0  0
 22 24  2  0  0  0  0
 23 25  2  0  0  0  0
 23 32  1  0  0  0  0
 24 26  1  0  0  0  0
 24 33  1  0  0  0  0
 25 27  1  0  0  0  0
 25 34  1  0  0  0  0
 26 27  2  0  0  0  0
 26 35  1  0  0  0  0
 27 36  1  0  0  0  0
 37 38  1  0  0  0  0
 37 42  1  0  0  0  0
 38 39  1  0  0  0  0
 38 41  1  0  0  0  0
 38 43  1  0  0  0  0
 39 40  2  0  0  0  0
 39 47  1  0  0  0  0
 41 44  1  0  0  0  0
 41 45  1  0  0  0  0
 41 46  1  0  0  0  0
 47 48  1  0  0  0  0
 47 49  1  0  0  0  0
 48 50  1  0  0  0  0
 48 51  1  0  0  0  0
 48 52  1  0  0  0  0
M  END
$$$$

  -OEChem-05262217163D

 52 52  0     1  0  0  0  0  0999 V2000
   -2.4124    0.1747    3.8587 C   0  0  0  0  0  0  0  0  0  0  0  0
   -2.8353   -0.6955    3.1132 O   0  0  0  0  0  0  0  0  0  0  0  0
   -2.1556   -0.1409    5.3201 C   0  0  0  0  0  0  0  0  0  0  0  0
   -2.4455   -1.1721    5.5403 H   0  0  0  0  0  0  0  0  0  0  0  0
   -1.0937   -0.0165    5.5460 H   0  0  0  0  0  0  0  0  0  0  0  0
   -2.7372    0.5315    5.9554 H   0  0  0  0  0  0  0  0  0  0  0  0
   -2.1286    1.4347    3.3751 N   0  0  0  0  0  0  0  0  0  0  0  0
   -2.0483    1.7360    1.9384 C   0  0  2  0  0  0  0  0  0  0  0  0
   -0.5965    1.6597    1.4225 C   0  0  0  0  0  0  0  0  0  0  0  0
    0.3380    1.8678    2.1868 O   0  0  0  0  0  0  0  0  0  0  0  0
   -2.6248    3.1372    1.7237 C   0  0  0  0  0  0  0  0  0  0  0  0
   -1.5448    2.0042    3.9834 H   0  0  0  0  0  0  0  0  0  0  0  0
   -2.6491    1.0247    1.3617 H   0  0  0  0  0  0  0  0  0  0  0  0
   -2.0358    3.8825    2.2681 H   0  0  0  0  0  0  0  0  0  0  0  0
   -2.6152    3.3960    0.6603 H   0  0  0  0  0  0  0  0  0  0  0  0
   -3.6588    3.1800    2.0800 H   0  0  0  0  0  0  0  0  0  0  0  0
   -0.3345    1.5760    0.0703 N   0  0  0  0  0  0  0  0  0  0  0  0
    0.8240    0.8989   -0.5459 C   0  0  2  0  0  0  0  0  0  0  0  0
    0.5275    0.7337   -2.0540 C   0  0  0  0  0  0  0  0  0  0  0  0
   -0.6243    0.8215   -2.4740 O   0  0  0  0  0  0  0  0  0  0  0  0
    1.0652   -0.5687   -0.0794 C   0  0  0  0  0  0  0  0  0  0  0  0
    1.4800   -0.7772    1.3562 C   0  0  0  0  0  0  0  0  0  0  0  0
    2.8168   -0.5977    1.7417 C   0  0  0  0  0  0  0  0  0  0  0  0
    0.5639   -1.2773    2.2966 C   0  0  0  0  0  0  0  0  0  0  0  0
    3.2197   -0.8637    3.0551 C   0  0  0  0  0  0  0  0  0  0  0  0
    0.9665   -1.5494    3.6077 C   0  0  0  0  0  0  0  0  0  0  0  0
    2.2938   -1.3365    3.9900 C   0  0  0  0  0  0  0  0  0  0  0  0
   -1.1701    1.5504   -0.5152 H   0  0  0  0  0  0  0  0  0  0  0  0
    1.7264    1.4998   -0.3977 H   0  0  0  0  0  0  0  0  0  0  0  0
    1.8436   -1.0212   -0.7023 H   0  0  0  0  0  0  0  0  0  0  0  0
    0.1486   -1.1412   -0.2612 H   0  0  0  0  0  0  0  0  0  0  0  0
    3.5480   -0.2398    1.0246 H   0  0  0  0  0  0  0  0  0  0  0  0
   -0.4688   -1.4597    2.0127 H   0  0  0  0  0  0  0  0  0  0  0  0
    4.2531   -0.7056    3.3482 H   0  0  0  0  0  0  0  0  0  0  0  0
    0.2462   -1.9324    4.3237 H   0  0  0  0  0  0  0  0  0  0  0  0
    2.6070   -1.5445    5.0087 H   0  0  0  0  0  0  0  0  0  0  0  0
    1.5352    0.4184   -2.9484 N   0  0  0  0  0  0  0  0  0  0  0  0
    1.3095    0.1287   -4.3728 C   0  0  2  0  0  0  0  0  0  0  0  0
    0.7233   -1.2871   -4.5935 C   0  0  0  0  0  0  0  0  0  0  0  0
    1.3730   -2.1753   -5.1310 O   0  0  0  0  0  0  0  0  0  0  0  0
    2.6426    0.3406   -5.1013 C   0  0  0  0  0  0  0  0  0  0  0  0
    2.4632    0.2531   -2.5682 H   0  0  0  0  0  0  0  0  0  0  0  0
    0.5892    0.8447   -4.7832 H   0  0  0  0  0  0  0  0  0  0  0  0
    3.4043   -0.3486   -4.7226 H   0  0  0  0  0  0  0  0  0  0  0  0
    2.5193    0.1624   -6.1744 H   0  0  0  0  0  0  0  0  0  0  0  0
    2.9964    1.3665   -4.9605 H   0  0  0  0  0  0  0  0  0  0  0  0
   -0.5482   -1.5657   -4.1327 N   0  0  0  0  0  0  0  0  0  0  0  0
   -1.1533   -2.8901   -4.1671 C   0  0  0  0  0  0  0  0  0  0  0  0
   -1.0035   -0.8225   -3.5972 H   0  0  0  0  0  0  0  0  0  0  0  0
   -1.1759   -3.2767   -5.1914 H   0  0  0  0  0  0  0  0  0  0  0  0
   -0.5867   -3.5858   -3.5395 H   0  0  0  0  0  0  0  0  0  0  0  0
   -2.1811   -2.8438   -3.7942 H   0  0  0  0  0  0  0  0  0  0  0  0
  1  2  2  0  0  0  0
  1  3  1  0  0  0  0
  1  7  1  0  0  0  0
  3  4  1  0  0  0  0
  3  5  1  0  0  0  0
  3  6  1  0  0  0  0
  7  8  1  0  0  0  0
  7 12  1  0  0  0  0
  8  9  1  0  0  0  0
  8 11  1  0  0  0  0
  8 13  1  0  0  0  0
  9 10  2  0  0  0  0
  9 17  1  0  0  0  0
 11 14  1  0  0  0  0
 11 15  1  0  0  0  0
 11 16  1  0  0  0  0
 17 18  1  0  0  0  0
 17 28  1  0  0  0  0
 18 19  1  0  0  0  0
 18 21  1  0  0  0  0
 18 29  1  0  0  0  0
 19 20  2  0  0  0  0
 19 37  1  0  0  0  0
 21 22  1  0  0  0  0
 21 30  1  0  0  0  0
 21 31  1  0  0  0  0
 22 23  1  0  0  0  0
 22 24  2  0  0  0  0
 23 25  2  0  0  0  0
 23 32  1  0  0  0  0
 24 26  1  0  0  0  0
 24 33  1  0  0  0  0
 25 27  1  0  0  0  0
 25 34  1  0  0  0  0
 26 27  2  0  0  0  0
 26 35  1  0  0  0  0
 27 36  1  0  0  0  0
 37 38  1  0  0  0  0
 37 42  1  0  0  0  0
 38 39  1  0  0  0  0
 38 41  1  0  0  0  0
 38 43  1  0  0  0  0
 39 40  2  0  0  0  0
 39 47  1  0  0  0  0
 41 44  1  0  0  0  0
 41 45  1  0  0  0  0
 41 46  1  0  0  0  0
 47 48  1  0  0  0  0
 47 49  1  0  0  0  0
 48 50  1  0  0  0  0
 48 51  1  0  0  0  0
 48 52  1  0  0  0  0
M  END
$$$$
